# generated using pymatgen
data_KCuCO3F
_symmetry_space_group_name_H-M   'P 1'
_cell_length_a   4.06587809
_cell_length_b   5.14786435
_cell_length_c   9.04262833
_cell_angle_alpha   90.00000000
_cell_angle_beta   90.00000000
_cell_angle_gamma   90.00000000
_symmetry_Int_Tables_number   1
_chemical_formula_structural   KCuCO3F
_chemical_formula_sum   'K2 Cu2 C2 O6 F2'
_cell_volume   189.26753589
_cell_formula_units_Z   2
loop_
 _symmetry_equiv_pos_site_id
 _symmetry_equiv_pos_as_xyz
  1  'x, y, z'
loop_
 _atom_site_type_symbol
 _atom_site_label
 _atom_site_symmetry_multiplicity
 _atom_site_fract_x
 _atom_site_fract_y
 _atom_site_fract_z
 _atom_site_occupancy
  K  K0  1  0.500000  0.710351  0.077349  1
  K  K1  1  0.500000  0.289649  0.577349  1
  Cu  Cu2  1  0.000000  0.791354  0.732336  1
  Cu  Cu3  1  0.000000  0.208646  0.232336  1
  C  C4  1  0.000000  0.784430  0.413655  1
  C  C5  1  0.000000  0.215570  0.913655  1
  O  O6  1  0.000000  0.330273  0.788928  1
  O  O7  1  0.000000  0.038599  0.423564  1
  O  O8  1  0.000000  0.648448  0.535348  1
  O  O9  1  0.000000  0.669727  0.288928  1
  O  O10  1  0.000000  0.351552  0.035348  1
  O  O11  1  0.000000  0.961401  0.923564  1
  F  F12  1  0.500000  0.804059  0.728821  1
  F  F13  1  0.500000  0.195941  0.228821  1
