# generated using pymatgen
data_CrHg(PbO3)2
_symmetry_space_group_name_H-M   'P 1'
_cell_length_a   6.59371506
_cell_length_b   7.34566700
_cell_length_c   7.99263003
_cell_angle_alpha   90.80943490
_cell_angle_beta   93.52878812
_cell_angle_gamma   110.00300446
_symmetry_Int_Tables_number   1
_chemical_formula_structural   CrHg(PbO3)2
_chemical_formula_sum   'Cr2 Hg2 Pb4 O12'
_cell_volume   362.82624062
_cell_formula_units_Z   2
loop_
 _symmetry_equiv_pos_site_id
 _symmetry_equiv_pos_as_xyz
  1  'x, y, z'
loop_
 _atom_site_type_symbol
 _atom_site_label
 _atom_site_symmetry_multiplicity
 _atom_site_fract_x
 _atom_site_fract_y
 _atom_site_fract_z
 _atom_site_occupancy
  Cr  Cr0  1  0.301024  0.234219  0.850693  1
  Cr  Cr1  1  0.698976  0.765781  0.149307  1
  Hg  Hg2  1  0.316309  0.301168  0.364205  1
  Hg  Hg3  1  0.683691  0.698832  0.635795  1
  Pb  Pb4  1  0.826714  0.264858  0.606903  1
  Pb  Pb5  1  0.225202  0.744112  0.857196  1
  Pb  Pb6  1  0.774798  0.255888  0.142804  1
  Pb  Pb7  1  0.173286  0.735142  0.393097  1
  O  O8  1  0.053206  0.388334  0.370084  1
  O  O9  1  0.946794  0.611666  0.629916  1
  O  O10  1  0.411186  0.767375  0.624933  1
  O  O11  1  0.660404  0.857793  0.965955  1
  O  O12  1  0.456764  0.655278  0.222662  1
  O  O13  1  0.156601  0.051827  0.718708  1
  O  O14  1  0.163269  0.388795  0.868006  1
  O  O15  1  0.339596  0.142207  0.034045  1
  O  O16  1  0.588814  0.232625  0.375067  1
  O  O17  1  0.843399  0.948173  0.281292  1
  O  O18  1  0.836731  0.611205  0.131994  1
  O  O19  1  0.543236  0.344722  0.777338  1
