# generated using pymatgen
data_Ge4Te7As2
_symmetry_space_group_name_H-M   'P 1'
_cell_length_a   23.98712139
_cell_length_b   23.98712139
_cell_length_c   23.98712139
_cell_angle_alpha   10.02558890
_cell_angle_beta   10.02558890
_cell_angle_gamma   10.02558890
_symmetry_Int_Tables_number   1
_chemical_formula_structural   Ge4Te7As2
_chemical_formula_sum   'Ge4 Te7 As2'
_cell_volume   363.16944148
_cell_formula_units_Z   1
loop_
 _symmetry_equiv_pos_site_id
 _symmetry_equiv_pos_as_xyz
  1  'x, y, z'
loop_
 _atom_site_type_symbol
 _atom_site_label
 _atom_site_symmetry_multiplicity
 _atom_site_fract_x
 _atom_site_fract_y
 _atom_site_fract_z
 _atom_site_occupancy
  Ge  Ge0  1  0.074646  0.074646  0.074646  1
  Ge  Ge1  1  0.308572  0.308572  0.308572  1
  Ge  Ge2  1  0.691428  0.691428  0.691428  1
  Ge  Ge3  1  0.925354  0.925354  0.925354  1
  Te  Te4  1  0.145254  0.145254  0.145254  1
  Te  Te5  1  0.764591  0.764591  0.764591  1
  Te  Te6  1  0.235409  0.235409  0.235409  1
  Te  Te7  1  0.854746  0.854746  0.854746  1
  Te  Te8  1  0.000000  0.000000  0.000000  1
  Te  Te9  1  0.617900  0.617900  0.617900  1
  Te  Te10  1  0.382100  0.382100  0.382100  1
  As  As11  1  0.542132  0.542132  0.542132  1
  As  As12  1  0.457868  0.457868  0.457868  1
