# generated using pymatgen
data_UCr5P3
_symmetry_space_group_name_H-M   'P 1'
_cell_length_a   6.78048000
_cell_length_b   3.72974654
_cell_length_c   9.49823701
_cell_angle_alpha   90.00000000
_cell_angle_beta   98.40425807
_cell_angle_gamma   90.00000000
_symmetry_Int_Tables_number   1
_chemical_formula_structural   UCr5P3
_chemical_formula_sum   'U2 Cr10 P6'
_cell_volume   237.62594529
_cell_formula_units_Z   2
loop_
 _symmetry_equiv_pos_site_id
 _symmetry_equiv_pos_as_xyz
  1  'x, y, z'
loop_
 _atom_site_type_symbol
 _atom_site_label
 _atom_site_symmetry_multiplicity
 _atom_site_fract_x
 _atom_site_fract_y
 _atom_site_fract_z
 _atom_site_occupancy
  U  U0  1  0.180000  0.250000  0.782865  1
  U  U1  1  0.820000  0.750000  0.217135  1
  Cr  Cr2  1  0.678362  0.250000  0.721948  1
  Cr  Cr3  1  0.321638  0.750000  0.278052  1
  Cr  Cr4  1  0.842027  0.250000  0.491590  1
  Cr  Cr5  1  0.157973  0.750000  0.508410  1
  Cr  Cr6  1  0.458895  0.250000  0.071323  1
  Cr  Cr7  1  0.541105  0.750000  0.928677  1
  Cr  Cr8  1  0.084791  0.250000  0.101015  1
  Cr  Cr9  1  0.915209  0.750000  0.898985  1
  Cr  Cr10  1  0.394879  0.250000  0.512442  1
  Cr  Cr11  1  0.605121  0.750000  0.487558  1
  P  P12  1  0.558658  0.250000  0.313958  1
  P  P13  1  0.441342  0.750000  0.686042  1
  P  P14  1  0.761980  0.250000  0.980360  1
  P  P15  1  0.238020  0.750000  0.019640  1
  P  P16  1  0.101433  0.250000  0.347134  1
  P  P17  1  0.898567  0.750000  0.652866  1
