# generated using pymatgen
data_Te4Mo(OF4)5
_symmetry_space_group_name_H-M   'P 1'
_cell_length_a   9.45279563
_cell_length_b   11.73639260
_cell_length_c   20.80231637
_cell_angle_alpha   90.00000000
_cell_angle_beta   102.79412170
_cell_angle_gamma   90.00000000
_symmetry_Int_Tables_number   1
_chemical_formula_structural   Te4Mo(OF4)5
_chemical_formula_sum   'Te16 Mo4 O20 F80'
_cell_volume   2250.54578567
_cell_formula_units_Z   4
loop_
 _symmetry_equiv_pos_site_id
 _symmetry_equiv_pos_as_xyz
  1  'x, y, z'
loop_
 _atom_site_type_symbol
 _atom_site_label
 _atom_site_symmetry_multiplicity
 _atom_site_fract_x
 _atom_site_fract_y
 _atom_site_fract_z
 _atom_site_occupancy
  Te  Te0  1  0.302259  0.867492  0.041618  1
  Te  Te1  1  0.471768  0.530894  0.231737  1
  Te  Te2  1  0.785542  0.866333  0.538409  1
  Te  Te3  1  0.214458  0.133667  0.461591  1
  Te  Te4  1  0.528232  0.030894  0.268263  1
  Te  Te5  1  0.528232  0.469106  0.768263  1
  Te  Te6  1  0.697741  0.132508  0.958382  1
  Te  Te7  1  0.980344  0.741533  0.793318  1
  Te  Te8  1  0.019656  0.241533  0.706682  1
  Te  Te9  1  0.302259  0.632508  0.541618  1
  Te  Te10  1  0.214458  0.366333  0.961591  1
  Te  Te11  1  0.785542  0.633667  0.038409  1
  Te  Te12  1  0.471768  0.969106  0.731737  1
  Te  Te13  1  0.019656  0.258467  0.206682  1
  Te  Te14  1  0.980344  0.758467  0.293318  1
  Te  Te15  1  0.697741  0.367492  0.458382  1
  Mo  Mo16  1  0.329563  0.335581  0.341351  1
  Mo  Mo17  1  0.329563  0.164419  0.841351  1
  Mo  Mo18  1  0.670437  0.835581  0.158649  1
  Mo  Mo19  1  0.670437  0.664419  0.658649  1
  O  O20  1  0.506794  0.355046  0.406547  1
  O  O21  1  0.568027  0.598983  0.722884  1
  O  O22  1  0.796384  0.734781  0.733811  1
  O  O23  1  0.724300  0.782567  0.605275  1
  O  O24  1  0.493206  0.855046  0.093453  1
  O  O25  1  0.796384  0.765219  0.233811  1
  O  O26  1  0.568027  0.901017  0.222884  1
  O  O27  1  0.431973  0.098983  0.777116  1
  O  O28  1  0.493206  0.644954  0.593453  1
  O  O29  1  0.230731  0.447258  0.357331  1
  O  O30  1  0.506794  0.144954  0.906547  1
  O  O31  1  0.431973  0.401017  0.277116  1
  O  O32  1  0.203616  0.265219  0.266189  1
  O  O33  1  0.230731  0.052742  0.857331  1
  O  O34  1  0.275700  0.217433  0.394725  1
  O  O35  1  0.724300  0.717433  0.105275  1
  O  O36  1  0.275700  0.282567  0.894725  1
  O  O37  1  0.769269  0.552742  0.642669  1
  O  O38  1  0.203616  0.234781  0.766189  1
  O  O39  1  0.769269  0.947258  0.142669  1
  F  F40  1  0.447668  0.050249  0.652923  1
  F  F41  1  0.840114  0.248474  0.147350  1
  F  F42  1  0.622353  0.378273  0.534062  1
  F  F43  1  0.500549  0.875479  0.806452  1
  F  F44  1  0.075801  0.697489  0.727398  1
  F  F45  1  0.688672  0.526000  0.449386  1
  F  F46  1  0.777370  0.357436  0.383868  1
  F  F47  1  0.499451  0.375479  0.693548  1
  F  F48  1  0.552332  0.550249  0.847077  1
  F  F49  1  0.025730  0.127672  0.409827  1
  F  F50  1  0.597641  0.638809  0.985655  1
  F  F51  1  0.712210  0.290680  0.968422  1
  F  F52  1  0.884313  0.117777  0.011127  1
  F  F53  1  0.115687  0.617777  0.488873  1
  F  F54  1  0.967594  0.588736  0.817094  1
  F  F55  1  0.845387  0.950093  0.472891  1
  F  F56  1  0.513560  0.660714  0.183841  1
  F  F57  1  0.967594  0.911264  0.317094  1
  F  F58  1  0.032406  0.411264  0.182906  1
  F  F59  1  0.032406  0.088736  0.682906  1
  F  F60  1  0.845387  0.549907  0.972891  1
  F  F61  1  0.777370  0.142564  0.883868  1
  F  F62  1  0.840114  0.251526  0.647350  1
  F  F63  1  0.888983  0.714750  0.360376  1
  F  F64  1  0.670017  0.498106  0.250068  1
  F  F65  1  0.115687  0.882223  0.988873  1
  F  F66  1  0.486440  0.160714  0.316159  1
  F  F67  1  0.832170  0.767965  0.999464  1
  F  F68  1  0.924199  0.302511  0.272602  1
  F  F69  1  0.500549  0.624521  0.306452  1
  F  F70  1  0.499451  0.124521  0.193548  1
  F  F71  1  0.722006  0.077698  0.291065  1
  F  F72  1  0.311328  0.474000  0.550614  1
  F  F73  1  0.974270  0.872328  0.590173  1
  F  F74  1  0.447668  0.449751  0.152923  1
  F  F75  1  0.222630  0.857436  0.116132  1
  F  F76  1  0.075801  0.802511  0.227398  1
  F  F77  1  0.159886  0.751526  0.852650  1
  F  F78  1  0.712210  0.209320  0.468422  1
  F  F79  1  0.154613  0.049907  0.527109  1
  F  F80  1  0.377647  0.878273  0.965938  1
  F  F81  1  0.329983  0.998106  0.249932  1
  F  F82  1  0.311328  0.026000  0.050614  1
  F  F83  1  0.832170  0.732035  0.499464  1
  F  F84  1  0.513560  0.839286  0.683841  1
  F  F85  1  0.159886  0.748474  0.352650  1
  F  F86  1  0.002397  0.105482  0.228702  1
  F  F87  1  0.688672  0.974000  0.949386  1
  F  F88  1  0.552332  0.949751  0.347077  1
  F  F89  1  0.154613  0.450093  0.027109  1
  F  F90  1  0.167830  0.232035  0.000536  1
  F  F91  1  0.884313  0.382223  0.511127  1
  F  F92  1  0.167830  0.267965  0.500536  1
  F  F93  1  0.486440  0.339286  0.816159  1
  F  F94  1  0.722006  0.422302  0.791065  1
  F  F95  1  0.924199  0.197489  0.772602  1
  F  F96  1  0.997603  0.894518  0.771298  1
  F  F97  1  0.597641  0.861191  0.485655  1
  F  F98  1  0.670017  0.001894  0.750068  1
  F  F99  1  0.740701  0.497686  0.076142  1
  F  F100  1  0.287790  0.790680  0.531578  1
  F  F101  1  0.329983  0.501894  0.749932  1
  F  F102  1  0.277994  0.577698  0.208935  1
  F  F103  1  0.277994  0.922302  0.708935  1
  F  F104  1  0.025730  0.372328  0.909827  1
  F  F105  1  0.222630  0.642564  0.616132  1
  F  F106  1  0.402359  0.138809  0.514345  1
  F  F107  1  0.259299  0.997686  0.423858  1
  F  F108  1  0.377647  0.621727  0.465938  1
  F  F109  1  0.111017  0.214750  0.139624  1
  F  F110  1  0.111017  0.285250  0.639624  1
  F  F111  1  0.402359  0.361191  0.014345  1
  F  F112  1  0.622353  0.121727  0.034062  1
  F  F113  1  0.740701  0.002314  0.576142  1
  F  F114  1  0.997603  0.605482  0.271298  1
  F  F115  1  0.287790  0.709320  0.031578  1
  F  F116  1  0.259299  0.502314  0.923858  1
  F  F117  1  0.888983  0.785250  0.860376  1
  F  F118  1  0.974270  0.627672  0.090173  1
  F  F119  1  0.002397  0.394518  0.728702  1
