# generated using pymatgen
data_RbMoIO6
_symmetry_space_group_name_H-M   'P 1'
_cell_length_a   7.49920739
_cell_length_b   7.84686336
_cell_length_c   10.46506188
_cell_angle_alpha   90.00000000
_cell_angle_beta   90.00000000
_cell_angle_gamma   90.00000000
_symmetry_Int_Tables_number   1
_chemical_formula_structural   RbMoIO6
_chemical_formula_sum   'Rb4 Mo4 I4 O24'
_cell_volume   615.81924222
_cell_formula_units_Z   4
loop_
 _symmetry_equiv_pos_site_id
 _symmetry_equiv_pos_as_xyz
  1  'x, y, z'
loop_
 _atom_site_type_symbol
 _atom_site_label
 _atom_site_symmetry_multiplicity
 _atom_site_fract_x
 _atom_site_fract_y
 _atom_site_fract_z
 _atom_site_occupancy
  Rb  Rb0  1  0.862985  0.018479  0.618442  1
  Rb  Rb1  1  0.362985  0.981521  0.381558  1
  Rb  Rb2  1  0.862985  0.518479  0.881558  1
  Rb  Rb3  1  0.362985  0.481521  0.118442  1
  Mo  Mo4  1  0.094545  0.507848  0.528706  1
  Mo  Mo5  1  0.594545  0.492152  0.471294  1
  Mo  Mo6  1  0.094545  0.007848  0.971294  1
  Mo  Mo7  1  0.594545  0.992152  0.028706  1
  I  I8  1  0.430887  0.278555  0.740912  1
  I  I9  1  0.930887  0.221445  0.240912  1
  I  I10  1  0.930887  0.721445  0.259088  1
  I  I11  1  0.430887  0.778555  0.759088  1
  O  O12  1  0.047611  0.278824  0.389808  1
  O  O13  1  0.633639  0.362919  0.659490  1
  O  O14  1  0.047611  0.778824  0.110192  1
  O  O15  1  0.531909  0.131633  0.151334  1
  O  O16  1  0.133639  0.137081  0.159490  1
  O  O17  1  0.031909  0.868367  0.848666  1
  O  O18  1  0.130203  0.701519  0.609060  1
  O  O19  1  0.338539  0.437746  0.519365  1
  O  O20  1  0.547611  0.721176  0.610192  1
  O  O21  1  0.633639  0.862919  0.840510  1
  O  O22  1  0.630203  0.798481  0.109060  1
  O  O23  1  0.031909  0.368367  0.651334  1
  O  O24  1  0.531909  0.631633  0.348666  1
  O  O25  1  0.422272  0.571874  0.842875  1
  O  O26  1  0.422272  0.071874  0.657125  1
  O  O27  1  0.838539  0.562254  0.480635  1
  O  O28  1  0.922272  0.428126  0.157125  1
  O  O29  1  0.338539  0.937746  0.980635  1
  O  O30  1  0.547611  0.221176  0.889808  1
  O  O31  1  0.922272  0.928126  0.342875  1
  O  O32  1  0.133639  0.637081  0.340510  1
  O  O33  1  0.130203  0.201519  0.890940  1
  O  O34  1  0.838539  0.062254  0.019365  1
  O  O35  1  0.630203  0.298481  0.390940  1
