# generated using pymatgen
data_Er5CoSb2
_symmetry_space_group_name_H-M   'P 1'
_cell_length_a   7.80919602
_cell_length_b   8.72641831
_cell_length_c   12.09912754
_cell_angle_alpha   90.00000000
_cell_angle_beta   90.00000000
_cell_angle_gamma   90.00000000
_symmetry_Int_Tables_number   1
_chemical_formula_structural   Er5CoSb2
_chemical_formula_sum   'Er20 Co4 Sb8'
_cell_volume   824.51090981
_cell_formula_units_Z   4
loop_
 _symmetry_equiv_pos_site_id
 _symmetry_equiv_pos_as_xyz
  1  'x, y, z'
loop_
 _atom_site_type_symbol
 _atom_site_label
 _atom_site_symmetry_multiplicity
 _atom_site_fract_x
 _atom_site_fract_y
 _atom_site_fract_z
 _atom_site_occupancy
  Er  Er0  1  0.158338  0.750000  0.205112  1
  Er  Er1  1  0.658338  0.250000  0.294888  1
  Er  Er2  1  0.841662  0.250000  0.794888  1
  Er  Er3  1  0.341662  0.750000  0.705112  1
  Er  Er4  1  0.450058  0.750000  0.998084  1
  Er  Er5  1  0.950058  0.250000  0.501916  1
  Er  Er6  1  0.549942  0.250000  0.001916  1
  Er  Er7  1  0.049942  0.750000  0.498084  1
  Er  Er8  1  0.622846  0.750000  0.307773  1
  Er  Er9  1  0.122846  0.250000  0.192227  1
  Er  Er10  1  0.377154  0.250000  0.692227  1
  Er  Er11  1  0.877154  0.750000  0.807773  1
  Er  Er12  1  0.824062  0.961387  0.065756  1
  Er  Er13  1  0.324062  0.038613  0.434244  1
  Er  Er14  1  0.175938  0.461387  0.934244  1
  Er  Er15  1  0.675938  0.538613  0.565756  1
  Er  Er16  1  0.175938  0.038613  0.934244  1
  Er  Er17  1  0.675938  0.961387  0.565756  1
  Er  Er18  1  0.824062  0.538613  0.065756  1
  Er  Er19  1  0.324062  0.461387  0.434244  1
  Co  Co20  1  0.428720  0.750000  0.490032  1
  Co  Co21  1  0.928720  0.250000  0.009968  1
  Co  Co22  1  0.571280  0.250000  0.509968  1
  Co  Co23  1  0.071280  0.750000  0.990032  1
  Sb  Sb24  1  0.931595  0.991598  0.327380  1
  Sb  Sb25  1  0.431595  0.008402  0.172620  1
  Sb  Sb26  1  0.068405  0.491598  0.672620  1
  Sb  Sb27  1  0.568405  0.508402  0.827380  1
  Sb  Sb28  1  0.068405  0.008402  0.672620  1
  Sb  Sb29  1  0.568405  0.991598  0.827380  1
  Sb  Sb30  1  0.931595  0.508402  0.327380  1
  Sb  Sb31  1  0.431595  0.491598  0.172620  1
