# generated using pymatgen
data_Ta2Ni3S8
_symmetry_space_group_name_H-M   'P 1'
_cell_length_a   3.34630074
_cell_length_b   10.17301518
_cell_length_c   14.22004461
_cell_angle_alpha   90.00000000
_cell_angle_beta   90.00000000
_cell_angle_gamma   90.00000000
_symmetry_Int_Tables_number   1
_chemical_formula_structural   Ta2Ni3S8
_chemical_formula_sum   'Ta4 Ni6 S16'
_cell_volume   484.07830677
_cell_formula_units_Z   2
loop_
 _symmetry_equiv_pos_site_id
 _symmetry_equiv_pos_as_xyz
  1  'x, y, z'
loop_
 _atom_site_type_symbol
 _atom_site_label
 _atom_site_symmetry_multiplicity
 _atom_site_fract_x
 _atom_site_fract_y
 _atom_site_fract_z
 _atom_site_occupancy
  Ta  Ta0  1  0.500000  0.201416  0.119089  1
  Ta  Ta1  1  0.500000  0.701416  0.380911  1
  Ta  Ta2  1  0.500000  0.298584  0.619089  1
  Ta  Ta3  1  0.500000  0.798584  0.880911  1
  Ni  Ni4  1  0.000000  0.369614  0.225247  1
  Ni  Ni5  1  0.000000  0.630386  0.774753  1
  Ni  Ni6  1  0.000000  0.000000  0.000000  1
  Ni  Ni7  1  0.000000  0.869614  0.274753  1
  Ni  Ni8  1  0.000000  0.130386  0.725247  1
  Ni  Ni9  1  0.000000  0.500000  0.500000  1
  S  S10  1  0.000000  0.972693  0.844981  1
  S  S11  1  0.500000  0.748299  0.214570  1
  S  S12  1  0.500000  0.751701  0.714570  1
  S  S13  1  0.000000  0.527307  0.344981  1
  S  S14  1  0.500000  0.248299  0.285430  1
  S  S15  1  0.000000  0.717939  0.507830  1
  S  S16  1  0.000000  0.217939  0.992170  1
  S  S17  1  0.500000  0.559883  0.867911  1
  S  S18  1  0.000000  0.282061  0.492170  1
  S  S19  1  0.500000  0.440117  0.132089  1
  S  S20  1  0.500000  0.059883  0.632089  1
  S  S21  1  0.000000  0.027307  0.155019  1
  S  S22  1  0.500000  0.940117  0.367911  1
  S  S23  1  0.000000  0.782061  0.007830  1
  S  S24  1  0.500000  0.251701  0.785430  1
  S  S25  1  0.000000  0.472693  0.655019  1
