# generated using pymatgen
data_Mn3(P2O7)2
_symmetry_space_group_name_H-M   'P 1'
_cell_length_a   5.88689268
_cell_length_b   6.74632828
_cell_length_c   7.56444305
_cell_angle_alpha   78.95026116
_cell_angle_beta   75.84312859
_cell_angle_gamma   73.63817794
_symmetry_Int_Tables_number   1
_chemical_formula_structural   Mn3(P2O7)2
_chemical_formula_sum   'Mn3 P4 O14'
_cell_volume   277.05639709
_cell_formula_units_Z   1
loop_
 _symmetry_equiv_pos_site_id
 _symmetry_equiv_pos_as_xyz
  1  'x, y, z'
loop_
 _atom_site_type_symbol
 _atom_site_label
 _atom_site_symmetry_multiplicity
 _atom_site_fract_x
 _atom_site_fract_y
 _atom_site_fract_z
 _atom_site_occupancy
  Mn  Mn0  1  0.759942  0.515560  0.666137  1
  Mn  Mn1  1  0.240058  0.484440  0.333863  1
  Mn  Mn2  1  0.000000  0.000000  0.000000  1
  P  P3  1  0.357364  0.312034  0.933775  1
  P  P4  1  0.642636  0.687966  0.066225  1
  P  P5  1  0.791428  0.288283  0.321879  1
  P  P6  1  0.208572  0.711717  0.678121  1
  O  O7  1  0.933613  0.363781  0.437882  1
  O  O8  1  0.540804  0.294713  0.434545  1
  O  O9  1  0.222641  0.170925  0.884663  1
  O  O10  1  0.777359  0.829075  0.115337  1
  O  O11  1  0.218002  0.546866  0.863323  1
  O  O12  1  0.459196  0.705287  0.565455  1
  O  O13  1  0.062486  0.913841  0.755371  1
  O  O14  1  0.673644  0.696078  0.860920  1
  O  O15  1  0.376323  0.723896  0.165645  1
  O  O16  1  0.326356  0.303922  0.139080  1
  O  O17  1  0.066387  0.636219  0.562118  1
  O  O18  1  0.937514  0.086159  0.244629  1
  O  O19  1  0.623677  0.276104  0.834355  1
  O  O20  1  0.781998  0.453134  0.136677  1
