# generated using pymatgen
data_FeS3(NCl2)2
_symmetry_space_group_name_H-M   'P 1'
_cell_length_a   12.66152579
_cell_length_b   11.83525551
_cell_length_c   14.41256325
_cell_angle_alpha   90.00000000
_cell_angle_beta   102.03890239
_cell_angle_gamma   90.00000000
_symmetry_Int_Tables_number   1
_chemical_formula_structural   FeS3(NCl2)2
_chemical_formula_sum   'Fe8 S24 N16 Cl32'
_cell_volume   2112.25584345
_cell_formula_units_Z   8
loop_
 _symmetry_equiv_pos_site_id
 _symmetry_equiv_pos_as_xyz
  1  'x, y, z'
loop_
 _atom_site_type_symbol
 _atom_site_label
 _atom_site_symmetry_multiplicity
 _atom_site_fract_x
 _atom_site_fract_y
 _atom_site_fract_z
 _atom_site_occupancy
  Fe  Fe0  1  0.033296  0.647314  0.235388  1
  Fe  Fe1  1  0.553983  0.197114  0.267640  1
  Fe  Fe2  1  0.446017  0.802886  0.732360  1
  Fe  Fe3  1  0.446017  0.697114  0.232360  1
  Fe  Fe4  1  0.966704  0.147314  0.264612  1
  Fe  Fe5  1  0.033296  0.852686  0.735388  1
  Fe  Fe6  1  0.553983  0.302886  0.767640  1
  Fe  Fe7  1  0.966704  0.352686  0.764612  1
  S  S8  1  0.738085  0.469363  0.429542  1
  S  S9  1  0.261915  0.530637  0.570458  1
  S  S10  1  0.771153  0.018794  0.551378  1
  S  S11  1  0.870099  0.856731  0.016920  1
  S  S12  1  0.715245  0.873370  0.066772  1
  S  S13  1  0.639889  0.842369  0.468065  1
  S  S14  1  0.129901  0.356731  0.483080  1
  S  S15  1  0.261915  0.969363  0.070458  1
  S  S16  1  0.203340  0.143959  0.580541  1
  S  S17  1  0.796660  0.856041  0.419459  1
  S  S18  1  0.203340  0.356041  0.080541  1
  S  S19  1  0.228847  0.981206  0.448622  1
  S  S20  1  0.284755  0.373370  0.433228  1
  S  S21  1  0.738085  0.030637  0.929542  1
  S  S22  1  0.639889  0.657631  0.968065  1
  S  S23  1  0.360111  0.157631  0.531935  1
  S  S24  1  0.796660  0.643959  0.919459  1
  S  S25  1  0.715245  0.626630  0.566772  1
  S  S26  1  0.870099  0.643269  0.516920  1
  S  S27  1  0.129901  0.143269  0.983080  1
  S  S28  1  0.360111  0.342369  0.031935  1
  S  S29  1  0.228847  0.518794  0.948622  1
  S  S30  1  0.771153  0.481206  0.051378  1
  S  S31  1  0.284755  0.126630  0.933228  1
  N  N32  1  0.661906  0.949779  0.536456  1
  N  N33  1  0.153348  0.039860  0.056254  1
  N  N34  1  0.328085  0.020120  0.998495  1
  N  N35  1  0.160544  0.463681  0.017418  1
  N  N36  1  0.153348  0.460140  0.556254  1
  N  N37  1  0.661906  0.550221  0.036456  1
  N  N38  1  0.671915  0.520120  0.501505  1
  N  N39  1  0.338094  0.050221  0.463544  1
  N  N40  1  0.338094  0.449779  0.963544  1
  N  N41  1  0.328085  0.479880  0.498495  1
  N  N42  1  0.671915  0.979880  0.001505  1
  N  N43  1  0.846652  0.539860  0.443746  1
  N  N44  1  0.839456  0.536319  0.982582  1
  N  N45  1  0.839456  0.963681  0.482582  1
  N  N46  1  0.160544  0.036319  0.517418  1
  N  N47  1  0.846652  0.960140  0.943746  1
  Cl  Cl48  1  0.142437  0.197318  0.311642  1
  Cl  Cl49  1  0.033818  0.037348  0.722777  1
  Cl  Cl50  1  0.120988  0.774025  0.636750  1
  Cl  Cl51  1  0.623590  0.686045  0.299564  1
  Cl  Cl52  1  0.377209  0.833994  0.303118  1
  Cl  Cl53  1  0.623590  0.813955  0.799564  1
  Cl  Cl54  1  0.568263  0.237710  0.419659  1
  Cl  Cl55  1  0.622791  0.166006  0.696882  1
  Cl  Cl56  1  0.372724  0.532785  0.249651  1
  Cl  Cl57  1  0.093599  0.805511  0.884623  1
  Cl  Cl58  1  0.906401  0.305511  0.615377  1
  Cl  Cl59  1  0.627276  0.467215  0.750349  1
  Cl  Cl60  1  0.906401  0.194489  0.115377  1
  Cl  Cl61  1  0.142437  0.302682  0.811642  1
  Cl  Cl62  1  0.120988  0.725975  0.136750  1
  Cl  Cl63  1  0.033818  0.462652  0.222777  1
  Cl  Cl64  1  0.431737  0.737710  0.080341  1
  Cl  Cl65  1  0.377209  0.666006  0.803118  1
  Cl  Cl66  1  0.431737  0.762290  0.580341  1
  Cl  Cl67  1  0.093599  0.694489  0.384623  1
  Cl  Cl68  1  0.879012  0.225975  0.363250  1
  Cl  Cl69  1  0.568263  0.262290  0.919659  1
  Cl  Cl70  1  0.966182  0.537348  0.777223  1
  Cl  Cl71  1  0.966182  0.962652  0.277223  1
  Cl  Cl72  1  0.622791  0.333994  0.196882  1
  Cl  Cl73  1  0.376410  0.313955  0.700436  1
  Cl  Cl74  1  0.372724  0.967215  0.749651  1
  Cl  Cl75  1  0.857563  0.697318  0.188358  1
  Cl  Cl76  1  0.376410  0.186045  0.200436  1
  Cl  Cl77  1  0.857563  0.802682  0.688358  1
  Cl  Cl78  1  0.627276  0.032785  0.250349  1
  Cl  Cl79  1  0.879012  0.274025  0.863250  1
