# generated using pymatgen
data_KMo(PO4)2
_symmetry_space_group_name_H-M   'P 1'
_cell_length_a   5.18354990
_cell_length_b   11.97091684
_cell_length_c   12.70749784
_cell_angle_alpha   90.00000000
_cell_angle_beta   112.86210754
_cell_angle_gamma   90.00000000
_symmetry_Int_Tables_number   1
_chemical_formula_structural   KMo(PO4)2
_chemical_formula_sum   'K4 Mo4 P8 O32'
_cell_volume   726.57927446
_cell_formula_units_Z   4
loop_
 _symmetry_equiv_pos_site_id
 _symmetry_equiv_pos_as_xyz
  1  'x, y, z'
loop_
 _atom_site_type_symbol
 _atom_site_label
 _atom_site_symmetry_multiplicity
 _atom_site_fract_x
 _atom_site_fract_y
 _atom_site_fract_z
 _atom_site_occupancy
  K  K0  1  0.326731  0.369202  0.052672  1
  K  K1  1  0.673269  0.869202  0.447328  1
  K  K2  1  0.673269  0.630798  0.947328  1
  K  K3  1  0.326731  0.130798  0.552672  1
  Mo  Mo4  1  0.095306  0.120021  0.835400  1
  Mo  Mo5  1  0.904694  0.620021  0.664600  1
  Mo  Mo6  1  0.904694  0.879979  0.164600  1
  Mo  Mo7  1  0.095306  0.379979  0.335400  1
  P  P8  1  0.616624  0.193051  0.352165  1
  P  P9  1  0.383376  0.693051  0.147835  1
  P  P10  1  0.383376  0.806949  0.647835  1
  P  P11  1  0.616624  0.306949  0.852165  1
  P  P12  1  0.389487  0.062969  0.136194  1
  P  P13  1  0.610513  0.562969  0.363806  1
  P  P14  1  0.610513  0.937031  0.863806  1
  P  P15  1  0.389487  0.437031  0.636194  1
  O  O16  1  0.209567  0.105191  0.017919  1
  O  O17  1  0.790433  0.605191  0.482081  1
  O  O18  1  0.790433  0.894809  0.982081  1
  O  O19  1  0.209567  0.394809  0.517919  1
  O  O20  1  0.747709  0.026442  0.816718  1
  O  O21  1  0.252291  0.526442  0.683282  1
  O  O22  1  0.252291  0.973558  0.183282  1
  O  O23  1  0.747709  0.473558  0.316718  1
  O  O24  1  0.903825  0.262493  0.859246  1
  O  O25  1  0.096175  0.762493  0.640754  1
  O  O26  1  0.096175  0.737507  0.140754  1
  O  O27  1  0.903825  0.237507  0.359246  1
  O  O28  1  0.435369  0.173353  0.215302  1
  O  O29  1  0.564631  0.673353  0.284698  1
  O  O30  1  0.564631  0.826647  0.784698  1
  O  O31  1  0.435369  0.326647  0.715302  1
  O  O32  1  0.316330  0.973855  0.851948  1
  O  O33  1  0.683670  0.473855  0.648052  1
  O  O34  1  0.683670  0.026145  0.148052  1
  O  O35  1  0.316330  0.526145  0.351948  1
  O  O36  1  0.646179  0.087773  0.418945  1
  O  O37  1  0.353821  0.587773  0.081055  1
  O  O38  1  0.353821  0.912227  0.581055  1
  O  O39  1  0.646179  0.412227  0.918945  1
  O  O40  1  0.006012  0.135373  0.691149  1
  O  O41  1  0.993988  0.635373  0.808851  1
  O  O42  1  0.993988  0.864627  0.308851  1
  O  O43  1  0.006012  0.364627  0.191149  1
  O  O44  1  0.454956  0.213692  0.883996  1
  O  O45  1  0.545044  0.713692  0.616004  1
  O  O46  1  0.545044  0.786308  0.116004  1
  O  O47  1  0.454956  0.286308  0.383996  1
