# generated using pymatgen
data_LiUAsO6
_symmetry_space_group_name_H-M   'P 1'
_cell_length_a   5.17043091
_cell_length_b   5.43623465
_cell_length_c   10.12710734
_cell_angle_alpha   90.30572470
_cell_angle_beta   97.37318837
_cell_angle_gamma   104.32309255
_symmetry_Int_Tables_number   1
_chemical_formula_structural   LiUAsO6
_chemical_formula_sum   'Li2 U2 As2 O12'
_cell_volume   273.31715623
_cell_formula_units_Z   2
loop_
 _symmetry_equiv_pos_site_id
 _symmetry_equiv_pos_as_xyz
  1  'x, y, z'
loop_
 _atom_site_type_symbol
 _atom_site_label
 _atom_site_symmetry_multiplicity
 _atom_site_fract_x
 _atom_site_fract_y
 _atom_site_fract_z
 _atom_site_occupancy
  Li  Li0  1  0.947078  0.552325  0.229270  1
  Li  Li1  1  0.052922  0.447675  0.770730  1
  U  U2  1  0.500000  0.500000  0.500000  1
  U  U3  1  0.000000  0.000000  0.000000  1
  As  As4  1  0.424598  0.023179  0.742589  1
  As  As5  1  0.575402  0.976821  0.257411  1
  O  O6  1  0.178989  0.490133  0.396841  1
  O  O7  1  0.227788  0.310305  0.986427  1
  O  O8  1  0.737612  0.144895  0.833705  1
  O  O9  1  0.701421  0.734672  0.326100  1
  O  O10  1  0.798705  0.159557  0.161545  1
  O  O11  1  0.298579  0.265328  0.673900  1
  O  O12  1  0.459328  0.827679  0.617465  1
  O  O13  1  0.262388  0.855105  0.166295  1
  O  O14  1  0.540672  0.172321  0.382535  1
  O  O15  1  0.201295  0.840443  0.838455  1
  O  O16  1  0.821011  0.509867  0.603159  1
  O  O17  1  0.772212  0.689695  0.013573  1
