# generated using pymatgen
data_Na2U(WO5)2
_symmetry_space_group_name_H-M   'P 1'
_cell_length_a   6.82530289
_cell_length_b   7.66599311
_cell_length_c   8.63356415
_cell_angle_alpha   89.92126668
_cell_angle_beta   93.00736355
_cell_angle_gamma   106.55327655
_symmetry_Int_Tables_number   1
_chemical_formula_structural   Na2U(WO5)2
_chemical_formula_sum   'Na4 U2 W4 O20'
_cell_volume   432.36987481
_cell_formula_units_Z   2
loop_
 _symmetry_equiv_pos_site_id
 _symmetry_equiv_pos_as_xyz
  1  'x, y, z'
loop_
 _atom_site_type_symbol
 _atom_site_label
 _atom_site_symmetry_multiplicity
 _atom_site_fract_x
 _atom_site_fract_y
 _atom_site_fract_z
 _atom_site_occupancy
  Na  Na0  1  0.400991  0.095182  0.799332  1
  Na  Na1  1  0.586679  0.393732  0.208008  1
  Na  Na2  1  0.599009  0.904818  0.200668  1
  Na  Na3  1  0.413321  0.606268  0.791992  1
  U  U4  1  0.006228  0.750771  0.021914  1
  U  U5  1  0.993772  0.249229  0.978086  1
  W  W6  1  0.842425  0.960025  0.637732  1
  W  W7  1  0.840203  0.458028  0.636823  1
  W  W8  1  0.157575  0.039975  0.362268  1
  W  W9  1  0.159797  0.541972  0.363177  1
  O  O10  1  0.907612  0.226485  0.687063  1
  O  O11  1  0.421460  0.624876  0.317453  1
  O  O12  1  0.831556  0.984564  0.423538  1
  O  O13  1  0.724444  0.678657  0.042058  1
  O  O14  1  0.092388  0.773515  0.312937  1
  O  O15  1  0.840022  0.708859  0.635911  1
  O  O16  1  0.159978  0.291141  0.364089  1
  O  O17  1  0.168799  0.568521  0.577792  1
  O  O18  1  0.286269  0.821065  0.995440  1
  O  O19  1  0.981308  0.973036  0.852410  1
  O  O20  1  0.275556  0.321343  0.957942  1
  O  O21  1  0.976253  0.515714  0.852397  1
  O  O22  1  0.713731  0.178935  0.004560  1
  O  O23  1  0.578540  0.375124  0.682547  1
  O  O24  1  0.831201  0.431479  0.422208  1
  O  O25  1  0.582457  0.910294  0.688695  1
  O  O26  1  0.018692  0.026964  0.147590  1
  O  O27  1  0.168444  0.015436  0.576462  1
  O  O28  1  0.023747  0.484286  0.147603  1
  O  O29  1  0.417543  0.089706  0.311305  1
