# generated using pymatgen
data_BaMn2O3
_symmetry_space_group_name_H-M   'P 1'
_cell_length_a   6.27530687
_cell_length_b   6.27530687
_cell_length_c   6.27530687
_cell_angle_alpha   146.01290890
_cell_angle_beta   139.08231962
_cell_angle_gamma   54.21008312
_symmetry_Int_Tables_number   1
_chemical_formula_structural   BaMn2O3
_chemical_formula_sum   'Ba1 Mn2 O3'
_cell_volume   89.88855464
_cell_formula_units_Z   1
loop_
 _symmetry_equiv_pos_site_id
 _symmetry_equiv_pos_as_xyz
  1  'x, y, z'
loop_
 _atom_site_type_symbol
 _atom_site_label
 _atom_site_symmetry_multiplicity
 _atom_site_fract_x
 _atom_site_fract_y
 _atom_site_fract_z
 _atom_site_occupancy
  Ba  Ba0  1  0.500000  1.000000  0.500000  1
  Mn  Mn1  1  0.811350  0.311350  0.500000  1
  Mn  Mn2  1  0.188650  0.688650  0.500000  1
  O  O3  1  1.000000  0.500000  0.500000  1
  O  O4  1  0.294304  0.294304  0.000000  1
  O  O5  1  0.705696  0.705696  0.000000  1
