# generated using pymatgen
data_LiFePO4
_symmetry_space_group_name_H-M   'P 1'
_cell_length_a   5.11038153
_cell_length_b   10.25194076
_cell_length_c   8.57035810
_cell_angle_alpha   90.00000000
_cell_angle_beta   126.42926153
_cell_angle_gamma   90.00000000
_symmetry_Int_Tables_number   1
_chemical_formula_structural   LiFePO4
_chemical_formula_sum   'Li4 Fe4 P4 O16'
_cell_volume   361.27120758
_cell_formula_units_Z   4
loop_
 _symmetry_equiv_pos_site_id
 _symmetry_equiv_pos_as_xyz
  1  'x, y, z'
loop_
 _atom_site_type_symbol
 _atom_site_label
 _atom_site_symmetry_multiplicity
 _atom_site_fract_x
 _atom_site_fract_y
 _atom_site_fract_z
 _atom_site_occupancy
  Li  Li0  1  0.703919  0.849098  0.500879  1
  Li  Li1  1  0.296081  0.349098  0.999121  1
  Li  Li2  1  0.703919  0.650902  0.000879  1
  Li  Li3  1  0.296081  0.150902  0.499121  1
  Fe  Fe4  1  0.206746  0.843672  0.000735  1
  Fe  Fe5  1  0.793254  0.343672  0.499265  1
  Fe  Fe6  1  0.206746  0.656328  0.500735  1
  Fe  Fe7  1  0.793254  0.156328  0.999265  1
  P  P8  1  0.450888  0.596138  0.250157  1
  P  P9  1  0.549112  0.096138  0.249843  1
  P  P10  1  0.450888  0.903862  0.750157  1
  P  P11  1  0.549112  0.403862  0.749843  1
  O  O12  1  0.851435  0.376150  0.752110  1
  O  O13  1  0.609434  0.157189  0.434321  1
  O  O14  1  0.248590  0.160429  0.063257  1
  O  O15  1  0.491397  0.947250  0.249367  1
  O  O16  1  0.508603  0.447250  0.250633  1
  O  O17  1  0.751410  0.660429  0.436743  1
  O  O18  1  0.390566  0.657189  0.065679  1
  O  O19  1  0.148565  0.876150  0.747890  1
  O  O20  1  0.851435  0.123850  0.252110  1
  O  O21  1  0.609434  0.342811  0.934321  1
  O  O22  1  0.248590  0.339571  0.563257  1
  O  O23  1  0.491397  0.552750  0.749367  1
  O  O24  1  0.508603  0.052750  0.750633  1
  O  O25  1  0.751410  0.839571  0.936743  1
  O  O26  1  0.390566  0.842811  0.565679  1
  O  O27  1  0.148565  0.623850  0.247890  1
