# generated using pymatgen
data_KUVO6
_symmetry_space_group_name_H-M   'P 1'
_cell_length_a   6.93248809
_cell_length_b   8.48435138
_cell_length_c   10.59547075
_cell_angle_alpha   90.00000000
_cell_angle_beta   105.03826385
_cell_angle_gamma   90.00000000
_symmetry_Int_Tables_number   1
_chemical_formula_structural   KUVO6
_chemical_formula_sum   'K4 U4 V4 O24'
_cell_volume   601.85794130
_cell_formula_units_Z   4
loop_
 _symmetry_equiv_pos_site_id
 _symmetry_equiv_pos_as_xyz
  1  'x, y, z'
loop_
 _atom_site_type_symbol
 _atom_site_label
 _atom_site_symmetry_multiplicity
 _atom_site_fract_x
 _atom_site_fract_y
 _atom_site_fract_z
 _atom_site_occupancy
  K  K0  1  0.538670  0.232187  0.362658  1
  K  K1  1  0.538670  0.267813  0.862658  1
  K  K2  1  0.461330  0.732187  0.137342  1
  K  K3  1  0.461330  0.767813  0.637342  1
  U  U4  1  0.989283  0.020592  0.180396  1
  U  U5  1  0.010717  0.520592  0.319604  1
  U  U6  1  0.010717  0.979408  0.819604  1
  U  U7  1  0.989283  0.479408  0.680396  1
  V  V8  1  0.889162  0.648148  0.944770  1
  V  V9  1  0.110838  0.148148  0.555230  1
  V  V10  1  0.889162  0.851852  0.444770  1
  V  V11  1  0.110838  0.351852  0.055230  1
  O  O12  1  0.969768  0.655152  0.507063  1
  O  O13  1  0.279446  0.939446  0.875017  1
  O  O14  1  0.036508  0.559691  0.107338  1
  O  O15  1  0.258883  0.518984  0.735719  1
  O  O16  1  0.030232  0.155152  0.992937  1
  O  O17  1  0.720554  0.439446  0.624983  1
  O  O18  1  0.741117  0.018984  0.764281  1
  O  O19  1  0.720554  0.060554  0.124983  1
  O  O20  1  0.258883  0.981016  0.235719  1
  O  O21  1  0.351400  0.134940  0.568106  1
  O  O22  1  0.648600  0.865060  0.431894  1
  O  O23  1  0.741117  0.481016  0.264281  1
  O  O24  1  0.963492  0.059691  0.392662  1
  O  O25  1  0.076350  0.210219  0.715737  1
  O  O26  1  0.923650  0.710219  0.784263  1
  O  O27  1  0.036508  0.940309  0.607338  1
  O  O28  1  0.279446  0.560554  0.375017  1
  O  O29  1  0.923650  0.789781  0.284263  1
  O  O30  1  0.969768  0.844848  0.007063  1
  O  O31  1  0.030232  0.344848  0.492937  1
  O  O32  1  0.648600  0.634940  0.931894  1
  O  O33  1  0.351400  0.365060  0.068106  1
  O  O34  1  0.076350  0.289781  0.215737  1
  O  O35  1  0.963492  0.440309  0.892662  1
