# generated using pymatgen
data_PNF2
_symmetry_space_group_name_H-M   'P 1'
_cell_length_a   5.29910181
_cell_length_b   5.29910181
_cell_length_c   4.98913491
_cell_angle_alpha   90.00000000
_cell_angle_beta   90.00000000
_cell_angle_gamma   116.37209688
_symmetry_Int_Tables_number   1
_chemical_formula_structural   PNF2
_chemical_formula_sum   'P2 N2 F4'
_cell_volume   125.51712350
_cell_formula_units_Z   2
loop_
 _symmetry_equiv_pos_site_id
 _symmetry_equiv_pos_as_xyz
  1  'x, y, z'
loop_
 _atom_site_type_symbol
 _atom_site_label
 _atom_site_symmetry_multiplicity
 _atom_site_fract_x
 _atom_site_fract_y
 _atom_site_fract_z
 _atom_site_occupancy
  P  P0  1  0.866844  0.866844  0.504698  1
  P  P1  1  0.133156  0.133156  0.004698  1
  N  N2  1  0.911857  0.911857  0.195375  1
  N  N3  1  0.088143  0.088143  0.695375  1
  F  F4  1  0.174678  0.438121  0.069464  1
  F  F5  1  0.825322  0.561879  0.569464  1
  F  F6  1  0.438121  0.174678  0.069464  1
  F  F7  1  0.561879  0.825322  0.569464  1
