# generated using pymatgen
data_CuS
_symmetry_space_group_name_H-M   'P 1'
_cell_length_a   3.80299788
_cell_length_b   3.80299788
_cell_length_c   16.42138828
_cell_angle_alpha   90.00000000
_cell_angle_beta   90.00000000
_cell_angle_gamma   120.24475953
_symmetry_Int_Tables_number   1
_chemical_formula_structural   CuS
_chemical_formula_sum   'Cu6 S6'
_cell_volume   205.17113009
_cell_formula_units_Z   6
loop_
 _symmetry_equiv_pos_site_id
 _symmetry_equiv_pos_as_xyz
  1  'x, y, z'
loop_
 _atom_site_type_symbol
 _atom_site_label
 _atom_site_symmetry_multiplicity
 _atom_site_fract_x
 _atom_site_fract_y
 _atom_site_fract_z
 _atom_site_occupancy
  Cu  Cu0  1  0.663541  0.336459  0.607199  1
  Cu  Cu1  1  0.336459  0.663541  0.107199  1
  Cu  Cu2  1  0.663541  0.336459  0.892801  1
  Cu  Cu3  1  0.637976  0.362024  0.250000  1
  Cu  Cu4  1  0.336459  0.663541  0.392801  1
  Cu  Cu5  1  0.362024  0.637976  0.750000  1
  S  S6  1  0.997650  0.002350  0.564167  1
  S  S7  1  0.693857  0.306143  0.750000  1
  S  S8  1  0.002350  0.997650  0.064167  1
  S  S9  1  0.306143  0.693857  0.250000  1
  S  S10  1  0.997650  0.002350  0.935833  1
  S  S11  1  0.002350  0.997650  0.435833  1
