# generated using pymatgen
data_BaZrF6
_symmetry_space_group_name_H-M   'P 1'
_cell_length_a   6.68299419
_cell_length_b   9.72083378
_cell_length_c   9.33627520
_cell_angle_alpha   90.00000000
_cell_angle_beta   127.35229182
_cell_angle_gamma   90.00000000
_symmetry_Int_Tables_number   1
_chemical_formula_structural   BaZrF6
_chemical_formula_sum   'Ba4 Zr4 F24'
_cell_volume   482.13839288
_cell_formula_units_Z   4
loop_
 _symmetry_equiv_pos_site_id
 _symmetry_equiv_pos_as_xyz
  1  'x, y, z'
loop_
 _atom_site_type_symbol
 _atom_site_label
 _atom_site_symmetry_multiplicity
 _atom_site_fract_x
 _atom_site_fract_y
 _atom_site_fract_z
 _atom_site_occupancy
  Ba  Ba0  1  0.590908  0.319626  0.364109  1
  Ba  Ba1  1  0.590908  0.180374  0.864109  1
  Ba  Ba2  1  0.409092  0.680374  0.635891  1
  Ba  Ba3  1  0.409092  0.819626  0.135891  1
  Zr  Zr4  1  0.119048  0.464350  0.865554  1
  Zr  Zr5  1  0.119048  0.035650  0.365554  1
  Zr  Zr6  1  0.880952  0.535650  0.134446  1
  Zr  Zr7  1  0.880952  0.964350  0.634446  1
  F  F8  1  0.071140  0.104119  0.141042  1
  F  F9  1  0.016897  0.122979  0.529044  1
  F  F10  1  0.552820  0.468232  0.884873  1
  F  F11  1  0.071140  0.395881  0.641042  1
  F  F12  1  0.834603  0.152037  0.710584  1
  F  F13  1  0.447180  0.531768  0.115127  1
  F  F14  1  0.319454  0.216594  0.468827  1
  F  F15  1  0.165397  0.652037  0.789416  1
  F  F16  1  0.552820  0.031768  0.384873  1
  F  F17  1  0.729816  0.461017  0.677560  1
  F  F18  1  0.270184  0.961017  0.822440  1
  F  F19  1  0.983103  0.877021  0.470956  1
  F  F20  1  0.680546  0.716594  0.031173  1
  F  F21  1  0.983103  0.622979  0.970956  1
  F  F22  1  0.928860  0.895881  0.858958  1
  F  F23  1  0.680546  0.783406  0.531173  1
  F  F24  1  0.319454  0.283406  0.968827  1
  F  F25  1  0.016897  0.377021  0.029044  1
  F  F26  1  0.729816  0.038983  0.177560  1
  F  F27  1  0.928860  0.604119  0.358958  1
  F  F28  1  0.834603  0.347963  0.210584  1
  F  F29  1  0.270184  0.538983  0.322440  1
  F  F30  1  0.447180  0.968232  0.615127  1
  F  F31  1  0.165397  0.847963  0.289416  1
