# generated using pymatgen
data_K3PO4
_symmetry_space_group_name_H-M   'P 1'
_cell_length_a   6.01276839
_cell_length_b   8.21563660
_cell_length_c   11.37102057
_cell_angle_alpha   90.00000000
_cell_angle_beta   90.00000000
_cell_angle_gamma   90.00000000
_symmetry_Int_Tables_number   1
_chemical_formula_structural   K3PO4
_chemical_formula_sum   'K12 P4 O16'
_cell_volume   561.71386185
_cell_formula_units_Z   4
loop_
 _symmetry_equiv_pos_site_id
 _symmetry_equiv_pos_as_xyz
  1  'x, y, z'
loop_
 _atom_site_type_symbol
 _atom_site_label
 _atom_site_symmetry_multiplicity
 _atom_site_fract_x
 _atom_site_fract_y
 _atom_site_fract_z
 _atom_site_occupancy
  K  K0  1  0.805020  0.491123  0.643863  1
  K  K1  1  0.194980  0.991123  0.356137  1
  K  K2  1  0.305020  0.508877  0.856137  1
  K  K3  1  0.138797  0.250000  0.070462  1
  K  K4  1  0.638797  0.750000  0.429538  1
  K  K5  1  0.861203  0.750000  0.929538  1
  K  K6  1  0.305020  0.991123  0.856137  1
  K  K7  1  0.361203  0.250000  0.570462  1
  K  K8  1  0.694980  0.491123  0.143863  1
  K  K9  1  0.194980  0.508877  0.356137  1
  K  K10  1  0.805020  0.008877  0.643863  1
  K  K11  1  0.694980  0.008877  0.143863  1
  P  P12  1  0.781703  0.250000  0.384187  1
  P  P13  1  0.718297  0.250000  0.884187  1
  P  P14  1  0.218297  0.750000  0.615813  1
  P  P15  1  0.281703  0.750000  0.115813  1
  O  O16  1  0.052290  0.750000  0.509043  1
  O  O17  1  0.633728  0.093767  0.389194  1
  O  O18  1  0.133728  0.906233  0.110806  1
  O  O19  1  0.866272  0.406233  0.889194  1
  O  O20  1  0.133728  0.593767  0.110806  1
  O  O21  1  0.578325  0.250000  0.767934  1
  O  O22  1  0.366272  0.906233  0.610806  1
  O  O23  1  0.447710  0.750000  0.009043  1
  O  O24  1  0.633728  0.406233  0.389194  1
  O  O25  1  0.921675  0.250000  0.267934  1
  O  O26  1  0.552290  0.250000  0.990957  1
  O  O27  1  0.866272  0.093767  0.889194  1
  O  O28  1  0.366272  0.593767  0.610806  1
  O  O29  1  0.947710  0.250000  0.490957  1
  O  O30  1  0.078325  0.750000  0.732066  1
  O  O31  1  0.421675  0.750000  0.232066  1
