# generated using pymatgen
data_KMoIO6
_symmetry_space_group_name_H-M   'P 1'
_cell_length_a   7.72046906
_cell_length_b   7.56546554
_cell_length_c   10.94269559
_cell_angle_alpha   90.00000000
_cell_angle_beta   111.76320651
_cell_angle_gamma   90.00000000
_symmetry_Int_Tables_number   1
_chemical_formula_structural   KMoIO6
_chemical_formula_sum   'K4 Mo4 I4 O24'
_cell_volume   593.59520634
_cell_formula_units_Z   4
loop_
 _symmetry_equiv_pos_site_id
 _symmetry_equiv_pos_as_xyz
  1  'x, y, z'
loop_
 _atom_site_type_symbol
 _atom_site_label
 _atom_site_symmetry_multiplicity
 _atom_site_fract_x
 _atom_site_fract_y
 _atom_site_fract_z
 _atom_site_occupancy
  K  K0  1  0.081128  0.271165  0.922595  1
  K  K1  1  0.918872  0.771165  0.577405  1
  K  K2  1  0.918872  0.728835  0.077405  1
  K  K3  1  0.081128  0.228835  0.422595  1
  Mo  Mo4  1  0.509572  0.001374  0.278171  1
  Mo  Mo5  1  0.490428  0.501374  0.221829  1
  Mo  Mo6  1  0.490428  0.998626  0.721829  1
  Mo  Mo7  1  0.509572  0.498626  0.778171  1
  I  I8  1  0.687677  0.325408  0.544174  1
  I  I9  1  0.687677  0.174592  0.044174  1
  I  I10  1  0.312323  0.674592  0.455826  1
  I  I11  1  0.312323  0.825408  0.955826  1
  O  O12  1  0.271306  0.952523  0.088906  1
  O  O13  1  0.728694  0.047477  0.911094  1
  O  O14  1  0.351883  0.028824  0.869183  1
  O  O15  1  0.475950  0.256123  0.198110  1
  O  O16  1  0.645661  0.948901  0.644330  1
  O  O17  1  0.648117  0.971176  0.130817  1
  O  O18  1  0.072758  0.712968  0.353175  1
  O  O19  1  0.351883  0.471176  0.369183  1
  O  O20  1  0.927242  0.287032  0.646825  1
  O  O21  1  0.648117  0.528824  0.630817  1
  O  O22  1  0.728694  0.452523  0.411094  1
  O  O23  1  0.072758  0.787032  0.853175  1
  O  O24  1  0.645661  0.551099  0.144330  1
  O  O25  1  0.524050  0.743877  0.801890  1
  O  O26  1  0.475950  0.243877  0.698110  1
  O  O27  1  0.524050  0.756123  0.301890  1
  O  O28  1  0.927242  0.212968  0.146825  1
  O  O29  1  0.354339  0.448901  0.855670  1
  O  O30  1  0.728396  0.434058  0.899853  1
  O  O31  1  0.271604  0.934058  0.600147  1
  O  O32  1  0.271604  0.565942  0.100147  1
  O  O33  1  0.728396  0.065942  0.399853  1
  O  O34  1  0.354339  0.051099  0.355670  1
  O  O35  1  0.271306  0.547477  0.588906  1
