# generated using pymatgen
data_EuFeO3
_symmetry_space_group_name_H-M   'P 1'
_cell_length_a   5.49831079
_cell_length_b   5.58790019
_cell_length_c   7.79632664
_cell_angle_alpha   90.00000000
_cell_angle_beta   90.00000000
_cell_angle_gamma   90.00000000
_symmetry_Int_Tables_number   1
_chemical_formula_structural   EuFeO3
_chemical_formula_sum   'Eu4 Fe4 O12'
_cell_volume   239.53443253
_cell_formula_units_Z   4
loop_
 _symmetry_equiv_pos_site_id
 _symmetry_equiv_pos_as_xyz
  1  'x, y, z'
loop_
 _atom_site_type_symbol
 _atom_site_label
 _atom_site_symmetry_multiplicity
 _atom_site_fract_x
 _atom_site_fract_y
 _atom_site_fract_z
 _atom_site_occupancy
  Eu  Eu0  1  0.992182  0.043452  0.250000  1
  Eu  Eu1  1  0.492182  0.456548  0.750000  1
  Eu  Eu2  1  0.507818  0.543452  0.250000  1
  Eu  Eu3  1  0.007818  0.956548  0.750000  1
  Fe  Fe4  1  0.000000  0.500000  0.000000  1
  Fe  Fe5  1  0.500000  0.000000  0.000000  1
  Fe  Fe6  1  0.500000  0.000000  0.500000  1
  Fe  Fe7  1  0.000000  0.500000  0.500000  1
  O  O8  1  0.079402  0.478515  0.250000  1
  O  O9  1  0.579402  0.021485  0.750000  1
  O  O10  1  0.420598  0.978515  0.250000  1
  O  O11  1  0.920598  0.521485  0.750000  1
  O  O12  1  0.705170  0.294996  0.041320  1
  O  O13  1  0.205170  0.205004  0.958680  1
  O  O14  1  0.794830  0.794996  0.458680  1
  O  O15  1  0.294830  0.705004  0.541320  1
  O  O16  1  0.294830  0.705004  0.958680  1
  O  O17  1  0.794830  0.794996  0.041320  1
  O  O18  1  0.205170  0.205004  0.541320  1
  O  O19  1  0.705170  0.294996  0.458680  1
