# generated using pymatgen
data_TbCl3
_symmetry_space_group_name_H-M   'P 1'
_cell_length_a   6.53127827
_cell_length_b   6.53127827
_cell_length_c   11.73480289
_cell_angle_alpha   90.00000000
_cell_angle_beta   90.00000000
_cell_angle_gamma   90.00000000
_symmetry_Int_Tables_number   1
_chemical_formula_structural   TbCl3
_chemical_formula_sum   'Tb4 Cl12'
_cell_volume   500.57847895
_cell_formula_units_Z   4
loop_
 _symmetry_equiv_pos_site_id
 _symmetry_equiv_pos_as_xyz
  1  'x, y, z'
loop_
 _atom_site_type_symbol
 _atom_site_label
 _atom_site_symmetry_multiplicity
 _atom_site_fract_x
 _atom_site_fract_y
 _atom_site_fract_z
 _atom_site_occupancy
  Tb  Tb0  1  0.000000  0.000000  0.673184  1
  Tb  Tb1  1  0.000000  0.000000  0.326816  1
  Tb  Tb2  1  0.500000  0.500000  0.826816  1
  Tb  Tb3  1  0.500000  0.500000  0.173184  1
  Cl  Cl4  1  0.790342  0.209658  0.829045  1
  Cl  Cl5  1  0.187488  0.812512  0.500000  1
  Cl  Cl6  1  0.709658  0.709658  0.329045  1
  Cl  Cl7  1  0.812512  0.187488  0.500000  1
  Cl  Cl8  1  0.209658  0.790342  0.170955  1
  Cl  Cl9  1  0.290342  0.290342  0.670955  1
  Cl  Cl10  1  0.209658  0.790342  0.829045  1
  Cl  Cl11  1  0.790342  0.209658  0.170955  1
  Cl  Cl12  1  0.312512  0.312512  0.000000  1
  Cl  Cl13  1  0.290342  0.290342  0.329045  1
  Cl  Cl14  1  0.687488  0.687488  0.000000  1
  Cl  Cl15  1  0.709658  0.709658  0.670955  1
