# generated using pymatgen
data_SrAlH5
_symmetry_space_group_name_H-M   'P 1'
_cell_length_a   4.50800000
_cell_length_b   5.20000000
_cell_length_c   12.67900000
_cell_angle_alpha   90.00000000
_cell_angle_beta   90.00000000
_cell_angle_gamma   90.00000000
_symmetry_Int_Tables_number   1
_chemical_formula_structural   SrAlH5
_chemical_formula_sum   'Sr4 Al4 H20'
_cell_volume   297.21604640
_cell_formula_units_Z   4
loop_
 _symmetry_equiv_pos_site_id
 _symmetry_equiv_pos_as_xyz
  1  'x, y, z'
loop_
 _atom_site_type_symbol
 _atom_site_label
 _atom_site_symmetry_multiplicity
 _atom_site_fract_x
 _atom_site_fract_y
 _atom_site_fract_z
 _atom_site_occupancy
  Sr  Sr0  1  0.286000  0.146000  0.658000  1
  Sr  Sr1  1  0.786000  0.354000  0.342000  1
  Sr  Sr2  1  0.214000  0.854000  0.158000  1
  Sr  Sr3  1  0.714000  0.646000  0.842000  1
  Al  Al4  1  0.321000  0.133000  0.915000  1
  Al  Al5  1  0.821000  0.367000  0.085000  1
  Al  Al6  1  0.179000  0.867000  0.415000  1
  Al  Al7  1  0.679000  0.633000  0.585000  1
  H  H8  1  0.528000  0.391000  0.513000  1
  H  H9  1  0.028000  0.109000  0.487000  1
  H  H10  1  0.972000  0.609000  0.013000  1
  H  H11  1  0.472000  0.891000  0.987000  1
  H  H12  1  0.168000  0.913000  0.828000  1
  H  H13  1  0.668000  0.587000  0.172000  1
  H  H14  1  0.332000  0.087000  0.328000  1
  H  H15  1  0.832000  0.413000  0.672000  1
  H  H16  1  0.195000  0.390000  0.843000  1
  H  H17  1  0.695000  0.110000  0.157000  1
  H  H18  1  0.305000  0.610000  0.343000  1
  H  H19  1  0.805000  0.890000  0.657000  1
  H  H20  1  0.624000  0.136000  0.829000  1
  H  H21  1  0.124000  0.364000  0.171000  1
  H  H22  1  0.876000  0.864000  0.329000  1
  H  H23  1  0.376000  0.636000  0.671000  1
  H  H24  1  0.018000  0.134000  0.004000  1
  H  H25  1  0.518000  0.366000  0.996000  1
  H  H26  1  0.482000  0.866000  0.504000  1
  H  H27  1  0.982000  0.634000  0.496000  1
