# generated using pymatgen
data_Dy2Te5O13
_symmetry_space_group_name_H-M   'P 1'
_cell_length_a   7.04421043
_cell_length_b   8.77697592
_cell_length_c   10.77132348
_cell_angle_alpha   89.48108797
_cell_angle_beta   92.61181366
_cell_angle_gamma   105.11790226
_symmetry_Int_Tables_number   1
_chemical_formula_structural   Dy2Te5O13
_chemical_formula_sum   'Dy4 Te10 O26'
_cell_volume   642.23856102
_cell_formula_units_Z   2
loop_
 _symmetry_equiv_pos_site_id
 _symmetry_equiv_pos_as_xyz
  1  'x, y, z'
loop_
 _atom_site_type_symbol
 _atom_site_label
 _atom_site_symmetry_multiplicity
 _atom_site_fract_x
 _atom_site_fract_y
 _atom_site_fract_z
 _atom_site_occupancy
  Dy  Dy0  1  0.553003  0.473092  0.821258  1
  Dy  Dy1  1  0.997568  0.261711  0.760845  1
  Dy  Dy2  1  0.002432  0.738289  0.239155  1
  Dy  Dy3  1  0.446997  0.526908  0.178742  1
  Te  Te4  1  0.273979  0.607702  0.511912  1
  Te  Te5  1  0.289651  0.124199  0.022844  1
  Te  Te6  1  0.726021  0.392298  0.488088  1
  Te  Te7  1  0.710349  0.875801  0.977156  1
  Te  Te8  1  0.436475  0.098645  0.698612  1
  Te  Te9  1  0.563525  0.901355  0.301388  1
  Te  Te10  1  0.120155  0.649694  0.890028  1
  Te  Te11  1  0.155166  0.197054  0.359060  1
  Te  Te12  1  0.844834  0.802946  0.640940  1
  Te  Te13  1  0.879845  0.350306  0.109972  1
  O  O14  1  0.653388  0.982586  0.125455  1
  O  O15  1  0.123655  0.511120  0.107916  1
  O  O16  1  0.876345  0.488880  0.892084  1
  O  O17  1  0.463098  0.806619  0.480103  1
  O  O18  1  0.661824  0.512853  0.618318  1
  O  O19  1  0.327747  0.257779  0.226320  1
  O  O20  1  0.764344  0.494597  0.188255  1
  O  O21  1  0.670318  0.224710  0.776469  1
  O  O22  1  0.058772  0.181539  0.961863  1
  O  O23  1  0.686324  0.734999  0.284997  1
  O  O24  1  0.464707  0.329978  0.000930  1
  O  O25  1  0.065873  0.734330  0.722204  1
  O  O26  1  0.062313  0.983151  0.312750  1
  O  O27  1  0.338176  0.487147  0.381682  1
  O  O28  1  0.346612  0.017414  0.874545  1
  O  O29  1  0.535293  0.670022  0.999070  1
  O  O30  1  0.536902  0.193381  0.519897  1
  O  O31  1  0.046531  0.651045  0.433740  1
  O  O32  1  0.934127  0.265670  0.277796  1
  O  O33  1  0.235656  0.505403  0.811745  1
  O  O34  1  0.937687  0.016849  0.687250  1
  O  O35  1  0.953469  0.348955  0.566260  1
  O  O36  1  0.672253  0.742221  0.773680  1
  O  O37  1  0.941228  0.818461  0.038137  1
  O  O38  1  0.313676  0.265001  0.715003  1
  O  O39  1  0.329682  0.775290  0.223531  1
