# generated using pymatgen
data_PtF5
_symmetry_space_group_name_H-M   'P 1'
_cell_length_a   5.69091400
_cell_length_b   10.13545276
_cell_length_c   12.77250037
_cell_angle_alpha   90.00000000
_cell_angle_beta   101.28195778
_cell_angle_gamma   90.00000000
_symmetry_Int_Tables_number   1
_chemical_formula_structural   PtF5
_chemical_formula_sum   'Pt8 F40'
_cell_volume   722.48159147
_cell_formula_units_Z   8
loop_
 _symmetry_equiv_pos_site_id
 _symmetry_equiv_pos_as_xyz
  1  'x, y, z'
loop_
 _atom_site_type_symbol
 _atom_site_label
 _atom_site_symmetry_multiplicity
 _atom_site_fract_x
 _atom_site_fract_y
 _atom_site_fract_z
 _atom_site_occupancy
  Pt  Pt0  1  0.000826  0.750974  0.997678  1
  Pt  Pt1  1  0.999174  0.250974  0.502322  1
  Pt  Pt2  1  0.999174  0.249026  0.002322  1
  Pt  Pt3  1  0.000826  0.749026  0.497678  1
  Pt  Pt4  1  0.701289  0.001973  0.802281  1
  Pt  Pt5  1  0.298711  0.501973  0.697719  1
  Pt  Pt6  1  0.298711  0.998027  0.197719  1
  Pt  Pt7  1  0.701289  0.498027  0.302281  1
  F  F8  1  0.903066  0.165581  0.853512  1
  F  F9  1  0.096934  0.665581  0.646488  1
  F  F10  1  0.096934  0.834419  0.146488  1
  F  F11  1  0.903066  0.334419  0.353512  1
  F  F12  1  0.515841  0.852408  0.750998  1
  F  F13  1  0.484159  0.352408  0.749002  1
  F  F14  1  0.484159  0.147592  0.249002  1
  F  F15  1  0.515841  0.647592  0.250998  1
  F  F16  1  0.188906  0.602521  0.049141  1
  F  F17  1  0.811094  0.102521  0.450859  1
  F  F18  1  0.811094  0.397479  0.950859  1
  F  F19  1  0.188906  0.897479  0.549141  1
  F  F20  1  0.907732  0.670535  0.861973  1
  F  F21  1  0.092268  0.170535  0.638027  1
  F  F22  1  0.092268  0.329465  0.138027  1
  F  F23  1  0.907732  0.829465  0.361973  1
  F  F24  1  0.267711  0.665621  0.455560  1
  F  F25  1  0.732289  0.165621  0.044440  1
  F  F26  1  0.732289  0.334379  0.544440  1
  F  F27  1  0.267711  0.834379  0.955560  1
  F  F28  1  0.800165  0.915175  0.949447  1
  F  F29  1  0.199835  0.415175  0.550553  1
  F  F30  1  0.199835  0.084825  0.050553  1
  F  F31  1  0.800165  0.584825  0.449447  1
  F  F32  1  0.563897  0.577979  0.649026  1
  F  F33  1  0.436103  0.077979  0.850974  1
  F  F34  1  0.436103  0.422021  0.350974  1
  F  F35  1  0.563897  0.922021  0.149026  1
  F  F36  1  0.391820  0.912544  0.331180  1
  F  F37  1  0.608180  0.412544  0.168820  1
  F  F38  1  0.608180  0.087456  0.668820  1
  F  F39  1  0.391820  0.587456  0.831180  1
  F  F40  1  0.975941  0.928424  0.760110  1
  F  F41  1  0.024059  0.428424  0.739890  1
  F  F42  1  0.024059  0.071576  0.239890  1
  F  F43  1  0.975941  0.571576  0.260110  1
  F  F44  1  0.729438  0.677912  0.042859  1
  F  F45  1  0.270562  0.177912  0.457141  1
  F  F46  1  0.270562  0.322088  0.957141  1
  F  F47  1  0.729438  0.822088  0.542859  1
