# generated using pymatgen
data_K4La6OsI14
_symmetry_space_group_name_H-M   'P 1'
_cell_length_a   10.13146779
_cell_length_b   10.13146779
_cell_length_c   22.41990761
_cell_angle_alpha   90.00000000
_cell_angle_beta   90.00000000
_cell_angle_gamma   90.00000000
_symmetry_Int_Tables_number   1
_chemical_formula_structural   K4La6OsI14
_chemical_formula_sum   'K8 La12 Os2 I28'
_cell_volume   2301.32817586
_cell_formula_units_Z   2
loop_
 _symmetry_equiv_pos_site_id
 _symmetry_equiv_pos_as_xyz
  1  'x, y, z'
loop_
 _atom_site_type_symbol
 _atom_site_label
 _atom_site_symmetry_multiplicity
 _atom_site_fract_x
 _atom_site_fract_y
 _atom_site_fract_z
 _atom_site_occupancy
  K  K0  1  0.667895  0.167895  0.250000  1
  K  K1  1  0.332105  0.832105  0.750000  1
  K  K2  1  0.332105  0.832105  0.250000  1
  K  K3  1  0.832105  0.667895  0.750000  1
  K  K4  1  0.167895  0.332105  0.750000  1
  K  K5  1  0.167895  0.332105  0.250000  1
  K  K6  1  0.832105  0.667895  0.250000  1
  K  K7  1  0.667895  0.167895  0.750000  1
  La  La8  1  0.500000  0.500000  0.128591  1
  La  La9  1  0.409177  0.231562  0.000000  1
  La  La10  1  0.000000  0.000000  0.628591  1
  La  La11  1  0.090823  0.731562  0.500000  1
  La  La12  1  0.909177  0.268438  0.500000  1
  La  La13  1  0.731562  0.909177  0.500000  1
  La  La14  1  0.231562  0.590823  0.000000  1
  La  La15  1  0.268438  0.090823  0.500000  1
  La  La16  1  0.590823  0.768438  0.000000  1
  La  La17  1  0.500000  0.500000  0.871409  1
  La  La18  1  0.768438  0.409177  0.000000  1
  La  La19  1  0.000000  0.000000  0.371409  1
  Os  Os20  1  0.000000  0.000000  0.500000  1
  Os  Os21  1  0.500000  0.500000  0.000000  1
  I  I22  1  0.500000  0.500000  0.277240  1
  I  I23  1  0.693212  0.897316  0.353698  1
  I  I24  1  0.602684  0.806788  0.146302  1
  I  I25  1  0.397316  0.193212  0.146302  1
  I  I26  1  0.306788  0.102684  0.646302  1
  I  I27  1  0.800249  0.593366  0.500000  1
  I  I28  1  0.193212  0.602684  0.853698  1
  I  I29  1  0.397316  0.193212  0.853698  1
  I  I30  1  0.000000  0.000000  0.222760  1
  I  I31  1  0.102684  0.693212  0.353698  1
  I  I32  1  0.093366  0.300249  0.000000  1
  I  I33  1  0.906634  0.699751  0.000000  1
  I  I34  1  0.897316  0.306788  0.353698  1
  I  I35  1  0.693212  0.897316  0.646302  1
  I  I36  1  0.806788  0.397316  0.853698  1
  I  I37  1  0.300249  0.906634  0.000000  1
  I  I38  1  0.593366  0.199751  0.500000  1
  I  I39  1  0.699751  0.093366  0.000000  1
  I  I40  1  0.199751  0.406634  0.500000  1
  I  I41  1  0.193212  0.602684  0.146302  1
  I  I42  1  0.000000  0.000000  0.777240  1
  I  I43  1  0.897316  0.306788  0.646302  1
  I  I44  1  0.306788  0.102684  0.353698  1
  I  I45  1  0.102684  0.693212  0.646302  1
  I  I46  1  0.406634  0.800249  0.500000  1
  I  I47  1  0.806788  0.397316  0.146302  1
  I  I48  1  0.602684  0.806788  0.853698  1
  I  I49  1  0.500000  0.500000  0.722760  1
