# generated using pymatgen
data_Li2ZnSn3O8
_symmetry_space_group_name_H-M   'P 1'
_cell_length_a   10.67483226
_cell_length_b   10.67483226
_cell_length_c   10.05516142
_cell_angle_alpha   90.00000000
_cell_angle_beta   90.00000000
_cell_angle_gamma   120.04969766
_symmetry_Int_Tables_number   1
_chemical_formula_structural   Li2ZnSn3O8
_chemical_formula_sum   'Li12 Zn6 Sn18 O48'
_cell_volume   991.79997065
_cell_formula_units_Z   6
loop_
 _symmetry_equiv_pos_site_id
 _symmetry_equiv_pos_as_xyz
  1  'x, y, z'
loop_
 _atom_site_type_symbol
 _atom_site_label
 _atom_site_symmetry_multiplicity
 _atom_site_fract_x
 _atom_site_fract_y
 _atom_site_fract_z
 _atom_site_occupancy
  Li  Li0  1  0.335117  0.697061  0.720070  1
  Li  Li1  1  0.334013  0.833732  0.491604  1
  Li  Li2  1  0.664883  0.302939  0.220070  1
  Li  Li3  1  0.833732  0.334013  0.491604  1
  Li  Li4  1  0.165993  0.165993  0.989690  1
  Li  Li5  1  0.302939  0.664883  0.220070  1
  Li  Li6  1  0.665987  0.166268  0.991604  1
  Li  Li7  1  0.166268  0.665987  0.991604  1
  Li  Li8  1  0.978342  0.978342  0.716136  1
  Li  Li9  1  0.697061  0.335117  0.720070  1
  Li  Li10  1  0.021658  0.021658  0.216136  1
  Li  Li11  1  0.834007  0.834007  0.489690  1
  Zn  Zn12  1  0.666600  0.000350  0.305277  1
  Zn  Zn13  1  0.999650  0.333400  0.805277  1
  Zn  Zn14  1  0.666627  0.666627  0.809154  1
  Zn  Zn15  1  0.333373  0.333373  0.309154  1
  Zn  Zn16  1  0.333400  0.999650  0.805277  1
  Zn  Zn17  1  0.000350  0.666600  0.305277  1
  Sn  Sn18  1  0.161293  0.505961  0.497841  1
  Sn  Sn19  1  0.159109  0.984549  0.496407  1
  Sn  Sn20  1  0.508430  0.681152  0.496326  1
  Sn  Sn21  1  0.984549  0.159109  0.496407  1
  Sn  Sn22  1  0.681152  0.508430  0.496326  1
  Sn  Sn23  1  0.505961  0.161293  0.497841  1
  Sn  Sn24  1  0.318848  0.491570  0.996326  1
  Sn  Sn25  1  0.003824  0.666868  0.716997  1
  Sn  Sn26  1  0.670724  0.670724  0.215832  1
  Sn  Sn27  1  0.838707  0.494039  0.997841  1
  Sn  Sn28  1  0.015451  0.840891  0.996407  1
  Sn  Sn29  1  0.666868  0.003824  0.716997  1
  Sn  Sn30  1  0.996176  0.333132  0.216997  1
  Sn  Sn31  1  0.333132  0.996176  0.216997  1
  Sn  Sn32  1  0.494039  0.838707  0.997841  1
  Sn  Sn33  1  0.329276  0.329276  0.715832  1
  Sn  Sn34  1  0.491570  0.318848  0.996326  1
  Sn  Sn35  1  0.840891  0.015451  0.996407  1
  O  O36  1  0.496843  0.167742  0.116300  1
  O  O37  1  0.335278  0.665735  0.899405  1
  O  O38  1  0.832971  0.000441  0.615523  1
  O  O39  1  0.832258  0.503157  0.616300  1
  O  O40  1  0.842015  0.842015  0.112351  1
  O  O41  1  0.663196  0.663196  0.606960  1
  O  O42  1  0.336804  0.336804  0.106960  1
  O  O43  1  0.664726  0.169109  0.617214  1
  O  O44  1  0.331447  0.150303  0.370606  1
  O  O45  1  0.517842  0.517842  0.367632  1
  O  O46  1  0.666859  0.996911  0.103430  1
  O  O47  1  0.665735  0.335278  0.899405  1
  O  O48  1  0.169109  0.664726  0.617214  1
  O  O49  1  0.849697  0.668553  0.870606  1
  O  O50  1  0.167029  0.999559  0.115523  1
  O  O51  1  0.996911  0.666859  0.103430  1
  O  O52  1  0.334265  0.664722  0.399405  1
  O  O53  1  0.664722  0.334265  0.399405  1
  O  O54  1  0.989650  0.508913  0.858415  1
  O  O55  1  0.508913  0.989650  0.858415  1
  O  O56  1  0.820753  0.150663  0.859624  1
  O  O57  1  0.000441  0.832971  0.615523  1
  O  O58  1  0.482158  0.482158  0.867632  1
  O  O59  1  0.179247  0.849337  0.359624  1
  O  O60  1  0.661148  0.815402  0.356276  1
  O  O61  1  0.150303  0.331447  0.370606  1
  O  O62  1  0.333141  0.003089  0.603430  1
  O  O63  1  0.495593  0.664531  0.109858  1
  O  O64  1  0.003089  0.333141  0.603430  1
  O  O65  1  0.167742  0.496843  0.116300  1
  O  O66  1  0.338852  0.184598  0.856276  1
  O  O67  1  0.503157  0.832258  0.616300  1
  O  O68  1  0.997695  0.997695  0.897895  1
  O  O69  1  0.999559  0.167029  0.115523  1
  O  O70  1  0.002305  0.002305  0.397895  1
  O  O71  1  0.157985  0.157985  0.612351  1
  O  O72  1  0.150663  0.820753  0.859624  1
  O  O73  1  0.668553  0.849697  0.870606  1
  O  O74  1  0.184598  0.338852  0.856276  1
  O  O75  1  0.815402  0.661148  0.356276  1
  O  O76  1  0.830891  0.335274  0.117214  1
  O  O77  1  0.010350  0.491087  0.358415  1
  O  O78  1  0.335469  0.504407  0.609858  1
  O  O79  1  0.491087  0.010350  0.358415  1
  O  O80  1  0.335274  0.830891  0.117214  1
  O  O81  1  0.849337  0.179247  0.359624  1
  O  O82  1  0.664531  0.495593  0.109858  1
  O  O83  1  0.504407  0.335469  0.609858  1
