# generated using pymatgen
data_ZnCl2
_symmetry_space_group_name_H-M   'P 1'
_cell_length_a   6.78790820
_cell_length_b   11.78673184
_cell_length_c   14.04579857
_cell_angle_alpha   90.00000000
_cell_angle_beta   116.47104809
_cell_angle_gamma   90.00000000
_symmetry_Int_Tables_number   1
_chemical_formula_structural   ZnCl2
_chemical_formula_sum   'Zn12 Cl24'
_cell_volume   1005.94984534
_cell_formula_units_Z   12
loop_
 _symmetry_equiv_pos_site_id
 _symmetry_equiv_pos_as_xyz
  1  'x, y, z'
loop_
 _atom_site_type_symbol
 _atom_site_label
 _atom_site_symmetry_multiplicity
 _atom_site_fract_x
 _atom_site_fract_y
 _atom_site_fract_z
 _atom_site_occupancy
  Zn  Zn0  1  0.853827  0.339297  0.182968  1
  Zn  Zn1  1  0.243863  0.684329  0.575777  1
  Zn  Zn2  1  0.146173  0.839297  0.317032  1
  Zn  Zn3  1  0.146173  0.660703  0.817032  1
  Zn  Zn4  1  0.243863  0.815671  0.075777  1
  Zn  Zn5  1  0.756137  0.315671  0.424223  1
  Zn  Zn6  1  0.633041  0.995396  0.306338  1
  Zn  Zn7  1  0.756137  0.184329  0.924223  1
  Zn  Zn8  1  0.853827  0.160703  0.682968  1
  Zn  Zn9  1  0.366959  0.004604  0.693662  1
  Zn  Zn10  1  0.366959  0.495396  0.193662  1
  Zn  Zn11  1  0.633041  0.504604  0.806338  1
  Cl  Cl12  1  0.977827  0.676803  0.634471  1
  Cl  Cl13  1  0.551560  0.481223  0.375444  1
  Cl  Cl14  1  0.076263  0.679723  0.391923  1
  Cl  Cl15  1  0.467882  0.841100  0.635155  1
  Cl  Cl16  1  0.076263  0.820277  0.891923  1
  Cl  Cl17  1  0.022173  0.323197  0.365529  1
  Cl  Cl18  1  0.008066  0.503766  0.865017  1
  Cl  Cl19  1  0.522413  0.652651  0.878564  1
  Cl  Cl20  1  0.977827  0.823197  0.134471  1
  Cl  Cl21  1  0.467882  0.658900  0.135155  1
  Cl  Cl22  1  0.923737  0.320277  0.608077  1
  Cl  Cl23  1  0.008066  0.996234  0.365017  1
  Cl  Cl24  1  0.477587  0.152651  0.621436  1
  Cl  Cl25  1  0.448440  0.518777  0.624556  1
  Cl  Cl26  1  0.522413  0.847349  0.378564  1
  Cl  Cl27  1  0.923737  0.179723  0.108077  1
  Cl  Cl28  1  0.448440  0.981223  0.124556  1
  Cl  Cl29  1  0.551560  0.018777  0.875444  1
  Cl  Cl30  1  0.532118  0.158900  0.364845  1
  Cl  Cl31  1  0.991934  0.496234  0.134983  1
  Cl  Cl32  1  0.532118  0.341100  0.864845  1
  Cl  Cl33  1  0.477587  0.347349  0.121436  1
  Cl  Cl34  1  0.022173  0.176803  0.865529  1
  Cl  Cl35  1  0.991934  0.003766  0.634983  1
