# generated using pymatgen
data_Hg3Se4O5
_symmetry_space_group_name_H-M   'P 1'
_cell_length_a   7.90841821
_cell_length_b   7.94516690
_cell_length_c   9.50479721
_cell_angle_alpha   94.33465011
_cell_angle_beta   110.38511617
_cell_angle_gamma   107.11407366
_symmetry_Int_Tables_number   1
_chemical_formula_structural   Hg3Se4O5
_chemical_formula_sum   'Hg6 Se8 O10'
_cell_volume   524.35303386
_cell_formula_units_Z   2
loop_
 _symmetry_equiv_pos_site_id
 _symmetry_equiv_pos_as_xyz
  1  'x, y, z'
loop_
 _atom_site_type_symbol
 _atom_site_label
 _atom_site_symmetry_multiplicity
 _atom_site_fract_x
 _atom_site_fract_y
 _atom_site_fract_z
 _atom_site_occupancy
  Hg  Hg0  1  0.013622  0.476791  0.717852  1
  Hg  Hg1  1  0.270518  0.803779  0.089173  1
  Hg  Hg2  1  0.015780  0.989140  0.771567  1
  Hg  Hg3  1  0.729482  0.196221  0.910827  1
  Hg  Hg4  1  0.986378  0.523209  0.282148  1
  Hg  Hg5  1  0.984220  0.010860  0.228433  1
  Se  Se6  1  0.221470  0.847515  0.340937  1
  Se  Se7  1  0.652246  0.638023  0.908281  1
  Se  Se8  1  0.240183  0.806632  0.811792  1
  Se  Se9  1  0.347754  0.361977  0.091719  1
  Se  Se10  1  0.759817  0.193368  0.188208  1
  Se  Se11  1  0.627256  0.663990  0.389633  1
  Se  Se12  1  0.778530  0.152485  0.659063  1
  Se  Se13  1  0.372744  0.336010  0.610367  1
  O  O14  1  0.430709  0.438037  0.304489  1
  O  O15  1  0.171955  0.391227  0.543226  1
  O  O16  1  0.790343  0.853488  0.924487  1
  O  O17  1  0.183108  0.464185  0.026995  1
  O  O18  1  0.209657  0.146512  0.075513  1
  O  O19  1  0.816892  0.535815  0.973005  1
  O  O20  1  0.626707  0.742604  0.228123  1
  O  O21  1  0.569291  0.561963  0.695511  1
  O  O22  1  0.828045  0.608773  0.456774  1
  O  O23  1  0.373293  0.257396  0.771877  1
