# generated using pymatgen
data_SrEr2O4
_symmetry_space_group_name_H-M   'P 1'
_cell_length_a   3.39642445
_cell_length_b   10.09058584
_cell_length_c   11.91504479
_cell_angle_alpha   90.00000000
_cell_angle_beta   90.00000000
_cell_angle_gamma   90.00000000
_symmetry_Int_Tables_number   1
_chemical_formula_structural   SrEr2O4
_chemical_formula_sum   'Sr4 Er8 O16'
_cell_volume   408.35137202
_cell_formula_units_Z   4
loop_
 _symmetry_equiv_pos_site_id
 _symmetry_equiv_pos_as_xyz
  1  'x, y, z'
loop_
 _atom_site_type_symbol
 _atom_site_label
 _atom_site_symmetry_multiplicity
 _atom_site_fract_x
 _atom_site_fract_y
 _atom_site_fract_z
 _atom_site_occupancy
  Sr  Sr0  1  0.750000  0.253465  0.850232  1
  Sr  Sr1  1  0.750000  0.753465  0.649768  1
  Sr  Sr2  1  0.250000  0.746535  0.149768  1
  Sr  Sr3  1  0.250000  0.246535  0.350232  1
  Er  Er4  1  0.250000  0.577300  0.889982  1
  Er  Er5  1  0.250000  0.077300  0.610018  1
  Er  Er6  1  0.250000  0.575720  0.387970  1
  Er  Er7  1  0.750000  0.922700  0.389982  1
  Er  Er8  1  0.750000  0.424280  0.612030  1
  Er  Er9  1  0.250000  0.075720  0.112030  1
  Er  Er10  1  0.750000  0.422700  0.110018  1
  Er  Er11  1  0.750000  0.924280  0.887970  1
  O  O12  1  0.250000  0.484658  0.216179  1
  O  O13  1  0.750000  0.623869  0.019662  1
  O  O14  1  0.750000  0.210939  0.172609  1
  O  O15  1  0.250000  0.789061  0.827391  1
  O  O16  1  0.250000  0.376131  0.980338  1
  O  O17  1  0.750000  0.015342  0.716179  1
  O  O18  1  0.750000  0.123869  0.480338  1
  O  O19  1  0.750000  0.425557  0.423185  1
  O  O20  1  0.250000  0.074443  0.923185  1
  O  O21  1  0.250000  0.876131  0.519662  1
  O  O22  1  0.250000  0.289061  0.672609  1
  O  O23  1  0.750000  0.710939  0.327391  1
  O  O24  1  0.250000  0.574443  0.576815  1
  O  O25  1  0.750000  0.925557  0.076815  1
  O  O26  1  0.750000  0.515342  0.783821  1
  O  O27  1  0.250000  0.984658  0.283821  1
