# generated using pymatgen
data_LiFe(MoO4)2
_symmetry_space_group_name_H-M   'P 1'
_cell_length_a   6.86802325
_cell_length_b   7.26151277
_cell_length_c   7.48814379
_cell_angle_alpha   91.01506854
_cell_angle_beta   110.17503141
_cell_angle_gamma   105.01122431
_symmetry_Int_Tables_number   1
_chemical_formula_structural   LiFe(MoO4)2
_chemical_formula_sum   'Li2 Fe2 Mo4 O16'
_cell_volume   336.20653805
_cell_formula_units_Z   2
loop_
 _symmetry_equiv_pos_site_id
 _symmetry_equiv_pos_as_xyz
  1  'x, y, z'
loop_
 _atom_site_type_symbol
 _atom_site_label
 _atom_site_symmetry_multiplicity
 _atom_site_fract_x
 _atom_site_fract_y
 _atom_site_fract_z
 _atom_site_occupancy
  Li  Li0  1  0.773166  0.449017  0.252467  1
  Li  Li1  1  0.226834  0.550983  0.747533  1
  Fe  Fe2  1  0.403594  0.100875  0.319140  1
  Fe  Fe3  1  0.596406  0.899125  0.680860  1
  Mo  Mo4  1  0.821738  0.966048  0.215437  1
  Mo  Mo5  1  0.333232  0.577266  0.286873  1
  Mo  Mo6  1  0.178262  0.033952  0.784563  1
  Mo  Mo7  1  0.666768  0.422734  0.713127  1
  O  O8  1  0.575262  0.159783  0.610854  1
  O  O9  1  0.241558  0.040757  0.038459  1
  O  O10  1  0.719004  0.728418  0.259410  1
  O  O11  1  0.888592  0.950679  0.656857  1
  O  O12  1  0.424738  0.840217  0.389146  1
  O  O13  1  0.689297  0.131790  0.274941  1
  O  O14  1  0.518679  0.613432  0.656189  1
  O  O15  1  0.905705  0.513097  0.668996  1
  O  O16  1  0.253118  0.576154  0.039604  1
  O  O17  1  0.481321  0.386568  0.343811  1
  O  O18  1  0.758442  0.959243  0.961541  1
  O  O19  1  0.094295  0.486903  0.331004  1
  O  O20  1  0.111408  0.049321  0.343143  1
  O  O21  1  0.280996  0.271582  0.740590  1
  O  O22  1  0.746882  0.423846  0.960396  1
  O  O23  1  0.310703  0.868210  0.725059  1
