# generated using pymatgen
data_Yb5Au4
_symmetry_space_group_name_H-M   'P 1'
_cell_length_a   7.75697199
_cell_length_b   7.90628488
_cell_length_c   15.03795883
_cell_angle_alpha   90.00000000
_cell_angle_beta   90.00000000
_cell_angle_gamma   90.00000000
_symmetry_Int_Tables_number   1
_chemical_formula_structural   Yb5Au4
_chemical_formula_sum   'Yb20 Au16'
_cell_volume   922.26042603
_cell_formula_units_Z   4
loop_
 _symmetry_equiv_pos_site_id
 _symmetry_equiv_pos_as_xyz
  1  'x, y, z'
loop_
 _atom_site_type_symbol
 _atom_site_label
 _atom_site_symmetry_multiplicity
 _atom_site_fract_x
 _atom_site_fract_y
 _atom_site_fract_z
 _atom_site_occupancy
  Yb  Yb0  1  0.029852  0.174366  0.399321  1
  Yb  Yb1  1  0.869595  0.662697  0.379365  1
  Yb  Yb2  1  0.529852  0.325634  0.100679  1
  Yb  Yb3  1  0.130405  0.337303  0.620635  1
  Yb  Yb4  1  0.369595  0.837303  0.379365  1
  Yb  Yb5  1  0.130405  0.337303  0.879365  1
  Yb  Yb6  1  0.369595  0.837303  0.120635  1
  Yb  Yb7  1  0.207002  0.494856  0.250000  1
  Yb  Yb8  1  0.529852  0.325634  0.399321  1
  Yb  Yb9  1  0.792998  0.505144  0.750000  1
  Yb  Yb10  1  0.970148  0.825634  0.899321  1
  Yb  Yb11  1  0.970148  0.825634  0.600679  1
  Yb  Yb12  1  0.470148  0.674366  0.600679  1
  Yb  Yb13  1  0.630405  0.162697  0.620635  1
  Yb  Yb14  1  0.292998  0.994856  0.750000  1
  Yb  Yb15  1  0.630405  0.162697  0.879365  1
  Yb  Yb16  1  0.707002  0.005144  0.250000  1
  Yb  Yb17  1  0.869595  0.662697  0.120635  1
  Yb  Yb18  1  0.470148  0.674366  0.899321  1
  Yb  Yb19  1  0.029852  0.174366  0.100679  1
  Au  Au20  1  0.835969  0.361733  0.250000  1
  Au  Au21  1  0.428609  0.375855  0.750000  1
  Au  Au22  1  0.664031  0.861733  0.750000  1
  Au  Au23  1  0.794852  0.474778  0.545331  1
  Au  Au24  1  0.705148  0.974778  0.045331  1
  Au  Au25  1  0.794852  0.474778  0.954669  1
  Au  Au26  1  0.205148  0.525222  0.454669  1
  Au  Au27  1  0.205148  0.525222  0.045331  1
  Au  Au28  1  0.164031  0.638267  0.750000  1
  Au  Au29  1  0.335969  0.138267  0.250000  1
  Au  Au30  1  0.571391  0.624145  0.250000  1
  Au  Au31  1  0.071391  0.875855  0.250000  1
  Au  Au32  1  0.294852  0.025222  0.954669  1
  Au  Au33  1  0.928609  0.124145  0.750000  1
  Au  Au34  1  0.705148  0.974778  0.454669  1
  Au  Au35  1  0.294852  0.025222  0.545331  1
