# generated using pymatgen
data_Ba2In2Se5
_symmetry_space_group_name_H-M   'P 1'
_cell_length_a   12.48758382
_cell_length_b   13.43873994
_cell_length_c   13.93091619
_cell_angle_alpha   90.00000000
_cell_angle_beta   90.00000000
_cell_angle_gamma   90.00000000
_symmetry_Int_Tables_number   1
_chemical_formula_structural   Ba2In2Se5
_chemical_formula_sum   'Ba16 In16 Se40'
_cell_volume   2337.85001532
_cell_formula_units_Z   8
loop_
 _symmetry_equiv_pos_site_id
 _symmetry_equiv_pos_as_xyz
  1  'x, y, z'
loop_
 _atom_site_type_symbol
 _atom_site_label
 _atom_site_symmetry_multiplicity
 _atom_site_fract_x
 _atom_site_fract_y
 _atom_site_fract_z
 _atom_site_occupancy
  Ba  Ba0  1  0.250691  0.745836  0.810971  1
  Ba  Ba1  1  0.496303  0.028681  0.307206  1
  Ba  Ba2  1  0.749309  0.254164  0.189029  1
  Ba  Ba3  1  0.496303  0.528681  0.192794  1
  Ba  Ba4  1  0.996303  0.471319  0.307206  1
  Ba  Ba5  1  0.003697  0.028681  0.807206  1
  Ba  Ba6  1  0.249309  0.245836  0.189029  1
  Ba  Ba7  1  0.250691  0.245836  0.689029  1
  Ba  Ba8  1  0.750691  0.254164  0.689029  1
  Ba  Ba9  1  0.750691  0.754164  0.810971  1
  Ba  Ba10  1  0.503697  0.971319  0.692794  1
  Ba  Ba11  1  0.003697  0.528681  0.692794  1
  Ba  Ba12  1  0.996303  0.971319  0.192794  1
  Ba  Ba13  1  0.749309  0.754164  0.310971  1
  Ba  Ba14  1  0.249309  0.745836  0.310971  1
  Ba  Ba15  1  0.503697  0.471319  0.807206  1
  In  In16  1  0.559618  0.803861  0.051332  1
  In  In17  1  0.440382  0.196139  0.948668  1
  In  In18  1  0.228025  0.965003  0.527797  1
  In  In19  1  0.228025  0.465003  0.972203  1
  In  In20  1  0.059618  0.696139  0.051332  1
  In  In21  1  0.271975  0.465003  0.472203  1
  In  In22  1  0.940382  0.803861  0.551332  1
  In  In23  1  0.728025  0.534997  0.527797  1
  In  In24  1  0.559618  0.303861  0.448668  1
  In  In25  1  0.771975  0.034997  0.472203  1
  In  In26  1  0.059618  0.196139  0.448668  1
  In  In27  1  0.440382  0.696139  0.551332  1
  In  In28  1  0.771975  0.534997  0.027797  1
  In  In29  1  0.940382  0.303861  0.948668  1
  In  In30  1  0.728025  0.034997  0.972203  1
  In  In31  1  0.271975  0.965003  0.027797  1
  Se  Se32  1  0.496927  0.219095  0.773160  1
  Se  Se33  1  0.069083  0.390948  0.072523  1
  Se  Se34  1  0.409821  0.376938  0.025988  1
  Se  Se35  1  0.930917  0.109052  0.572523  1
  Se  Se36  1  0.503073  0.280905  0.273160  1
  Se  Se37  1  0.241146  0.988340  0.711657  1
  Se  Se38  1  0.736347  0.854998  0.541448  1
  Se  Se39  1  0.069083  0.890948  0.427477  1
  Se  Se40  1  0.496927  0.719095  0.726840  1
  Se  Se41  1  0.996927  0.780905  0.726840  1
  Se  Se42  1  0.090179  0.376938  0.525988  1
  Se  Se43  1  0.409821  0.876938  0.474012  1
  Se  Se44  1  0.930917  0.609052  0.927477  1
  Se  Se45  1  0.090179  0.876938  0.974012  1
  Se  Se46  1  0.569083  0.109052  0.072523  1
  Se  Se47  1  0.736347  0.354998  0.958552  1
  Se  Se48  1  0.236347  0.145002  0.958552  1
  Se  Se49  1  0.430917  0.890948  0.927477  1
  Se  Se50  1  0.236347  0.645002  0.541448  1
  Se  Se51  1  0.758854  0.511660  0.211657  1
  Se  Se52  1  0.741146  0.511660  0.711657  1
  Se  Se53  1  0.763653  0.854998  0.041448  1
  Se  Se54  1  0.258854  0.488340  0.288343  1
  Se  Se55  1  0.263653  0.645002  0.041448  1
  Se  Se56  1  0.003073  0.719095  0.226840  1
  Se  Se57  1  0.263653  0.145002  0.458552  1
  Se  Se58  1  0.909821  0.123062  0.025988  1
  Se  Se59  1  0.503073  0.780905  0.226840  1
  Se  Se60  1  0.430917  0.390948  0.572523  1
  Se  Se61  1  0.590179  0.123062  0.525988  1
  Se  Se62  1  0.758854  0.011660  0.288343  1
  Se  Se63  1  0.763653  0.354998  0.458552  1
  Se  Se64  1  0.241146  0.488340  0.788343  1
  Se  Se65  1  0.590179  0.623062  0.974012  1
  Se  Se66  1  0.996927  0.280905  0.773160  1
  Se  Se67  1  0.003073  0.219095  0.273160  1
  Se  Se68  1  0.741146  0.011660  0.788343  1
  Se  Se69  1  0.569083  0.609052  0.427477  1
  Se  Se70  1  0.909821  0.623062  0.474012  1
  Se  Se71  1  0.258854  0.988340  0.211657  1
