# generated using pymatgen
data_KNd(CO3)2
_symmetry_space_group_name_H-M   'P 1'
_cell_length_a   6.55326219
_cell_length_b   8.68716140
_cell_length_c   9.83339399
_cell_angle_alpha   90.00000000
_cell_angle_beta   90.00000000
_cell_angle_gamma   90.00000000
_symmetry_Int_Tables_number   1
_chemical_formula_structural   KNd(CO3)2
_chemical_formula_sum   'K4 Nd4 C8 O24'
_cell_volume   559.80770883
_cell_formula_units_Z   4
loop_
 _symmetry_equiv_pos_site_id
 _symmetry_equiv_pos_as_xyz
  1  'x, y, z'
loop_
 _atom_site_type_symbol
 _atom_site_label
 _atom_site_symmetry_multiplicity
 _atom_site_fract_x
 _atom_site_fract_y
 _atom_site_fract_z
 _atom_site_occupancy
  K  K0  1  0.466194  0.692620  0.741347  1
  K  K1  1  0.466194  0.692620  0.258653  1
  K  K2  1  0.533806  0.192620  0.758653  1
  K  K3  1  0.533806  0.192620  0.241347  1
  Nd  Nd4  1  0.967603  0.951864  0.500000  1
  Nd  Nd5  1  0.033999  0.454111  0.500000  1
  Nd  Nd6  1  0.032397  0.451864  0.000000  1
  Nd  Nd7  1  0.966001  0.954111  0.000000  1
  C  C8  1  0.967061  0.759658  0.250209  1
  C  C9  1  0.032939  0.259658  0.249791  1
  C  C10  1  0.475229  0.443866  0.000000  1
  C  C11  1  0.032939  0.259658  0.750209  1
  C  C12  1  0.409041  0.956456  0.000000  1
  C  C13  1  0.967061  0.759658  0.749791  1
  C  C14  1  0.590959  0.456456  0.500000  1
  C  C15  1  0.524771  0.943866  0.500000  1
  O  O16  1  0.394266  0.467808  0.500000  1
  O  O17  1  0.369030  0.316918  0.000000  1
  O  O18  1  0.328438  0.940244  0.500000  1
  O  O19  1  0.025036  0.193499  0.633096  1
  O  O20  1  0.038021  0.701416  0.361768  1
  O  O21  1  0.889298  0.898207  0.254396  1
  O  O22  1  0.974964  0.693499  0.866904  1
  O  O23  1  0.605734  0.967808  0.000000  1
  O  O24  1  0.693023  0.451905  0.386246  1
  O  O25  1  0.110702  0.398207  0.245604  1
  O  O26  1  0.961979  0.201416  0.138232  1
  O  O27  1  0.630970  0.816918  0.500000  1
  O  O28  1  0.110702  0.398207  0.754396  1
  O  O29  1  0.961979  0.201416  0.861768  1
  O  O30  1  0.624134  0.074323  0.500000  1
  O  O31  1  0.889298  0.898207  0.745604  1
  O  O32  1  0.693023  0.451905  0.613754  1
  O  O33  1  0.974964  0.693499  0.133096  1
  O  O34  1  0.375866  0.574323  0.000000  1
  O  O35  1  0.306977  0.951905  0.886246  1
  O  O36  1  0.038021  0.701416  0.638232  1
  O  O37  1  0.025036  0.193499  0.366904  1
  O  O38  1  0.306977  0.951905  0.113754  1
  O  O39  1  0.671562  0.440244  0.000000  1
