# generated using pymatgen
data_La5Si5I3
_symmetry_space_group_name_H-M   'P 1'
_cell_length_a   12.30763442
_cell_length_b   12.30763442
_cell_length_c   15.83702144
_cell_angle_alpha   69.80374265
_cell_angle_beta   110.19625735
_cell_angle_gamma   160.03016909
_symmetry_Int_Tables_number   1
_chemical_formula_structural   La5Si5I3
_chemical_formula_sum   'La10 Si10 I6'
_cell_volume   767.31620447
_cell_formula_units_Z   2
loop_
 _symmetry_equiv_pos_site_id
 _symmetry_equiv_pos_as_xyz
  1  'x, y, z'
loop_
 _atom_site_type_symbol
 _atom_site_label
 _atom_site_symmetry_multiplicity
 _atom_site_fract_x
 _atom_site_fract_y
 _atom_site_fract_z
 _atom_site_occupancy
  La  La0  1  0.338127  0.661873  0.941862  1
  La  La1  1  0.914479  0.085521  0.436923  1
  La  La2  1  0.085521  0.914479  0.563077  1
  La  La3  1  0.016636  0.983364  0.290792  1
  La  La4  1  0.983364  0.016636  0.709208  1
  La  La5  1  0.835694  0.164306  0.166116  1
  La  La6  1  0.738243  0.261757  0.329433  1
  La  La7  1  0.661873  0.338127  0.058138  1
  La  La8  1  0.164306  0.835694  0.833884  1
  La  La9  1  0.261757  0.738243  0.670567  1
  Si  Si10  1  0.508356  0.491644  0.426968  1
  Si  Si11  1  0.424046  0.575954  0.293333  1
  Si  Si12  1  0.491644  0.508356  0.573032  1
  Si  Si13  1  0.749744  0.250256  0.960589  1
  Si  Si14  1  0.671669  0.328331  0.681333  1
  Si  Si15  1  0.240713  0.759287  0.189681  1
  Si  Si16  1  0.759287  0.240713  0.810319  1
  Si  Si17  1  0.328331  0.671669  0.318667  1
  Si  Si18  1  0.575954  0.424046  0.706667  1
  Si  Si19  1  0.250256  0.749744  0.039411  1
  I  I20  1  0.591193  0.408807  0.205253  1
  I  I21  1  0.060867  0.939133  0.932885  1
  I  I22  1  0.939133  0.060867  0.067115  1
  I  I23  1  0.827007  0.172993  0.562635  1
  I  I24  1  0.408807  0.591193  0.794747  1
  I  I25  1  0.172993  0.827007  0.437365  1
