# generated using pymatgen
data_Sm3Ge5
_symmetry_space_group_name_H-M   'P 1'
_cell_length_a   11.29123947
_cell_length_b   9.32035177
_cell_length_c   7.61663428
_cell_angle_alpha   82.96460697
_cell_angle_beta   55.00826354
_cell_angle_gamma   42.02712949
_symmetry_Int_Tables_number   1
_chemical_formula_structural   Sm3Ge5
_chemical_formula_sum   'Sm6 Ge10'
_cell_volume   366.18365900
_cell_formula_units_Z   2
loop_
 _symmetry_equiv_pos_site_id
 _symmetry_equiv_pos_as_xyz
  1  'x, y, z'
loop_
 _atom_site_type_symbol
 _atom_site_label
 _atom_site_symmetry_multiplicity
 _atom_site_fract_x
 _atom_site_fract_y
 _atom_site_fract_z
 _atom_site_occupancy
  Sm  Sm0  1  0.250486  0.249514  0.250486  1
  Sm  Sm1  1  0.669601  0.667592  0.317384  1
  Sm  Sm2  1  0.000486  0.999514  0.000486  1
  Sm  Sm3  1  0.582408  0.580399  0.904578  1
  Sm  Sm4  1  0.317384  0.345422  0.669601  1
  Sm  Sm5  1  0.904578  0.932616  0.582408  1
  Ge  Ge6  1  0.477740  0.383912  0.208697  1
  Ge  Ge7  1  0.208697  0.929650  0.477740  1
  Ge  Ge8  1  0.759063  0.914984  0.067013  1
  Ge  Ge9  1  0.320350  0.041303  0.866088  1
  Ge  Ge10  1  0.335016  0.490937  0.991060  1
  Ge  Ge11  1  0.552620  0.447380  0.552620  1
  Ge  Ge12  1  0.067013  0.258940  0.759063  1
  Ge  Ge13  1  0.866088  0.772260  0.320350  1
  Ge  Ge14  1  0.991060  0.182987  0.335016  1
  Ge  Ge15  1  0.802620  0.697380  0.802620  1
