# generated using pymatgen
data_Na2Ca(AsO3)4
_symmetry_space_group_name_H-M   'P 1'
_cell_length_a   10.13124762
_cell_length_b   10.13124762
_cell_length_c   5.23961140
_cell_angle_alpha   90.00000000
_cell_angle_beta   90.00000000
_cell_angle_gamma   90.00000000
_symmetry_Int_Tables_number   1
_chemical_formula_structural   Na2Ca(AsO3)4
_chemical_formula_sum   'Na4 Ca2 As8 O24'
_cell_volume   537.80512774
_cell_formula_units_Z   2
loop_
 _symmetry_equiv_pos_site_id
 _symmetry_equiv_pos_as_xyz
  1  'x, y, z'
loop_
 _atom_site_type_symbol
 _atom_site_label
 _atom_site_symmetry_multiplicity
 _atom_site_fract_x
 _atom_site_fract_y
 _atom_site_fract_z
 _atom_site_occupancy
  Na  Na0  1  0.750000  0.250000  0.000000  1
  Na  Na1  1  0.250000  0.250000  0.000000  1
  Na  Na2  1  0.250000  0.750000  0.000000  1
  Na  Na3  1  0.750000  0.750000  0.000000  1
  Ca  Ca4  1  0.000000  0.000000  0.000000  1
  Ca  Ca5  1  0.500000  0.500000  0.000000  1
  As  As6  1  0.000000  0.727080  0.500000  1
  As  As7  1  0.772920  0.500000  0.500000  1
  As  As8  1  0.500000  0.772920  0.500000  1
  As  As9  1  0.727080  0.000000  0.500000  1
  As  As10  1  0.500000  0.227080  0.500000  1
  As  As11  1  0.000000  0.272920  0.500000  1
  As  As12  1  0.272920  0.000000  0.500000  1
  As  As13  1  0.227080  0.500000  0.500000  1
  O  O14  1  0.884137  0.615863  0.348138  1
  O  O15  1  0.194438  0.928417  0.743931  1
  O  O16  1  0.615863  0.884137  0.651862  1
  O  O17  1  0.694438  0.571583  0.743931  1
  O  O18  1  0.305562  0.428417  0.743931  1
  O  O19  1  0.928417  0.805562  0.743931  1
  O  O20  1  0.615863  0.115863  0.348138  1
  O  O21  1  0.305562  0.571583  0.256069  1
  O  O22  1  0.571583  0.305562  0.743931  1
  O  O23  1  0.071583  0.805562  0.256069  1
  O  O24  1  0.571583  0.694438  0.256069  1
  O  O25  1  0.884137  0.384137  0.651862  1
  O  O26  1  0.928417  0.194438  0.256069  1
  O  O27  1  0.384137  0.115863  0.651862  1
  O  O28  1  0.071583  0.194438  0.743931  1
  O  O29  1  0.428417  0.305562  0.256069  1
  O  O30  1  0.428417  0.694438  0.743931  1
  O  O31  1  0.805562  0.071583  0.743931  1
  O  O32  1  0.115863  0.615863  0.651862  1
  O  O33  1  0.805562  0.928417  0.256069  1
  O  O34  1  0.194438  0.071583  0.256069  1
  O  O35  1  0.115863  0.384137  0.348138  1
  O  O36  1  0.694438  0.428417  0.256069  1
  O  O37  1  0.384137  0.884137  0.348138  1
