# generated using pymatgen
data_V9O17
_symmetry_space_group_name_H-M   'P 1'
_cell_length_a   5.52798160
_cell_length_b   7.07360057
_cell_length_c   14.77031798
_cell_angle_alpha   95.50849504
_cell_angle_beta   89.68808222
_cell_angle_gamma   107.36397235
_symmetry_Int_Tables_number   1
_chemical_formula_structural   V9O17
_chemical_formula_sum   'V18 O34'
_cell_volume   548.53002621
_cell_formula_units_Z   2
loop_
 _symmetry_equiv_pos_site_id
 _symmetry_equiv_pos_as_xyz
  1  'x, y, z'
loop_
 _atom_site_type_symbol
 _atom_site_label
 _atom_site_symmetry_multiplicity
 _atom_site_fract_x
 _atom_site_fract_y
 _atom_site_fract_z
 _atom_site_occupancy
  V  V0  1  0.650575  0.892759  0.276720  1
  V  V1  1  0.236941  0.100154  0.164524  1
  V  V2  1  0.659203  0.395831  0.273989  1
  V  V3  1  0.081818  0.198430  0.388395  1
  V  V4  1  0.763059  0.899846  0.835476  1
  V  V5  1  0.766867  0.412469  0.843170  1
  V  V6  1  0.203596  0.694789  0.957646  1
  V  V7  1  0.081156  0.698914  0.385462  1
  V  V8  1  0.918844  0.301086  0.614538  1
  V  V9  1  0.918182  0.801570  0.611605  1
  V  V10  1  0.195199  0.191978  0.954187  1
  V  V11  1  0.500000  0.000000  0.500000  1
  V  V12  1  0.340797  0.604169  0.726011  1
  V  V13  1  0.233133  0.587531  0.156830  1
  V  V14  1  0.804801  0.808022  0.045813  1
  V  V15  1  0.796404  0.305211  0.042354  1
  V  V16  1  0.349425  0.107241  0.723280  1
  V  V17  1  0.500000  0.500000  0.500000  1
  O  O18  1  0.854666  0.186348  0.906279  1
  O  O19  1  0.021634  0.056681  0.254536  1
  O  O20  1  0.803409  0.011441  0.580896  1
  O  O21  1  0.805593  0.547661  0.981108  1
  O  O22  1  0.277427  0.967819  0.606619  1
  O  O23  1  0.444361  0.364677  0.373432  1
  O  O24  1  0.215295  0.313987  0.696597  1
  O  O25  1  0.367285  0.382116  0.193456  1
  O  O26  1  0.856391  0.667192  0.488751  1
  O  O27  1  0.535388  0.814825  0.956979  1
  O  O28  1  0.964364  0.105264  0.071018  1
  O  O29  1  0.543828  0.105428  0.227891  1
  O  O30  1  0.606663  0.760982  0.138290  1
  O  O31  1  0.959362  0.406115  0.346327  1
  O  O32  1  0.632715  0.617884  0.806544  1
  O  O33  1  0.626376  0.293227  0.536266  1
  O  O34  1  0.196591  0.988559  0.419104  1
  O  O35  1  0.035636  0.894736  0.928982  1
  O  O36  1  0.978366  0.943319  0.745464  1
  O  O37  1  0.464612  0.185175  0.043021  1
  O  O38  1  0.555639  0.635323  0.626568  1
  O  O39  1  0.456172  0.894572  0.772109  1
  O  O40  1  0.699216  0.263673  0.719345  1
  O  O41  1  0.145334  0.813652  0.093721  1
  O  O42  1  0.300784  0.736327  0.280655  1
  O  O43  1  0.722573  0.032181  0.393381  1
  O  O44  1  0.373624  0.706773  0.463734  1
  O  O45  1  0.869657  0.436728  0.161577  1
  O  O46  1  0.393337  0.239018  0.861710  1
  O  O47  1  0.143609  0.332808  0.511249  1
  O  O48  1  0.784705  0.686013  0.303403  1
  O  O49  1  0.130343  0.563272  0.838423  1
  O  O50  1  0.194407  0.452339  0.018892  1
  O  O51  1  0.040638  0.593885  0.653673  1
