# generated using pymatgen
data_Rb6O
_symmetry_space_group_name_H-M   'P 1'
_cell_length_a   8.46389347
_cell_length_b   8.46389347
_cell_length_c   30.81083393
_cell_angle_alpha   90.00000000
_cell_angle_beta   90.00000000
_cell_angle_gamma   120.00000000
_symmetry_Int_Tables_number   1
_chemical_formula_structural   Rb6O
_chemical_formula_sum   'Rb24 O4'
_cell_volume   1911.50070438
_cell_formula_units_Z   4
loop_
 _symmetry_equiv_pos_site_id
 _symmetry_equiv_pos_as_xyz
  1  'x, y, z'
loop_
 _atom_site_type_symbol
 _atom_site_label
 _atom_site_symmetry_multiplicity
 _atom_site_fract_x
 _atom_site_fract_y
 _atom_site_fract_z
 _atom_site_occupancy
  Rb  Rb0  1  0.316641  0.386135  0.139518  1
  Rb  Rb1  1  0.930506  0.316641  0.639518  1
  Rb  Rb2  1  0.386135  0.069494  0.639518  1
  Rb  Rb3  1  0.613865  0.930506  0.139518  1
  Rb  Rb4  1  0.069494  0.683359  0.139518  1
  Rb  Rb5  1  0.683359  0.613865  0.639518  1
  Rb  Rb6  1  0.683359  0.613865  0.860482  1
  Rb  Rb7  1  0.069494  0.683359  0.360482  1
  Rb  Rb8  1  0.613865  0.930506  0.360482  1
  Rb  Rb9  1  0.386135  0.069494  0.860482  1
  Rb  Rb10  1  0.930506  0.316641  0.860482  1
  Rb  Rb11  1  0.316641  0.386135  0.360482  1
  Rb  Rb12  1  0.080627  0.426820  0.250000  1
  Rb  Rb13  1  0.653807  0.080627  0.750000  1
  Rb  Rb14  1  0.426820  0.346193  0.750000  1
  Rb  Rb15  1  0.573180  0.653807  0.250000  1
  Rb  Rb16  1  0.346193  0.919373  0.250000  1
  Rb  Rb17  1  0.919373  0.573180  0.750000  1
  Rb  Rb18  1  0.000000  0.000000  0.000000  1
  Rb  Rb19  1  0.000000  0.000000  0.500000  1
  Rb  Rb20  1  0.333333  0.666667  0.983908  1
  Rb  Rb21  1  0.666667  0.333333  0.483908  1
  Rb  Rb22  1  0.666667  0.333333  0.016092  1
  Rb  Rb23  1  0.333333  0.666667  0.516092  1
  O  O24  1  0.333333  0.666667  0.187011  1
  O  O25  1  0.666667  0.333333  0.687011  1
  O  O26  1  0.666667  0.333333  0.812989  1
  O  O27  1  0.333333  0.666667  0.312989  1
