# generated using pymatgen
data_InGa2Cl7
_symmetry_space_group_name_H-M   'P 1'
_cell_length_a   9.38046277
_cell_length_b   10.96313295
_cell_length_c   12.41315019
_cell_angle_alpha   90.00000000
_cell_angle_beta   90.00000000
_cell_angle_gamma   90.00000000
_symmetry_Int_Tables_number   1
_chemical_formula_structural   InGa2Cl7
_chemical_formula_sum   'In4 Ga8 Cl28'
_cell_volume   1276.55918577
_cell_formula_units_Z   4
loop_
 _symmetry_equiv_pos_site_id
 _symmetry_equiv_pos_as_xyz
  1  'x, y, z'
loop_
 _atom_site_type_symbol
 _atom_site_label
 _atom_site_symmetry_multiplicity
 _atom_site_fract_x
 _atom_site_fract_y
 _atom_site_fract_z
 _atom_site_occupancy
  In  In0  1  0.638966  0.376028  0.887899  1
  In  In1  1  0.138966  0.876028  0.612101  1
  In  In2  1  0.861034  0.376028  0.387899  1
  In  In3  1  0.361034  0.876028  0.112101  1
  Ga  Ga4  1  0.617286  0.742484  0.616349  1
  Ga  Ga5  1  0.933408  0.999503  0.323693  1
  Ga  Ga6  1  0.382714  0.242484  0.383651  1
  Ga  Ga7  1  0.433408  0.499503  0.176307  1
  Ga  Ga8  1  0.882714  0.742484  0.116349  1
  Ga  Ga9  1  0.566592  0.999503  0.823693  1
  Ga  Ga10  1  0.066592  0.499503  0.676307  1
  Ga  Ga11  1  0.117286  0.242484  0.883651  1
  Cl  Cl12  1  0.231935  0.369797  0.757301  1
  Cl  Cl13  1  0.795498  0.691057  0.514230  1
  Cl  Cl14  1  0.873696  0.388548  0.658397  1
  Cl  Cl15  1  0.546903  0.155345  0.716365  1
  Cl  Cl16  1  0.977622  0.596043  0.209334  1
  Cl  Cl17  1  0.461036  0.857914  0.534501  1
  Cl  Cl18  1  0.204502  0.191057  0.485770  1
  Cl  Cl19  1  0.704502  0.691057  0.014230  1
  Cl  Cl20  1  0.126304  0.888548  0.341603  1
  Cl  Cl21  1  0.477622  0.096043  0.290666  1
  Cl  Cl22  1  0.522378  0.596043  0.709334  1
  Cl  Cl23  1  0.731935  0.869797  0.742699  1
  Cl  Cl24  1  0.453097  0.655345  0.283635  1
  Cl  Cl25  1  0.046903  0.655345  0.783635  1
  Cl  Cl26  1  0.658937  0.050590  0.977742  1
  Cl  Cl27  1  0.158937  0.550590  0.522258  1
  Cl  Cl28  1  0.373696  0.888548  0.841603  1
  Cl  Cl29  1  0.295498  0.191057  0.985770  1
  Cl  Cl30  1  0.538964  0.357914  0.465499  1
  Cl  Cl31  1  0.626304  0.388548  0.158397  1
  Cl  Cl32  1  0.961036  0.357914  0.965499  1
  Cl  Cl33  1  0.268065  0.369797  0.257301  1
  Cl  Cl34  1  0.038964  0.857914  0.034501  1
  Cl  Cl35  1  0.768065  0.869797  0.242699  1
  Cl  Cl36  1  0.341063  0.550590  0.022258  1
  Cl  Cl37  1  0.953097  0.155345  0.216365  1
  Cl  Cl38  1  0.841063  0.050590  0.477742  1
  Cl  Cl39  1  0.022378  0.096043  0.790666  1
