# generated using pymatgen
data_Na8(CuO2)5
_symmetry_space_group_name_H-M   'P 1'
_cell_length_a   8.19449856
_cell_length_b   8.19449856
_cell_length_c   5.72652058
_cell_angle_alpha   78.99872242
_cell_angle_beta   101.00127758
_cell_angle_gamma   61.47199156
_symmetry_Int_Tables_number   1
_chemical_formula_structural   Na8(CuO2)5
_chemical_formula_sum   'Na8 Cu5 O10'
_cell_volume   313.41173102
_cell_formula_units_Z   1
loop_
 _symmetry_equiv_pos_site_id
 _symmetry_equiv_pos_as_xyz
  1  'x, y, z'
loop_
 _atom_site_type_symbol
 _atom_site_label
 _atom_site_symmetry_multiplicity
 _atom_site_fract_x
 _atom_site_fract_y
 _atom_site_fract_z
 _atom_site_occupancy
  Na  Na0  1  0.262795  0.460069  0.401572  1
  Na  Na1  1  0.737169  0.041535  0.366459  1
  Na  Na2  1  0.519267  0.480733  0.090644  1
  Na  Na3  1  0.852381  0.704724  0.140563  1
  Na  Na4  1  0.539931  0.737205  0.401572  1
  Na  Na5  1  0.958465  0.262831  0.366459  1
  Na  Na6  1  0.295276  0.147619  0.140563  1
  Na  Na7  1  0.089472  0.910528  0.146907  1
  Cu  Cu8  1  0.018983  0.582870  0.750887  1
  Cu  Cu9  1  0.627991  0.172304  0.779303  1
  Cu  Cu10  1  0.827696  0.372009  0.779303  1
  Cu  Cu11  1  0.198419  0.801581  0.722721  1
  Cu  Cu12  1  0.417130  0.981017  0.750887  1
  O  O13  1  0.478790  0.124560  0.527827  1
  O  O14  1  0.663211  0.336789  0.530263  1
  O  O15  1  0.160508  0.641921  0.981545  1
  O  O16  1  0.358079  0.839492  0.981545  1
  O  O17  1  0.570985  0.015103  0.005669  1
  O  O18  1  0.875440  0.521210  0.527827  1
  O  O19  1  0.781597  0.218403  0.026847  1
  O  O20  1  0.045925  0.740216  0.490084  1
  O  O21  1  0.984897  0.429015  0.005669  1
  O  O22  1  0.259784  0.954075  0.490084  1
