# generated using pymatgen
data_Rb2Ti(GeO3)3
_symmetry_space_group_name_H-M   'P 1'
_cell_length_a   12.46049636
_cell_length_b   12.46049636
_cell_length_c   10.28619956
_cell_angle_alpha   90.00000000
_cell_angle_beta   90.00000000
_cell_angle_gamma   120.00000000
_symmetry_Int_Tables_number   1
_chemical_formula_structural   Rb2Ti(GeO3)3
_chemical_formula_sum   'Rb12 Ti6 Ge18 O54'
_cell_volume   1383.10853936
_cell_formula_units_Z   6
loop_
 _symmetry_equiv_pos_site_id
 _symmetry_equiv_pos_as_xyz
  1  'x, y, z'
loop_
 _atom_site_type_symbol
 _atom_site_label
 _atom_site_symmetry_multiplicity
 _atom_site_fract_x
 _atom_site_fract_y
 _atom_site_fract_z
 _atom_site_occupancy
  Rb  Rb0  1  0.003138  0.337231  0.430556  1
  Rb  Rb1  1  0.665907  0.662769  0.069444  1
  Rb  Rb2  1  0.337231  0.334093  0.569444  1
  Rb  Rb3  1  0.665907  0.003138  0.569444  1
  Rb  Rb4  1  0.337231  0.003138  0.069444  1
  Rb  Rb5  1  0.334093  0.337231  0.930556  1
  Rb  Rb6  1  0.003138  0.665907  0.930556  1
  Rb  Rb7  1  0.996862  0.334093  0.069444  1
  Rb  Rb8  1  0.334093  0.996862  0.430556  1
  Rb  Rb9  1  0.996862  0.662769  0.569444  1
  Rb  Rb10  1  0.662769  0.996862  0.930556  1
  Rb  Rb11  1  0.662769  0.665907  0.430556  1
  Ti  Ti12  1  0.333333  0.666667  0.471351  1
  Ti  Ti13  1  0.666667  0.333333  0.528649  1
  Ti  Ti14  1  0.666667  0.333333  0.028649  1
  Ti  Ti15  1  0.333333  0.666667  0.971351  1
  Ti  Ti16  1  0.000000  0.000000  0.500000  1
  Ti  Ti17  1  0.000000  0.000000  0.000000  1
  Ge  Ge18  1  0.332381  0.479395  0.221851  1
  Ge  Ge19  1  0.479395  0.332381  0.278149  1
  Ge  Ge20  1  0.000000  0.820240  0.250000  1
  Ge  Ge21  1  0.520605  0.667619  0.721851  1
  Ge  Ge22  1  0.852986  0.520605  0.278149  1
  Ge  Ge23  1  0.852986  0.332381  0.778149  1
  Ge  Ge24  1  0.147014  0.667619  0.221851  1
  Ge  Ge25  1  0.332381  0.852986  0.721851  1
  Ge  Ge26  1  0.820240  0.820240  0.750000  1
  Ge  Ge27  1  0.520605  0.852986  0.221851  1
  Ge  Ge28  1  0.667619  0.520605  0.778149  1
  Ge  Ge29  1  0.179760  0.000000  0.750000  1
  Ge  Ge30  1  0.479395  0.147014  0.778149  1
  Ge  Ge31  1  0.000000  0.179760  0.750000  1
  Ge  Ge32  1  0.147014  0.479395  0.721851  1
  Ge  Ge33  1  0.820240  0.000000  0.250000  1
  Ge  Ge34  1  0.179760  0.179760  0.250000  1
  Ge  Ge35  1  0.667619  0.147014  0.278149  1
  O  O36  1  0.884979  0.210361  0.822415  1
  O  O37  1  0.277232  0.516837  0.359494  1
  O  O38  1  0.620494  0.432191  0.920215  1
  O  O39  1  0.811697  0.432191  0.420215  1
  O  O40  1  0.722768  0.239605  0.140506  1
  O  O41  1  0.000000  0.470384  0.750000  1
  O  O42  1  0.379506  0.811697  0.579785  1
  O  O43  1  0.239605  0.722768  0.359494  1
  O  O44  1  0.081101  0.148622  0.383978  1
  O  O45  1  0.483163  0.722768  0.859494  1
  O  O46  1  0.620494  0.188303  0.420215  1
  O  O47  1  0.789639  0.674619  0.822415  1
  O  O48  1  0.483163  0.760395  0.359494  1
  O  O49  1  0.239605  0.516837  0.859494  1
  O  O50  1  0.918899  0.067521  0.116022  1
  O  O51  1  0.148622  0.081101  0.116022  1
  O  O52  1  0.674619  0.789639  0.677585  1
  O  O53  1  0.432191  0.620494  0.579785  1
  O  O54  1  0.932479  0.851378  0.116022  1
  O  O55  1  0.115021  0.325381  0.677585  1
  O  O56  1  0.277232  0.760395  0.859494  1
  O  O57  1  0.529616  0.000000  0.250000  1
  O  O58  1  0.760395  0.277232  0.640506  1
  O  O59  1  0.470384  0.000000  0.750000  1
  O  O60  1  0.210361  0.325381  0.177585  1
  O  O61  1  0.148622  0.067521  0.616022  1
  O  O62  1  0.932479  0.081101  0.616022  1
  O  O63  1  0.884979  0.674619  0.322415  1
  O  O64  1  0.470384  0.470384  0.250000  1
  O  O65  1  0.516837  0.239605  0.640506  1
  O  O66  1  0.567809  0.379506  0.420215  1
  O  O67  1  0.789639  0.115021  0.322415  1
  O  O68  1  0.325381  0.210361  0.322415  1
  O  O69  1  0.851378  0.918899  0.883978  1
  O  O70  1  0.722768  0.483163  0.640506  1
  O  O71  1  0.000000  0.529616  0.250000  1
  O  O72  1  0.516837  0.277232  0.140506  1
  O  O73  1  0.325381  0.115021  0.822415  1
  O  O74  1  0.760395  0.483163  0.140506  1
  O  O75  1  0.567809  0.188303  0.920215  1
  O  O76  1  0.432191  0.811697  0.079785  1
  O  O77  1  0.811697  0.379506  0.920215  1
  O  O78  1  0.067521  0.148622  0.883978  1
  O  O79  1  0.081101  0.932479  0.883978  1
  O  O80  1  0.674619  0.884979  0.177585  1
  O  O81  1  0.188303  0.620494  0.079785  1
  O  O82  1  0.210361  0.884979  0.677585  1
  O  O83  1  0.115021  0.789639  0.177585  1
  O  O84  1  0.918899  0.851378  0.616022  1
  O  O85  1  0.529616  0.529616  0.750000  1
  O  O86  1  0.379506  0.567809  0.079785  1
  O  O87  1  0.188303  0.567809  0.579785  1
  O  O88  1  0.067521  0.918899  0.383978  1
  O  O89  1  0.851378  0.932479  0.383978  1
