# generated using pymatgen
data_Na3InBi2
_symmetry_space_group_name_H-M   'P 1'
_cell_length_a   13.16198980
_cell_length_b   9.66402470
_cell_length_c   19.56803510
_cell_angle_alpha   90.00000000
_cell_angle_beta   99.08025357
_cell_angle_gamma   90.00000000
_symmetry_Int_Tables_number   1
_chemical_formula_structural   Na3InBi2
_chemical_formula_sum   'Na36 In12 Bi24'
_cell_volume   2457.81926080
_cell_formula_units_Z   12
loop_
 _symmetry_equiv_pos_site_id
 _symmetry_equiv_pos_as_xyz
  1  'x, y, z'
loop_
 _atom_site_type_symbol
 _atom_site_label
 _atom_site_symmetry_multiplicity
 _atom_site_fract_x
 _atom_site_fract_y
 _atom_site_fract_z
 _atom_site_occupancy
  Na  Na0  1  0.020384  0.573701  0.591031  1
  Na  Na1  1  0.479616  0.073701  0.408969  1
  Na  Na2  1  0.191285  0.927493  0.930445  1
  Na  Na3  1  0.071714  0.178517  0.551863  1
  Na  Na4  1  0.742749  0.653921  0.611981  1
  Na  Na5  1  0.390059  0.183370  0.714476  1
  Na  Na6  1  0.914549  0.809807  0.950012  1
  Na  Na7  1  0.109941  0.683370  0.285524  1
  Na  Na8  1  0.520384  0.926299  0.591031  1
  Na  Na9  1  0.808715  0.072507  0.069555  1
  Na  Na10  1  0.851109  0.931143  0.762688  1
  Na  Na11  1  0.257251  0.346079  0.388019  1
  Na  Na12  1  0.074584  0.673731  0.781677  1
  Na  Na13  1  0.266045  0.812600  0.119404  1
  Na  Na14  1  0.148891  0.068857  0.237312  1
  Na  Na15  1  0.242749  0.846079  0.611981  1
  Na  Na16  1  0.428286  0.678517  0.448137  1
  Na  Na17  1  0.691285  0.572507  0.930445  1
  Na  Na18  1  0.733955  0.187400  0.880596  1
  Na  Na19  1  0.979616  0.426299  0.408969  1
  Na  Na20  1  0.085451  0.190193  0.049988  1
  Na  Na21  1  0.233955  0.312600  0.880596  1
  Na  Na22  1  0.425416  0.173731  0.218323  1
  Na  Na23  1  0.890059  0.316630  0.714476  1
  Na  Na24  1  0.609941  0.816630  0.285524  1
  Na  Na25  1  0.925416  0.326269  0.218323  1
  Na  Na26  1  0.351109  0.568857  0.762688  1
  Na  Na27  1  0.574584  0.826269  0.781677  1
  Na  Na28  1  0.757251  0.153921  0.388019  1
  Na  Na29  1  0.308715  0.427493  0.069555  1
  Na  Na30  1  0.766045  0.687400  0.119404  1
  Na  Na31  1  0.571714  0.321483  0.551863  1
  Na  Na32  1  0.928286  0.821483  0.448137  1
  Na  Na33  1  0.414549  0.690193  0.950012  1
  Na  Na34  1  0.585451  0.309807  0.049988  1
  Na  Na35  1  0.648891  0.431143  0.237312  1
  In  In36  1  0.449525  0.066938  0.906044  1
  In  In37  1  0.385720  0.577327  0.251391  1
  In  In38  1  0.550475  0.933062  0.093956  1
  In  In39  1  0.114280  0.077327  0.748609  1
  In  In40  1  0.283697  0.433742  0.582834  1
  In  In41  1  0.716303  0.566258  0.417166  1
  In  In42  1  0.216303  0.933742  0.417166  1
  In  In43  1  0.614280  0.422673  0.748609  1
  In  In44  1  0.949525  0.433062  0.906044  1
  In  In45  1  0.885720  0.922673  0.251391  1
  In  In46  1  0.783697  0.066258  0.582834  1
  In  In47  1  0.050475  0.566938  0.093956  1
  Bi  Bi48  1  0.153554  0.377458  0.703785  1
  Bi  Bi49  1  0.514914  0.402821  0.367079  1
  Bi  Bi50  1  0.330336  0.133113  0.530822  1
  Bi  Bi51  1  0.830336  0.366887  0.530822  1
  Bi  Bi52  1  0.688959  0.101711  0.207482  1
  Bi  Bi53  1  0.169664  0.633113  0.469178  1
  Bi  Bi54  1  0.354359  0.103447  0.042672  1
  Bi  Bi55  1  0.653554  0.122542  0.703785  1
  Bi  Bi56  1  0.669664  0.866887  0.469178  1
  Bi  Bi57  1  0.645641  0.896553  0.957328  1
  Bi  Bi58  1  0.311041  0.898289  0.792518  1
  Bi  Bi59  1  0.014914  0.097179  0.367079  1
  Bi  Bi60  1  0.188959  0.398289  0.207482  1
  Bi  Bi61  1  0.854359  0.396553  0.042672  1
  Bi  Bi62  1  0.496443  0.370666  0.875763  1
  Bi  Bi63  1  0.985086  0.902821  0.632921  1
  Bi  Bi64  1  0.346446  0.877458  0.296215  1
  Bi  Bi65  1  0.003557  0.870666  0.124237  1
  Bi  Bi66  1  0.503557  0.629334  0.124237  1
  Bi  Bi67  1  0.145641  0.603447  0.957328  1
  Bi  Bi68  1  0.485086  0.597179  0.632921  1
  Bi  Bi69  1  0.811041  0.601711  0.792518  1
  Bi  Bi70  1  0.846446  0.622542  0.296215  1
  Bi  Bi71  1  0.996443  0.129334  0.875763  1
