# generated using pymatgen
data_K4Cu4Cl10O
_symmetry_space_group_name_H-M   'P 1'
_cell_length_a   10.57722320
_cell_length_b   10.57722320
_cell_length_c   9.03490001
_cell_angle_alpha   79.94183289
_cell_angle_beta   100.05816711
_cell_angle_gamma   89.33880868
_symmetry_Int_Tables_number   1
_chemical_formula_structural   K4Cu4Cl10O
_chemical_formula_sum   'K8 Cu8 Cl20 O2'
_cell_volume   979.05015077
_cell_formula_units_Z   2
loop_
 _symmetry_equiv_pos_site_id
 _symmetry_equiv_pos_as_xyz
  1  'x, y, z'
loop_
 _atom_site_type_symbol
 _atom_site_label
 _atom_site_symmetry_multiplicity
 _atom_site_fract_x
 _atom_site_fract_y
 _atom_site_fract_z
 _atom_site_occupancy
  K  K0  1  0.295238  0.557257  0.863720  1
  K  K1  1  0.713118  0.030640  0.124124  1
  K  K2  1  0.969360  0.286882  0.624124  1
  K  K3  1  0.557257  0.295238  0.636280  1
  K  K4  1  0.442743  0.704762  0.363720  1
  K  K5  1  0.030640  0.713118  0.375876  1
  K  K6  1  0.704762  0.442743  0.136280  1
  K  K7  1  0.286882  0.969360  0.875876  1
  Cu  Cu8  1  0.951773  0.768255  0.885248  1
  Cu  Cu9  1  0.048227  0.231745  0.114752  1
  Cu  Cu10  1  0.647005  0.772416  0.872674  1
  Cu  Cu11  1  0.772416  0.647005  0.627326  1
  Cu  Cu12  1  0.227584  0.352995  0.372674  1
  Cu  Cu13  1  0.352995  0.227584  0.127326  1
  Cu  Cu14  1  0.768255  0.951773  0.614752  1
  Cu  Cu15  1  0.231745  0.048227  0.385248  1
  Cl  Cl16  1  0.146176  0.734382  0.041136  1
  Cl  Cl17  1  0.978747  0.978747  0.750000  1
  Cl  Cl18  1  0.734382  0.146176  0.458864  1
  Cl  Cl19  1  0.398712  0.011290  0.223635  1
  Cl  Cl20  1  0.261329  0.505317  0.518680  1
  Cl  Cl21  1  0.011290  0.398712  0.276365  1
  Cl  Cl22  1  0.825804  0.722640  0.081510  1
  Cl  Cl23  1  0.411876  0.411876  0.250000  1
  Cl  Cl24  1  0.494683  0.738671  0.018680  1
  Cl  Cl25  1  0.021253  0.021253  0.250000  1
  Cl  Cl26  1  0.277360  0.174196  0.581510  1
  Cl  Cl27  1  0.988710  0.601288  0.723635  1
  Cl  Cl28  1  0.853824  0.265618  0.958864  1
  Cl  Cl29  1  0.738671  0.494683  0.481320  1
  Cl  Cl30  1  0.601288  0.988710  0.776365  1
  Cl  Cl31  1  0.722640  0.825804  0.418490  1
  Cl  Cl32  1  0.174196  0.277360  0.918490  1
  Cl  Cl33  1  0.588124  0.588124  0.750000  1
  Cl  Cl34  1  0.265618  0.853824  0.541136  1
  Cl  Cl35  1  0.505317  0.261329  0.981320  1
  O  O36  1  0.219072  0.219072  0.250000  1
  O  O37  1  0.780928  0.780928  0.750000  1
