# generated using pymatgen
data_SrCr2O4
_symmetry_space_group_name_H-M   'P 1'
_cell_length_a   5.23613369
_cell_length_b   6.03802464
_cell_length_c   11.71517008
_cell_angle_alpha   90.00000000
_cell_angle_beta   90.00000000
_cell_angle_gamma   90.00000000
_symmetry_Int_Tables_number   1
_chemical_formula_structural   SrCr2O4
_chemical_formula_sum   'Sr4 Cr8 O16'
_cell_volume   370.38569539
_cell_formula_units_Z   4
loop_
 _symmetry_equiv_pos_site_id
 _symmetry_equiv_pos_as_xyz
  1  'x, y, z'
loop_
 _atom_site_type_symbol
 _atom_site_label
 _atom_site_symmetry_multiplicity
 _atom_site_fract_x
 _atom_site_fract_y
 _atom_site_fract_z
 _atom_site_occupancy
  Sr  Sr0  1  0.860724  0.000000  0.500000  1
  Sr  Sr1  1  0.139276  0.500000  0.000000  1
  Sr  Sr2  1  0.544250  0.000000  0.000000  1
  Sr  Sr3  1  0.455750  0.500000  0.500000  1
  Cr  Cr4  1  0.503577  0.500000  0.242691  1
  Cr  Cr5  1  0.503577  0.500000  0.757309  1
  Cr  Cr6  1  0.496423  0.000000  0.257309  1
  Cr  Cr7  1  0.496423  0.000000  0.742691  1
  Cr  Cr8  1  0.000000  0.250000  0.250000  1
  Cr  Cr9  1  0.000000  0.750000  0.750000  1
  Cr  Cr10  1  0.000000  0.750000  0.250000  1
  Cr  Cr11  1  0.000000  0.250000  0.750000  1
  O  O12  1  0.836998  0.500000  0.158723  1
  O  O13  1  0.836998  0.500000  0.841277  1
  O  O14  1  0.163002  0.000000  0.341277  1
  O  O15  1  0.163002  0.000000  0.658723  1
  O  O16  1  0.173668  0.500000  0.334694  1
  O  O17  1  0.173668  0.500000  0.665306  1
  O  O18  1  0.826332  0.000000  0.165306  1
  O  O19  1  0.826332  0.000000  0.834694  1
  O  O20  1  0.665006  0.252938  0.344397  1
  O  O21  1  0.665006  0.747062  0.655603  1
  O  O22  1  0.334994  0.752938  0.155603  1
  O  O23  1  0.334994  0.247062  0.844397  1
  O  O24  1  0.334994  0.247062  0.155603  1
  O  O25  1  0.334994  0.752938  0.844397  1
  O  O26  1  0.665006  0.747062  0.344397  1
  O  O27  1  0.665006  0.252938  0.655603  1
