# generated using pymatgen
data_Dy(PO3)3
_symmetry_space_group_name_H-M   'P 1'
_cell_length_a   8.00741801
_cell_length_b   8.00741801
_cell_length_c   10.26427004
_cell_angle_alpha   57.14020738
_cell_angle_beta   122.85979262
_cell_angle_gamma   128.81755820
_symmetry_Int_Tables_number   1
_chemical_formula_structural   Dy(PO3)3
_chemical_formula_sum   'Dy2 P6 O18'
_cell_volume   409.60690446
_cell_formula_units_Z   2
loop_
 _symmetry_equiv_pos_site_id
 _symmetry_equiv_pos_as_xyz
  1  'x, y, z'
loop_
 _atom_site_type_symbol
 _atom_site_label
 _atom_site_symmetry_multiplicity
 _atom_site_fract_x
 _atom_site_fract_y
 _atom_site_fract_z
 _atom_site_occupancy
  Dy  Dy0  1  0.311087  0.206017  0.754386  1
  Dy  Dy1  1  0.793983  0.688913  0.254386  1
  P  P2  1  0.611801  0.186522  0.595884  1
  P  P3  1  0.217415  0.622821  0.987548  1
  P  P4  1  0.007987  0.194615  0.921086  1
  P  P5  1  0.813478  0.388199  0.095884  1
  P  P6  1  0.377179  0.782585  0.487548  1
  P  P7  1  0.805385  0.992013  0.421086  1
  O  O8  1  0.845566  0.188386  0.255820  1
  O  O9  1  0.698634  0.351265  0.452326  1
  O  O10  1  0.467359  0.933550  0.590011  1
  O  O11  1  0.077394  0.448391  0.888922  1
  O  O12  1  0.772751  0.521264  0.125810  1
  O  O13  1  0.648735  0.301366  0.952326  1
  O  O14  1  0.228581  0.843304  0.863247  1
  O  O15  1  0.808006  0.807655  0.418837  1
  O  O16  1  0.478736  0.227249  0.625810  1
  O  O17  1  0.917759  0.034595  0.063415  1
  O  O18  1  0.433860  0.616615  0.107608  1
  O  O19  1  0.156696  0.771419  0.363247  1
  O  O20  1  0.192345  0.191994  0.918837  1
  O  O21  1  0.383385  0.566140  0.607608  1
  O  O22  1  0.811614  0.154434  0.755820  1
  O  O23  1  0.965405  0.082241  0.563415  1
  O  O24  1  0.551609  0.922606  0.388922  1
  O  O25  1  0.066450  0.532641  0.090011  1
