# generated using pymatgen
data_Rb6U(Mo2O9)2
_symmetry_space_group_name_H-M   'P 1'
_cell_length_a   10.61650627
_cell_length_b   10.61650627
_cell_length_c   14.39448581
_cell_angle_alpha   59.36294828
_cell_angle_beta   120.63705172
_cell_angle_gamma   112.59837614
_symmetry_Int_Tables_number   1
_chemical_formula_structural   Rb6U(Mo2O9)2
_chemical_formula_sum   'Rb12 U2 Mo8 O36'
_cell_volume   1183.95460857
_cell_formula_units_Z   2
loop_
 _symmetry_equiv_pos_site_id
 _symmetry_equiv_pos_as_xyz
  1  'x, y, z'
loop_
 _atom_site_type_symbol
 _atom_site_label
 _atom_site_symmetry_multiplicity
 _atom_site_fract_x
 _atom_site_fract_y
 _atom_site_fract_z
 _atom_site_occupancy
  Rb  Rb0  1  0.319691  0.319691  0.250000  1
  Rb  Rb1  1  0.347211  0.921225  0.666154  1
  Rb  Rb2  1  0.184723  0.466844  0.665099  1
  Rb  Rb3  1  0.921225  0.347211  0.833846  1
  Rb  Rb4  1  0.466844  0.184723  0.834901  1
  Rb  Rb5  1  0.533156  0.815277  0.165099  1
  Rb  Rb6  1  0.680309  0.680309  0.750000  1
  Rb  Rb7  1  0.815277  0.533156  0.334901  1
  Rb  Rb8  1  0.078775  0.652789  0.166154  1
  Rb  Rb9  1  0.652789  0.078775  0.333846  1
  Rb  Rb10  1  0.991731  0.991731  0.250000  1
  Rb  Rb11  1  0.008269  0.008269  0.750000  1
  U  U12  1  0.500000  0.500000  0.000000  1
  U  U13  1  0.500000  0.500000  0.500000  1
  Mo  Mo14  1  0.204934  0.679520  0.929728  1
  Mo  Mo15  1  0.749187  0.874162  0.957103  1
  Mo  Mo16  1  0.795066  0.320480  0.070272  1
  Mo  Mo17  1  0.679520  0.204934  0.570272  1
  Mo  Mo18  1  0.125838  0.250813  0.457103  1
  Mo  Mo19  1  0.320480  0.795066  0.429728  1
  Mo  Mo20  1  0.250813  0.125838  0.042897  1
  Mo  Mo21  1  0.874162  0.749187  0.542897  1
  O  O22  1  0.703800  0.133648  0.124862  1
  O  O23  1  0.798897  0.815796  0.110074  1
  O  O24  1  0.296200  0.866352  0.875138  1
  O  O25  1  0.201103  0.184204  0.889926  1
  O  O26  1  0.101847  0.135450  0.061230  1
  O  O27  1  0.459678  0.461231  0.623907  1
  O  O28  1  0.538769  0.540322  0.123907  1
  O  O29  1  0.733149  0.449516  0.086030  1
  O  O30  1  0.056184  0.704975  0.621702  1
  O  O31  1  0.866352  0.296200  0.624862  1
  O  O32  1  0.740282  0.583156  0.596589  1
  O  O33  1  0.251578  0.625744  0.080926  1
  O  O34  1  0.295025  0.943816  0.121702  1
  O  O35  1  0.416844  0.259718  0.096589  1
  O  O36  1  0.898153  0.864550  0.938770  1
  O  O37  1  0.135450  0.101847  0.438770  1
  O  O38  1  0.327492  0.989978  0.352620  1
  O  O39  1  0.266851  0.550484  0.913970  1
  O  O40  1  0.989978  0.327492  0.147380  1
  O  O41  1  0.550484  0.266851  0.586030  1
  O  O42  1  0.583156  0.740282  0.903411  1
  O  O43  1  0.625744  0.251578  0.419074  1
  O  O44  1  0.259718  0.416844  0.403411  1
  O  O45  1  0.748422  0.374256  0.919074  1
  O  O46  1  0.815796  0.798897  0.389926  1
  O  O47  1  0.704975  0.056184  0.878298  1
  O  O48  1  0.374256  0.748422  0.580926  1
  O  O49  1  0.010022  0.672508  0.852620  1
  O  O50  1  0.943816  0.295025  0.378298  1
  O  O51  1  0.672508  0.010022  0.647380  1
  O  O52  1  0.864550  0.898153  0.561230  1
  O  O53  1  0.133648  0.703800  0.375138  1
  O  O54  1  0.540322  0.538769  0.376093  1
  O  O55  1  0.461231  0.459678  0.876093  1
  O  O56  1  0.449516  0.733149  0.413970  1
  O  O57  1  0.184204  0.201103  0.610074  1
