# generated using pymatgen
data_LiCaCoF6
_symmetry_space_group_name_H-M   'P 1'
_cell_length_a   5.10063454
_cell_length_b   5.10063454
_cell_length_c   9.81474206
_cell_angle_alpha   90.00000000
_cell_angle_beta   90.00000000
_cell_angle_gamma   120.00000000
_symmetry_Int_Tables_number   1
_chemical_formula_structural   LiCaCoF6
_chemical_formula_sum   'Li2 Ca2 Co2 F12'
_cell_volume   221.13522965
_cell_formula_units_Z   2
loop_
 _symmetry_equiv_pos_site_id
 _symmetry_equiv_pos_as_xyz
  1  'x, y, z'
loop_
 _atom_site_type_symbol
 _atom_site_label
 _atom_site_symmetry_multiplicity
 _atom_site_fract_x
 _atom_site_fract_y
 _atom_site_fract_z
 _atom_site_occupancy
  Li  Li0  1  0.333333  0.666667  0.250000  1
  Li  Li1  1  0.666667  0.333333  0.750000  1
  Ca  Ca2  1  0.000000  0.000000  0.000000  1
  Ca  Ca3  1  0.000000  0.000000  0.500000  1
  Co  Co4  1  0.666667  0.333333  0.250000  1
  Co  Co5  1  0.333333  0.666667  0.750000  1
  F  F6  1  0.654237  0.025721  0.358216  1
  F  F7  1  0.025721  0.371484  0.641784  1
  F  F8  1  0.628516  0.974279  0.858216  1
  F  F9  1  0.025721  0.654237  0.858216  1
  F  F10  1  0.345763  0.371484  0.858216  1
  F  F11  1  0.974279  0.345763  0.141784  1
  F  F12  1  0.628516  0.654237  0.641784  1
  F  F13  1  0.371484  0.025721  0.141784  1
  F  F14  1  0.974279  0.628516  0.358216  1
  F  F15  1  0.371484  0.345763  0.358216  1
  F  F16  1  0.345763  0.974279  0.641784  1
  F  F17  1  0.654237  0.628516  0.141784  1
