# generated using pymatgen
data_CaTaAlO5
_symmetry_space_group_name_H-M   'P 1'
_cell_length_a   6.72204726
_cell_length_b   9.03592234
_cell_length_c   7.72740823
_cell_angle_alpha   90.00000000
_cell_angle_beta   118.43156344
_cell_angle_gamma   90.00000000
_symmetry_Int_Tables_number   1
_chemical_formula_structural   CaTaAlO5
_chemical_formula_sum   'Ca4 Ta4 Al4 O20'
_cell_volume   412.75055342
_cell_formula_units_Z   4
loop_
 _symmetry_equiv_pos_site_id
 _symmetry_equiv_pos_as_xyz
  1  'x, y, z'
loop_
 _atom_site_type_symbol
 _atom_site_label
 _atom_site_symmetry_multiplicity
 _atom_site_fract_x
 _atom_site_fract_y
 _atom_site_fract_z
 _atom_site_occupancy
  Ca  Ca0  1  0.706399  0.664486  0.711349  1
  Ca  Ca1  1  0.706399  0.835514  0.211349  1
  Ca  Ca2  1  0.293601  0.335514  0.288651  1
  Ca  Ca3  1  0.293601  0.164486  0.788651  1
  Ta  Ta4  1  0.000000  0.500000  0.500000  1
  Ta  Ta5  1  0.500000  0.500000  0.000000  1
  Ta  Ta6  1  0.500000  0.000000  0.500000  1
  Ta  Ta7  1  0.000000  0.000000  0.000000  1
  Al  Al8  1  0.759558  0.185335  0.250537  1
  Al  Al9  1  0.240442  0.685335  0.249463  1
  Al  Al10  1  0.759558  0.314665  0.750537  1
  Al  Al11  1  0.240442  0.814665  0.749463  1
  O  O12  1  0.003457  0.801712  0.120280  1
  O  O13  1  0.236263  0.564460  0.428920  1
  O  O14  1  0.756471  0.923729  0.746547  1
  O  O15  1  0.763737  0.435540  0.571080  1
  O  O16  1  0.003457  0.698288  0.620280  1
  O  O17  1  0.514853  0.202750  0.615031  1
  O  O18  1  0.243529  0.423729  0.753453  1
  O  O19  1  0.485147  0.702750  0.884969  1
  O  O20  1  0.485147  0.797250  0.384969  1
  O  O21  1  0.287378  0.557837  0.099306  1
  O  O22  1  0.287378  0.942163  0.599306  1
  O  O23  1  0.763737  0.064460  0.071080  1
  O  O24  1  0.236263  0.935540  0.928920  1
  O  O25  1  0.756471  0.576271  0.246547  1
  O  O26  1  0.712622  0.057837  0.400694  1
  O  O27  1  0.712622  0.442163  0.900694  1
  O  O28  1  0.514853  0.297250  0.115031  1
  O  O29  1  0.996543  0.301712  0.379720  1
  O  O30  1  0.243529  0.076271  0.253453  1
  O  O31  1  0.996543  0.198288  0.879720  1
