# generated using pymatgen
data_U8CrS17
_symmetry_space_group_name_H-M   'P 1'
_cell_length_a   7.79103140
_cell_length_b   7.79103140
_cell_length_c   10.34114435
_cell_angle_alpha   80.31455569
_cell_angle_beta   99.68544431
_cell_angle_gamma   115.42537545
_symmetry_Int_Tables_number   1
_chemical_formula_structural   U8CrS17
_chemical_formula_sum   'U8 Cr1 S17'
_cell_volume   555.57292036
_cell_formula_units_Z   1
loop_
 _symmetry_equiv_pos_site_id
 _symmetry_equiv_pos_as_xyz
  1  'x, y, z'
loop_
 _atom_site_type_symbol
 _atom_site_label
 _atom_site_symmetry_multiplicity
 _atom_site_fract_x
 _atom_site_fract_y
 _atom_site_fract_z
 _atom_site_occupancy
  U  U0  1  0.697356  0.818099  0.298857  1
  U  U1  1  0.818099  0.697356  0.701143  1
  U  U2  1  0.302644  0.181901  0.701143  1
  U  U3  1  0.181901  0.302644  0.298857  1
  U  U4  1  0.795880  0.204120  0.544125  1
  U  U5  1  0.204120  0.795880  0.455875  1
  U  U6  1  0.317763  0.682237  0.982655  1
  U  U7  1  0.682237  0.317763  0.017345  1
  Cr  Cr8  1  0.000000  0.000000  0.000000  1
  S  S9  1  0.567281  0.820460  0.535063  1
  S  S10  1  0.820460  0.567281  0.464937  1
  S  S11  1  0.432719  0.179540  0.464937  1
  S  S12  1  0.179540  0.432719  0.535063  1
  S  S13  1  0.678257  0.944244  0.029095  1
  S  S14  1  0.944244  0.678257  0.970905  1
  S  S15  1  0.321743  0.055756  0.970905  1
  S  S16  1  0.055756  0.321743  0.029095  1
  S  S17  1  0.787405  0.212595  0.278809  1
  S  S18  1  0.212595  0.787405  0.721191  1
  S  S19  1  0.942749  0.057251  0.772632  1
  S  S20  1  0.057251  0.942749  0.227368  1
  S  S21  1  0.699257  0.300743  0.756319  1
  S  S22  1  0.300743  0.699257  0.243681  1
  S  S23  1  0.478875  0.521125  0.830714  1
  S  S24  1  0.521125  0.478875  0.169286  1
  S  S25  1  0.000000  0.000000  0.500000  1
