# generated using pymatgen
data_NaCrO2
_symmetry_space_group_name_H-M   'P 1'
_cell_length_a   5.65361958
_cell_length_b   5.65361958
_cell_length_c   5.65361958
_cell_angle_alpha   31.24302231
_cell_angle_beta   31.24302231
_cell_angle_gamma   31.24302231
_symmetry_Int_Tables_number   1
_chemical_formula_structural   NaCrO2
_chemical_formula_sum   'Na1 Cr1 O2'
_cell_volume   43.14228466
_cell_formula_units_Z   1
loop_
 _symmetry_equiv_pos_site_id
 _symmetry_equiv_pos_as_xyz
  1  'x, y, z'
loop_
 _atom_site_type_symbol
 _atom_site_label
 _atom_site_symmetry_multiplicity
 _atom_site_fract_x
 _atom_site_fract_y
 _atom_site_fract_z
 _atom_site_occupancy
  Na  Na0  1  0.000000  0.000000  0.000000  1
  Cr  Cr1  1  0.500000  0.500000  0.500000  1
  O  O2  1  0.767747  0.767747  0.767747  1
  O  O3  1  0.232253  0.232253  0.232253  1
