# generated using pymatgen
data_Bi8SbAuBr9
_symmetry_space_group_name_H-M   'P 1'
_cell_length_a   10.93721019
_cell_length_b   15.58662358
_cell_length_c   15.24017718
_cell_angle_alpha   90.00000000
_cell_angle_beta   91.94362189
_cell_angle_gamma   90.00000000
_symmetry_Int_Tables_number   1
_chemical_formula_structural   Bi8SbAuBr9
_chemical_formula_sum   'Bi32 Sb4 Au4 Br36'
_cell_volume   2596.56197594
_cell_formula_units_Z   4
loop_
 _symmetry_equiv_pos_site_id
 _symmetry_equiv_pos_as_xyz
  1  'x, y, z'
loop_
 _atom_site_type_symbol
 _atom_site_label
 _atom_site_symmetry_multiplicity
 _atom_site_fract_x
 _atom_site_fract_y
 _atom_site_fract_z
 _atom_site_occupancy
  Bi  Bi0  1  0.047966  0.140989  0.699726  1
  Bi  Bi1  1  0.938865  0.357805  0.805181  1
  Bi  Bi2  1  0.307254  0.644894  0.477854  1
  Bi  Bi3  1  0.549986  0.863834  0.856936  1
  Bi  Bi4  1  0.952034  0.640989  0.800274  1
  Bi  Bi5  1  0.450014  0.363834  0.643064  1
  Bi  Bi6  1  0.952034  0.859011  0.300274  1
  Bi  Bi7  1  0.578666  0.683331  0.564805  1
  Bi  Bi8  1  0.549986  0.636166  0.356936  1
  Bi  Bi9  1  0.061135  0.857805  0.694819  1
  Bi  Bi10  1  0.230683  0.051747  0.026788  1
  Bi  Bi11  1  0.769317  0.948253  0.973212  1
  Bi  Bi12  1  0.061135  0.642195  0.194819  1
  Bi  Bi13  1  0.769317  0.551747  0.473212  1
  Bi  Bi14  1  0.047966  0.359011  0.199726  1
  Bi  Bi15  1  0.692746  0.144894  0.022146  1
  Bi  Bi16  1  0.230683  0.448253  0.526788  1
  Bi  Bi17  1  0.578666  0.816669  0.064805  1
  Bi  Bi18  1  0.379857  0.931405  0.169852  1
  Bi  Bi19  1  0.620143  0.068595  0.830148  1
  Bi  Bi20  1  0.337960  0.008981  0.555168  1
  Bi  Bi21  1  0.450014  0.136166  0.143064  1
  Bi  Bi22  1  0.662040  0.991019  0.444832  1
  Bi  Bi23  1  0.379857  0.568595  0.669852  1
  Bi  Bi24  1  0.692746  0.355106  0.522146  1
  Bi  Bi25  1  0.620143  0.431405  0.330148  1
  Bi  Bi26  1  0.421334  0.183331  0.935195  1
  Bi  Bi27  1  0.307254  0.855106  0.977854  1
  Bi  Bi28  1  0.421334  0.316669  0.435195  1
  Bi  Bi29  1  0.337960  0.491019  0.055168  1
  Bi  Bi30  1  0.938865  0.142195  0.305181  1
  Bi  Bi31  1  0.662040  0.508981  0.944832  1
  Sb  Sb32  1  0.228513  0.496645  0.228889  1
  Sb  Sb33  1  0.228513  0.003355  0.728889  1
  Sb  Sb34  1  0.771487  0.996645  0.271111  1
  Sb  Sb35  1  0.771487  0.503355  0.771111  1
  Au  Au36  1  0.376938  0.006407  0.876013  1
  Au  Au37  1  0.623062  0.993593  0.123987  1
  Au  Au38  1  0.623062  0.506407  0.623987  1
  Au  Au39  1  0.376938  0.493593  0.376013  1
  Br  Br40  1  0.174141  0.645197  0.021165  1
  Br  Br41  1  0.508853  0.370813  0.127347  1
  Br  Br42  1  0.484855  0.387402  0.870516  1
  Br  Br43  1  0.491147  0.870813  0.372653  1
  Br  Br44  1  0.515145  0.612598  0.129484  1
  Br  Br45  1  0.871146  0.502788  0.177519  1
  Br  Br46  1  0.020627  0.636582  0.380807  1
  Br  Br47  1  0.998302  0.130123  0.880669  1
  Br  Br48  1  0.979373  0.363418  0.619193  1
  Br  Br49  1  0.825214  0.843686  0.476031  1
  Br  Br50  1  0.128854  0.497212  0.822481  1
  Br  Br51  1  0.174141  0.854803  0.521165  1
  Br  Br52  1  0.741497  0.249094  0.242818  1
  Br  Br53  1  0.998302  0.369877  0.380669  1
  Br  Br54  1  0.491147  0.629187  0.872653  1
  Br  Br55  1  0.174786  0.343686  0.023969  1
  Br  Br56  1  0.174786  0.156314  0.523969  1
  Br  Br57  1  0.762462  0.744350  0.235971  1
  Br  Br58  1  0.484855  0.112598  0.370516  1
  Br  Br59  1  0.871146  0.997212  0.677519  1
  Br  Br60  1  0.237538  0.255650  0.764029  1
  Br  Br61  1  0.237538  0.244350  0.264029  1
  Br  Br62  1  0.979373  0.136582  0.119193  1
  Br  Br63  1  0.762462  0.755650  0.735971  1
  Br  Br64  1  0.825214  0.656314  0.976031  1
  Br  Br65  1  0.001698  0.869877  0.119331  1
  Br  Br66  1  0.020627  0.863418  0.880807  1
  Br  Br67  1  0.258503  0.750906  0.757182  1
  Br  Br68  1  0.001698  0.630123  0.619331  1
  Br  Br69  1  0.128854  0.002788  0.322481  1
  Br  Br70  1  0.258503  0.749094  0.257182  1
  Br  Br71  1  0.508853  0.129187  0.627347  1
  Br  Br72  1  0.825859  0.354803  0.978835  1
  Br  Br73  1  0.825859  0.145197  0.478835  1
  Br  Br74  1  0.515145  0.887402  0.629484  1
  Br  Br75  1  0.741497  0.250906  0.742818  1
