# generated using pymatgen
data_Ce2O3
_symmetry_space_group_name_H-M   'P 1'
_cell_length_a   9.61775687
_cell_length_b   9.61775687
_cell_length_c   9.61775687
_cell_angle_alpha   109.47122063
_cell_angle_beta   109.47122063
_cell_angle_gamma   109.47122063
_symmetry_Int_Tables_number   1
_chemical_formula_structural   Ce2O3
_chemical_formula_sum   'Ce16 O24'
_cell_volume   684.85635867
_cell_formula_units_Z   8
loop_
 _symmetry_equiv_pos_site_id
 _symmetry_equiv_pos_as_xyz
  1  'x, y, z'
loop_
 _atom_site_type_symbol
 _atom_site_label
 _atom_site_symmetry_multiplicity
 _atom_site_fract_x
 _atom_site_fract_y
 _atom_site_fract_z
 _atom_site_occupancy
  Ce  Ce0  1  0.500000  0.500000  0.500000  1
  Ce  Ce1  1  1.000000  1.000000  0.500000  1
  Ce  Ce2  1  0.500000  1.000000  0.000000  1
  Ce  Ce3  1  1.000000  0.500000  0.000000  1
  Ce  Ce4  1  0.250000  0.228563  0.978563  1
  Ce  Ce5  1  0.271437  0.521437  0.750000  1
  Ce  Ce6  1  0.521437  0.750000  0.271437  1
  Ce  Ce7  1  0.228563  0.978563  0.250000  1
  Ce  Ce8  1  0.978563  0.250000  0.228563  1
  Ce  Ce9  1  0.750000  0.271437  0.521437  1
  Ce  Ce10  1  0.750000  0.771437  0.021437  1
  Ce  Ce11  1  0.728563  0.478563  0.250000  1
  Ce  Ce12  1  0.478563  0.250000  0.728563  1
  Ce  Ce13  1  0.771437  0.021437  0.750000  1
  Ce  Ce14  1  0.021437  0.750000  0.771437  1
  Ce  Ce15  1  0.250000  0.728563  0.478563  1
  O  O16  1  0.523085  0.764640  0.532285  1
  O  O17  1  0.990800  0.967715  0.732354  1
  O  O18  1  0.258445  0.767646  0.735360  1
  O  O19  1  0.509200  0.241555  0.976915  1
  O  O20  1  0.967715  0.732354  0.990800  1
  O  O21  1  0.735360  0.258445  0.767646  1
  O  O22  1  0.241555  0.976915  0.509200  1
  O  O23  1  0.532285  0.523085  0.764640  1
  O  O24  1  0.764640  0.532285  0.523085  1
  O  O25  1  0.732354  0.990800  0.967715  1
  O  O26  1  0.767646  0.735360  0.258445  1
  O  O27  1  0.976915  0.509200  0.241555  1
  O  O28  1  0.476915  0.235360  0.467715  1
  O  O29  1  0.009200  0.032285  0.267646  1
  O  O30  1  0.741555  0.232354  0.264640  1
  O  O31  1  0.490800  0.758445  0.023085  1
  O  O32  1  0.032285  0.267646  0.009200  1
  O  O33  1  0.264640  0.741555  0.232354  1
  O  O34  1  0.758445  0.023085  0.490800  1
  O  O35  1  0.467715  0.476915  0.235360  1
  O  O36  1  0.235360  0.467715  0.476915  1
  O  O37  1  0.267646  0.009200  0.032285  1
  O  O38  1  0.232354  0.264640  0.741555  1
  O  O39  1  0.023085  0.490800  0.758445  1
