# generated using pymatgen
data_Eu2B5BrO9
_symmetry_space_group_name_H-M   'P 1'
_cell_length_a   6.54508307
_cell_length_b   11.49695207
_cell_length_c   11.62536127
_cell_angle_alpha   90.00000000
_cell_angle_beta   90.00000000
_cell_angle_gamma   90.00000000
_symmetry_Int_Tables_number   1
_chemical_formula_structural   Eu2B5BrO9
_chemical_formula_sum   'Eu8 B20 Br4 O36'
_cell_volume   874.79107135
_cell_formula_units_Z   4
loop_
 _symmetry_equiv_pos_site_id
 _symmetry_equiv_pos_as_xyz
  1  'x, y, z'
loop_
 _atom_site_type_symbol
 _atom_site_label
 _atom_site_symmetry_multiplicity
 _atom_site_fract_x
 _atom_site_fract_y
 _atom_site_fract_z
 _atom_site_occupancy
  Eu  Eu0  1  0.846444  0.262103  0.533116  1
  Eu  Eu1  1  0.346444  0.762103  0.966884  1
  Eu  Eu2  1  0.002880  0.049275  0.254962  1
  Eu  Eu3  1  0.346444  0.237897  0.033116  1
  Eu  Eu4  1  0.002880  0.950725  0.745038  1
  Eu  Eu5  1  0.846444  0.737897  0.466884  1
  Eu  Eu6  1  0.502880  0.549275  0.245038  1
  Eu  Eu7  1  0.502880  0.450725  0.754962  1
  B  B8  1  0.810088  0.736433  0.036013  1
  B  B9  1  0.973495  0.503049  0.750680  1
  B  B10  1  0.848021  0.298359  0.186759  1
  B  B11  1  0.973495  0.496951  0.249320  1
  B  B12  1  0.473495  0.003049  0.749320  1
  B  B13  1  0.473495  0.996951  0.250680  1
  B  B14  1  0.699406  0.824899  0.224760  1
  B  B15  1  0.848021  0.701641  0.813241  1
  B  B16  1  0.031580  0.719681  0.205450  1
  B  B17  1  0.310088  0.763567  0.536013  1
  B  B18  1  0.031580  0.280319  0.794550  1
  B  B19  1  0.531580  0.780319  0.705450  1
  B  B20  1  0.810088  0.263567  0.963987  1
  B  B21  1  0.348021  0.201641  0.686759  1
  B  B22  1  0.199406  0.675101  0.724760  1
  B  B23  1  0.348021  0.798359  0.313241  1
  B  B24  1  0.199406  0.324899  0.275240  1
  B  B25  1  0.699406  0.175101  0.775240  1
  B  B26  1  0.310088  0.236433  0.463987  1
  B  B27  1  0.531580  0.219681  0.294550  1
  Br  Br28  1  0.131558  0.000000  0.000000  1
  Br  Br29  1  0.869476  0.000000  0.500000  1
  Br  Br30  1  0.631558  0.500000  0.500000  1
  Br  Br31  1  0.369476  0.500000  0.000000  1
  O  O32  1  0.749155  0.268730  0.076288  1
  O  O33  1  0.657934  0.047562  0.783752  1
  O  O34  1  0.569111  0.230045  0.685954  1
  O  O35  1  0.154189  0.731561  0.611603  1
  O  O36  1  0.001937  0.287181  0.923100  1
  O  O37  1  0.249155  0.768730  0.423712  1
  O  O38  1  0.750523  0.772977  0.722778  1
  O  O39  1  0.749155  0.731270  0.923712  1
  O  O40  1  0.569111  0.769955  0.314046  1
  O  O41  1  0.930079  0.613877  0.261180  1
  O  O42  1  0.750523  0.227023  0.277222  1
  O  O43  1  0.069111  0.269955  0.185954  1
  O  O44  1  0.657934  0.952438  0.216248  1
  O  O45  1  0.820067  0.573772  0.791789  1
  O  O46  1  0.157934  0.547562  0.716248  1
  O  O47  1  0.930079  0.386123  0.738820  1
  O  O48  1  0.320067  0.073772  0.708211  1
  O  O49  1  0.416424  0.682271  0.754610  1
  O  O50  1  0.154189  0.268439  0.388397  1
  O  O51  1  0.069111  0.730045  0.814046  1
  O  O52  1  0.654189  0.231561  0.888397  1
  O  O53  1  0.501937  0.787181  0.576900  1
  O  O54  1  0.430079  0.113877  0.238820  1
  O  O55  1  0.654189  0.768439  0.111603  1
  O  O56  1  0.916424  0.817729  0.254610  1
  O  O57  1  0.501937  0.212819  0.423100  1
  O  O58  1  0.320067  0.926228  0.291789  1
  O  O59  1  0.820067  0.426228  0.208211  1
  O  O60  1  0.430079  0.886123  0.761180  1
  O  O61  1  0.157934  0.452438  0.283752  1
  O  O62  1  0.250523  0.727023  0.222778  1
  O  O63  1  0.001937  0.712819  0.076900  1
  O  O64  1  0.916424  0.182271  0.745390  1
  O  O65  1  0.250523  0.272977  0.777222  1
  O  O66  1  0.249155  0.231270  0.576288  1
  O  O67  1  0.416424  0.317729  0.245390  1
