# generated using pymatgen
data_Rb2TbGa(SiO3)4
_symmetry_space_group_name_H-M   'P 1'
_cell_length_a   14.11601631
_cell_length_b   14.11601631
_cell_length_c   15.05803145
_cell_angle_alpha   58.08300738
_cell_angle_beta   121.91699262
_cell_angle_gamma   149.71420032
_symmetry_Int_Tables_number   1
_chemical_formula_structural   Rb2TbGa(SiO3)4
_chemical_formula_sum   'Rb8 Tb4 Ga4 Si16 O48'
_cell_volume   1266.03925485
_cell_formula_units_Z   4
loop_
 _symmetry_equiv_pos_site_id
 _symmetry_equiv_pos_as_xyz
  1  'x, y, z'
loop_
 _atom_site_type_symbol
 _atom_site_label
 _atom_site_symmetry_multiplicity
 _atom_site_fract_x
 _atom_site_fract_y
 _atom_site_fract_z
 _atom_site_occupancy
  Rb  Rb0  1  0.228443  0.297642  0.047832  1
  Rb  Rb1  1  0.695569  0.312339  0.466227  1
  Rb  Rb2  1  0.702358  0.771557  0.547832  1
  Rb  Rb3  1  0.297642  0.228443  0.452168  1
  Rb  Rb4  1  0.687661  0.304431  0.966227  1
  Rb  Rb5  1  0.304431  0.687661  0.533773  1
  Rb  Rb6  1  0.312339  0.695569  0.033773  1
  Rb  Rb7  1  0.771557  0.702358  0.952168  1
  Tb  Tb8  1  0.486072  0.948620  0.250053  1
  Tb  Tb9  1  0.513928  0.051380  0.749947  1
  Tb  Tb10  1  0.051380  0.513928  0.750053  1
  Tb  Tb11  1  0.948620  0.486072  0.249947  1
  Ga  Ga12  1  0.770023  0.630373  0.225920  1
  Ga  Ga13  1  0.229977  0.369627  0.774080  1
  Ga  Ga14  1  0.630373  0.770023  0.274080  1
  Ga  Ga15  1  0.369627  0.229977  0.725920  1
  Si  Si16  1  0.859408  0.196040  0.989918  1
  Si  Si17  1  0.140592  0.803960  0.010082  1
  Si  Si18  1  0.240081  0.479623  0.338842  1
  Si  Si19  1  0.479623  0.240081  0.161158  1
  Si  Si20  1  0.759919  0.520377  0.661158  1
  Si  Si21  1  0.166243  0.290997  0.577267  1
  Si  Si22  1  0.860528  0.186179  0.203932  1
  Si  Si23  1  0.813821  0.139472  0.703932  1
  Si  Si24  1  0.290997  0.166243  0.922733  1
  Si  Si25  1  0.833757  0.709003  0.422733  1
  Si  Si26  1  0.803960  0.140592  0.489918  1
  Si  Si27  1  0.520377  0.759919  0.838842  1
  Si  Si28  1  0.709003  0.833757  0.077267  1
  Si  Si29  1  0.186179  0.860528  0.296068  1
  Si  Si30  1  0.139472  0.813821  0.796068  1
  Si  Si31  1  0.196040  0.859408  0.510082  1
  O  O32  1  0.864415  0.060236  0.055995  1
  O  O33  1  0.293357  0.429351  0.657744  1
  O  O34  1  0.043894  0.270626  0.297828  1
  O  O35  1  0.178527  0.167673  0.621019  1
  O  O36  1  0.269563  0.916022  0.411787  1
  O  O37  1  0.951929  0.669711  0.270515  1
  O  O38  1  0.379999  0.032234  0.577221  1
  O  O39  1  0.349781  0.924403  0.076217  1
  O  O40  1  0.956106  0.729374  0.702172  1
  O  O41  1  0.167673  0.178527  0.878981  1
  O  O42  1  0.075597  0.650219  0.576217  1
  O  O43  1  0.706643  0.570649  0.342256  1
  O  O44  1  0.060236  0.864415  0.444005  1
  O  O45  1  0.048071  0.330289  0.729485  1
  O  O46  1  0.570649  0.706643  0.157744  1
  O  O47  1  0.083978  0.730437  0.911787  1
  O  O48  1  0.032234  0.379999  0.922779  1
  O  O49  1  0.924403  0.349781  0.423783  1
  O  O50  1  0.584051  0.438334  0.666126  1
  O  O51  1  0.916022  0.269563  0.088213  1
  O  O52  1  0.330289  0.048071  0.770515  1
  O  O53  1  0.237582  0.612734  0.274468  1
  O  O54  1  0.758157  0.203566  0.702844  1
  O  O55  1  0.561666  0.415949  0.166126  1
  O  O56  1  0.620001  0.967766  0.422779  1
  O  O57  1  0.437727  0.254672  0.032498  1
  O  O58  1  0.612734  0.237582  0.225532  1
  O  O59  1  0.832327  0.821473  0.121019  1
  O  O60  1  0.729374  0.956106  0.797828  1
  O  O61  1  0.203566  0.758157  0.797156  1
  O  O62  1  0.762418  0.387266  0.725532  1
  O  O63  1  0.135585  0.939764  0.944005  1
  O  O64  1  0.254672  0.437727  0.467502  1
  O  O65  1  0.939764  0.135585  0.555995  1
  O  O66  1  0.796434  0.241843  0.202844  1
  O  O67  1  0.650219  0.075597  0.923783  1
  O  O68  1  0.730437  0.083978  0.588213  1
  O  O69  1  0.821473  0.832327  0.378981  1
  O  O70  1  0.562273  0.745328  0.967502  1
  O  O71  1  0.415949  0.561666  0.333874  1
  O  O72  1  0.438334  0.584051  0.833874  1
  O  O73  1  0.387266  0.762418  0.774468  1
  O  O74  1  0.270626  0.043894  0.202172  1
  O  O75  1  0.967766  0.620001  0.077221  1
  O  O76  1  0.669711  0.951929  0.229485  1
  O  O77  1  0.745328  0.562273  0.532498  1
  O  O78  1  0.241843  0.796434  0.297156  1
  O  O79  1  0.429351  0.293357  0.842256  1
