# generated using pymatgen
data_CeMg2Cu9
_symmetry_space_group_name_H-M   'P 1'
_cell_length_a   5.04188324
_cell_length_b   5.04188324
_cell_length_c   16.14121923
_cell_angle_alpha   90.00000000
_cell_angle_beta   90.00000000
_cell_angle_gamma   120.00000000
_symmetry_Int_Tables_number   1
_chemical_formula_structural   CeMg2Cu9
_chemical_formula_sum   'Ce2 Mg4 Cu18'
_cell_volume   355.34690373
_cell_formula_units_Z   2
loop_
 _symmetry_equiv_pos_site_id
 _symmetry_equiv_pos_as_xyz
  1  'x, y, z'
loop_
 _atom_site_type_symbol
 _atom_site_label
 _atom_site_symmetry_multiplicity
 _atom_site_fract_x
 _atom_site_fract_y
 _atom_site_fract_z
 _atom_site_occupancy
  Ce  Ce0  1  0.333333  0.666667  0.750000  1
  Ce  Ce1  1  0.666667  0.333333  0.250000  1
  Mg  Mg2  1  0.333333  0.666667  0.531528  1
  Mg  Mg3  1  0.666667  0.333333  0.031528  1
  Mg  Mg4  1  0.666667  0.333333  0.468472  1
  Mg  Mg5  1  0.333333  0.666667  0.968472  1
  Cu  Cu6  1  0.000000  0.000000  0.000000  1
  Cu  Cu7  1  0.000000  0.000000  0.500000  1
  Cu  Cu8  1  0.000000  0.000000  0.250000  1
  Cu  Cu9  1  0.000000  0.000000  0.750000  1
  Cu  Cu10  1  0.333333  0.666667  0.250000  1
  Cu  Cu11  1  0.666667  0.333333  0.750000  1
  Cu  Cu12  1  0.167923  0.335846  0.122505  1
  Cu  Cu13  1  0.832077  0.167923  0.622505  1
  Cu  Cu14  1  0.335846  0.167923  0.622505  1
  Cu  Cu15  1  0.664154  0.832077  0.122505  1
  Cu  Cu16  1  0.167923  0.832077  0.122505  1
  Cu  Cu17  1  0.832077  0.664154  0.877495  1
  Cu  Cu18  1  0.832077  0.167923  0.877495  1
  Cu  Cu19  1  0.832077  0.664154  0.622505  1
  Cu  Cu20  1  0.335846  0.167923  0.877495  1
  Cu  Cu21  1  0.664154  0.832077  0.377495  1
  Cu  Cu22  1  0.167923  0.335846  0.377495  1
  Cu  Cu23  1  0.167923  0.832077  0.377495  1
