# generated using pymatgen
data_SrGa2(GeO4)2
_symmetry_space_group_name_H-M   'P 1'
_cell_length_a   8.69832536
_cell_length_b   9.79240463
_cell_length_c   9.32548490
_cell_angle_alpha   90.00000000
_cell_angle_beta   90.47378199
_cell_angle_gamma   90.00000000
_symmetry_Int_Tables_number   1
_chemical_formula_structural   SrGa2(GeO4)2
_chemical_formula_sum   'Sr4 Ga8 Ge8 O32'
_cell_volume   794.29453496
_cell_formula_units_Z   4
loop_
 _symmetry_equiv_pos_site_id
 _symmetry_equiv_pos_as_xyz
  1  'x, y, z'
loop_
 _atom_site_type_symbol
 _atom_site_label
 _atom_site_symmetry_multiplicity
 _atom_site_fract_x
 _atom_site_fract_y
 _atom_site_fract_z
 _atom_site_occupancy
  Sr  Sr0  1  0.749510  0.412853  0.114588  1
  Sr  Sr1  1  0.250490  0.912853  0.385412  1
  Sr  Sr2  1  0.250490  0.587147  0.885412  1
  Sr  Sr3  1  0.749510  0.087147  0.614588  1
  Ga  Ga4  1  0.067350  0.924162  0.764935  1
  Ga  Ga5  1  0.932650  0.424162  0.735065  1
  Ga  Ga6  1  0.932650  0.075838  0.235065  1
  Ga  Ga7  1  0.067350  0.575838  0.264935  1
  Ga  Ga8  1  0.431109  0.193928  0.946436  1
  Ga  Ga9  1  0.568891  0.693928  0.553564  1
  Ga  Ga10  1  0.568891  0.806072  0.053564  1
  Ga  Ga11  1  0.431109  0.306072  0.446436  1
  Ge  Ge12  1  0.438128  0.920264  0.758034  1
  Ge  Ge13  1  0.561872  0.420264  0.741966  1
  Ge  Ge14  1  0.561872  0.079736  0.241966  1
  Ge  Ge15  1  0.438128  0.579736  0.258034  1
  Ge  Ge16  1  0.060007  0.199357  0.943069  1
  Ge  Ge17  1  0.939993  0.699357  0.556931  1
  Ge  Ge18  1  0.939993  0.800643  0.056931  1
  Ge  Ge19  1  0.060007  0.300643  0.443069  1
  O  O20  1  0.980662  0.091971  0.806407  1
  O  O21  1  0.019338  0.591971  0.693593  1
  O  O22  1  0.019338  0.908029  0.193593  1
  O  O23  1  0.980662  0.408029  0.306407  1
  O  O24  1  0.517336  0.079004  0.808951  1
  O  O25  1  0.482664  0.579004  0.691049  1
  O  O26  1  0.482664  0.920996  0.191049  1
  O  O27  1  0.517336  0.420996  0.308951  1
  O  O28  1  0.066265  0.371805  0.883704  1
  O  O29  1  0.933735  0.871805  0.616296  1
  O  O30  1  0.933735  0.628195  0.116296  1
  O  O31  1  0.066265  0.128195  0.383704  1
  O  O32  1  0.433678  0.373889  0.881555  1
  O  O33  1  0.566322  0.873889  0.618445  1
  O  O34  1  0.566322  0.626111  0.118445  1
  O  O35  1  0.433678  0.126111  0.381555  1
  O  O36  1  0.925433  0.199048  0.085263  1
  O  O37  1  0.074567  0.699048  0.414737  1
  O  O38  1  0.074567  0.800952  0.914737  1
  O  O39  1  0.925433  0.300952  0.585263  1
  O  O40  1  0.570134  0.198149  0.099754  1
  O  O41  1  0.429866  0.698149  0.400246  1
  O  O42  1  0.429866  0.801851  0.900246  1
  O  O43  1  0.570134  0.301851  0.599754  1
  O  O44  1  0.239128  0.135959  0.998587  1
  O  O45  1  0.760872  0.635959  0.501413  1
  O  O46  1  0.760872  0.864041  0.001413  1
  O  O47  1  0.239128  0.364041  0.498587  1
  O  O48  1  0.255465  0.925010  0.670593  1
  O  O49  1  0.744535  0.425010  0.829407  1
  O  O50  1  0.744535  0.074990  0.329407  1
  O  O51  1  0.255465  0.574990  0.170593  1
