# generated using pymatgen
data_Li2Fe5(PO4)4
_symmetry_space_group_name_H-M   'P 1'
_cell_length_a   5.29787410
_cell_length_b   8.03783067
_cell_length_c   8.15800373
_cell_angle_alpha   109.00338500
_cell_angle_beta   91.67568240
_cell_angle_gamma   101.34488474
_symmetry_Int_Tables_number   1
_chemical_formula_structural   Li2Fe5(PO4)4
_chemical_formula_sum   'Li2 Fe5 P4 O16'
_cell_volume   320.40940339
_cell_formula_units_Z   1
loop_
 _symmetry_equiv_pos_site_id
 _symmetry_equiv_pos_as_xyz
  1  'x, y, z'
loop_
 _atom_site_type_symbol
 _atom_site_label
 _atom_site_symmetry_multiplicity
 _atom_site_fract_x
 _atom_site_fract_y
 _atom_site_fract_z
 _atom_site_occupancy
  Li  Li0  1  0.379296  0.937921  0.701605  1
  Li  Li1  1  0.620704  0.062079  0.298395  1
  Fe  Fe2  1  0.362001  0.593391  0.331487  1
  Fe  Fe3  1  0.907391  0.743087  0.216133  1
  Fe  Fe4  1  0.637999  0.406609  0.668513  1
  Fe  Fe5  1  0.092609  0.256913  0.783867  1
  Fe  Fe6  1  0.000000  0.000000  0.000000  1
  P  P7  1  0.861720  0.793366  0.572509  1
  P  P8  1  0.621429  0.296545  0.030128  1
  P  P9  1  0.378571  0.703455  0.969872  1
  P  P10  1  0.138280  0.206634  0.427491  1
  O  O11  1  0.123239  0.774013  0.494304  1
  O  O12  1  0.099484  0.031595  0.265456  1
  O  O13  1  0.237145  0.676084  0.129864  1
  O  O14  1  0.876761  0.225987  0.505696  1
  O  O15  1  0.732903  0.630865  0.618774  1
  O  O16  1  0.667937  0.795219  0.040907  1
  O  O17  1  0.674062  0.818329  0.431613  1
  O  O18  1  0.650363  0.484199  0.169339  1
  O  O19  1  0.349637  0.515801  0.830661  1
  O  O20  1  0.332063  0.204781  0.959093  1
  O  O21  1  0.267097  0.369135  0.381226  1
  O  O22  1  0.762855  0.323916  0.870136  1
  O  O23  1  0.258200  0.829309  0.898701  1
  O  O24  1  0.325938  0.181671  0.568387  1
  O  O25  1  0.900516  0.968405  0.734544  1
  O  O26  1  0.741800  0.170691  0.101299  1
