# generated using pymatgen
data_Na4CaSn6
_symmetry_space_group_name_H-M   'P 1'
_cell_length_a   10.14501558
_cell_length_b   10.14501558
_cell_length_c   7.23202384
_cell_angle_alpha   90.00000000
_cell_angle_beta   90.00000000
_cell_angle_gamma   120.00000000
_symmetry_Int_Tables_number   1
_chemical_formula_structural   Na4CaSn6
_chemical_formula_sum   'Na8 Ca2 Sn12'
_cell_volume   644.60833595
_cell_formula_units_Z   2
loop_
 _symmetry_equiv_pos_site_id
 _symmetry_equiv_pos_as_xyz
  1  'x, y, z'
loop_
 _atom_site_type_symbol
 _atom_site_label
 _atom_site_symmetry_multiplicity
 _atom_site_fract_x
 _atom_site_fract_y
 _atom_site_fract_z
 _atom_site_occupancy
  Na  Na0  1  0.540646  0.459354  0.750000  1
  Na  Na1  1  0.540646  0.081292  0.750000  1
  Na  Na2  1  0.459354  0.540646  0.250000  1
  Na  Na3  1  0.081292  0.540646  0.250000  1
  Na  Na4  1  0.666667  0.333333  0.250000  1
  Na  Na5  1  0.918708  0.459354  0.750000  1
  Na  Na6  1  0.333333  0.666667  0.750000  1
  Na  Na7  1  0.459354  0.918708  0.250000  1
  Ca  Ca8  1  0.000000  0.000000  0.750000  1
  Ca  Ca9  1  0.000000  0.000000  0.250000  1
  Sn  Sn10  1  0.831178  0.168822  0.461209  1
  Sn  Sn11  1  0.831178  0.168822  0.038791  1
  Sn  Sn12  1  0.831178  0.662356  0.461209  1
  Sn  Sn13  1  0.662356  0.831178  0.961209  1
  Sn  Sn14  1  0.168822  0.831178  0.538791  1
  Sn  Sn15  1  0.168822  0.337644  0.538791  1
  Sn  Sn16  1  0.168822  0.337644  0.961209  1
  Sn  Sn17  1  0.831178  0.662356  0.038791  1
  Sn  Sn18  1  0.168822  0.831178  0.961209  1
  Sn  Sn19  1  0.337644  0.168822  0.038791  1
  Sn  Sn20  1  0.662356  0.831178  0.538791  1
  Sn  Sn21  1  0.337644  0.168822  0.461209  1
