# generated using pymatgen
data_NdH12(NO5)3
_symmetry_space_group_name_H-M   'P 1'
_cell_length_a   6.87294497
_cell_length_b   9.28581659
_cell_length_c   11.86150063
_cell_angle_alpha   109.75772619
_cell_angle_beta   91.14635913
_cell_angle_gamma   111.45685215
_symmetry_Int_Tables_number   1
_chemical_formula_structural   NdH12(NO5)3
_chemical_formula_sum   'Nd2 H24 N6 O30'
_cell_volume   654.08985832
_cell_formula_units_Z   2
loop_
 _symmetry_equiv_pos_site_id
 _symmetry_equiv_pos_as_xyz
  1  'x, y, z'
loop_
 _atom_site_type_symbol
 _atom_site_label
 _atom_site_symmetry_multiplicity
 _atom_site_fract_x
 _atom_site_fract_y
 _atom_site_fract_z
 _atom_site_occupancy
  Nd  Nd0  1  0.875175  0.178657  0.224958  1
  Nd  Nd1  1  0.124825  0.821343  0.775042  1
  H  H2  1  0.284930  0.383813  0.973656  1
  H  H3  1  0.715070  0.616187  0.026344  1
  H  H4  1  0.215521  0.516904  0.009341  1
  H  H5  1  0.784479  0.483096  0.990659  1
  H  H6  1  0.819287  0.899338  0.449372  1
  H  H7  1  0.180713  0.100662  0.550628  1
  H  H8  1  0.730938  0.011545  0.507540  1
  H  H9  1  0.269062  0.988455  0.492460  1
  H  H10  1  0.141391  0.989861  0.121896  1
  H  H11  1  0.858609  0.010139  0.878104  1
  H  H12  1  0.251201  0.066329  0.206950  1
  H  H13  1  0.748799  0.933671  0.793050  1
  H  H14  1  0.313840  0.433438  0.225491  1
  H  H15  1  0.686160  0.566562  0.774509  1
  H  H16  1  0.175423  0.307686  0.364137  1
  H  H17  1  0.824577  0.692314  0.635863  1
  H  H18  1  0.602783  0.668480  0.197322  1
  H  H19  1  0.397217  0.331519  0.802678  1
  H  H20  1  0.468835  0.702942  0.117215  1
  H  H21  1  0.531165  0.297058  0.882785  1
  H  H22  1  0.011968  0.274977  0.559267  1
  H  H23  1  0.988032  0.725023  0.440733  1
  H  H24  1  0.275874  0.371178  0.517905  1
  H  H25  1  0.724126  0.628822  0.482095  1
  N  N26  1  0.424266  0.854940  0.323133  1
  N  N27  1  0.575735  0.145060  0.676867  1
  N  N28  1  0.742222  0.174773  0.997803  1
  N  N29  1  0.257778  0.825227  0.002197  1
  N  N30  1  0.734198  0.414096  0.315719  1
  N  N31  1  0.265802  0.585904  0.684281  1
  O  O32  1  0.186378  0.400995  0.040901  1
  O  O33  1  0.813622  0.599005  0.959099  1
  O  O34  1  0.808450  0.005925  0.430022  1
  O  O35  1  0.191550  0.994075  0.569978  1
  O  O36  1  0.130129  0.052032  0.176492  1
  O  O37  1  0.869871  0.947968  0.823508  1
  O  O38  1  0.188893  0.320981  0.278919  1
  O  O39  1  0.811107  0.679019  0.721081  1
  O  O40  1  0.536769  0.629676  0.141294  1
  O  O41  1  0.463231  0.370324  0.858706  1
  O  O42  1  0.156855  0.280165  0.510682  1
  O  O43  1  0.843145  0.719835  0.489318  1
  O  O44  1  0.421834  0.991954  0.328772  1
  O  O45  1  0.578166  0.008046  0.671228  1
  O  O46  1  0.616214  0.863405  0.269839  1
  O  O47  1  0.383786  0.136595  0.730161  1
  O  O48  1  0.247547  0.722207  0.367209  1
  O  O49  1  0.752453  0.277793  0.632791  1
  O  O50  1  0.689709  0.247488  0.070261  1
  O  O51  1  0.310291  0.752512  0.929739  1
  O  O52  1  0.854685  0.097457  0.019051  1
  O  O53  1  0.145315  0.902543  0.980949  1
  O  O54  1  0.682936  0.179338  0.909317  1
  O  O55  1  0.317064  0.820662  0.090683  1
  O  O56  1  0.849077  0.452170  0.203275  1
  O  O57  1  0.150923  0.547830  0.796725  1
  O  O58  1  0.686033  0.271540  0.388077  1
  O  O59  1  0.313967  0.728460  0.611923  1
  O  O60  1  0.670981  0.510505  0.351930  1
  O  O61  1  0.329019  0.489495  0.648070  1
