# generated using pymatgen
data_MnPO4
_symmetry_space_group_name_H-M   'P 1'
_cell_length_a   5.08249179
_cell_length_b   5.19726131
_cell_length_c   6.20491654
_cell_angle_alpha   101.19094251
_cell_angle_beta   88.32564597
_cell_angle_gamma   107.06471820
_symmetry_Int_Tables_number   1
_chemical_formula_structural   MnPO4
_chemical_formula_sum   'Mn2 P2 O8'
_cell_volume   153.64058800
_cell_formula_units_Z   2
loop_
 _symmetry_equiv_pos_site_id
 _symmetry_equiv_pos_as_xyz
  1  'x, y, z'
loop_
 _atom_site_type_symbol
 _atom_site_label
 _atom_site_symmetry_multiplicity
 _atom_site_fract_x
 _atom_site_fract_y
 _atom_site_fract_z
 _atom_site_occupancy
  Mn  Mn0  1  0.121132  0.740158  0.708819  1
  Mn  Mn1  1  0.878868  0.259842  0.291181  1
  P  P2  1  0.701714  0.153245  0.785626  1
  P  P3  1  0.298286  0.846755  0.214374  1
  O  O4  1  0.392586  0.081206  0.714497  1
  O  O5  1  0.800858  0.899444  0.749064  1
  O  O6  1  0.862336  0.359911  0.633376  1
  O  O7  1  0.741483  0.316445  0.024742  1
  O  O8  1  0.199142  0.100556  0.250936  1
  O  O9  1  0.258517  0.683555  0.975258  1
  O  O10  1  0.137664  0.640089  0.366624  1
  O  O11  1  0.607414  0.918794  0.285503  1
