# generated using pymatgen
data_CaHf4O9
_symmetry_space_group_name_H-M   'P 1'
_cell_length_a   11.48200200
_cell_length_b   11.48200200
_cell_length_c   12.03851759
_cell_angle_alpha   67.88418386
_cell_angle_beta   112.11581614
_cell_angle_gamma   100.81768311
_symmetry_Int_Tables_number   1
_chemical_formula_structural   CaHf4O9
_chemical_formula_sum   'Ca8 Hf32 O72'
_cell_volume   1360.20791110
_cell_formula_units_Z   8
loop_
 _symmetry_equiv_pos_site_id
 _symmetry_equiv_pos_as_xyz
  1  'x, y, z'
loop_
 _atom_site_type_symbol
 _atom_site_label
 _atom_site_symmetry_multiplicity
 _atom_site_fract_x
 _atom_site_fract_y
 _atom_site_fract_z
 _atom_site_occupancy
  Ca  Ca0  1  0.488548  0.886549  0.149742  1
  Ca  Ca1  1  0.886549  0.488548  0.350258  1
  Ca  Ca2  1  0.113451  0.511452  0.649742  1
  Ca  Ca3  1  0.063061  0.063061  0.250000  1
  Ca  Ca4  1  0.936939  0.936939  0.750000  1
  Ca  Ca5  1  0.563873  0.563873  0.250000  1
  Ca  Ca6  1  0.436127  0.436127  0.750000  1
  Ca  Ca7  1  0.511452  0.113451  0.850258  1
  Hf  Hf8  1  0.006509  0.374750  0.177551  1
  Hf  Hf9  1  0.848597  0.064090  0.935763  1
  Hf  Hf10  1  0.064090  0.848597  0.564237  1
  Hf  Hf11  1  0.185251  0.185251  0.750000  1
  Hf  Hf12  1  0.934972  0.695878  0.050828  1
  Hf  Hf13  1  0.151403  0.935910  0.064237  1
  Hf  Hf14  1  0.210968  0.416663  0.448829  1
  Hf  Hf15  1  0.334795  0.515689  0.950401  1
  Hf  Hf16  1  0.687590  0.687590  0.750000  1
  Hf  Hf17  1  0.256538  0.882752  0.848881  1
  Hf  Hf18  1  0.065028  0.304122  0.949172  1
  Hf  Hf19  1  0.374750  0.006509  0.322449  1
  Hf  Hf20  1  0.358670  0.749208  0.620248  1
  Hf  Hf21  1  0.484311  0.665205  0.450401  1
  Hf  Hf22  1  0.665205  0.484311  0.049599  1
  Hf  Hf23  1  0.117248  0.743462  0.348881  1
  Hf  Hf24  1  0.625250  0.993491  0.677551  1
  Hf  Hf25  1  0.993491  0.625250  0.822449  1
  Hf  Hf26  1  0.250792  0.641330  0.120248  1
  Hf  Hf27  1  0.814749  0.814749  0.250000  1
  Hf  Hf28  1  0.304122  0.065028  0.550828  1
  Hf  Hf29  1  0.515689  0.334795  0.549599  1
  Hf  Hf30  1  0.882752  0.256538  0.651119  1
  Hf  Hf31  1  0.743462  0.117248  0.151119  1
  Hf  Hf32  1  0.749208  0.358670  0.879752  1
  Hf  Hf33  1  0.789032  0.583337  0.551171  1
  Hf  Hf34  1  0.935910  0.151403  0.435763  1
  Hf  Hf35  1  0.416663  0.210968  0.051171  1
  Hf  Hf36  1  0.641330  0.250792  0.379752  1
  Hf  Hf37  1  0.312410  0.312410  0.250000  1
  Hf  Hf38  1  0.583337  0.789032  0.948829  1
  Hf  Hf39  1  0.695878  0.934972  0.449172  1
  O  O40  1  0.317664  0.267816  0.477674  1
  O  O41  1  0.447264  0.900535  0.920219  1
  O  O42  1  0.062707  0.606672  0.020123  1
  O  O43  1  0.099465  0.552736  0.420219  1
  O  O44  1  0.045307  0.105587  0.021407  1
  O  O45  1  0.508105  0.650290  0.637033  1
  O  O46  1  0.900535  0.447264  0.579781  1
  O  O47  1  0.650290  0.508105  0.862967  1
  O  O48  1  0.606307  0.515584  0.492196  1
  O  O49  1  0.579460  0.327332  0.737091  1
  O  O50  1  0.779620  0.640623  0.368675  1
  O  O51  1  0.515584  0.606307  0.007804  1
  O  O52  1  0.725896  0.317644  0.058661  1
  O  O53  1  0.672668  0.420540  0.237091  1
  O  O54  1  0.959935  0.678119  0.621965  1
  O  O55  1  0.040065  0.321881  0.378035  1
  O  O56  1  0.606672  0.062707  0.479877  1
  O  O57  1  0.349710  0.491895  0.137033  1
  O  O58  1  0.148305  0.006588  0.871921  1
  O  O59  1  0.264933  0.868764  0.672105  1
  O  O60  1  0.317644  0.725896  0.441339  1
  O  O61  1  0.327332  0.579460  0.762909  1
  O  O62  1  0.123203  0.278995  0.150883  1
  O  O63  1  0.883948  0.504735  0.143044  1
  O  O64  1  0.640623  0.779620  0.131325  1
  O  O65  1  0.678119  0.959935  0.878035  1
  O  O66  1  0.926360  0.720456  0.213939  1
  O  O67  1  0.682356  0.274104  0.558661  1
  O  O68  1  0.552736  0.099465  0.079781  1
  O  O69  1  0.806407  0.543409  0.745792  1
  O  O70  1  0.721005  0.876797  0.650883  1
  O  O71  1  0.278995  0.123203  0.349117  1
  O  O72  1  0.220380  0.359377  0.631325  1
  O  O73  1  0.543409  0.806407  0.754209  1
  O  O74  1  0.924245  0.189260  0.240811  1
  O  O75  1  0.359377  0.220380  0.868675  1
  O  O76  1  0.725831  0.163817  0.956434  1
  O  O77  1  0.131236  0.735067  0.172105  1
  O  O78  1  0.810740  0.075755  0.740811  1
  O  O79  1  0.937293  0.393328  0.979877  1
  O  O80  1  0.321881  0.040065  0.121965  1
  O  O81  1  0.105587  0.045307  0.478593  1
  O  O82  1  0.993412  0.851695  0.371921  1
  O  O83  1  0.735067  0.131236  0.327895  1
  O  O84  1  0.393693  0.484416  0.507804  1
  O  O85  1  0.504735  0.883948  0.356956  1
  O  O86  1  0.456591  0.193593  0.245792  1
  O  O87  1  0.393328  0.937293  0.520123  1
  O  O88  1  0.894413  0.954693  0.521407  1
  O  O89  1  0.274104  0.682356  0.941339  1
  O  O90  1  0.006588  0.148305  0.628079  1
  O  O91  1  0.073640  0.279544  0.786061  1
  O  O92  1  0.279544  0.073640  0.713939  1
  O  O93  1  0.682336  0.732184  0.522326  1
  O  O94  1  0.495265  0.116052  0.643044  1
  O  O95  1  0.732184  0.682336  0.977674  1
  O  O96  1  0.720456  0.926360  0.286061  1
  O  O97  1  0.116052  0.495265  0.856956  1
  O  O98  1  0.836183  0.274169  0.456434  1
  O  O99  1  0.491895  0.349710  0.362967  1
  O  O100  1  0.868764  0.264933  0.827895  1
  O  O101  1  0.075755  0.810740  0.759189  1
  O  O102  1  0.851695  0.993412  0.128079  1
  O  O103  1  0.274169  0.836183  0.043566  1
  O  O104  1  0.954693  0.894413  0.978593  1
  O  O105  1  0.193593  0.456591  0.254208  1
  O  O106  1  0.876797  0.721005  0.849117  1
  O  O107  1  0.484416  0.393693  0.992196  1
  O  O108  1  0.163817  0.725831  0.543566  1
  O  O109  1  0.267816  0.317664  0.022326  1
  O  O110  1  0.189260  0.924245  0.259189  1
  O  O111  1  0.420540  0.672668  0.262909  1
