# generated using pymatgen
data_SrTlVO4
_symmetry_space_group_name_H-M   'P 1'
_cell_length_a   5.95518349
_cell_length_b   7.66787014
_cell_length_c   10.18935266
_cell_angle_alpha   90.00000000
_cell_angle_beta   90.00000000
_cell_angle_gamma   90.00000000
_symmetry_Int_Tables_number   1
_chemical_formula_structural   SrTlVO4
_chemical_formula_sum   'Sr4 Tl4 V4 O16'
_cell_volume   465.28225575
_cell_formula_units_Z   4
loop_
 _symmetry_equiv_pos_site_id
 _symmetry_equiv_pos_as_xyz
  1  'x, y, z'
loop_
 _atom_site_type_symbol
 _atom_site_label
 _atom_site_symmetry_multiplicity
 _atom_site_fract_x
 _atom_site_fract_y
 _atom_site_fract_z
 _atom_site_occupancy
  Sr  Sr0  1  0.978064  0.250777  0.705004  1
  Sr  Sr1  1  0.021936  0.750777  0.794996  1
  Sr  Sr2  1  0.521936  0.749223  0.205004  1
  Sr  Sr3  1  0.478064  0.249223  0.294996  1
  Tl  Tl4  1  0.480386  0.414528  0.922676  1
  Tl  Tl5  1  0.980386  0.085472  0.077324  1
  Tl  Tl6  1  0.519614  0.914528  0.577324  1
  Tl  Tl7  1  0.019614  0.585472  0.422676  1
  V  V8  1  0.514923  0.468237  0.581845  1
  V  V9  1  0.485077  0.968237  0.918155  1
  V  V10  1  0.014923  0.031763  0.418155  1
  V  V11  1  0.985077  0.531763  0.081845  1
  O  O12  1  0.239968  0.491015  0.163549  1
  O  O13  1  0.498572  0.050210  0.078796  1
  O  O14  1  0.746886  0.549628  0.667194  1
  O  O15  1  0.998572  0.449790  0.921204  1
  O  O16  1  0.253114  0.049628  0.832806  1
  O  O17  1  0.739968  0.008985  0.836451  1
  O  O18  1  0.260032  0.508985  0.663549  1
  O  O19  1  0.246886  0.950372  0.332806  1
  O  O20  1  0.432819  0.746836  0.934608  1
  O  O21  1  0.932819  0.753164  0.065392  1
  O  O22  1  0.760032  0.991015  0.336451  1
  O  O23  1  0.501428  0.550210  0.421204  1
  O  O24  1  0.753114  0.450372  0.167194  1
  O  O25  1  0.001428  0.949790  0.578796  1
  O  O26  1  0.067181  0.253164  0.434608  1
  O  O27  1  0.567181  0.246836  0.565392  1
