# generated using pymatgen
data_KNaCu3S3O13
_symmetry_space_group_name_H-M   'P 1'
_cell_length_a   10.50598914
_cell_length_b   10.50598914
_cell_length_c   14.61258414
_cell_angle_alpha   68.51773851
_cell_angle_beta   111.48226149
_cell_angle_gamma   126.01343410
_symmetry_Int_Tables_number   1
_chemical_formula_structural   KNaCu3S3O13
_chemical_formula_sum   'K4 Na4 Cu12 S12 O52'
_cell_volume   1189.34734064
_cell_formula_units_Z   4
loop_
 _symmetry_equiv_pos_site_id
 _symmetry_equiv_pos_as_xyz
  1  'x, y, z'
loop_
 _atom_site_type_symbol
 _atom_site_label
 _atom_site_symmetry_multiplicity
 _atom_site_fract_x
 _atom_site_fract_y
 _atom_site_fract_z
 _atom_site_occupancy
  K  K0  1  0.934469  0.549680  0.128479  1
  K  K1  1  0.549680  0.934469  0.371521  1
  K  K2  1  0.065531  0.450320  0.871521  1
  K  K3  1  0.450320  0.065531  0.628479  1
  Na  Na4  1  0.091942  0.441599  0.453711  1
  Na  Na5  1  0.558401  0.908058  0.953711  1
  Na  Na6  1  0.908058  0.558401  0.546289  1
  Na  Na7  1  0.441599  0.091942  0.046289  1
  Cu  Cu8  1  0.672808  0.837807  0.705538  1
  Cu  Cu9  1  0.986968  0.954781  0.359570  1
  Cu  Cu10  1  0.954781  0.986968  0.140430  1
  Cu  Cu11  1  0.162193  0.327192  0.205538  1
  Cu  Cu12  1  0.045219  0.013032  0.859570  1
  Cu  Cu13  1  0.536877  0.504248  0.157490  1
  Cu  Cu14  1  0.495752  0.463123  0.657490  1
  Cu  Cu15  1  0.327192  0.162193  0.294462  1
  Cu  Cu16  1  0.837807  0.672808  0.794462  1
  Cu  Cu17  1  0.463123  0.495752  0.842510  1
  Cu  Cu18  1  0.504248  0.536877  0.342510  1
  Cu  Cu19  1  0.013032  0.045219  0.640430  1
  S  S20  1  0.745878  0.750716  0.985085  1
  S  S21  1  0.888117  0.196571  0.706258  1
  S  S22  1  0.626111  0.315005  0.868214  1
  S  S23  1  0.111883  0.803429  0.293742  1
  S  S24  1  0.373889  0.684995  0.131786  1
  S  S25  1  0.803429  0.111883  0.206258  1
  S  S26  1  0.196571  0.888117  0.793742  1
  S  S27  1  0.684995  0.373889  0.368214  1
  S  S28  1  0.249284  0.254122  0.485085  1
  S  S29  1  0.315005  0.626111  0.631786  1
  S  S30  1  0.254122  0.249284  0.014915  1
  S  S31  1  0.750716  0.745878  0.514915  1
  O  O32  1  0.281384  0.944715  0.312301  1
  O  O33  1  0.782665  0.020852  0.138351  1
  O  O34  1  0.310990  0.396286  0.933080  1
  O  O35  1  0.459204  0.655722  0.085038  1
  O  O36  1  0.766456  0.878534  0.541419  1
  O  O37  1  0.170686  0.628329  0.570887  1
  O  O38  1  0.197239  0.102609  0.979666  1
  O  O39  1  0.233544  0.121466  0.458581  1
  O  O40  1  0.655722  0.459204  0.414962  1
  O  O41  1  0.702366  0.456402  0.261867  1
  O  O42  1  0.344278  0.540796  0.585038  1
  O  O43  1  0.737373  0.611857  0.601983  1
  O  O44  1  0.203567  0.543560  0.129529  1
  O  O45  1  0.297634  0.543598  0.738133  1
  O  O46  1  0.102316  0.102316  0.250000  1
  O  O47  1  0.339643  0.881740  0.812627  1
  O  O48  1  0.660357  0.118260  0.187373  1
  O  O49  1  0.543560  0.203567  0.370471  1
  O  O50  1  0.217335  0.979148  0.861649  1
  O  O51  1  0.897684  0.897684  0.750000  1
  O  O52  1  0.034456  0.836627  0.185511  1
  O  O53  1  0.979148  0.217335  0.638351  1
  O  O54  1  0.796433  0.456440  0.870471  1
  O  O55  1  0.836627  0.034456  0.314489  1
  O  O56  1  0.878534  0.766456  0.958581  1
  O  O57  1  0.262627  0.388143  0.398017  1
  O  O58  1  0.020852  0.782665  0.361649  1
  O  O59  1  0.543598  0.297634  0.761867  1
  O  O60  1  0.163373  0.965544  0.685511  1
  O  O61  1  0.540796  0.344278  0.914962  1
  O  O62  1  0.456402  0.702366  0.238133  1
  O  O63  1  0.102609  0.197239  0.520334  1
  O  O64  1  0.718616  0.055285  0.687699  1
  O  O65  1  0.829314  0.371671  0.429113  1
  O  O66  1  0.611857  0.737373  0.898017  1
  O  O67  1  0.396286  0.310990  0.566920  1
  O  O68  1  0.802761  0.897391  0.020334  1
  O  O69  1  0.603714  0.689010  0.433080  1
  O  O70  1  0.388143  0.262627  0.101983  1
  O  O71  1  0.689010  0.603714  0.066920  1
  O  O72  1  0.118260  0.660357  0.312627  1
  O  O73  1  0.881740  0.339643  0.687373  1
  O  O74  1  0.371671  0.829315  0.070887  1
  O  O75  1  0.897391  0.802761  0.479666  1
  O  O76  1  0.628329  0.170685  0.929113  1
  O  O77  1  0.944715  0.281384  0.187699  1
  O  O78  1  0.612172  0.612172  0.750000  1
  O  O79  1  0.121466  0.233544  0.041419  1
  O  O80  1  0.387828  0.387828  0.250000  1
  O  O81  1  0.456440  0.796433  0.629529  1
  O  O82  1  0.055285  0.718616  0.812301  1
  O  O83  1  0.965544  0.163373  0.814489  1
