# generated using pymatgen
data_Ba21Si2O5
_symmetry_space_group_name_H-M   'P 1'
_cell_length_a   15.06270553
_cell_length_b   15.06270553
_cell_length_c   15.06270553
_cell_angle_alpha   60.00000000
_cell_angle_beta   60.00000000
_cell_angle_gamma   60.00000000
_symmetry_Int_Tables_number   1
_chemical_formula_structural   Ba21Si2O5
_chemical_formula_sum   'Ba42 Si4 O10'
_cell_volume   2416.53984049
_cell_formula_units_Z   2
loop_
 _symmetry_equiv_pos_site_id
 _symmetry_equiv_pos_as_xyz
  1  'x, y, z'
loop_
 _atom_site_type_symbol
 _atom_site_label
 _atom_site_symmetry_multiplicity
 _atom_site_fract_x
 _atom_site_fract_y
 _atom_site_fract_z
 _atom_site_occupancy
  Ba  Ba0  1  0.250000  0.250000  0.250000  1
  Ba  Ba1  1  0.193025  0.895288  0.455844  1
  Ba  Ba2  1  0.895288  0.193025  0.455844  1
  Ba  Ba3  1  0.354712  0.794156  0.794156  1
  Ba  Ba4  1  0.625000  0.125000  0.125000  1
  Ba  Ba5  1  0.875867  0.875867  0.624133  1
  Ba  Ba6  1  0.875867  0.624133  0.875867  1
  Ba  Ba7  1  0.374133  0.625867  0.625867  1
  Ba  Ba8  1  0.455844  0.193025  0.895288  1
  Ba  Ba9  1  0.794156  0.354712  0.056975  1
  Ba  Ba10  1  0.794156  0.794156  0.354712  1
  Ba  Ba11  1  0.374133  0.374133  0.625867  1
  Ba  Ba12  1  0.625867  0.374133  0.374133  1
  Ba  Ba13  1  0.000000  0.000000  1.000000  1
  Ba  Ba14  1  0.625867  0.374133  0.625867  1
  Ba  Ba15  1  0.455844  0.895288  0.455844  1
  Ba  Ba16  1  0.193025  0.455844  0.895288  1
  Ba  Ba17  1  0.056975  0.794156  0.794156  1
  Ba  Ba18  1  0.056975  0.354712  0.794156  1
  Ba  Ba19  1  0.794156  0.056975  0.354712  1
  Ba  Ba20  1  0.624133  0.875867  0.624133  1
  Ba  Ba21  1  0.794156  0.794156  0.056975  1
  Ba  Ba22  1  0.624133  0.624133  0.875867  1
  Ba  Ba23  1  0.354712  0.794156  0.056975  1
  Ba  Ba24  1  0.794156  0.354712  0.794156  1
  Ba  Ba25  1  0.895288  0.455844  0.193025  1
  Ba  Ba26  1  0.895288  0.455844  0.455844  1
  Ba  Ba27  1  0.125000  0.625000  0.125000  1
  Ba  Ba28  1  0.374133  0.625867  0.374133  1
  Ba  Ba29  1  0.624133  0.875867  0.875867  1
  Ba  Ba30  1  0.455844  0.193025  0.455844  1
  Ba  Ba31  1  0.056975  0.794156  0.354712  1
  Ba  Ba32  1  0.794156  0.056975  0.794156  1
  Ba  Ba33  1  0.455844  0.455844  0.895288  1
  Ba  Ba34  1  0.125000  0.125000  0.125000  1
  Ba  Ba35  1  0.354712  0.056975  0.794156  1
  Ba  Ba36  1  0.875867  0.624133  0.624133  1
  Ba  Ba37  1  0.193025  0.455844  0.455844  1
  Ba  Ba38  1  0.455844  0.895288  0.193025  1
  Ba  Ba39  1  0.455844  0.455844  0.193025  1
  Ba  Ba40  1  0.125000  0.125000  0.625000  1
  Ba  Ba41  1  0.625867  0.625867  0.374133  1
  Si  Si42  1  0.625000  0.625000  0.125000  1
  Si  Si43  1  0.125000  0.625000  0.625000  1
  Si  Si44  1  0.625000  0.625000  0.625000  1
  Si  Si45  1  0.625000  0.125000  0.625000  1
  O  O46  1  0.408239  0.775284  0.408239  1
  O  O47  1  0.750000  0.750000  0.750000  1
  O  O48  1  0.474716  0.841761  0.841761  1
  O  O49  1  0.841761  0.841761  0.474716  1
  O  O50  1  0.408239  0.408239  0.408239  1
  O  O51  1  0.500000  0.500000  0.500000  1
  O  O52  1  0.408239  0.408239  0.775284  1
  O  O53  1  0.841761  0.841761  0.841761  1
  O  O54  1  0.775284  0.408239  0.408239  1
  O  O55  1  0.841761  0.474716  0.841761  1
