# generated using pymatgen
data_Ca5P3ClO12
_symmetry_space_group_name_H-M   'P 1'
_cell_length_a   9.83135959
_cell_length_b   9.83135959
_cell_length_c   6.73251427
_cell_angle_alpha   90.00000000
_cell_angle_beta   90.00000000
_cell_angle_gamma   120.00000000
_symmetry_Int_Tables_number   1
_chemical_formula_structural   Ca5P3ClO12
_chemical_formula_sum   'Ca10 P6 Cl2 O24'
_cell_volume   563.55340230
_cell_formula_units_Z   2
loop_
 _symmetry_equiv_pos_site_id
 _symmetry_equiv_pos_as_xyz
  1  'x, y, z'
loop_
 _atom_site_type_symbol
 _atom_site_label
 _atom_site_symmetry_multiplicity
 _atom_site_fract_x
 _atom_site_fract_y
 _atom_site_fract_z
 _atom_site_occupancy
  Ca  Ca0  1  0.018621  0.754392  0.750000  1
  Ca  Ca1  1  0.264229  0.018621  0.250000  1
  Ca  Ca2  1  0.666667  0.333333  0.504352  1
  Ca  Ca3  1  0.245608  0.264229  0.750000  1
  Ca  Ca4  1  0.754392  0.735771  0.250000  1
  Ca  Ca5  1  0.333333  0.666667  0.495648  1
  Ca  Ca6  1  0.981379  0.245608  0.250000  1
  Ca  Ca7  1  0.666667  0.333333  0.995648  1
  Ca  Ca8  1  0.333333  0.666667  0.004352  1
  Ca  Ca9  1  0.735771  0.981379  0.750000  1
  P  P10  1  0.589412  0.621302  0.750000  1
  P  P11  1  0.031891  0.410588  0.750000  1
  P  P12  1  0.378698  0.968109  0.750000  1
  P  P13  1  0.410588  0.378698  0.250000  1
  P  P14  1  0.621302  0.031891  0.250000  1
  P  P15  1  0.968109  0.589412  0.250000  1
  Cl  Cl16  1  0.000000  0.000000  0.500000  1
  Cl  Cl17  1  0.000000  0.000000  0.000000  1
  O  O18  1  0.497791  0.146113  0.750000  1
  O  O19  1  0.645876  0.730343  0.564621  1
  O  O20  1  0.535342  0.130078  0.250000  1
  O  O21  1  0.502209  0.853887  0.250000  1
  O  O22  1  0.354124  0.269657  0.064621  1
  O  O23  1  0.853887  0.351678  0.750000  1
  O  O24  1  0.915533  0.645876  0.064621  1
  O  O25  1  0.269657  0.915533  0.564621  1
  O  O26  1  0.915533  0.645876  0.435379  1
  O  O27  1  0.130078  0.594735  0.750000  1
  O  O28  1  0.269657  0.915533  0.935379  1
  O  O29  1  0.594735  0.464658  0.250000  1
  O  O30  1  0.405265  0.535342  0.750000  1
  O  O31  1  0.084467  0.354124  0.935379  1
  O  O32  1  0.869922  0.405265  0.250000  1
  O  O33  1  0.354124  0.269657  0.435379  1
  O  O34  1  0.730343  0.084467  0.064621  1
  O  O35  1  0.146113  0.648322  0.250000  1
  O  O36  1  0.645876  0.730343  0.935379  1
  O  O37  1  0.084467  0.354124  0.564621  1
  O  O38  1  0.730343  0.084467  0.435379  1
  O  O39  1  0.464658  0.869922  0.750000  1
  O  O40  1  0.351678  0.497791  0.250000  1
  O  O41  1  0.648322  0.502209  0.750000  1
