# generated using pymatgen
data_LiBi2(PO4)3
_symmetry_space_group_name_H-M   'P 1'
_cell_length_a   8.98111858
_cell_length_b   9.31979303
_cell_length_c   15.46029492
_cell_angle_alpha   90.00000000
_cell_angle_beta   124.31465483
_cell_angle_gamma   90.00000000
_symmetry_Int_Tables_number   1
_chemical_formula_structural   LiBi2(PO4)3
_chemical_formula_sum   'Li4 Bi8 P12 O48'
_cell_volume   1068.83434945
_cell_formula_units_Z   4
loop_
 _symmetry_equiv_pos_site_id
 _symmetry_equiv_pos_as_xyz
  1  'x, y, z'
loop_
 _atom_site_type_symbol
 _atom_site_label
 _atom_site_symmetry_multiplicity
 _atom_site_fract_x
 _atom_site_fract_y
 _atom_site_fract_z
 _atom_site_occupancy
  Li  Li0  1  0.530139  0.277619  0.317658  1
  Li  Li1  1  0.469861  0.777619  0.182342  1
  Li  Li2  1  0.530139  0.222381  0.817658  1
  Li  Li3  1  0.469861  0.722381  0.682342  1
  Bi  Bi4  1  0.353729  0.457474  0.105803  1
  Bi  Bi5  1  0.646271  0.542526  0.894197  1
  Bi  Bi6  1  0.646271  0.957474  0.394197  1
  Bi  Bi7  1  0.873377  0.961616  0.121087  1
  Bi  Bi8  1  0.353729  0.042526  0.605803  1
  Bi  Bi9  1  0.126623  0.461616  0.378913  1
  Bi  Bi10  1  0.126623  0.038384  0.878913  1
  Bi  Bi11  1  0.873377  0.538384  0.621087  1
  P  P12  1  0.047341  0.755895  0.005169  1
  P  P13  1  0.242940  0.129776  0.339008  1
  P  P14  1  0.459871  0.597190  0.355292  1
  P  P15  1  0.047341  0.744105  0.505169  1
  P  P16  1  0.540129  0.402810  0.644708  1
  P  P17  1  0.459871  0.902810  0.855292  1
  P  P18  1  0.757060  0.870224  0.660992  1
  P  P19  1  0.952659  0.255895  0.494831  1
  P  P20  1  0.757060  0.629776  0.160992  1
  P  P21  1  0.952659  0.244105  0.994831  1
  P  P22  1  0.242940  0.370224  0.839008  1
  P  P23  1  0.540129  0.097190  0.144708  1
  O  O24  1  0.719542  0.384301  0.649168  1
  O  O25  1  0.557649  0.972507  0.215506  1
  O  O26  1  0.516604  0.242109  0.184646  1
  O  O27  1  0.989860  0.117195  0.070314  1
  O  O28  1  0.280458  0.615699  0.350832  1
  O  O29  1  0.280458  0.884301  0.850832  1
  O  O30  1  0.907174  0.512230  0.218821  1
  O  O31  1  0.912049  0.637961  0.937439  1
  O  O32  1  0.384104  0.434375  0.530301  1
  O  O33  1  0.835215  0.785304  0.199019  1
  O  O34  1  0.387488  0.385923  0.815645  1
  O  O35  1  0.092826  0.487770  0.781179  1
  O  O36  1  0.912049  0.862039  0.437439  1
  O  O37  1  0.483396  0.742109  0.315354  1
  O  O38  1  0.676206  0.609080  0.044489  1
  O  O39  1  0.164785  0.214696  0.800981  1
  O  O40  1  0.384104  0.065625  0.030301  1
  O  O41  1  0.087951  0.362039  0.062561  1
  O  O42  1  0.615896  0.934375  0.969699  1
  O  O43  1  0.442351  0.472507  0.284494  1
  O  O44  1  0.025439  0.805428  0.094675  1
  O  O45  1  0.676206  0.890920  0.544489  1
  O  O46  1  0.442351  0.027493  0.784494  1
  O  O47  1  0.243050  0.700594  0.062912  1
  O  O48  1  0.989860  0.382805  0.570314  1
  O  O49  1  0.615896  0.565625  0.469699  1
  O  O50  1  0.516604  0.257891  0.684646  1
  O  O51  1  0.323794  0.390920  0.955511  1
  O  O52  1  0.483396  0.757891  0.815354  1
  O  O53  1  0.557649  0.527493  0.715506  1
  O  O54  1  0.025439  0.694572  0.594675  1
  O  O55  1  0.092826  0.012230  0.281179  1
  O  O56  1  0.974561  0.305428  0.405325  1
  O  O57  1  0.974561  0.194572  0.905325  1
  O  O58  1  0.719542  0.115699  0.149168  1
  O  O59  1  0.010140  0.882805  0.929686  1
  O  O60  1  0.243050  0.799406  0.562912  1
  O  O61  1  0.612512  0.614077  0.184355  1
  O  O62  1  0.087951  0.137961  0.562561  1
  O  O63  1  0.387488  0.114077  0.315645  1
  O  O64  1  0.323794  0.109080  0.455511  1
  O  O65  1  0.612512  0.885923  0.684355  1
  O  O66  1  0.164785  0.285304  0.300981  1
  O  O67  1  0.010140  0.617195  0.429686  1
  O  O68  1  0.756950  0.200594  0.437088  1
  O  O69  1  0.835215  0.714696  0.699019  1
  O  O70  1  0.756950  0.299406  0.937088  1
  O  O71  1  0.907174  0.987770  0.718821  1
