# generated using pymatgen
data_RbSnS4
_symmetry_space_group_name_H-M   'P 1'
_cell_length_a   10.12741118
_cell_length_b   14.19249528
_cell_length_c   20.13546760
_cell_angle_alpha   90.00000000
_cell_angle_beta   90.00000000
_cell_angle_gamma   90.00000000
_symmetry_Int_Tables_number   1
_chemical_formula_structural   RbSnS4
_chemical_formula_sum   'Rb16 Sn16 S64'
_cell_volume   2894.13590385
_cell_formula_units_Z   16
loop_
 _symmetry_equiv_pos_site_id
 _symmetry_equiv_pos_as_xyz
  1  'x, y, z'
loop_
 _atom_site_type_symbol
 _atom_site_label
 _atom_site_symmetry_multiplicity
 _atom_site_fract_x
 _atom_site_fract_y
 _atom_site_fract_z
 _atom_site_occupancy
  Rb  Rb0  1  0.860447  0.474158  0.311215  1
  Rb  Rb1  1  0.272808  0.962880  0.570522  1
  Rb  Rb2  1  0.360447  0.525842  0.188785  1
  Rb  Rb3  1  0.272808  0.462880  0.429478  1
  Rb  Rb4  1  0.772808  0.037120  0.929478  1
  Rb  Rb5  1  0.139553  0.525842  0.688785  1
  Rb  Rb6  1  0.360447  0.025842  0.811215  1
  Rb  Rb7  1  0.227192  0.962880  0.070522  1
  Rb  Rb8  1  0.639553  0.474158  0.811215  1
  Rb  Rb9  1  0.727192  0.537120  0.570522  1
  Rb  Rb10  1  0.772808  0.537120  0.070522  1
  Rb  Rb11  1  0.227192  0.462880  0.929478  1
  Rb  Rb12  1  0.639553  0.974158  0.188785  1
  Rb  Rb13  1  0.860447  0.974158  0.688785  1
  Rb  Rb14  1  0.139553  0.025842  0.311215  1
  Rb  Rb15  1  0.727192  0.037120  0.429478  1
  Sn  Sn16  1  0.825052  0.731063  0.826118  1
  Sn  Sn17  1  0.325052  0.768937  0.326118  1
  Sn  Sn18  1  0.000000  0.750000  0.416641  1
  Sn  Sn19  1  0.674948  0.231063  0.673882  1
  Sn  Sn20  1  0.500000  0.250000  0.083359  1
  Sn  Sn21  1  0.825052  0.231063  0.173882  1
  Sn  Sn22  1  0.500000  0.250000  0.270280  1
  Sn  Sn23  1  0.174948  0.268937  0.173882  1
  Sn  Sn24  1  0.174948  0.768937  0.826118  1
  Sn  Sn25  1  0.500000  0.750000  0.729720  1
  Sn  Sn26  1  0.000000  0.250000  0.583359  1
  Sn  Sn27  1  0.000000  0.750000  0.229720  1
  Sn  Sn28  1  0.500000  0.750000  0.916641  1
  Sn  Sn29  1  0.325052  0.268937  0.673882  1
  Sn  Sn30  1  0.000000  0.250000  0.770280  1
  Sn  Sn31  1  0.674948  0.731063  0.326118  1
  S  S32  1  0.437525  0.622122  0.639744  1
  S  S33  1  0.564321  0.875578  0.008185  1
  S  S34  1  0.156066  0.705858  0.578298  1
  S  S35  1  0.859617  0.302612  0.937770  1
  S  S36  1  0.722165  0.160986  0.076717  1
  S  S37  1  0.536833  0.371292  0.669507  1
  S  S38  1  0.231832  0.831155  0.223054  1
  S  S39  1  0.768168  0.668845  0.223054  1
  S  S40  1  0.036833  0.128708  0.169507  1
  S  S41  1  0.036833  0.628708  0.830493  1
  S  S42  1  0.935679  0.375578  0.491815  1
  S  S43  1  0.562475  0.377878  0.360256  1
  S  S44  1  0.343934  0.205858  0.921702  1
  S  S45  1  0.398081  0.645813  0.823560  1
  S  S46  1  0.359617  0.697388  0.562230  1
  S  S47  1  0.601919  0.354187  0.176440  1
  S  S48  1  0.898081  0.354187  0.676440  1
  S  S49  1  0.937525  0.377878  0.860256  1
  S  S50  1  0.140383  0.197388  0.937770  1
  S  S51  1  0.359617  0.197388  0.437770  1
  S  S52  1  0.777835  0.160986  0.576717  1
  S  S53  1  0.777835  0.660986  0.423283  1
  S  S54  1  0.768168  0.168845  0.776946  1
  S  S55  1  0.937525  0.877878  0.139744  1
  S  S56  1  0.101919  0.145813  0.676440  1
  S  S57  1  0.277835  0.839014  0.923283  1
  S  S58  1  0.935679  0.875578  0.508185  1
  S  S59  1  0.640383  0.302612  0.437770  1
  S  S60  1  0.437525  0.122122  0.360256  1
  S  S61  1  0.398081  0.145813  0.176440  1
  S  S62  1  0.463167  0.128708  0.669507  1
  S  S63  1  0.640383  0.802612  0.562230  1
  S  S64  1  0.268168  0.331155  0.276946  1
  S  S65  1  0.562475  0.877878  0.639744  1
  S  S66  1  0.963167  0.871292  0.830493  1
  S  S67  1  0.731832  0.168845  0.276946  1
  S  S68  1  0.268168  0.831155  0.723054  1
  S  S69  1  0.463167  0.628708  0.330493  1
  S  S70  1  0.722165  0.660986  0.923283  1
  S  S71  1  0.222165  0.339014  0.576717  1
  S  S72  1  0.156066  0.205858  0.421702  1
  S  S73  1  0.277835  0.339014  0.076717  1
  S  S74  1  0.064321  0.624422  0.508185  1
  S  S75  1  0.101919  0.645813  0.323560  1
  S  S76  1  0.656066  0.794142  0.078298  1
  S  S77  1  0.536833  0.871292  0.330493  1
  S  S78  1  0.231832  0.331155  0.776946  1
  S  S79  1  0.859617  0.802612  0.062230  1
  S  S80  1  0.898081  0.854187  0.323560  1
  S  S81  1  0.564321  0.375578  0.991815  1
  S  S82  1  0.843934  0.794142  0.578298  1
  S  S83  1  0.435679  0.124422  0.991815  1
  S  S84  1  0.601919  0.854187  0.823560  1
  S  S85  1  0.731832  0.668845  0.723054  1
  S  S86  1  0.843934  0.294142  0.421702  1
  S  S87  1  0.062475  0.622122  0.139744  1
  S  S88  1  0.963167  0.371292  0.169507  1
  S  S89  1  0.656066  0.294142  0.921702  1
  S  S90  1  0.140383  0.697388  0.062230  1
  S  S91  1  0.435679  0.624422  0.008185  1
  S  S92  1  0.062475  0.122122  0.860256  1
  S  S93  1  0.222165  0.839014  0.423283  1
  S  S94  1  0.064321  0.124422  0.491815  1
  S  S95  1  0.343934  0.705858  0.078298  1
