# generated using pymatgen
data_CdBiSe2I
_symmetry_space_group_name_H-M   'P 1'
_cell_length_a   7.28324317
_cell_length_b   7.28324317
_cell_length_c   10.37369817
_cell_angle_alpha   88.36623254
_cell_angle_beta   91.63376746
_cell_angle_gamma   146.09539265
_symmetry_Int_Tables_number   1
_chemical_formula_structural   CdBiSe2I
_chemical_formula_sum   'Cd2 Bi2 Se4 I2'
_cell_volume   306.81597486
_cell_formula_units_Z   2
loop_
 _symmetry_equiv_pos_site_id
 _symmetry_equiv_pos_as_xyz
  1  'x, y, z'
loop_
 _atom_site_type_symbol
 _atom_site_label
 _atom_site_symmetry_multiplicity
 _atom_site_fract_x
 _atom_site_fract_y
 _atom_site_fract_z
 _atom_site_occupancy
  Cd  Cd0  1  0.000000  0.000000  0.500000  1
  Cd  Cd1  1  0.000000  0.000000  0.000000  1
  Bi  Bi2  1  0.714396  0.285604  0.315534  1
  Bi  Bi3  1  0.285604  0.714396  0.684466  1
  Se  Se4  1  0.643007  0.356993  0.558375  1
  Se  Se5  1  0.356993  0.643007  0.441625  1
  Se  Se6  1  0.080566  0.919434  0.259764  1
  Se  Se7  1  0.919434  0.080566  0.740236  1
  I  I8  1  0.361598  0.638402  0.075567  1
  I  I9  1  0.638402  0.361598  0.924433  1
