# generated using pymatgen
data_NdB2Rh2C
_symmetry_space_group_name_H-M   'P 1'
_cell_length_a   5.82380676
_cell_length_b   5.82380676
_cell_length_c   5.82380676
_cell_angle_alpha   141.11285041
_cell_angle_beta   141.11285041
_cell_angle_gamma   56.16742741
_symmetry_Int_Tables_number   1
_chemical_formula_structural   NdB2Rh2C
_chemical_formula_sum   'Nd1 B2 Rh2 C1'
_cell_volume   77.24119387
_cell_formula_units_Z   1
loop_
 _symmetry_equiv_pos_site_id
 _symmetry_equiv_pos_as_xyz
  1  'x, y, z'
loop_
 _atom_site_type_symbol
 _atom_site_label
 _atom_site_symmetry_multiplicity
 _atom_site_fract_x
 _atom_site_fract_y
 _atom_site_fract_z
 _atom_site_occupancy
  Nd  Nd0  1  0.000000  0.000000  0.000000  1
  B  B1  1  0.645924  0.645924  0.000000  1
  B  B2  1  0.354076  0.354076  0.000000  1
  Rh  Rh3  1  0.250000  0.750000  0.500000  1
  Rh  Rh4  1  0.750000  0.250000  0.500000  1
  C  C5  1  0.500000  0.500000  0.000000  1
