# generated using pymatgen
data_HfAlPt
_symmetry_space_group_name_H-M   'P 1'
_cell_length_a   7.06816642
_cell_length_b   7.06816642
_cell_length_c   7.33312163
_cell_angle_alpha   90.00000000
_cell_angle_beta   90.00000000
_cell_angle_gamma   120.00000000
_symmetry_Int_Tables_number   1
_chemical_formula_structural   HfAlPt
_chemical_formula_sum   'Hf6 Al6 Pt6'
_cell_volume   317.27295440
_cell_formula_units_Z   6
loop_
 _symmetry_equiv_pos_site_id
 _symmetry_equiv_pos_as_xyz
  1  'x, y, z'
loop_
 _atom_site_type_symbol
 _atom_site_label
 _atom_site_symmetry_multiplicity
 _atom_site_fract_x
 _atom_site_fract_y
 _atom_site_fract_z
 _atom_site_occupancy
  Hf  Hf0  1  0.415447  0.393148  0.250000  1
  Hf  Hf1  1  0.977701  0.584553  0.250000  1
  Hf  Hf2  1  0.606852  0.022299  0.250000  1
  Hf  Hf3  1  0.022299  0.606852  0.750000  1
  Hf  Hf4  1  0.393148  0.415447  0.750000  1
  Hf  Hf5  1  0.584553  0.977701  0.750000  1
  Al  Al6  1  0.257732  0.000000  0.000000  1
  Al  Al7  1  0.742268  0.742268  0.000000  1
  Al  Al8  1  0.000000  0.257732  0.000000  1
  Al  Al9  1  0.257732  0.000000  0.500000  1
  Al  Al10  1  0.742268  0.742268  0.500000  1
  Al  Al11  1  0.000000  0.257732  0.500000  1
  Pt  Pt12  1  0.000000  0.000000  0.250000  1
  Pt  Pt13  1  0.000000  0.000000  0.750000  1
  Pt  Pt14  1  0.333333  0.666667  0.029906  1
  Pt  Pt15  1  0.333333  0.666667  0.470094  1
  Pt  Pt16  1  0.666667  0.333333  0.529906  1
  Pt  Pt17  1  0.666667  0.333333  0.970094  1
