# generated using pymatgen
data_Cs2S
_symmetry_space_group_name_H-M   'P 1'
_cell_length_a   5.43815719
_cell_length_b   8.82753641
_cell_length_c   10.53913417
_cell_angle_alpha   90.00000000
_cell_angle_beta   90.00000000
_cell_angle_gamma   90.00000000
_symmetry_Int_Tables_number   1
_chemical_formula_structural   Cs2S
_chemical_formula_sum   'Cs8 S4'
_cell_volume   505.93672787
_cell_formula_units_Z   4
loop_
 _symmetry_equiv_pos_site_id
 _symmetry_equiv_pos_as_xyz
  1  'x, y, z'
loop_
 _atom_site_type_symbol
 _atom_site_label
 _atom_site_symmetry_multiplicity
 _atom_site_fract_x
 _atom_site_fract_y
 _atom_site_fract_z
 _atom_site_occupancy
  Cs  Cs0  1  0.750000  0.977222  0.169190  1
  Cs  Cs1  1  0.250000  0.022778  0.830810  1
  Cs  Cs2  1  0.750000  0.477222  0.330810  1
  Cs  Cs3  1  0.250000  0.522778  0.669190  1
  Cs  Cs4  1  0.750000  0.854339  0.574497  1
  Cs  Cs5  1  0.250000  0.145661  0.425503  1
  Cs  Cs6  1  0.750000  0.354339  0.925503  1
  Cs  Cs7  1  0.250000  0.645661  0.074497  1
  S  S8  1  0.750000  0.753613  0.890761  1
  S  S9  1  0.250000  0.246387  0.109239  1
  S  S10  1  0.750000  0.253613  0.609239  1
  S  S11  1  0.250000  0.746387  0.390761  1
