# generated using pymatgen
data_Ag2O3
_symmetry_space_group_name_H-M   'P 1'
_cell_length_a   8.47197634
_cell_length_b   6.83784415
_cell_length_c   5.67218341
_cell_angle_alpha   84.70733321
_cell_angle_beta   53.48220761
_cell_angle_gamma   41.81045918
_symmetry_Int_Tables_number   1
_chemical_formula_structural   Ag2O3
_chemical_formula_sum   'Ag4 O6'
_cell_volume   132.92832369
_cell_formula_units_Z   2
loop_
 _symmetry_equiv_pos_site_id
 _symmetry_equiv_pos_as_xyz
  1  'x, y, z'
loop_
 _atom_site_type_symbol
 _atom_site_label
 _atom_site_symmetry_multiplicity
 _atom_site_fract_x
 _atom_site_fract_y
 _atom_site_fract_z
 _atom_site_occupancy
  Ag  Ag0  1  0.586497  0.819842  0.179281  1
  Ag  Ag1  1  0.070719  0.835620  0.663503  1
  Ag  Ag2  1  0.430158  0.663503  0.835620  1
  Ag  Ag3  1  0.414380  0.179281  0.819842  1
  O  O4  1  0.518620  0.317229  0.947675  1
  O  O5  1  0.302325  0.033524  0.731380  1
  O  O6  1  0.932771  0.731380  0.033524  1
  O  O7  1  0.584522  0.415478  0.415478  1
  O  O8  1  0.216476  0.947675  0.317229  1
  O  O9  1  0.834522  0.665478  0.665478  1
