# generated using pymatgen
data_ErCuPbSe3
_symmetry_space_group_name_H-M   'P 1'
_cell_length_a   4.04935411
_cell_length_b   10.56782624
_cell_length_c   13.63375100
_cell_angle_alpha   90.00000000
_cell_angle_beta   90.00000000
_cell_angle_gamma   90.00000000
_symmetry_Int_Tables_number   1
_chemical_formula_structural   ErCuPbSe3
_chemical_formula_sum   'Er4 Cu4 Pb4 Se12'
_cell_volume   583.42734259
_cell_formula_units_Z   4
loop_
 _symmetry_equiv_pos_site_id
 _symmetry_equiv_pos_as_xyz
  1  'x, y, z'
loop_
 _atom_site_type_symbol
 _atom_site_label
 _atom_site_symmetry_multiplicity
 _atom_site_fract_x
 _atom_site_fract_y
 _atom_site_fract_z
 _atom_site_occupancy
  Er  Er0  1  0.250000  0.011128  0.755678  1
  Er  Er1  1  0.250000  0.511128  0.744322  1
  Er  Er2  1  0.750000  0.488872  0.255678  1
  Er  Er3  1  0.750000  0.988872  0.244322  1
  Cu  Cu4  1  0.750000  0.256779  0.781558  1
  Cu  Cu5  1  0.250000  0.243221  0.281558  1
  Cu  Cu6  1  0.750000  0.756779  0.718442  1
  Cu  Cu7  1  0.250000  0.743221  0.218442  1
  Pb  Pb8  1  0.250000  0.769126  0.506173  1
  Pb  Pb9  1  0.250000  0.269126  0.993827  1
  Pb  Pb10  1  0.750000  0.730874  0.006173  1
  Pb  Pb11  1  0.750000  0.230874  0.493827  1
  Se  Se12  1  0.250000  0.758202  0.828494  1
  Se  Se13  1  0.750000  0.948564  0.613875  1
  Se  Se14  1  0.750000  0.576004  0.606684  1
  Se  Se15  1  0.750000  0.241798  0.171506  1
  Se  Se16  1  0.250000  0.423996  0.393316  1
  Se  Se17  1  0.250000  0.923996  0.106684  1
  Se  Se18  1  0.250000  0.051436  0.386125  1
  Se  Se19  1  0.750000  0.448564  0.886125  1
  Se  Se20  1  0.250000  0.551436  0.113875  1
  Se  Se21  1  0.750000  0.741798  0.328494  1
  Se  Se22  1  0.250000  0.258202  0.671506  1
  Se  Se23  1  0.750000  0.076004  0.893316  1
