# generated using pymatgen
data_La2Te3MoO12
_symmetry_space_group_name_H-M   'P 1'
_cell_length_a   7.48331927
_cell_length_b   11.82914638
_cell_length_c   13.71221904
_cell_angle_alpha   90.00000000
_cell_angle_beta   90.00000000
_cell_angle_gamma   90.00000000
_symmetry_Int_Tables_number   1
_chemical_formula_structural   La2Te3MoO12
_chemical_formula_sum   'La8 Te12 Mo4 O48'
_cell_volume   1213.82316808
_cell_formula_units_Z   4
loop_
 _symmetry_equiv_pos_site_id
 _symmetry_equiv_pos_as_xyz
  1  'x, y, z'
loop_
 _atom_site_type_symbol
 _atom_site_label
 _atom_site_symmetry_multiplicity
 _atom_site_fract_x
 _atom_site_fract_y
 _atom_site_fract_z
 _atom_site_occupancy
  La  La0  1  0.407154  0.415634  0.869644  1
  La  La1  1  0.592846  0.915634  0.130356  1
  La  La2  1  0.407154  0.084366  0.869644  1
  La  La3  1  0.907154  0.415634  0.630356  1
  La  La4  1  0.907154  0.084366  0.630356  1
  La  La5  1  0.592846  0.584366  0.130356  1
  La  La6  1  0.092846  0.584366  0.369644  1
  La  La7  1  0.092846  0.915634  0.369644  1
  Te  Te8  1  0.344623  0.955900  0.621774  1
  Te  Te9  1  0.531341  0.750000  0.380325  1
  Te  Te10  1  0.655377  0.455900  0.378226  1
  Te  Te11  1  0.844623  0.955900  0.878226  1
  Te  Te12  1  0.344623  0.544100  0.621774  1
  Te  Te13  1  0.031341  0.750000  0.119675  1
  Te  Te14  1  0.968659  0.250000  0.880325  1
  Te  Te15  1  0.155377  0.455900  0.121774  1
  Te  Te16  1  0.468659  0.250000  0.619675  1
  Te  Te17  1  0.155377  0.044100  0.121774  1
  Te  Te18  1  0.655377  0.044100  0.378226  1
  Te  Te19  1  0.844623  0.544100  0.878226  1
  Mo  Mo20  1  0.352661  0.750000  0.904403  1
  Mo  Mo21  1  0.852661  0.750000  0.595597  1
  Mo  Mo22  1  0.647339  0.250000  0.095597  1
  Mo  Mo23  1  0.147339  0.250000  0.404403  1
  O  O24  1  0.173662  0.500661  0.527796  1
  O  O25  1  0.173662  0.999339  0.527796  1
  O  O26  1  0.053846  0.250000  0.527527  1
  O  O27  1  0.228219  0.458197  0.719339  1
  O  O28  1  0.215464  0.250000  0.911315  1
  O  O29  1  0.923683  0.873505  0.662067  1
  O  O30  1  0.784536  0.750000  0.088685  1
  O  O31  1  0.076317  0.373505  0.337933  1
  O  O32  1  0.616487  0.750000  0.583840  1
  O  O33  1  0.673662  0.999339  0.972204  1
  O  O34  1  0.474692  0.931107  0.401098  1
  O  O35  1  0.728219  0.458197  0.780661  1
  O  O36  1  0.525308  0.068893  0.598902  1
  O  O37  1  0.728219  0.041803  0.780661  1
  O  O38  1  0.673662  0.500661  0.972204  1
  O  O39  1  0.553846  0.250000  0.972473  1
  O  O40  1  0.326338  0.000661  0.027796  1
  O  O41  1  0.771781  0.958197  0.280661  1
  O  O42  1  0.486085  0.250000  0.757775  1
  O  O43  1  0.271781  0.958197  0.219339  1
  O  O44  1  0.228219  0.041803  0.719339  1
  O  O45  1  0.715464  0.250000  0.588685  1
  O  O46  1  0.446154  0.750000  0.027527  1
  O  O47  1  0.525308  0.431107  0.598902  1
  O  O48  1  0.025308  0.068893  0.901098  1
  O  O49  1  0.116487  0.750000  0.916160  1
  O  O50  1  0.576317  0.373505  0.162067  1
  O  O51  1  0.826338  0.000661  0.472204  1
  O  O52  1  0.076317  0.126495  0.337933  1
  O  O53  1  0.923683  0.626495  0.662067  1
  O  O54  1  0.423684  0.873505  0.837933  1
  O  O55  1  0.474692  0.568893  0.401098  1
  O  O56  1  0.513915  0.750000  0.242225  1
  O  O57  1  0.326338  0.499339  0.027796  1
  O  O58  1  0.284536  0.750000  0.411315  1
  O  O59  1  0.271781  0.541803  0.219339  1
  O  O60  1  0.383513  0.250000  0.416160  1
  O  O61  1  0.576317  0.126495  0.162067  1
  O  O62  1  0.883513  0.250000  0.083840  1
  O  O63  1  0.771781  0.541803  0.280661  1
  O  O64  1  0.974692  0.568893  0.098902  1
  O  O65  1  0.974692  0.931107  0.098902  1
  O  O66  1  0.423684  0.626495  0.837933  1
  O  O67  1  0.013915  0.750000  0.257775  1
  O  O68  1  0.946154  0.750000  0.472473  1
  O  O69  1  0.826338  0.499339  0.472204  1
  O  O70  1  0.025308  0.431107  0.901098  1
  O  O71  1  0.986085  0.250000  0.742225  1
