# generated using pymatgen
data_CdBiClO2
_symmetry_space_group_name_H-M   'P 1'
_cell_length_a   6.29125124
_cell_length_b   4.24651315
_cell_length_c   7.66067681
_cell_angle_alpha   90.00000000
_cell_angle_beta   98.16410460
_cell_angle_gamma   90.00000000
_symmetry_Int_Tables_number   1
_chemical_formula_structural   CdBiClO2
_chemical_formula_sum   'Cd2 Bi2 Cl2 O4'
_cell_volume   202.58756446
_cell_formula_units_Z   2
loop_
 _symmetry_equiv_pos_site_id
 _symmetry_equiv_pos_as_xyz
  1  'x, y, z'
loop_
 _atom_site_type_symbol
 _atom_site_label
 _atom_site_symmetry_multiplicity
 _atom_site_fract_x
 _atom_site_fract_y
 _atom_site_fract_z
 _atom_site_occupancy
  Cd  Cd0  1  0.846888  0.750000  0.103808  1
  Cd  Cd1  1  0.153112  0.250000  0.896192  1
  Bi  Bi2  1  0.185777  0.250000  0.398061  1
  Bi  Bi3  1  0.814223  0.750000  0.601939  1
  Cl  Cl4  1  0.522408  0.250000  0.797424  1
  Cl  Cl5  1  0.477592  0.750000  0.202576  1
  O  O6  1  0.990014  0.250000  0.144342  1
  O  O7  1  0.009986  0.750000  0.855658  1
  O  O8  1  0.046068  0.750000  0.406252  1
  O  O9  1  0.953932  0.250000  0.593748  1
