# generated using pymatgen
data_NbBiO4
_symmetry_space_group_name_H-M   'P 1'
_cell_length_a   5.58110941
_cell_length_b   7.77786586
_cell_length_c   8.05124048
_cell_angle_alpha   101.45622779
_cell_angle_beta   90.15137045
_cell_angle_gamma   92.78158392
_symmetry_Int_Tables_number   1
_chemical_formula_structural   NbBiO4
_chemical_formula_sum   'Nb4 Bi4 O16'
_cell_volume   342.10363670
_cell_formula_units_Z   4
loop_
 _symmetry_equiv_pos_site_id
 _symmetry_equiv_pos_as_xyz
  1  'x, y, z'
loop_
 _atom_site_type_symbol
 _atom_site_label
 _atom_site_symmetry_multiplicity
 _atom_site_fract_x
 _atom_site_fract_y
 _atom_site_fract_z
 _atom_site_occupancy
  Nb  Nb0  1  0.753683  0.673702  0.823515  1
  Nb  Nb1  1  0.246317  0.326298  0.176485  1
  Nb  Nb2  1  0.221028  0.345606  0.676909  1
  Nb  Nb3  1  0.778972  0.654394  0.323091  1
  Bi  Bi4  1  0.234960  0.880091  0.626411  1
  Bi  Bi5  1  0.712349  0.165625  0.872761  1
  Bi  Bi6  1  0.287651  0.834375  0.127239  1
  Bi  Bi7  1  0.765040  0.119909  0.373589  1
  O  O8  1  0.006282  0.894438  0.322626  1
  O  O9  1  0.081752  0.554431  0.220540  1
  O  O10  1  0.312319  0.327440  0.949495  1
  O  O11  1  0.537276  0.843022  0.357702  1
  O  O12  1  0.462724  0.156978  0.642298  1
  O  O13  1  0.993718  0.105562  0.677374  1
  O  O14  1  0.563833  0.453770  0.286491  1
  O  O15  1  0.556107  0.891587  0.820431  1
  O  O16  1  0.436167  0.546230  0.713509  1
  O  O17  1  0.041250  0.825319  0.863113  1
  O  O18  1  0.918248  0.445569  0.779460  1
  O  O19  1  0.147580  0.322291  0.446408  1
  O  O20  1  0.443893  0.108413  0.179569  1
  O  O21  1  0.958750  0.174681  0.136887  1
  O  O22  1  0.852420  0.677709  0.553592  1
  O  O23  1  0.687681  0.672560  0.050505  1
