# generated using pymatgen
data_MnVCuO4
_symmetry_space_group_name_H-M   'P 1'
_cell_length_a   5.33045978
_cell_length_b   5.33045978
_cell_length_c   6.44529676
_cell_angle_alpha   90.00000000
_cell_angle_beta   90.00000000
_cell_angle_gamma   112.59769148
_symmetry_Int_Tables_number   1
_chemical_formula_structural   MnVCuO4
_chemical_formula_sum   'Mn2 V2 Cu2 O8'
_cell_volume   169.07529180
_cell_formula_units_Z   2
loop_
 _symmetry_equiv_pos_site_id
 _symmetry_equiv_pos_as_xyz
  1  'x, y, z'
loop_
 _atom_site_type_symbol
 _atom_site_label
 _atom_site_symmetry_multiplicity
 _atom_site_fract_x
 _atom_site_fract_y
 _atom_site_fract_z
 _atom_site_occupancy
  Mn  Mn0  1  0.000000  0.000000  0.000000  1
  Mn  Mn1  1  0.000000  0.000000  0.500000  1
  V  V2  1  0.639087  0.360913  0.250000  1
  V  V3  1  0.360913  0.639087  0.750000  1
  Cu  Cu4  1  0.323802  0.676198  0.250000  1
  Cu  Cu5  1  0.676198  0.323802  0.750000  1
  O  O6  1  0.752873  0.247127  0.029629  1
  O  O7  1  0.247127  0.752873  0.529629  1
  O  O8  1  0.247127  0.752873  0.970371  1
  O  O9  1  0.752873  0.247127  0.470371  1
  O  O10  1  0.273954  0.233088  0.250000  1
  O  O11  1  0.726046  0.766912  0.750000  1
  O  O12  1  0.766912  0.726046  0.250000  1
  O  O13  1  0.233088  0.273954  0.750000  1
