# generated using pymatgen
data_BaEr2CuO5
_symmetry_space_group_name_H-M   'P 1'
_cell_length_a   5.67193334
_cell_length_b   7.18346002
_cell_length_c   12.18342172
_cell_angle_alpha   90.00000000
_cell_angle_beta   90.00000000
_cell_angle_gamma   90.00000000
_symmetry_Int_Tables_number   1
_chemical_formula_structural   BaEr2CuO5
_chemical_formula_sum   'Ba4 Er8 Cu4 O20'
_cell_volume   496.40263068
_cell_formula_units_Z   4
loop_
 _symmetry_equiv_pos_site_id
 _symmetry_equiv_pos_as_xyz
  1  'x, y, z'
loop_
 _atom_site_type_symbol
 _atom_site_label
 _atom_site_symmetry_multiplicity
 _atom_site_fract_x
 _atom_site_fract_y
 _atom_site_fract_z
 _atom_site_occupancy
  Ba  Ba0  1  0.250000  0.933057  0.903537  1
  Ba  Ba1  1  0.750000  0.066943  0.096463  1
  Ba  Ba2  1  0.750000  0.433057  0.596463  1
  Ba  Ba3  1  0.250000  0.566943  0.403537  1
  Er  Er4  1  0.250000  0.111306  0.286745  1
  Er  Er5  1  0.750000  0.888694  0.713255  1
  Er  Er6  1  0.750000  0.611306  0.213255  1
  Er  Er7  1  0.250000  0.388694  0.786745  1
  Er  Er8  1  0.250000  0.395905  0.073698  1
  Er  Er9  1  0.750000  0.604095  0.926302  1
  Er  Er10  1  0.750000  0.895905  0.426302  1
  Er  Er11  1  0.250000  0.104095  0.573698  1
  Cu  Cu12  1  0.250000  0.719977  0.660900  1
  Cu  Cu13  1  0.750000  0.280023  0.339100  1
  Cu  Cu14  1  0.750000  0.219977  0.839100  1
  Cu  Cu15  1  0.250000  0.780023  0.160900  1
  O  O16  1  0.995893  0.158957  0.431463  1
  O  O17  1  0.495893  0.841043  0.568537  1
  O  O18  1  0.004107  0.658957  0.068537  1
  O  O19  1  0.504107  0.341043  0.931463  1
  O  O20  1  0.004107  0.841043  0.568537  1
  O  O21  1  0.504107  0.158957  0.431463  1
  O  O22  1  0.995893  0.341043  0.931463  1
  O  O23  1  0.495893  0.658957  0.068537  1
  O  O24  1  0.502887  0.354660  0.227753  1
  O  O25  1  0.002887  0.645340  0.772247  1
  O  O26  1  0.497113  0.854660  0.272247  1
  O  O27  1  0.997113  0.145340  0.727753  1
  O  O28  1  0.497113  0.645340  0.772247  1
  O  O29  1  0.997113  0.354660  0.227753  1
  O  O30  1  0.502887  0.145340  0.727753  1
  O  O31  1  0.002887  0.854660  0.272247  1
  O  O32  1  0.250000  0.084777  0.100227  1
  O  O33  1  0.750000  0.915223  0.899773  1
  O  O34  1  0.750000  0.584777  0.399773  1
  O  O35  1  0.250000  0.415223  0.600227  1
