# generated using pymatgen
data_Rb2UCr(IO6)2
_symmetry_space_group_name_H-M   'P 1'
_cell_length_a   11.54242737
_cell_length_b   7.45067769
_cell_length_c   16.40635595
_cell_angle_alpha   90.00000000
_cell_angle_beta   107.01720438
_cell_angle_gamma   90.00000000
_symmetry_Int_Tables_number   1
_chemical_formula_structural   Rb2UCr(IO6)2
_chemical_formula_sum   'Rb8 U4 Cr4 I8 O48'
_cell_volume   1349.15386371
_cell_formula_units_Z   4
loop_
 _symmetry_equiv_pos_site_id
 _symmetry_equiv_pos_as_xyz
  1  'x, y, z'
loop_
 _atom_site_type_symbol
 _atom_site_label
 _atom_site_symmetry_multiplicity
 _atom_site_fract_x
 _atom_site_fract_y
 _atom_site_fract_z
 _atom_site_occupancy
  Rb  Rb0  1  0.499353  0.251475  0.555616  1
  Rb  Rb1  1  0.747445  0.249660  0.860354  1
  Rb  Rb2  1  0.500647  0.748525  0.444384  1
  Rb  Rb3  1  0.252555  0.750340  0.139646  1
  Rb  Rb4  1  0.500647  0.751475  0.944384  1
  Rb  Rb5  1  0.252555  0.749660  0.639646  1
  Rb  Rb6  1  0.747445  0.250340  0.360354  1
  Rb  Rb7  1  0.499353  0.248525  0.055616  1
  U  U8  1  0.164466  0.487655  0.867685  1
  U  U9  1  0.835534  0.987655  0.632315  1
  U  U10  1  0.164466  0.012345  0.367685  1
  U  U11  1  0.835534  0.512345  0.132315  1
  Cr  Cr12  1  0.922684  0.738033  0.946782  1
  Cr  Cr13  1  0.922684  0.761967  0.446782  1
  Cr  Cr14  1  0.077316  0.261967  0.053218  1
  Cr  Cr15  1  0.077316  0.238033  0.553218  1
  I  I16  1  0.166640  0.517509  0.393518  1
  I  I17  1  0.833360  0.017509  0.106482  1
  I  I18  1  0.603791  0.718098  0.223811  1
  I  I19  1  0.833360  0.482491  0.606482  1
  I  I20  1  0.396209  0.281902  0.776189  1
  I  I21  1  0.166640  0.982491  0.893518  1
  I  I22  1  0.603791  0.781902  0.723810  1
  I  I23  1  0.396209  0.218098  0.276189  1
  O  O24  1  0.080909  0.291670  0.950134  1
  O  O25  1  0.786756  0.823818  0.161489  1
  O  O26  1  0.512096  0.891789  0.782624  1
  O  O27  1  0.295100  0.975258  0.988081  1
  O  O28  1  0.063334  0.682475  0.937565  1
  O  O29  1  0.702697  0.522705  0.217915  1
  O  O30  1  0.702697  0.977295  0.717915  1
  O  O31  1  0.968081  0.980824  0.725181  1
  O  O32  1  0.183839  0.379386  0.118177  1
  O  O33  1  0.213244  0.176182  0.838511  1
  O  O34  1  0.788737  0.204793  0.165704  1
  O  O35  1  0.936666  0.182475  0.562435  1
  O  O36  1  0.786756  0.676182  0.661489  1
  O  O37  1  0.919091  0.791670  0.549866  1
  O  O38  1  0.297303  0.477295  0.782085  1
  O  O39  1  0.297303  0.022705  0.282085  1
  O  O40  1  0.702527  0.996409  0.538927  1
  O  O41  1  0.499571  0.784922  0.617453  1
  O  O42  1  0.063334  0.817525  0.437565  1
  O  O43  1  0.297473  0.003591  0.461073  1
  O  O44  1  0.211263  0.795207  0.834296  1
  O  O45  1  0.919091  0.708330  0.049866  1
  O  O46  1  0.704900  0.475258  0.511919  1
  O  O47  1  0.031919  0.480824  0.774819  1
  O  O48  1  0.816161  0.879386  0.381823  1
  O  O49  1  0.295100  0.524742  0.488081  1
  O  O50  1  0.098753  0.448553  0.578074  1
  O  O51  1  0.788737  0.295207  0.665704  1
  O  O52  1  0.297473  0.496409  0.961073  1
  O  O53  1  0.512096  0.608211  0.282624  1
  O  O54  1  0.487904  0.391789  0.717376  1
  O  O55  1  0.936666  0.317525  0.062435  1
  O  O56  1  0.213244  0.323818  0.338511  1
  O  O57  1  0.500429  0.215078  0.382547  1
  O  O58  1  0.704900  0.024742  0.011919  1
  O  O59  1  0.702527  0.503591  0.038927  1
  O  O60  1  0.968081  0.519176  0.225181  1
  O  O61  1  0.183839  0.120614  0.618177  1
  O  O62  1  0.031919  0.019176  0.274819  1
  O  O63  1  0.487904  0.108211  0.217376  1
  O  O64  1  0.080909  0.208330  0.450134  1
  O  O65  1  0.816161  0.620614  0.881823  1
  O  O66  1  0.901247  0.551447  0.421926  1
  O  O67  1  0.500429  0.284922  0.882547  1
  O  O68  1  0.098753  0.051447  0.078074  1
  O  O69  1  0.901247  0.948553  0.921926  1
  O  O70  1  0.211263  0.704793  0.334296  1
  O  O71  1  0.499571  0.715078  0.117453  1
