# generated using pymatgen
data_Sc5Cl8
_symmetry_space_group_name_H-M   'P 1'
_cell_length_a   9.71371590
_cell_length_b   9.71371590
_cell_length_c   13.48217882
_cell_angle_alpha   47.73531548
_cell_angle_beta   132.26468452
_cell_angle_gamma   158.88416320
_symmetry_Int_Tables_number   1
_chemical_formula_structural   Sc5Cl8
_chemical_formula_sum   'Sc5 Cl8'
_cell_volume   334.25472328
_cell_formula_units_Z   1
loop_
 _symmetry_equiv_pos_site_id
 _symmetry_equiv_pos_as_xyz
  1  'x, y, z'
loop_
 _atom_site_type_symbol
 _atom_site_label
 _atom_site_symmetry_multiplicity
 _atom_site_fract_x
 _atom_site_fract_y
 _atom_site_fract_z
 _atom_site_occupancy
  Sc  Sc0  1  0.000000  0.000000  0.000000  1
  Sc  Sc1  1  0.486221  0.513779  0.651715  1
  Sc  Sc2  1  0.513779  0.486221  0.348285  1
  Sc  Sc3  1  0.888125  0.111875  0.381866  1
  Sc  Sc4  1  0.111875  0.888125  0.618134  1
  Cl  Cl5  1  0.313637  0.686363  0.431152  1
  Cl  Cl6  1  0.686363  0.313637  0.568848  1
  Cl  Cl7  1  0.627130  0.372870  0.107018  1
  Cl  Cl8  1  0.372870  0.627130  0.892982  1
  Cl  Cl9  1  0.335199  0.664801  0.197972  1
  Cl  Cl10  1  0.664801  0.335199  0.802028  1
  Cl  Cl11  1  0.023566  0.976434  0.216154  1
  Cl  Cl12  1  0.976434  0.023566  0.783846  1
