# generated using pymatgen
data_Rb2GeO3
_symmetry_space_group_name_H-M   'P 1'
_cell_length_a   6.75039386
_cell_length_b   13.75889857
_cell_length_c   16.98221183
_cell_angle_alpha   90.00000000
_cell_angle_beta   107.28710926
_cell_angle_gamma   90.00000000
_symmetry_Int_Tables_number   1
_chemical_formula_structural   Rb2GeO3
_chemical_formula_sum   'Rb24 Ge12 O36'
_cell_volume   1506.02449821
_cell_formula_units_Z   12
loop_
 _symmetry_equiv_pos_site_id
 _symmetry_equiv_pos_as_xyz
  1  'x, y, z'
loop_
 _atom_site_type_symbol
 _atom_site_label
 _atom_site_symmetry_multiplicity
 _atom_site_fract_x
 _atom_site_fract_y
 _atom_site_fract_z
 _atom_site_occupancy
  Rb  Rb0  1  0.727197  0.413919  0.971736  1
  Rb  Rb1  1  0.576535  0.144176  0.004377  1
  Rb  Rb2  1  0.653794  0.495544  0.720584  1
  Rb  Rb3  1  0.576535  0.355824  0.504377  1
  Rb  Rb4  1  0.113201  0.697098  0.801308  1
  Rb  Rb5  1  0.886799  0.302902  0.198692  1
  Rb  Rb6  1  0.272803  0.586081  0.028264  1
  Rb  Rb7  1  0.980389  0.615420  0.581629  1
  Rb  Rb8  1  0.727197  0.086081  0.471736  1
  Rb  Rb9  1  0.653794  0.004456  0.220584  1
  Rb  Rb10  1  0.346206  0.995544  0.779416  1
  Rb  Rb11  1  0.272803  0.913919  0.528264  1
  Rb  Rb12  1  0.113201  0.802902  0.301308  1
  Rb  Rb13  1  0.019611  0.115420  0.918371  1
  Rb  Rb14  1  0.887147  0.882848  0.639646  1
  Rb  Rb15  1  0.423465  0.644176  0.495623  1
  Rb  Rb16  1  0.980389  0.884580  0.081629  1
  Rb  Rb17  1  0.887147  0.617152  0.139646  1
  Rb  Rb18  1  0.886799  0.197098  0.698692  1
  Rb  Rb19  1  0.346206  0.504456  0.279416  1
  Rb  Rb20  1  0.019611  0.384580  0.418371  1
  Rb  Rb21  1  0.112853  0.382848  0.860354  1
  Rb  Rb22  1  0.423465  0.855824  0.995623  1
  Rb  Rb23  1  0.112853  0.117152  0.360354  1
  Ge  Ge24  1  0.729425  0.652006  0.899284  1
  Ge  Ge25  1  0.467884  0.253493  0.286223  1
  Ge  Ge26  1  0.270575  0.152006  0.600716  1
  Ge  Ge27  1  0.270575  0.347994  0.100716  1
  Ge  Ge28  1  0.532116  0.753493  0.213777  1
  Ge  Ge29  1  0.467884  0.246507  0.786223  1
  Ge  Ge30  1  0.830130  0.882090  0.864635  1
  Ge  Ge31  1  0.729425  0.847994  0.399284  1
  Ge  Ge32  1  0.532116  0.746507  0.713777  1
  Ge  Ge33  1  0.169870  0.117910  0.135365  1
  Ge  Ge34  1  0.169870  0.382090  0.635365  1
  Ge  Ge35  1  0.830130  0.617910  0.364635  1
  O  O36  1  0.711801  0.541392  0.419586  1
  O  O37  1  0.651521  0.639029  0.260749  1
  O  O38  1  0.900502  0.561251  0.886932  1
  O  O39  1  0.697905  0.805165  0.163311  1
  O  O40  1  0.523791  0.829565  0.301568  1
  O  O41  1  0.900502  0.938749  0.386932  1
  O  O42  1  0.711801  0.958608  0.919586  1
  O  O43  1  0.725012  0.230325  0.342777  1
  O  O44  1  0.115299  0.264230  0.581617  1
  O  O45  1  0.393159  0.366321  0.025313  1
  O  O46  1  0.067194  0.582226  0.352480  1
  O  O47  1  0.932806  0.082226  0.147520  1
  O  O48  1  0.606841  0.633679  0.974687  1
  O  O49  1  0.393159  0.133679  0.525313  1
  O  O50  1  0.274988  0.769675  0.657223  1
  O  O51  1  0.725012  0.269675  0.842777  1
  O  O52  1  0.274988  0.730325  0.157223  1
  O  O53  1  0.302095  0.305165  0.336689  1
  O  O54  1  0.884701  0.735770  0.418383  1
  O  O55  1  0.288199  0.458608  0.580414  1
  O  O56  1  0.932806  0.417774  0.647520  1
  O  O57  1  0.476209  0.170435  0.698432  1
  O  O58  1  0.606841  0.866321  0.474687  1
  O  O59  1  0.348479  0.139029  0.239251  1
  O  O60  1  0.476209  0.329565  0.198432  1
  O  O61  1  0.302095  0.194835  0.836689  1
  O  O62  1  0.099498  0.061251  0.613068  1
  O  O63  1  0.651521  0.860971  0.760749  1
  O  O64  1  0.697905  0.694835  0.663311  1
  O  O65  1  0.884701  0.764230  0.918383  1
  O  O66  1  0.523791  0.670435  0.801568  1
  O  O67  1  0.115299  0.235770  0.081617  1
  O  O68  1  0.067194  0.917774  0.852480  1
  O  O69  1  0.288199  0.041392  0.080414  1
  O  O70  1  0.348479  0.360971  0.739251  1
  O  O71  1  0.099498  0.438749  0.113068  1
