# generated using pymatgen
data_Er(GeRu)2
_symmetry_space_group_name_H-M   'P 1'
_cell_length_a   5.76554107
_cell_length_b   5.76554107
_cell_length_c   5.76554107
_cell_angle_alpha   136.64869674
_cell_angle_beta   136.64869674
_cell_angle_gamma   62.97901842
_symmetry_Int_Tables_number   1
_chemical_formula_structural   Er(GeRu)2
_chemical_formula_sum   'Er1 Ge2 Ru2'
_cell_volume   89.18161555
_cell_formula_units_Z   1
loop_
 _symmetry_equiv_pos_site_id
 _symmetry_equiv_pos_as_xyz
  1  'x, y, z'
loop_
 _atom_site_type_symbol
 _atom_site_label
 _atom_site_symmetry_multiplicity
 _atom_site_fract_x
 _atom_site_fract_y
 _atom_site_fract_z
 _atom_site_occupancy
  Er  Er0  1  0.000000  0.000000  0.000000  1
  Ge  Ge1  1  0.370757  0.370757  0.000000  1
  Ge  Ge2  1  0.629243  0.629243  0.000000  1
  Ru  Ru3  1  0.250000  0.750000  0.500000  1
  Ru  Ru4  1  0.750000  0.250000  0.500000  1
