# generated using pymatgen
data_Ba8V7O22
_symmetry_space_group_name_H-M   'P 1'
_cell_length_a   19.77742074
_cell_length_b   19.77742074
_cell_length_c   19.77742074
_cell_angle_alpha   17.12157590
_cell_angle_beta   17.12157590
_cell_angle_gamma   17.12157590
_symmetry_Int_Tables_number   1
_chemical_formula_structural   Ba8V7O22
_chemical_formula_sum   'Ba8 V7 O22'
_cell_volume   584.97221848
_cell_formula_units_Z   1
loop_
 _symmetry_equiv_pos_site_id
 _symmetry_equiv_pos_as_xyz
  1  'x, y, z'
loop_
 _atom_site_type_symbol
 _atom_site_label
 _atom_site_symmetry_multiplicity
 _atom_site_fract_x
 _atom_site_fract_y
 _atom_site_fract_z
 _atom_site_occupancy
  Ba  Ba0  1  0.387765  0.387765  0.387765  1
  Ba  Ba1  1  0.612235  0.612235  0.612235  1
  Ba  Ba2  1  0.181037  0.181037  0.181037  1
  Ba  Ba3  1  0.818963  0.818963  0.818963  1
  Ba  Ba4  1  0.105710  0.105710  0.105710  1
  Ba  Ba5  1  0.894290  0.894290  0.894290  1
  Ba  Ba6  1  0.319154  0.319154  0.319154  1
  Ba  Ba7  1  0.680846  0.680846  0.680846  1
  V  V8  1  0.000000  0.000000  0.000000  1
  V  V9  1  0.255979  0.255979  0.255979  1
  V  V10  1  0.744021  0.744021  0.744021  1
  V  V11  1  0.465411  0.465411  0.465411  1
  V  V12  1  0.534589  0.534589  0.534589  1
  V  V13  1  0.044944  0.044944  0.044944  1
  V  V14  1  0.955056  0.955056  0.955056  1
  O  O15  1  0.435993  0.435993  0.435993  1
  O  O16  1  0.564007  0.564007  0.564007  1
  O  O17  1  0.226355  0.226355  0.226355  1
  O  O18  1  0.773645  0.773645  0.773645  1
  O  O19  1  0.895955  0.407422  0.895955  1
  O  O20  1  0.407422  0.895955  0.895955  1
  O  O21  1  0.895955  0.895955  0.407422  1
  O  O22  1  0.104045  0.104045  0.592578  1
  O  O23  1  0.104045  0.592578  0.104045  1
  O  O24  1  0.592578  0.104045  0.104045  1
  O  O25  1  0.313534  0.799547  0.313534  1
  O  O26  1  0.799547  0.313534  0.313534  1
  O  O27  1  0.313534  0.313534  0.799547  1
  O  O28  1  0.686466  0.686466  0.200453  1
  O  O29  1  0.686466  0.200453  0.686466  1
  O  O30  1  0.283192  0.825951  0.825951  1
  O  O31  1  0.825951  0.283192  0.825951  1
  O  O32  1  0.825951  0.825951  0.283192  1
  O  O33  1  0.174049  0.174049  0.716808  1
  O  O34  1  0.716808  0.174049  0.174049  1
  O  O35  1  0.174049  0.716808  0.174049  1
  O  O36  1  0.200453  0.686466  0.686466  1
