# generated using pymatgen
data_Dy(PPt4)2
_symmetry_space_group_name_H-M   'P 1'
_cell_length_a   6.34040335
_cell_length_b   6.34040335
_cell_length_c   9.40935123
_cell_angle_alpha   54.83658784
_cell_angle_beta   125.16341216
_cell_angle_gamma   142.65423628
_symmetry_Int_Tables_number   1
_chemical_formula_structural   Dy(PPt4)2
_chemical_formula_sum   'Dy1 P2 Pt8'
_cell_volume   182.19508754
_cell_formula_units_Z   1
loop_
 _symmetry_equiv_pos_site_id
 _symmetry_equiv_pos_as_xyz
  1  'x, y, z'
loop_
 _atom_site_type_symbol
 _atom_site_label
 _atom_site_symmetry_multiplicity
 _atom_site_fract_x
 _atom_site_fract_y
 _atom_site_fract_z
 _atom_site_occupancy
  Dy  Dy0  1  0.500000  0.500000  0.500000  1
  P  P1  1  0.941636  0.058364  0.709440  1
  P  P2  1  0.058364  0.941636  0.290560  1
  Pt  Pt3  1  0.776370  0.223630  0.413707  1
  Pt  Pt4  1  0.176989  0.823011  0.844133  1
  Pt  Pt5  1  0.823011  0.176989  0.155867  1
  Pt  Pt6  1  0.833669  0.166331  0.847901  1
  Pt  Pt7  1  0.525039  0.474961  0.868903  1
  Pt  Pt8  1  0.474961  0.525039  0.131097  1
  Pt  Pt9  1  0.223630  0.776370  0.586293  1
  Pt  Pt10  1  0.166331  0.833669  0.152099  1
