# generated using pymatgen
data_Rb3Sb5O14
_symmetry_space_group_name_H-M   'P 1'
_cell_length_a   7.32014533
_cell_length_b   7.49526143
_cell_length_c   24.93860133
_cell_angle_alpha   90.00000000
_cell_angle_beta   90.00000000
_cell_angle_gamma   90.00000000
_symmetry_Int_Tables_number   1
_chemical_formula_structural   Rb3Sb5O14
_chemical_formula_sum   'Rb12 Sb20 O56'
_cell_volume   1368.29134968
_cell_formula_units_Z   4
loop_
 _symmetry_equiv_pos_site_id
 _symmetry_equiv_pos_as_xyz
  1  'x, y, z'
loop_
 _atom_site_type_symbol
 _atom_site_label
 _atom_site_symmetry_multiplicity
 _atom_site_fract_x
 _atom_site_fract_y
 _atom_site_fract_z
 _atom_site_occupancy
  Rb  Rb0  1  0.271227  0.500000  0.013238  1
  Rb  Rb1  1  0.107208  0.500000  0.885172  1
  Rb  Rb2  1  0.895463  0.000000  0.208367  1
  Rb  Rb3  1  0.228773  0.500000  0.513238  1
  Rb  Rb4  1  0.392792  0.500000  0.385172  1
  Rb  Rb5  1  0.728773  0.500000  0.986762  1
  Rb  Rb6  1  0.607208  0.500000  0.614828  1
  Rb  Rb7  1  0.892792  0.500000  0.114828  1
  Rb  Rb8  1  0.771227  0.500000  0.486762  1
  Rb  Rb9  1  0.604537  0.000000  0.708367  1
  Rb  Rb10  1  0.104537  0.000000  0.791633  1
  Rb  Rb11  1  0.395463  0.000000  0.291633  1
  Sb  Sb12  1  0.112162  0.263673  0.645573  1
  Sb  Sb13  1  0.612162  0.736327  0.854427  1
  Sb  Sb14  1  0.093608  0.000000  0.437547  1
  Sb  Sb15  1  0.334123  0.500000  0.755134  1
  Sb  Sb16  1  0.165877  0.500000  0.255134  1
  Sb  Sb17  1  0.665877  0.500000  0.244866  1
  Sb  Sb18  1  0.112162  0.736327  0.645573  1
  Sb  Sb19  1  0.416428  0.000000  0.556409  1
  Sb  Sb20  1  0.612162  0.263673  0.854427  1
  Sb  Sb21  1  0.593608  0.000000  0.062453  1
  Sb  Sb22  1  0.834123  0.500000  0.744866  1
  Sb  Sb23  1  0.387838  0.263673  0.145573  1
  Sb  Sb24  1  0.083572  0.000000  0.056409  1
  Sb  Sb25  1  0.583572  0.000000  0.443591  1
  Sb  Sb26  1  0.906392  0.000000  0.562453  1
  Sb  Sb27  1  0.887838  0.263673  0.354427  1
  Sb  Sb28  1  0.387838  0.736327  0.145573  1
  Sb  Sb29  1  0.887838  0.736327  0.354427  1
  Sb  Sb30  1  0.406392  0.000000  0.937547  1
  Sb  Sb31  1  0.916428  0.000000  0.943591  1
  O  O32  1  0.046828  0.253618  0.424560  1
  O  O33  1  0.530760  0.000000  0.856665  1
  O  O34  1  0.836445  0.802866  0.897617  1
  O  O35  1  0.953172  0.746382  0.575440  1
  O  O36  1  0.325062  0.500000  0.119195  1
  O  O37  1  0.273269  0.278987  0.709070  1
  O  O38  1  0.886730  0.313715  0.687400  1
  O  O39  1  0.174938  0.500000  0.619195  1
  O  O40  1  0.726731  0.721013  0.290930  1
  O  O41  1  0.046828  0.746382  0.424560  1
  O  O42  1  0.923864  0.500000  0.219920  1
  O  O43  1  0.663555  0.197134  0.397617  1
  O  O44  1  0.659548  0.000000  0.982931  1
  O  O45  1  0.469240  0.000000  0.143335  1
  O  O46  1  0.113270  0.686285  0.312600  1
  O  O47  1  0.663555  0.802866  0.397617  1
  O  O48  1  0.340452  0.000000  0.017069  1
  O  O49  1  0.160049  0.000000  0.907416  1
  O  O50  1  0.453172  0.253618  0.924560  1
  O  O51  1  0.423864  0.500000  0.280080  1
  O  O52  1  0.339951  0.000000  0.407416  1
  O  O53  1  0.226731  0.721013  0.209070  1
  O  O54  1  0.773269  0.278987  0.790930  1
  O  O55  1  0.453172  0.746382  0.924560  1
  O  O56  1  0.613270  0.313715  0.187400  1
  O  O57  1  0.386730  0.313715  0.812600  1
  O  O58  1  0.000000  0.822267  0.000000  1
  O  O59  1  0.000000  0.177733  0.000000  1
  O  O60  1  0.613270  0.686285  0.187400  1
  O  O61  1  0.840452  0.000000  0.482931  1
  O  O62  1  0.163555  0.802866  0.102383  1
  O  O63  1  0.336445  0.802866  0.602383  1
  O  O64  1  0.336445  0.197134  0.602383  1
  O  O65  1  0.773269  0.721013  0.790930  1
  O  O66  1  0.660049  0.000000  0.592584  1
  O  O67  1  0.546828  0.253618  0.075440  1
  O  O68  1  0.159548  0.000000  0.517069  1
  O  O69  1  0.500000  0.822267  0.500000  1
  O  O70  1  0.839951  0.000000  0.092584  1
  O  O71  1  0.674938  0.500000  0.880805  1
  O  O72  1  0.886730  0.686285  0.687400  1
  O  O73  1  0.163555  0.197134  0.102383  1
  O  O74  1  0.576136  0.500000  0.719920  1
  O  O75  1  0.030760  0.000000  0.643335  1
  O  O76  1  0.969240  0.000000  0.356665  1
  O  O77  1  0.953172  0.253618  0.575440  1
  O  O78  1  0.226731  0.278987  0.209070  1
  O  O79  1  0.076136  0.500000  0.780080  1
  O  O80  1  0.836445  0.197134  0.897617  1
  O  O81  1  0.825062  0.500000  0.380805  1
  O  O82  1  0.726731  0.278987  0.290930  1
  O  O83  1  0.113270  0.313715  0.312600  1
  O  O84  1  0.386730  0.686285  0.812600  1
  O  O85  1  0.500000  0.177733  0.500000  1
  O  O86  1  0.273269  0.721013  0.709070  1
  O  O87  1  0.546828  0.746382  0.075440  1
