# generated using pymatgen
data_Ag2TeO4
_symmetry_space_group_name_H-M   'P 1'
_cell_length_a   6.58034807
_cell_length_b   6.58034807
_cell_length_c   13.94802343
_cell_angle_alpha   88.88283306
_cell_angle_beta   91.11716694
_cell_angle_gamma   88.39087437
_symmetry_Int_Tables_number   1
_chemical_formula_structural   Ag2TeO4
_chemical_formula_sum   'Ag12 Te6 O24'
_cell_volume   603.48875113
_cell_formula_units_Z   6
loop_
 _symmetry_equiv_pos_site_id
 _symmetry_equiv_pos_as_xyz
  1  'x, y, z'
loop_
 _atom_site_type_symbol
 _atom_site_label
 _atom_site_symmetry_multiplicity
 _atom_site_fract_x
 _atom_site_fract_y
 _atom_site_fract_z
 _atom_site_occupancy
  Ag  Ag0  1  0.274722  0.274722  0.750000  1
  Ag  Ag1  1  0.734275  0.389927  0.826762  1
  Ag  Ag2  1  0.051519  0.051519  0.250000  1
  Ag  Ag3  1  0.725278  0.725278  0.250000  1
  Ag  Ag4  1  0.948481  0.948481  0.750000  1
  Ag  Ag5  1  0.265725  0.610073  0.173238  1
  Ag  Ag6  1  0.482816  0.218958  0.567649  1
  Ag  Ag7  1  0.218958  0.482816  0.932351  1
  Ag  Ag8  1  0.389927  0.734275  0.673238  1
  Ag  Ag9  1  0.781042  0.517184  0.067649  1
  Ag  Ag10  1  0.610073  0.265725  0.326762  1
  Ag  Ag11  1  0.517184  0.781042  0.432351  1
  Te  Te12  1  0.496714  0.913391  0.896512  1
  Te  Te13  1  0.503286  0.086609  0.103488  1
  Te  Te14  1  0.913391  0.496714  0.603488  1
  Te  Te15  1  0.000000  0.000000  0.000000  1
  Te  Te16  1  0.086609  0.503286  0.396512  1
  Te  Te17  1  0.000000  1.000000  0.500000  1
  O  O18  1  0.953030  0.275172  0.953288  1
  O  O19  1  0.818892  0.491271  0.465495  1
  O  O20  1  0.643907  0.472471  0.648354  1
  O  O21  1  0.110314  0.200136  0.403066  1
  O  O22  1  0.527529  0.356093  0.148354  1
  O  O23  1  0.472471  0.643907  0.851646  1
  O  O24  1  0.799864  0.889686  0.903066  1
  O  O25  1  0.954268  0.193527  0.607790  1
  O  O26  1  0.356093  0.527529  0.351646  1
  O  O27  1  0.724828  0.046970  0.453288  1
  O  O28  1  0.200136  0.110314  0.096934  1
  O  O29  1  0.046970  0.724828  0.046712  1
  O  O30  1  0.484881  0.952484  0.225622  1
  O  O31  1  0.806473  0.045732  0.107790  1
  O  O32  1  0.181108  0.508729  0.534505  1
  O  O33  1  0.047516  0.515119  0.725622  1
  O  O34  1  0.889686  0.799864  0.596934  1
  O  O35  1  0.275172  0.953030  0.546712  1
  O  O36  1  0.515119  0.047516  0.774378  1
  O  O37  1  0.508729  0.181108  0.965495  1
  O  O38  1  0.045732  0.806473  0.392210  1
  O  O39  1  0.193527  0.954268  0.892210  1
  O  O40  1  0.952484  0.484881  0.274378  1
  O  O41  1  0.491271  0.818892  0.034505  1
