# generated using pymatgen
data_GdNiO3
_symmetry_space_group_name_H-M   'P 1'
_cell_length_a   5.30707033
_cell_length_b   5.56812294
_cell_length_c   7.58878874
_cell_angle_alpha   90.00000000
_cell_angle_beta   90.00000000
_cell_angle_gamma   90.00000000
_symmetry_Int_Tables_number   1
_chemical_formula_structural   GdNiO3
_chemical_formula_sum   'Gd4 Ni4 O12'
_cell_volume   224.25189493
_cell_formula_units_Z   4
loop_
 _symmetry_equiv_pos_site_id
 _symmetry_equiv_pos_as_xyz
  1  'x, y, z'
loop_
 _atom_site_type_symbol
 _atom_site_label
 _atom_site_symmetry_multiplicity
 _atom_site_fract_x
 _atom_site_fract_y
 _atom_site_fract_z
 _atom_site_occupancy
  Gd  Gd0  1  0.983149  0.566715  0.250000  1
  Gd  Gd1  1  0.483149  0.933285  0.750000  1
  Gd  Gd2  1  0.516851  0.066715  0.250000  1
  Gd  Gd3  1  0.016851  0.433285  0.750000  1
  Ni  Ni4  1  0.500000  0.500000  0.000000  1
  Ni  Ni5  1  0.000000  0.000000  0.000000  1
  Ni  Ni6  1  0.000000  0.000000  0.500000  1
  Ni  Ni7  1  0.500000  0.500000  0.500000  1
  O  O8  1  0.095450  0.974008  0.250000  1
  O  O9  1  0.595450  0.525992  0.750000  1
  O  O10  1  0.404550  0.474008  0.250000  1
  O  O11  1  0.904550  0.025992  0.750000  1
  O  O12  1  0.700467  0.799968  0.049352  1
  O  O13  1  0.200467  0.700032  0.950648  1
  O  O14  1  0.799533  0.299968  0.450648  1
  O  O15  1  0.299533  0.200032  0.549352  1
  O  O16  1  0.299533  0.200032  0.950648  1
  O  O17  1  0.799533  0.299968  0.049352  1
  O  O18  1  0.200467  0.700032  0.549352  1
  O  O19  1  0.700467  0.799968  0.450648  1
