# generated using pymatgen
data_Sb(PO3)4
_symmetry_space_group_name_H-M   'P 1'
_cell_length_a   7.15356817
_cell_length_b   8.47060051
_cell_length_c   7.54064270
_cell_angle_alpha   90.00000000
_cell_angle_beta   91.49916851
_cell_angle_gamma   90.00000000
_symmetry_Int_Tables_number   1
_chemical_formula_structural   Sb(PO3)4
_chemical_formula_sum   'Sb2 P8 O24'
_cell_volume   456.76897806
_cell_formula_units_Z   2
loop_
 _symmetry_equiv_pos_site_id
 _symmetry_equiv_pos_as_xyz
  1  'x, y, z'
loop_
 _atom_site_type_symbol
 _atom_site_label
 _atom_site_symmetry_multiplicity
 _atom_site_fract_x
 _atom_site_fract_y
 _atom_site_fract_z
 _atom_site_occupancy
  Sb  Sb0  1  0.249980  0.733915  0.248455  1
  Sb  Sb1  1  0.750020  0.233915  0.751545  1
  P  P2  1  0.003839  0.906261  0.609706  1
  P  P3  1  0.996161  0.406261  0.390294  1
  P  P4  1  0.085980  0.173737  0.093022  1
  P  P5  1  0.395892  0.993548  0.584821  1
  P  P6  1  0.437767  0.377970  0.082709  1
  P  P7  1  0.562233  0.877970  0.917291  1
  P  P8  1  0.604108  0.493548  0.415179  1
  P  P9  1  0.914020  0.673737  0.906978  1
  O  O10  1  0.011349  0.807892  0.791160  1
  O  O11  1  0.000627  0.692618  0.092529  1
  O  O12  1  0.027123  0.799219  0.452685  1
  O  O13  1  0.083751  0.017213  0.179347  1
  O  O14  1  0.184030  0.014823  0.644088  1
  O  O15  1  0.167893  0.510369  0.393724  1
  O  O16  1  0.301848  0.230292  0.075075  1
  O  O17  1  0.336989  0.533548  0.063249  1
  O  O18  1  0.399796  0.936327  0.396631  1
  O  O19  1  0.405152  0.852467  0.043799  1
  O  O20  1  0.475283  0.859276  0.717476  1
  O  O21  1  0.487477  0.150716  0.623293  1
  O  O22  1  0.512523  0.650716  0.376707  1
  O  O23  1  0.524717  0.359276  0.282524  1
  O  O24  1  0.594848  0.352467  0.956201  1
  O  O25  1  0.600204  0.436327  0.603369  1
  O  O26  1  0.663011  0.033548  0.936751  1
  O  O27  1  0.698152  0.730292  0.924925  1
  O  O28  1  0.832107  0.010369  0.606276  1
  O  O29  1  0.815970  0.514823  0.355912  1
  O  O30  1  0.916249  0.517213  0.820653  1
  O  O31  1  0.972877  0.299219  0.547315  1
  O  O32  1  0.999373  0.192618  0.907471  1
  O  O33  1  0.988651  0.307892  0.208840  1
