# generated using pymatgen
data_P2W5O19
_symmetry_space_group_name_H-M   'P 1'
_cell_length_a   6.73341661
_cell_length_b   5.40535388
_cell_length_c   21.06946030
_cell_angle_alpha   90.00000000
_cell_angle_beta   96.09552027
_cell_angle_gamma   90.00000000
_symmetry_Int_Tables_number   1
_chemical_formula_structural   P2W5O19
_chemical_formula_sum   'P4 W10 O38'
_cell_volume   762.51899894
_cell_formula_units_Z   2
loop_
 _symmetry_equiv_pos_site_id
 _symmetry_equiv_pos_as_xyz
  1  'x, y, z'
loop_
 _atom_site_type_symbol
 _atom_site_label
 _atom_site_symmetry_multiplicity
 _atom_site_fract_x
 _atom_site_fract_y
 _atom_site_fract_z
 _atom_site_occupancy
  P  P0  1  0.250714  0.262600  0.160199  1
  P  P1  1  0.749286  0.762600  0.839801  1
  P  P2  1  0.214154  0.244155  0.734729  1
  P  P3  1  0.785846  0.744155  0.265271  1
  W  W4  1  0.851858  0.259102  0.039610  1
  W  W5  1  0.148142  0.759102  0.960390  1
  W  W6  1  0.105637  0.248660  0.315476  1
  W  W7  1  0.894363  0.748660  0.684524  1
  W  W8  1  0.820788  0.248643  0.464378  1
  W  W9  1  0.179212  0.748643  0.535622  1
  W  W10  1  0.531877  0.247060  0.611832  1
  W  W11  1  0.468123  0.747060  0.388168  1
  W  W12  1  0.466236  0.256372  0.890585  1
  W  W13  1  0.533764  0.756372  0.109415  1
  O  O14  1  0.011242  0.009836  0.996785  1
  O  O15  1  0.988758  0.509836  0.003215  1
  O  O16  1  0.968134  0.249344  0.386835  1
  O  O17  1  0.031866  0.749344  0.613165  1
  O  O18  1  0.217726  0.243446  0.231102  1
  O  O19  1  0.782274  0.743446  0.768898  1
  O  O20  1  0.048115  0.256718  0.120153  1
  O  O21  1  0.951885  0.756718  0.879847  1
  O  O22  1  0.011879  0.014185  0.502434  1
  O  O23  1  0.988121  0.514185  0.497566  1
  O  O24  1  0.726131  0.011232  0.657145  1
  O  O25  1  0.273869  0.511232  0.342855  1
  O  O26  1  0.705570  0.513189  0.652663  1
  O  O27  1  0.294430  0.013189  0.347337  1
  O  O28  1  0.356265  0.755272  0.036373  1
  O  O29  1  0.643735  0.255272  0.963627  1
  O  O30  1  0.695543  0.764498  0.195252  1
  O  O31  1  0.304457  0.264498  0.804748  1
  O  O32  1  0.614912  0.748016  0.308245  1
  O  O33  1  0.385088  0.248016  0.691755  1
  O  O34  1  0.321325  0.747904  0.459716  1
  O  O35  1  0.678675  0.247904  0.540284  1
  O  O36  1  0.684456  0.499334  0.084128  1
  O  O37  1  0.315544  0.999334  0.915872  1
  O  O38  1  0.705700  0.993364  0.077959  1
  O  O39  1  0.294300  0.493364  0.922041  1
  O  O40  1  0.358208  0.509914  0.150549  1
  O  O41  1  0.641792  0.009914  0.849451  1
  O  O42  1  0.379902  0.040568  0.144074  1
  O  O43  1  0.620098  0.540568  0.855926  1
  O  O44  1  0.925288  0.967957  0.279334  1
  O  O45  1  0.074712  0.467957  0.720666  1
  O  O46  1  0.902796  0.498678  0.273555  1
  O  O47  1  0.097204  0.998678  0.726445  1
  O  O48  1  0.628909  0.481438  0.421032  1
  O  O49  1  0.371091  0.981438  0.578968  1
  O  O50  1  0.651700  0.982915  0.425740  1
  O  O51  1  0.348300  0.482915  0.574260  1
