# generated using pymatgen
data_Tm8Ga3Co
_symmetry_space_group_name_H-M   'P 1'
_cell_length_a   9.87513290
_cell_length_b   9.87513290
_cell_length_c   6.83560480
_cell_angle_alpha   90.00000000
_cell_angle_beta   90.00000000
_cell_angle_gamma   120.00000000
_symmetry_Int_Tables_number   1
_chemical_formula_structural   Tm8Ga3Co
_chemical_formula_sum   'Tm16 Ga6 Co2'
_cell_volume   577.28925787
_cell_formula_units_Z   2
loop_
 _symmetry_equiv_pos_site_id
 _symmetry_equiv_pos_as_xyz
  1  'x, y, z'
loop_
 _atom_site_type_symbol
 _atom_site_label
 _atom_site_symmetry_multiplicity
 _atom_site_fract_x
 _atom_site_fract_y
 _atom_site_fract_z
 _atom_site_occupancy
  Tm  Tm0  1  0.173281  0.826719  0.990347  1
  Tm  Tm1  1  0.346561  0.173281  0.490347  1
  Tm  Tm2  1  0.826719  0.653439  0.490347  1
  Tm  Tm3  1  0.173281  0.346561  0.990347  1
  Tm  Tm4  1  0.653439  0.826719  0.990347  1
  Tm  Tm5  1  0.826719  0.173281  0.490347  1
  Tm  Tm6  1  0.333333  0.666667  0.671662  1
  Tm  Tm7  1  0.666667  0.333333  0.171662  1
  Tm  Tm8  1  0.464192  0.535808  0.291743  1
  Tm  Tm9  1  0.928383  0.464192  0.791743  1
  Tm  Tm10  1  0.535808  0.071617  0.791743  1
  Tm  Tm11  1  0.464192  0.928383  0.291743  1
  Tm  Tm12  1  0.071617  0.535808  0.291743  1
  Tm  Tm13  1  0.535808  0.464192  0.791743  1
  Tm  Tm14  1  0.000000  0.000000  0.268277  1
  Tm  Tm15  1  0.000000  0.000000  0.768277  1
  Ga  Ga16  1  0.163440  0.836560  0.539363  1
  Ga  Ga17  1  0.326880  0.163440  0.039363  1
  Ga  Ga18  1  0.836560  0.673120  0.039363  1
  Ga  Ga19  1  0.163440  0.326880  0.539363  1
  Ga  Ga20  1  0.673120  0.836560  0.539363  1
  Ga  Ga21  1  0.836560  0.163440  0.039363  1
  Co  Co22  1  0.333333  0.666667  0.057706  1
  Co  Co23  1  0.666667  0.333333  0.557706  1
