# generated using pymatgen
data_Cr2(PO4)3
_symmetry_space_group_name_H-M   'P 1'
_cell_length_a   8.57350307
_cell_length_b   8.58508861
_cell_length_c   12.01558754
_cell_angle_alpha   90.00000000
_cell_angle_beta   90.00000000
_cell_angle_gamma   90.00000000
_symmetry_Int_Tables_number   1
_chemical_formula_structural   Cr2(PO4)3
_chemical_formula_sum   'Cr8 P12 O48'
_cell_volume   884.39871236
_cell_formula_units_Z   4
loop_
 _symmetry_equiv_pos_site_id
 _symmetry_equiv_pos_as_xyz
  1  'x, y, z'
loop_
 _atom_site_type_symbol
 _atom_site_label
 _atom_site_symmetry_multiplicity
 _atom_site_fract_x
 _atom_site_fract_y
 _atom_site_fract_z
 _atom_site_occupancy
  Cr  Cr0  1  0.751407  0.534386  0.882049  1
  Cr  Cr1  1  0.751407  0.965614  0.117951  1
  Cr  Cr2  1  0.748593  0.034386  0.617951  1
  Cr  Cr3  1  0.748593  0.465614  0.382049  1
  Cr  Cr4  1  0.251407  0.534386  0.617951  1
  Cr  Cr5  1  0.251407  0.965614  0.382049  1
  Cr  Cr6  1  0.248593  0.034386  0.882049  1
  Cr  Cr7  1  0.248593  0.465614  0.117951  1
  P  P8  1  0.966659  0.750000  0.500000  1
  P  P9  1  0.892741  0.890557  0.854955  1
  P  P10  1  0.892741  0.609443  0.145045  1
  P  P11  1  0.607259  0.390557  0.645045  1
  P  P12  1  0.607259  0.109443  0.354955  1
  P  P13  1  0.533341  0.250000  0.000000  1
  P  P14  1  0.466659  0.750000  0.000000  1
  P  P15  1  0.392741  0.890557  0.645045  1
  P  P16  1  0.392741  0.609443  0.354955  1
  P  P17  1  0.107259  0.390557  0.854955  1
  P  P18  1  0.107259  0.109443  0.145045  1
  P  P19  1  0.033341  0.250000  0.500000  1
  O  O20  1  0.935706  0.147851  0.578140  1
  O  O21  1  0.935706  0.352149  0.421860  1
  O  O22  1  0.928097  0.406297  0.843332  1
  O  O23  1  0.928097  0.093703  0.156668  1
  O  O24  1  0.858317  0.846961  0.574833  1
  O  O25  1  0.858317  0.653039  0.425167  1
  O  O26  1  0.852183  0.720304  0.827337  1
  O  O27  1  0.852183  0.779696  0.172663  1
  O  O28  1  0.837043  0.937847  0.970542  1
  O  O29  1  0.837043  0.562153  0.029458  1
  O  O30  1  0.823483  0.005279  0.769547  1
  O  O31  1  0.823483  0.494721  0.230453  1
  O  O32  1  0.676517  0.505279  0.730453  1
  O  O33  1  0.676517  0.994721  0.269547  1
  O  O34  1  0.662957  0.437847  0.529458  1
  O  O35  1  0.662957  0.062153  0.470542  1
  O  O36  1  0.647817  0.220304  0.672663  1
  O  O37  1  0.647817  0.279696  0.327337  1
  O  O38  1  0.641683  0.346961  0.925167  1
  O  O39  1  0.641683  0.153039  0.074833  1
  O  O40  1  0.571903  0.906297  0.656668  1
  O  O41  1  0.571903  0.593703  0.343332  1
  O  O42  1  0.564294  0.647851  0.921860  1
  O  O43  1  0.564294  0.852149  0.078140  1
  O  O44  1  0.435706  0.147851  0.921860  1
  O  O45  1  0.435706  0.352149  0.078140  1
  O  O46  1  0.428097  0.406297  0.656668  1
  O  O47  1  0.428097  0.093703  0.343332  1
  O  O48  1  0.358317  0.846961  0.925167  1
  O  O49  1  0.358317  0.653039  0.074833  1
  O  O50  1  0.352183  0.720304  0.672663  1
  O  O51  1  0.352183  0.779696  0.327337  1
  O  O52  1  0.337043  0.937847  0.529458  1
  O  O53  1  0.337043  0.562153  0.470542  1
  O  O54  1  0.323483  0.005279  0.730453  1
  O  O55  1  0.323483  0.494721  0.269547  1
  O  O56  1  0.176517  0.505279  0.769547  1
  O  O57  1  0.176517  0.994721  0.230453  1
  O  O58  1  0.162957  0.437847  0.970542  1
  O  O59  1  0.162957  0.062153  0.029458  1
  O  O60  1  0.147817  0.220304  0.827337  1
  O  O61  1  0.147817  0.279696  0.172663  1
  O  O62  1  0.141683  0.346961  0.574833  1
  O  O63  1  0.141683  0.153039  0.425167  1
  O  O64  1  0.071903  0.906297  0.843332  1
  O  O65  1  0.071903  0.593703  0.156668  1
  O  O66  1  0.064294  0.647851  0.578140  1
  O  O67  1  0.064294  0.852149  0.421860  1
