# generated using pymatgen
data_Cs5(KPb6)3
_symmetry_space_group_name_H-M   'P 1'
_cell_length_a   10.12788126
_cell_length_b   15.65649963
_cell_length_c   15.79671661
_cell_angle_alpha   104.77357191
_cell_angle_beta   97.27604346
_cell_angle_gamma   100.03159860
_symmetry_Int_Tables_number   1
_chemical_formula_structural   Cs5(KPb6)3
_chemical_formula_sum   'Cs10 K6 Pb36'
_cell_volume   2346.19621947
_cell_formula_units_Z   2
loop_
 _symmetry_equiv_pos_site_id
 _symmetry_equiv_pos_as_xyz
  1  'x, y, z'
loop_
 _atom_site_type_symbol
 _atom_site_label
 _atom_site_symmetry_multiplicity
 _atom_site_fract_x
 _atom_site_fract_y
 _atom_site_fract_z
 _atom_site_occupancy
  Cs  Cs0  1  0.746607  0.651604  0.828869  1
  Cs  Cs1  1  0.400786  0.335785  0.469057  1
  Cs  Cs2  1  0.063924  0.336509  0.266481  1
  Cs  Cs3  1  0.667910  0.063189  0.817694  1
  Cs  Cs4  1  0.204678  0.121831  0.834344  1
  Cs  Cs5  1  0.810887  0.847056  0.383585  1
  Cs  Cs6  1  0.282308  0.028758  0.472765  1
  Cs  Cs7  1  0.594686  0.155990  0.177568  1
  Cs  Cs8  1  0.473996  0.846513  0.179907  1
  Cs  Cs9  1  0.129644  0.533361  0.820189  1
  K  K10  1  0.033811  0.642282  0.206193  1
  K  K11  1  0.505253  0.372117  0.764661  1
  K  K12  1  0.954747  0.336761  0.993782  1
  K  K13  1  0.920010  0.851404  0.656393  1
  K  K14  1  0.833512  0.538511  0.450296  1
  K  K15  1  0.357968  0.815417  0.882560  1
  Pb  Pb16  1  0.003302  0.179497  0.440162  1
  Pb  Pb17  1  0.722277  0.930921  0.005856  1
  Pb  Pb18  1  0.153885  0.682596  0.638467  1
  Pb  Pb19  1  0.469907  0.597210  0.011370  1
  Pb  Pb20  1  0.760084  0.290314  0.438417  1
  Pb  Pb21  1  0.820657  0.788566  0.097330  1
  Pb  Pb22  1  0.402540  0.586653  0.638147  1
  Pb  Pb23  1  0.336868  0.296044  0.097864  1
  Pb  Pb24  1  0.566950  0.294502  0.975619  1
  Pb  Pb25  1  0.636823  0.195732  0.609420  1
  Pb  Pb26  1  0.054284  0.393699  0.552615  1
  Pb  Pb27  1  0.147985  0.774463  0.481622  1
  Pb  Pb28  1  0.726659  0.410638  0.168158  1
  Pb  Pb29  1  0.637473  0.606904  0.198799  1
  Pb  Pb30  1  0.537950  0.888247  0.553252  1
  Pb  Pb31  1  0.152265  0.250670  0.642991  1
  Pb  Pb32  1  0.088484  0.782282  0.011387  1
  Pb  Pb33  1  0.306711  0.890394  0.674194  1
  Pb  Pb34  1  0.552547  0.794233  0.706840  1
  Pb  Pb35  1  0.719081  0.502119  0.010777  1
  Pb  Pb36  1  0.235441  0.577697  0.450904  1
  Pb  Pb37  1  0.238278  0.988381  0.042919  1
  Pb  Pb38  1  0.982648  0.095221  0.048448  1
  Pb  Pb39  1  0.491850  0.451489  0.274268  1
  Pb  Pb40  1  0.694675  0.083422  0.427154  1
  Pb  Pb41  1  0.870047  0.002907  0.209272  1
  Pb  Pb42  1  0.300493  0.511390  0.138870  1
  Pb  Pb43  1  0.966345  0.905608  0.902148  1
  Pb  Pb44  1  0.891403  0.087883  0.602679  1
  Pb  Pb45  1  0.787022  0.400929  0.640181  1
  Pb  Pb46  1  0.178844  0.099377  0.224546  1
  Pb  Pb47  1  0.910877  0.277944  0.748661  1
  Pb  Pb48  1  0.383517  0.733038  0.376172  1
  Pb  Pb49  1  0.573779  0.673721  0.512419  1
  Pb  Pb50  1  0.113886  0.892087  0.212865  1
  Pb  Pb51  1  0.319835  0.389735  0.944364  1
