# generated using pymatgen
data_EuDyCuS3
_symmetry_space_group_name_H-M   'P 1'
_cell_length_a   3.90390094
_cell_length_b   10.22807065
_cell_length_c   12.80250241
_cell_angle_alpha   90.00000000
_cell_angle_beta   90.00000000
_cell_angle_gamma   90.00000000
_symmetry_Int_Tables_number   1
_chemical_formula_structural   EuDyCuS3
_chemical_formula_sum   'Eu4 Dy4 Cu4 S12'
_cell_volume   511.19591487
_cell_formula_units_Z   4
loop_
 _symmetry_equiv_pos_site_id
 _symmetry_equiv_pos_as_xyz
  1  'x, y, z'
loop_
 _atom_site_type_symbol
 _atom_site_label
 _atom_site_symmetry_multiplicity
 _atom_site_fract_x
 _atom_site_fract_y
 _atom_site_fract_z
 _atom_site_occupancy
  Eu  Eu0  1  0.750000  0.727235  0.000428  1
  Eu  Eu1  1  0.250000  0.272765  0.999572  1
  Eu  Eu2  1  0.750000  0.227235  0.499572  1
  Eu  Eu3  1  0.250000  0.772765  0.500428  1
  Dy  Dy4  1  0.750000  0.485670  0.742892  1
  Dy  Dy5  1  0.250000  0.514330  0.257108  1
  Dy  Dy6  1  0.750000  0.985670  0.757108  1
  Dy  Dy7  1  0.250000  0.014330  0.242892  1
  Cu  Cu8  1  0.750000  0.262936  0.223469  1
  Cu  Cu9  1  0.250000  0.737064  0.776531  1
  Cu  Cu10  1  0.750000  0.762936  0.276531  1
  Cu  Cu11  1  0.250000  0.237064  0.723469  1
  S  S12  1  0.750000  0.445863  0.114511  1
  S  S13  1  0.250000  0.554137  0.885489  1
  S  S14  1  0.750000  0.945863  0.385489  1
  S  S15  1  0.250000  0.054137  0.614511  1
  S  S16  1  0.750000  0.089442  0.106615  1
  S  S17  1  0.250000  0.910558  0.893385  1
  S  S18  1  0.750000  0.589442  0.393385  1
  S  S19  1  0.250000  0.410558  0.606615  1
  S  S20  1  0.750000  0.239387  0.829324  1
  S  S21  1  0.250000  0.760613  0.170676  1
  S  S22  1  0.750000  0.739387  0.670676  1
  S  S23  1  0.250000  0.260613  0.329324  1
