# generated using pymatgen
data_Ce3CI5
_symmetry_space_group_name_H-M   'P 1'
_cell_length_a   7.89027989
_cell_length_b   9.73304388
_cell_length_c   9.77796298
_cell_angle_alpha   107.54797774
_cell_angle_beta   96.54710440
_cell_angle_gamma   104.65224865
_symmetry_Int_Tables_number   1
_chemical_formula_structural   Ce3CI5
_chemical_formula_sum   'Ce6 C2 I10'
_cell_volume   677.78697189
_cell_formula_units_Z   2
loop_
 _symmetry_equiv_pos_site_id
 _symmetry_equiv_pos_as_xyz
  1  'x, y, z'
loop_
 _atom_site_type_symbol
 _atom_site_label
 _atom_site_symmetry_multiplicity
 _atom_site_fract_x
 _atom_site_fract_y
 _atom_site_fract_z
 _atom_site_occupancy
  Ce  Ce0  1  0.108262  0.040143  0.778343  1
  Ce  Ce1  1  0.381795  0.133365  0.179739  1
  Ce  Ce2  1  0.891738  0.959857  0.221657  1
  Ce  Ce3  1  0.032985  0.737298  0.924572  1
  Ce  Ce4  1  0.967015  0.262702  0.075428  1
  Ce  Ce5  1  0.618205  0.866635  0.820261  1
  C  C6  1  0.910801  0.969083  0.958174  1
  C  C7  1  0.089199  0.030917  0.041826  1
  I  I8  1  0.189023  0.727419  0.635666  1
  I  I9  1  0.089357  0.374891  0.818033  1
  I  I10  1  0.454555  0.806287  0.094359  1
  I  I11  1  0.257818  0.086139  0.465044  1
  I  I12  1  0.545445  0.193713  0.905641  1
  I  I13  1  0.810977  0.272581  0.364334  1
  I  I14  1  0.349908  0.458645  0.274256  1
  I  I15  1  0.910643  0.625109  0.181967  1
  I  I16  1  0.650092  0.541355  0.725744  1
  I  I17  1  0.742182  0.913861  0.534956  1
