# generated using pymatgen
data_Mg15Si2Ir5
_symmetry_space_group_name_H-M   'P 1'
_cell_length_a   13.77835530
_cell_length_b   13.77835530
_cell_length_c   8.80872521
_cell_angle_alpha   90.00000000
_cell_angle_beta   90.00000000
_cell_angle_gamma   90.00000000
_symmetry_Int_Tables_number   1
_chemical_formula_structural   Mg15Si2Ir5
_chemical_formula_sum   'Mg60 Si8 Ir20'
_cell_volume   1672.27547870
_cell_formula_units_Z   4
loop_
 _symmetry_equiv_pos_site_id
 _symmetry_equiv_pos_as_xyz
  1  'x, y, z'
loop_
 _atom_site_type_symbol
 _atom_site_label
 _atom_site_symmetry_multiplicity
 _atom_site_fract_x
 _atom_site_fract_y
 _atom_site_fract_z
 _atom_site_occupancy
  Mg  Mg0  1  0.733393  0.244020  0.408077  1
  Mg  Mg1  1  0.439068  0.368908  0.724336  1
  Mg  Mg2  1  0.628504  0.413417  0.934884  1
  Mg  Mg3  1  0.160458  0.944045  0.893901  1
  Mg  Mg4  1  0.266607  0.755980  0.408077  1
  Mg  Mg5  1  0.055955  0.160458  0.106099  1
  Mg  Mg6  1  0.946988  0.297003  0.611054  1
  Mg  Mg7  1  0.202997  0.446988  0.111054  1
  Mg  Mg8  1  0.446988  0.797003  0.888946  1
  Mg  Mg9  1  0.368908  0.560932  0.275664  1
  Mg  Mg10  1  0.233393  0.744020  0.091923  1
  Mg  Mg11  1  0.939068  0.868908  0.775664  1
  Mg  Mg12  1  0.766607  0.255980  0.091923  1
  Mg  Mg13  1  0.702997  0.946988  0.388946  1
  Mg  Mg14  1  0.368224  0.927482  0.134623  1
  Mg  Mg15  1  0.060932  0.131092  0.775664  1
  Mg  Mg16  1  0.444045  0.339542  0.393901  1
  Mg  Mg17  1  0.927942  0.631141  0.361683  1
  Mg  Mg18  1  0.553012  0.202997  0.888946  1
  Mg  Mg19  1  0.755980  0.733393  0.591923  1
  Mg  Mg20  1  0.660458  0.444045  0.606099  1
  Mg  Mg21  1  0.744020  0.766607  0.908077  1
  Mg  Mg22  1  0.086583  0.128504  0.434884  1
  Mg  Mg23  1  0.250000  0.250000  0.250000  1
  Mg  Mg24  1  0.868908  0.060932  0.224336  1
  Mg  Mg25  1  0.631092  0.439068  0.275664  1
  Mg  Mg26  1  0.944045  0.839542  0.106099  1
  Mg  Mg27  1  0.871496  0.086583  0.565116  1
  Mg  Mg28  1  0.131141  0.572058  0.861683  1
  Mg  Mg29  1  0.631776  0.072518  0.134623  1
  Mg  Mg30  1  0.053012  0.702997  0.611054  1
  Mg  Mg31  1  0.072058  0.368859  0.361683  1
  Mg  Mg32  1  0.128504  0.913417  0.565116  1
  Mg  Mg33  1  0.560932  0.631092  0.724336  1
  Mg  Mg34  1  0.072518  0.368224  0.865377  1
  Mg  Mg35  1  0.839542  0.055955  0.893901  1
  Mg  Mg36  1  0.371496  0.586583  0.934884  1
  Mg  Mg37  1  0.131776  0.572518  0.365377  1
  Mg  Mg38  1  0.750000  0.250000  0.750000  1
  Mg  Mg39  1  0.250000  0.750000  0.750000  1
  Mg  Mg40  1  0.572058  0.868859  0.138317  1
  Mg  Mg41  1  0.339542  0.555955  0.606099  1
  Mg  Mg42  1  0.255980  0.233393  0.908077  1
  Mg  Mg43  1  0.297003  0.053012  0.388946  1
  Mg  Mg44  1  0.631141  0.072058  0.638317  1
  Mg  Mg45  1  0.413417  0.371496  0.065116  1
  Mg  Mg46  1  0.927482  0.631776  0.865377  1
  Mg  Mg47  1  0.868859  0.427942  0.861683  1
  Mg  Mg48  1  0.368859  0.927942  0.638317  1
  Mg  Mg49  1  0.244020  0.266607  0.591923  1
  Mg  Mg50  1  0.427942  0.131141  0.138317  1
  Mg  Mg51  1  0.913417  0.871496  0.434884  1
  Mg  Mg52  1  0.131092  0.939068  0.224336  1
  Mg  Mg53  1  0.750000  0.750000  0.250000  1
  Mg  Mg54  1  0.555955  0.660458  0.393901  1
  Mg  Mg55  1  0.797003  0.553012  0.111054  1
  Mg  Mg56  1  0.427482  0.131776  0.634623  1
  Mg  Mg57  1  0.586583  0.628504  0.065116  1
  Mg  Mg58  1  0.868224  0.427482  0.365377  1
  Mg  Mg59  1  0.572518  0.868224  0.634623  1
  Si  Si60  1  0.952123  0.334178  0.115091  1
  Si  Si61  1  0.665822  0.952123  0.884909  1
  Si  Si62  1  0.834178  0.547877  0.615091  1
  Si  Si63  1  0.547877  0.165822  0.384909  1
  Si  Si64  1  0.047877  0.665822  0.115091  1
  Si  Si65  1  0.452123  0.834178  0.384909  1
  Si  Si66  1  0.165822  0.452123  0.615091  1
  Si  Si67  1  0.334178  0.047877  0.884909  1
  Ir  Ir68  1  0.764580  0.920091  0.098536  1
  Ir  Ir69  1  0.575752  0.268050  0.174535  1
  Ir  Ir70  1  0.075752  0.768050  0.325465  1
  Ir  Ir71  1  0.000000  0.500000  0.113518  1
  Ir  Ir72  1  0.768050  0.924248  0.674535  1
  Ir  Ir73  1  0.500000  0.000000  0.386482  1
  Ir  Ir74  1  0.231950  0.075752  0.674535  1
  Ir  Ir75  1  0.424248  0.731950  0.174535  1
  Ir  Ir76  1  0.264580  0.420091  0.401464  1
  Ir  Ir77  1  0.268050  0.424248  0.825465  1
  Ir  Ir78  1  0.924248  0.231950  0.325465  1
  Ir  Ir79  1  0.920091  0.235420  0.901464  1
  Ir  Ir80  1  0.731950  0.575752  0.825465  1
  Ir  Ir81  1  0.579909  0.264580  0.598536  1
  Ir  Ir82  1  0.235420  0.079909  0.098536  1
  Ir  Ir83  1  0.500000  0.000000  0.886482  1
  Ir  Ir84  1  0.735420  0.579909  0.401464  1
  Ir  Ir85  1  0.079909  0.764580  0.901464  1
  Ir  Ir86  1  0.420091  0.735420  0.598536  1
  Ir  Ir87  1  0.000000  0.500000  0.613518  1
