# generated using pymatgen
data_Sr3(B3Rh4)2
_symmetry_space_group_name_H-M   'P 1'
_cell_length_a   9.96744392
_cell_length_b   9.05473558
_cell_length_c   5.75956402
_cell_angle_alpha   81.28112174
_cell_angle_beta   63.88771413
_cell_angle_gamma   34.83116413
_symmetry_Int_Tables_number   1
_chemical_formula_structural   Sr3(B3Rh4)2
_chemical_formula_sum   'Sr3 B6 Rh8'
_cell_volume   243.29304456
_cell_formula_units_Z   1
loop_
 _symmetry_equiv_pos_site_id
 _symmetry_equiv_pos_as_xyz
  1  'x, y, z'
loop_
 _atom_site_type_symbol
 _atom_site_label
 _atom_site_symmetry_multiplicity
 _atom_site_fract_x
 _atom_site_fract_y
 _atom_site_fract_z
 _atom_site_occupancy
  Sr  Sr0  1  0.316568  0.316568  0.683432  1
  Sr  Sr1  1  0.500000  0.500000  0.500000  1
  Sr  Sr2  1  0.683432  0.683432  0.316568  1
  B  B3  1  0.995526  0.666070  0.333930  1
  B  B4  1  0.004474  0.333930  0.666070  1
  B  B5  1  0.164552  0.835448  0.164552  1
  B  B6  1  0.666070  0.995526  0.004474  1
  B  B7  1  0.333930  0.004474  0.995526  1
  B  B8  1  0.835448  0.164552  0.835448  1
  Rh  Rh9  1  0.915710  0.915710  0.584290  1
  Rh  Rh10  1  0.913115  0.913115  0.086885  1
  Rh  Rh11  1  0.415710  0.415710  0.084290  1
  Rh  Rh12  1  0.250000  0.250000  0.250000  1
  Rh  Rh13  1  0.584290  0.584290  0.915710  1
  Rh  Rh14  1  0.084290  0.084290  0.415710  1
  Rh  Rh15  1  0.750000  0.750000  0.750000  1
  Rh  Rh16  1  0.086885  0.086885  0.913115  1
