# generated using pymatgen
data_K3AgC4(SN)4
_symmetry_space_group_name_H-M   'P 1'
_cell_length_a   8.10238715
_cell_length_b   12.91951133
_cell_length_c   14.73135272
_cell_angle_alpha   90.00000000
_cell_angle_beta   104.49069642
_cell_angle_gamma   90.00000000
_symmetry_Int_Tables_number   1
_chemical_formula_structural   K3AgC4(SN)4
_chemical_formula_sum   'K12 Ag4 C16 S16 N16'
_cell_volume   1493.00591674
_cell_formula_units_Z   4
loop_
 _symmetry_equiv_pos_site_id
 _symmetry_equiv_pos_as_xyz
  1  'x, y, z'
loop_
 _atom_site_type_symbol
 _atom_site_label
 _atom_site_symmetry_multiplicity
 _atom_site_fract_x
 _atom_site_fract_y
 _atom_site_fract_z
 _atom_site_occupancy
  K  K0  1  0.535612  0.747070  0.024292  1
  K  K1  1  0.464388  0.252930  0.975708  1
  K  K2  1  0.341960  0.990880  0.698176  1
  K  K3  1  0.089911  0.742521  0.519681  1
  K  K4  1  0.035612  0.752930  0.024292  1
  K  K5  1  0.964388  0.247070  0.975708  1
  K  K6  1  0.589911  0.757479  0.519681  1
  K  K7  1  0.841960  0.509120  0.698176  1
  K  K8  1  0.658040  0.009120  0.301824  1
  K  K9  1  0.158040  0.490880  0.301824  1
  K  K10  1  0.910089  0.257479  0.480319  1
  K  K11  1  0.410089  0.242521  0.480319  1
  Ag  Ag12  1  0.365334  0.487157  0.776746  1
  Ag  Ag13  1  0.134666  0.987157  0.223254  1
  Ag  Ag14  1  0.865334  0.012843  0.776746  1
  Ag  Ag15  1  0.634666  0.512843  0.223254  1
  C  C16  1  0.786599  0.274095  0.225285  1
  C  C17  1  0.213401  0.725905  0.774715  1
  C  C18  1  0.801349  0.745884  0.309998  1
  C  C19  1  0.198651  0.254116  0.690002  1
  C  C20  1  0.232669  0.966950  0.941152  1
  C  C21  1  0.698651  0.245884  0.690002  1
  C  C22  1  0.767331  0.033050  0.058848  1
  C  C23  1  0.732669  0.533050  0.941152  1
  C  C24  1  0.713401  0.774095  0.774715  1
  C  C25  1  0.286599  0.225905  0.225285  1
  C  C26  1  0.740443  0.527802  0.459635  1
  C  C27  1  0.759557  0.027802  0.540365  1
  C  C28  1  0.267331  0.466950  0.058848  1
  C  C29  1  0.240443  0.972198  0.459635  1
  C  C30  1  0.259557  0.472198  0.540365  1
  C  C31  1  0.301349  0.754116  0.309998  1
  S  S32  1  0.379987  0.554117  0.613197  1
  S  S33  1  0.217210  0.632268  0.851420  1
  S  S34  1  0.827760  0.932022  0.127360  1
  S  S35  1  0.672173  0.172783  0.776802  1
  S  S36  1  0.672240  0.432022  0.872640  1
  S  S37  1  0.879987  0.945883  0.613197  1
  S  S38  1  0.172240  0.067978  0.872640  1
  S  S39  1  0.327760  0.567978  0.127360  1
  S  S40  1  0.827827  0.672783  0.223198  1
  S  S41  1  0.172173  0.327217  0.776802  1
  S  S42  1  0.717210  0.867732  0.851420  1
  S  S43  1  0.620013  0.445883  0.386803  1
  S  S44  1  0.282790  0.132268  0.148580  1
  S  S45  1  0.120013  0.054117  0.386803  1
  S  S46  1  0.782790  0.367732  0.148580  1
  S  S47  1  0.327827  0.827217  0.223198  1
  N  N48  1  0.716468  0.300169  0.628130  1
  N  N49  1  0.721863  0.105274  0.009495  1
  N  N50  1  0.710301  0.707393  0.719225  1
  N  N51  1  0.826563  0.586038  0.513835  1
  N  N52  1  0.283532  0.699831  0.371870  1
  N  N53  1  0.673437  0.086038  0.486165  1
  N  N54  1  0.216468  0.199831  0.628130  1
  N  N55  1  0.278137  0.894726  0.990505  1
  N  N56  1  0.173437  0.413962  0.486165  1
  N  N57  1  0.789699  0.207393  0.280775  1
  N  N58  1  0.221863  0.394726  0.009495  1
  N  N59  1  0.778137  0.605274  0.990505  1
  N  N60  1  0.783532  0.800169  0.371870  1
  N  N61  1  0.210301  0.792607  0.719225  1
  N  N62  1  0.289699  0.292607  0.280775  1
  N  N63  1  0.326563  0.913962  0.513835  1
