# generated using pymatgen
data_Na2Si2O5
_symmetry_space_group_name_H-M   'P 1'
_cell_length_a   9.47136414
_cell_length_b   9.47136414
_cell_length_c   9.47136414
_cell_angle_alpha   98.25251896
_cell_angle_beta   98.25251896
_cell_angle_gamma   135.47362617
_symmetry_Int_Tables_number   1
_chemical_formula_structural   Na2Si2O5
_chemical_formula_sum   'Na8 Si8 O20'
_cell_volume   551.38793922
_cell_formula_units_Z   4
loop_
 _symmetry_equiv_pos_site_id
 _symmetry_equiv_pos_as_xyz
  1  'x, y, z'
loop_
 _atom_site_type_symbol
 _atom_site_label
 _atom_site_symmetry_multiplicity
 _atom_site_fract_x
 _atom_site_fract_y
 _atom_site_fract_z
 _atom_site_occupancy
  Na  Na0  1  0.468622  0.256852  0.051753  1
  Na  Na1  1  0.666869  0.218622  0.711770  1
  Na  Na2  1  0.583131  0.531378  0.788230  1
  Na  Na3  1  0.781378  0.493148  0.448247  1
  Na  Na4  1  0.205099  0.416869  0.948247  1
  Na  Na5  1  0.044901  0.333131  0.551753  1
  Na  Na6  1  0.506852  0.955099  0.288230  1
  Na  Na7  1  0.743148  0.794901  0.211770  1
  Si  Si8  1  0.075654  0.985718  0.674581  1
  Si  Si9  1  0.651073  0.825654  0.589936  1
  Si  Si10  1  0.235718  0.061137  0.410064  1
  Si  Si11  1  0.311137  0.401073  0.325419  1
  Si  Si12  1  0.014282  0.688863  0.089936  1
  Si  Si13  1  0.598927  0.924346  0.910064  1
  Si  Si14  1  0.938863  0.348927  0.174581  1
  Si  Si15  1  0.174346  0.764282  0.825419  1
  O  O16  1  0.229203  0.232690  0.767871  1
  O  O17  1  0.125000  0.875000  0.750000  1
  O  O18  1  0.785181  0.288667  0.267871  1
  O  O19  1  0.828791  0.181997  0.999038  1
  O  O20  1  0.767310  0.535181  0.996513  1
  O  O21  1  0.067041  0.920247  0.499038  1
  O  O22  1  0.079753  0.578791  0.146793  1
  O  O23  1  0.431997  0.932959  0.853207  1
  O  O24  1  0.482690  0.214819  0.503487  1
  O  O25  1  0.538667  0.770797  0.003487  1
  O  O26  1  0.170247  0.171209  0.353207  1
  O  O27  1  0.125000  0.875000  0.250000  1
  O  O28  1  0.020797  0.517310  0.732129  1
  O  O29  1  0.711333  0.979203  0.496513  1
  O  O30  1  0.182959  0.829753  0.000962  1
  O  O31  1  0.818003  0.817041  0.646793  1
  O  O32  1  0.464819  0.461333  0.232129  1
  O  O33  1  0.421209  0.568003  0.500962  1
  O  O34  1  0.125000  0.375000  0.250000  1
  O  O35  1  0.625000  0.875000  0.750000  1
