# generated using pymatgen
data_Bi2Pt
_symmetry_space_group_name_H-M   'P 1'
_cell_length_a   6.87273363
_cell_length_b   6.92979008
_cell_length_c   13.61900890
_cell_angle_alpha   90.00000000
_cell_angle_beta   90.00000000
_cell_angle_gamma   90.00000000
_symmetry_Int_Tables_number   1
_chemical_formula_structural   Bi2Pt
_chemical_formula_sum   'Bi16 Pt8'
_cell_volume   648.62710741
_cell_formula_units_Z   8
loop_
 _symmetry_equiv_pos_site_id
 _symmetry_equiv_pos_as_xyz
  1  'x, y, z'
loop_
 _atom_site_type_symbol
 _atom_site_label
 _atom_site_symmetry_multiplicity
 _atom_site_fract_x
 _atom_site_fract_y
 _atom_site_fract_z
 _atom_site_occupancy
  Bi  Bi0  1  0.371527  0.538252  0.185856  1
  Bi  Bi1  1  0.639941  0.805854  0.064489  1
  Bi  Bi2  1  0.139941  0.805854  0.435511  1
  Bi  Bi3  1  0.871527  0.961748  0.814144  1
  Bi  Bi4  1  0.360059  0.305854  0.435511  1
  Bi  Bi5  1  0.871527  0.538252  0.314144  1
  Bi  Bi6  1  0.628473  0.461748  0.814144  1
  Bi  Bi7  1  0.628473  0.038252  0.314144  1
  Bi  Bi8  1  0.371527  0.961748  0.685856  1
  Bi  Bi9  1  0.128473  0.038252  0.185856  1
  Bi  Bi10  1  0.860059  0.305854  0.064489  1
  Bi  Bi11  1  0.128473  0.461748  0.685856  1
  Bi  Bi12  1  0.139941  0.694146  0.935511  1
  Bi  Bi13  1  0.860059  0.194146  0.564489  1
  Bi  Bi14  1  0.360059  0.194146  0.935511  1
  Bi  Bi15  1  0.639941  0.694146  0.564489  1
  Pt  Pt16  1  0.502805  0.666143  0.370982  1
  Pt  Pt17  1  0.502805  0.833857  0.870982  1
  Pt  Pt18  1  0.497195  0.333857  0.629018  1
  Pt  Pt19  1  0.002805  0.833857  0.629018  1
  Pt  Pt20  1  0.002805  0.666143  0.129018  1
  Pt  Pt21  1  0.997195  0.333857  0.870982  1
  Pt  Pt22  1  0.497195  0.166143  0.129018  1
  Pt  Pt23  1  0.997195  0.166143  0.370982  1
