# generated using pymatgen
data_MoP(Cl3O)2
_symmetry_space_group_name_H-M   'P 1'
_cell_length_a   6.72719315
_cell_length_b   13.85753056
_cell_length_c   12.83458201
_cell_angle_alpha   90.00000000
_cell_angle_beta   102.26043920
_cell_angle_gamma   90.00000000
_symmetry_Int_Tables_number   1
_chemical_formula_structural   MoP(Cl3O)2
_chemical_formula_sum   'Mo4 P4 Cl24 O8'
_cell_volume   1169.18050849
_cell_formula_units_Z   4
loop_
 _symmetry_equiv_pos_site_id
 _symmetry_equiv_pos_as_xyz
  1  'x, y, z'
loop_
 _atom_site_type_symbol
 _atom_site_label
 _atom_site_symmetry_multiplicity
 _atom_site_fract_x
 _atom_site_fract_y
 _atom_site_fract_z
 _atom_site_occupancy
  Mo  Mo0  1  0.924018  0.131445  0.977339  1
  Mo  Mo1  1  0.075982  0.631445  0.522661  1
  Mo  Mo2  1  0.924018  0.368555  0.477339  1
  Mo  Mo3  1  0.075982  0.868555  0.022661  1
  P  P4  1  0.393588  0.967409  0.275774  1
  P  P5  1  0.393588  0.532591  0.775774  1
  P  P6  1  0.606412  0.467409  0.224226  1
  P  P7  1  0.606412  0.032591  0.724226  1
  Cl  Cl8  1  0.535482  0.093590  0.297385  1
  Cl  Cl9  1  0.464518  0.593590  0.202615  1
  Cl  Cl10  1  0.215439  0.963824  0.381970  1
  Cl  Cl11  1  0.177869  0.014369  0.928619  1
  Cl  Cl12  1  0.215439  0.536176  0.881970  1
  Cl  Cl13  1  0.380861  0.705719  0.508318  1
  Cl  Cl14  1  0.380861  0.794281  0.008318  1
  Cl  Cl15  1  0.019437  0.737693  0.655774  1
  Cl  Cl16  1  0.177869  0.485631  0.428619  1
  Cl  Cl17  1  0.019437  0.762307  0.155774  1
  Cl  Cl18  1  0.822131  0.514369  0.571381  1
  Cl  Cl19  1  0.822131  0.985631  0.071381  1
  Cl  Cl20  1  0.784561  0.463824  0.118030  1
  Cl  Cl21  1  0.784561  0.036176  0.618030  1
  Cl  Cl22  1  0.606948  0.868153  0.323741  1
  Cl  Cl23  1  0.464518  0.906410  0.702615  1
  Cl  Cl24  1  0.393052  0.131847  0.676259  1
  Cl  Cl25  1  0.980563  0.262307  0.344226  1
  Cl  Cl26  1  0.980563  0.237693  0.844226  1
  Cl  Cl27  1  0.619139  0.205719  0.991682  1
  Cl  Cl28  1  0.393052  0.368153  0.176259  1
  Cl  Cl29  1  0.606948  0.631847  0.823741  1
  Cl  Cl30  1  0.619139  0.294281  0.491682  1
  Cl  Cl31  1  0.535482  0.406410  0.797385  1
  O  O32  1  0.279525  0.546713  0.664712  1
  O  O33  1  0.720475  0.046713  0.835288  1
  O  O34  1  0.279525  0.953287  0.164712  1
  O  O35  1  0.086732  0.322840  0.585228  1
  O  O36  1  0.720475  0.453287  0.335288  1
  O  O37  1  0.913268  0.822840  0.914772  1
  O  O38  1  0.086732  0.177160  0.085228  1
  O  O39  1  0.913268  0.677160  0.414772  1
