# generated using pymatgen
data_Sm3Re2O9
_symmetry_space_group_name_H-M   'P 1'
_cell_length_a   5.56107532
_cell_length_b   6.88128722
_cell_length_c   10.94235550
_cell_angle_alpha   76.75367684
_cell_angle_beta   75.48355382
_cell_angle_gamma   68.71730608
_symmetry_Int_Tables_number   1
_chemical_formula_structural   Sm3Re2O9
_chemical_formula_sum   'Sm6 Re4 O18'
_cell_volume   373.26507134
_cell_formula_units_Z   2
loop_
 _symmetry_equiv_pos_site_id
 _symmetry_equiv_pos_as_xyz
  1  'x, y, z'
loop_
 _atom_site_type_symbol
 _atom_site_label
 _atom_site_symmetry_multiplicity
 _atom_site_fract_x
 _atom_site_fract_y
 _atom_site_fract_z
 _atom_site_occupancy
  Sm  Sm0  1  0.013480  0.209895  0.269031  1
  Sm  Sm1  1  0.986520  0.790105  0.730969  1
  Sm  Sm2  1  0.233270  0.152260  0.884270  1
  Sm  Sm3  1  0.766730  0.847740  0.115730  1
  Sm  Sm4  1  0.299961  0.605265  0.369719  1
  Sm  Sm5  1  0.700039  0.394735  0.630281  1
  Re  Re6  1  0.345474  0.126903  0.567749  1
  Re  Re7  1  0.654526  0.873097  0.432251  1
  Re  Re8  1  0.520029  0.386740  0.093291  1
  Re  Re9  1  0.479971  0.613260  0.906709  1
  O  O10  1  0.057609  0.116777  0.721042  1
  O  O11  1  0.942391  0.883223  0.278958  1
  O  O12  1  0.071967  0.207948  0.474351  1
  O  O13  1  0.928033  0.792052  0.525649  1
  O  O14  1  0.186795  0.493135  0.202018  1
  O  O15  1  0.813205  0.506865  0.797982  1
  O  O16  1  0.290193  0.422169  0.576646  1
  O  O17  1  0.709807  0.577831  0.423354  1
  O  O18  1  0.394550  0.167139  0.072763  1
  O  O19  1  0.605450  0.832861  0.927237  1
  O  O20  1  0.586463  0.076650  0.688064  1
  O  O21  1  0.413537  0.923350  0.311936  1
  O  O22  1  0.596253  0.189678  0.401735  1
  O  O23  1  0.403747  0.810322  0.598265  1
  O  O24  1  0.658657  0.527213  0.181213  1
  O  O25  1  0.341343  0.472787  0.818787  1
  O  O26  1  0.872008  0.187638  0.059762  1
  O  O27  1  0.127992  0.812362  0.940238  1
