# generated using pymatgen
data_KMnCl3
_symmetry_space_group_name_H-M   'P 1'
_cell_length_a   3.90359529
_cell_length_b   8.92401770
_cell_length_c   14.61294550
_cell_angle_alpha   90.00000000
_cell_angle_beta   90.00000000
_cell_angle_gamma   90.00000000
_symmetry_Int_Tables_number   1
_chemical_formula_structural   KMnCl3
_chemical_formula_sum   'K4 Mn4 Cl12'
_cell_volume   509.05296679
_cell_formula_units_Z   4
loop_
 _symmetry_equiv_pos_site_id
 _symmetry_equiv_pos_as_xyz
  1  'x, y, z'
loop_
 _atom_site_type_symbol
 _atom_site_label
 _atom_site_symmetry_multiplicity
 _atom_site_fract_x
 _atom_site_fract_y
 _atom_site_fract_z
 _atom_site_occupancy
  K  K0  1  0.750000  0.063461  0.675586  1
  K  K1  1  0.250000  0.436539  0.175586  1
  K  K2  1  0.250000  0.936539  0.324414  1
  K  K3  1  0.750000  0.563461  0.824414  1
  Mn  Mn4  1  0.250000  0.665241  0.556099  1
  Mn  Mn5  1  0.250000  0.165242  0.943901  1
  Mn  Mn6  1  0.750000  0.834759  0.056099  1
  Mn  Mn7  1  0.750000  0.334759  0.443901  1
  Cl  Cl8  1  0.250000  0.020433  0.097565  1
  Cl  Cl9  1  0.250000  0.174442  0.503876  1
  Cl  Cl10  1  0.750000  0.979567  0.902435  1
  Cl  Cl11  1  0.750000  0.222847  0.293078  1
  Cl  Cl12  1  0.250000  0.777153  0.706922  1
  Cl  Cl13  1  0.750000  0.479567  0.597565  1
  Cl  Cl14  1  0.250000  0.520433  0.402435  1
  Cl  Cl15  1  0.750000  0.722847  0.206922  1
  Cl  Cl16  1  0.750000  0.825558  0.496124  1
  Cl  Cl17  1  0.250000  0.277153  0.793078  1
  Cl  Cl18  1  0.750000  0.325558  0.003876  1
  Cl  Cl19  1  0.250000  0.674442  0.996124  1
