# generated using pymatgen
data_Ba3AlF9
_symmetry_space_group_name_H-M   'P 1'
_cell_length_a   5.65912214
_cell_length_b   10.23109246
_cell_length_c   15.07179483
_cell_angle_alpha   90.00000000
_cell_angle_beta   90.00000000
_cell_angle_gamma   90.00000000
_symmetry_Int_Tables_number   1
_chemical_formula_structural   Ba3AlF9
_chemical_formula_sum   'Ba12 Al4 F36'
_cell_volume   872.64187685
_cell_formula_units_Z   4
loop_
 _symmetry_equiv_pos_site_id
 _symmetry_equiv_pos_as_xyz
  1  'x, y, z'
loop_
 _atom_site_type_symbol
 _atom_site_label
 _atom_site_symmetry_multiplicity
 _atom_site_fract_x
 _atom_site_fract_y
 _atom_site_fract_z
 _atom_site_occupancy
  Ba  Ba0  1  0.250000  0.830136  0.040847  1
  Ba  Ba1  1  0.750000  0.265157  0.680367  1
  Ba  Ba2  1  0.750000  0.169864  0.959153  1
  Ba  Ba3  1  0.250000  0.446942  0.899285  1
  Ba  Ba4  1  0.250000  0.946942  0.600715  1
  Ba  Ba5  1  0.750000  0.765157  0.819633  1
  Ba  Ba6  1  0.250000  0.734843  0.319633  1
  Ba  Ba7  1  0.250000  0.234843  0.180367  1
  Ba  Ba8  1  0.750000  0.669864  0.540847  1
  Ba  Ba9  1  0.250000  0.330136  0.459153  1
  Ba  Ba10  1  0.750000  0.553058  0.100715  1
  Ba  Ba11  1  0.750000  0.053058  0.399285  1
  Al  Al12  1  0.250000  0.523903  0.668846  1
  Al  Al13  1  0.250000  0.023903  0.831154  1
  Al  Al14  1  0.750000  0.976097  0.168846  1
  Al  Al15  1  0.750000  0.476097  0.331154  1
  F  F16  1  0.481050  0.955495  0.905967  1
  F  F17  1  0.518950  0.044505  0.094033  1
  F  F18  1  0.021150  0.084862  0.758674  1
  F  F19  1  0.250000  0.172595  0.899414  1
  F  F20  1  0.750000  0.827405  0.100586  1
  F  F21  1  0.496989  0.851299  0.456199  1
  F  F22  1  0.250000  0.143224  0.347676  1
  F  F23  1  0.018950  0.955495  0.905967  1
  F  F24  1  0.996989  0.648701  0.956199  1
  F  F25  1  0.750000  0.356776  0.847676  1
  F  F26  1  0.496989  0.351299  0.043801  1
  F  F27  1  0.750000  0.856776  0.652324  1
  F  F28  1  0.978850  0.915138  0.241326  1
  F  F29  1  0.021150  0.584862  0.741326  1
  F  F30  1  0.521150  0.415138  0.258674  1
  F  F31  1  0.978850  0.415138  0.258674  1
  F  F32  1  0.481050  0.455495  0.594033  1
  F  F33  1  0.518950  0.544505  0.405967  1
  F  F34  1  0.003011  0.351299  0.043801  1
  F  F35  1  0.250000  0.643224  0.152324  1
  F  F36  1  0.003011  0.851299  0.456199  1
  F  F37  1  0.750000  0.633428  0.273475  1
  F  F38  1  0.750000  0.327405  0.399414  1
  F  F39  1  0.250000  0.866572  0.773475  1
  F  F40  1  0.478850  0.084862  0.758674  1
  F  F41  1  0.981050  0.044505  0.094033  1
  F  F42  1  0.981050  0.544505  0.405967  1
  F  F43  1  0.250000  0.366572  0.726525  1
  F  F44  1  0.503011  0.148701  0.543801  1
  F  F45  1  0.503011  0.648701  0.956199  1
  F  F46  1  0.478850  0.584862  0.741326  1
  F  F47  1  0.250000  0.672595  0.600586  1
  F  F48  1  0.018950  0.455495  0.594033  1
  F  F49  1  0.996989  0.148701  0.543801  1
  F  F50  1  0.521150  0.915138  0.241326  1
  F  F51  1  0.750000  0.133428  0.226525  1
