# generated using pymatgen
data_Ag2CO3
_symmetry_space_group_name_H-M   'P 1'
_cell_length_a   9.38178540
_cell_length_b   9.38178540
_cell_length_c   6.54250273
_cell_angle_alpha   90.00000000
_cell_angle_beta   90.00000000
_cell_angle_gamma   120.00000000
_symmetry_Int_Tables_number   1
_chemical_formula_structural   Ag2CO3
_chemical_formula_sum   'Ag12 C6 O18'
_cell_volume   498.70707932
_cell_formula_units_Z   6
loop_
 _symmetry_equiv_pos_site_id
 _symmetry_equiv_pos_as_xyz
  1  'x, y, z'
loop_
 _atom_site_type_symbol
 _atom_site_label
 _atom_site_symmetry_multiplicity
 _atom_site_fract_x
 _atom_site_fract_y
 _atom_site_fract_z
 _atom_site_occupancy
  Ag  Ag0  1  0.025048  0.677680  0.498336  1
  Ag  Ag1  1  0.974952  0.652632  0.998336  1
  Ag  Ag2  1  0.322320  0.347368  0.498336  1
  Ag  Ag3  1  0.308823  0.972800  0.278403  1
  Ag  Ag4  1  0.027200  0.336023  0.278403  1
  Ag  Ag5  1  0.663977  0.691177  0.278403  1
  Ag  Ag6  1  0.691177  0.663977  0.778403  1
  Ag  Ag7  1  0.652632  0.974952  0.498336  1
  Ag  Ag8  1  0.972800  0.308823  0.778403  1
  Ag  Ag9  1  0.336023  0.027200  0.778403  1
  Ag  Ag10  1  0.347368  0.322320  0.998336  1
  Ag  Ag11  1  0.677680  0.025048  0.998336  1
  C  C12  1  0.000000  0.000000  0.883747  1
  C  C13  1  0.333333  0.666667  0.719974  1
  C  C14  1  0.666667  0.333333  0.219974  1
  C  C15  1  0.000000  0.000000  0.383747  1
  C  C16  1  0.666667  0.333333  0.713571  1
  C  C17  1  0.333333  0.666667  0.213571  1
  O  O18  1  0.920049  0.840251  0.383578  1
  O  O19  1  0.423994  0.826189  0.214104  1
  O  O20  1  0.402195  0.576006  0.214104  1
  O  O21  1  0.730370  0.237679  0.222181  1
  O  O22  1  0.576006  0.402195  0.714104  1
  O  O23  1  0.840251  0.920049  0.883578  1
  O  O24  1  0.762321  0.492691  0.222181  1
  O  O25  1  0.920202  0.079951  0.383578  1
  O  O26  1  0.079798  0.159749  0.883578  1
  O  O27  1  0.597805  0.173811  0.714104  1
  O  O28  1  0.173811  0.597805  0.214104  1
  O  O29  1  0.826189  0.423994  0.714104  1
  O  O30  1  0.079951  0.920202  0.883578  1
  O  O31  1  0.507309  0.269630  0.222181  1
  O  O32  1  0.269630  0.507309  0.722181  1
  O  O33  1  0.159749  0.079798  0.383578  1
  O  O34  1  0.237679  0.730370  0.722181  1
  O  O35  1  0.492691  0.762321  0.722181  1
