# generated using pymatgen
data_Ba2YbB2ClO6
_symmetry_space_group_name_H-M   'P 1'
_cell_length_a   6.53145645
_cell_length_b   5.44103917
_cell_length_c   11.44260363
_cell_angle_alpha   90.00000000
_cell_angle_beta   94.95434878
_cell_angle_gamma   90.00000000
_symmetry_Int_Tables_number   1
_chemical_formula_structural   Ba2YbB2ClO6
_chemical_formula_sum   'Ba4 Yb2 B4 Cl2 O12'
_cell_volume   405.12692080
_cell_formula_units_Z   2
loop_
 _symmetry_equiv_pos_site_id
 _symmetry_equiv_pos_as_xyz
  1  'x, y, z'
loop_
 _atom_site_type_symbol
 _atom_site_label
 _atom_site_symmetry_multiplicity
 _atom_site_fract_x
 _atom_site_fract_y
 _atom_site_fract_z
 _atom_site_occupancy
  Ba  Ba0  1  0.092977  0.750000  0.702355  1
  Ba  Ba1  1  0.333677  0.750000  0.075859  1
  Ba  Ba2  1  0.666323  0.250000  0.924141  1
  Ba  Ba3  1  0.907023  0.250000  0.297645  1
  Yb  Yb4  1  0.650646  0.250000  0.585850  1
  Yb  Yb5  1  0.349354  0.750000  0.414150  1
  B  B6  1  0.624186  0.750000  0.774964  1
  B  B7  1  0.787579  0.750000  0.427977  1
  B  B8  1  0.375814  0.250000  0.225036  1
  B  B9  1  0.212421  0.250000  0.572023  1
  Cl  Cl10  1  0.155351  0.250000  0.917535  1
  Cl  Cl11  1  0.844649  0.750000  0.082465  1
  O  O12  1  0.291255  0.468417  0.259286  1
  O  O13  1  0.317659  0.032149  0.565151  1
  O  O14  1  0.530619  0.250000  0.148955  1
  O  O15  1  0.291255  0.031583  0.259286  1
  O  O16  1  0.682341  0.967851  0.434849  1
  O  O17  1  0.469381  0.750000  0.851045  1
  O  O18  1  0.708745  0.531583  0.740714  1
  O  O19  1  0.991662  0.750000  0.408491  1
  O  O20  1  0.682341  0.532149  0.434849  1
  O  O21  1  0.317659  0.467851  0.565151  1
  O  O22  1  0.708745  0.968417  0.740714  1
  O  O23  1  0.008338  0.250000  0.591509  1
