# generated using pymatgen
data_SrLi2Nb2O7
_symmetry_space_group_name_H-M   'P 1'
_cell_length_a   9.63667972
_cell_length_b   9.63667972
_cell_length_c   9.63667972
_cell_angle_alpha   155.96437827
_cell_angle_beta   155.96437827
_cell_angle_gamma   34.25050257
_symmetry_Int_Tables_number   1
_chemical_formula_structural   SrLi2Nb2O7
_chemical_formula_sum   'Sr1 Li2 Nb2 O7'
_cell_volume   148.31132959
_cell_formula_units_Z   1
loop_
 _symmetry_equiv_pos_site_id
 _symmetry_equiv_pos_as_xyz
  1  'x, y, z'
loop_
 _atom_site_type_symbol
 _atom_site_label
 _atom_site_symmetry_multiplicity
 _atom_site_fract_x
 _atom_site_fract_y
 _atom_site_fract_z
 _atom_site_occupancy
  Sr  Sr0  1  0.000000  0.000000  0.000000  1
  Li  Li1  1  0.750000  0.250000  0.500000  1
  Li  Li2  1  0.250000  0.750000  0.500000  1
  Nb  Nb3  1  0.384435  0.384435  0.000000  1
  Nb  Nb4  1  0.615565  0.615565  0.000000  1
  O  O5  1  0.605395  0.105395  0.500000  1
  O  O6  1  0.105395  0.605395  0.500000  1
  O  O7  1  0.718769  0.718769  0.000000  1
  O  O8  1  0.894605  0.394605  0.500000  1
  O  O9  1  0.281231  0.281231  0.000000  1
  O  O10  1  0.500000  0.500000  0.000000  1
  O  O11  1  0.394605  0.894605  0.500000  1
