# generated using pymatgen
data_Ca7NbSi4O17F
_symmetry_space_group_name_H-M   'P 1'
_cell_length_a   7.45251996
_cell_length_b   10.55758106
_cell_length_c   10.96928528
_cell_angle_alpha   90.00000000
_cell_angle_beta   109.47077342
_cell_angle_gamma   90.00000000
_symmetry_Int_Tables_number   1
_chemical_formula_structural   Ca7NbSi4O17F
_chemical_formula_sum   'Ca14 Nb2 Si8 O34 F2'
_cell_volume   813.71222541
_cell_formula_units_Z   2
loop_
 _symmetry_equiv_pos_site_id
 _symmetry_equiv_pos_as_xyz
  1  'x, y, z'
loop_
 _atom_site_type_symbol
 _atom_site_label
 _atom_site_symmetry_multiplicity
 _atom_site_fract_x
 _atom_site_fract_y
 _atom_site_fract_z
 _atom_site_occupancy
  Ca  Ca0  1  0.519152  0.649453  0.068525  1
  Ca  Ca1  1  0.519152  0.350547  0.568525  1
  Ca  Ca2  1  0.025684  0.665338  0.080018  1
  Ca  Ca3  1  0.025684  0.334662  0.580018  1
  Ca  Ca4  1  0.315905  0.380900  0.192353  1
  Ca  Ca5  1  0.315905  0.619100  0.692353  1
  Ca  Ca6  1  0.828455  0.373184  0.171600  1
  Ca  Ca7  1  0.828455  0.626816  0.671600  1
  Ca  Ca8  1  0.650097  0.132637  0.341279  1
  Ca  Ca9  1  0.650097  0.867363  0.841279  1
  Ca  Ca10  1  0.449248  0.836673  0.426971  1
  Ca  Ca11  1  0.449248  0.163327  0.926971  1
  Ca  Ca12  1  0.960447  0.846353  0.439802  1
  Ca  Ca13  1  0.960447  0.153647  0.939802  1
  Nb  Nb14  1  0.139197  0.140597  0.317816  1
  Nb  Nb15  1  0.139197  0.859403  0.817816  1
  Si  Si16  1  0.338961  0.069413  0.638049  1
  Si  Si17  1  0.338961  0.930587  0.138049  1
  Si  Si18  1  0.759392  0.054599  0.623763  1
  Si  Si19  1  0.759392  0.945401  0.123763  1
  Si  Si20  1  0.647958  0.555912  0.383377  1
  Si  Si21  1  0.647958  0.444088  0.883377  1
  Si  Si22  1  0.210711  0.559762  0.393143  1
  Si  Si23  1  0.210711  0.440238  0.893143  1
  O  O24  1  0.214795  0.012507  0.495208  1
  O  O25  1  0.214795  0.987493  0.995208  1
  O  O26  1  0.731200  0.970846  0.492596  1
  O  O27  1  0.731200  0.029154  0.992596  1
  O  O28  1  0.310710  0.999330  0.764536  1
  O  O29  1  0.310710  0.000670  0.264536  1
  O  O30  1  0.926674  0.008262  0.755680  1
  O  O31  1  0.926674  0.991738  0.255680  1
  O  O32  1  0.323620  0.220985  0.654464  1
  O  O33  1  0.323620  0.779015  0.154464  1
  O  O34  1  0.770668  0.202966  0.588425  1
  O  O35  1  0.770668  0.797034  0.088425  1
  O  O36  1  0.631724  0.505206  0.239735  1
  O  O37  1  0.631724  0.494794  0.739735  1
  O  O38  1  0.075959  0.508012  0.252887  1
  O  O39  1  0.075959  0.491988  0.752887  1
  O  O40  1  0.769712  0.468588  0.505021  1
  O  O41  1  0.769712  0.531412  0.005021  1
  O  O42  1  0.218222  0.478653  0.521656  1
  O  O43  1  0.218222  0.521347  0.021656  1
  O  O44  1  0.701078  0.704764  0.416671  1
  O  O45  1  0.701078  0.295236  0.916671  1
  O  O46  1  0.190692  0.710588  0.417206  1
  O  O47  1  0.190692  0.289412  0.917206  1
  O  O48  1  0.956253  0.232372  0.370504  1
  O  O49  1  0.956253  0.767628  0.870504  1
  O  O50  1  0.373424  0.235081  0.376575  1
  O  O51  1  0.373424  0.764919  0.876575  1
  O  O52  1  0.065330  0.221850  0.154265  1
  O  O53  1  0.065330  0.778150  0.654265  1
  O  O54  1  0.566489  0.027251  0.665436  1
  O  O55  1  0.566489  0.972749  0.165436  1
  O  O56  1  0.426022  0.529409  0.383294  1
  O  O57  1  0.426022  0.470591  0.883294  1
  F  F58  1  0.549720  0.248270  0.149544  1
  F  F59  1  0.549720  0.751730  0.649544  1
