# generated using pymatgen
data_PC2N3Cl4
_symmetry_space_group_name_H-M   'P 1'
_cell_length_a   7.60433765
_cell_length_b   7.60433765
_cell_length_c   9.07872539
_cell_angle_alpha   90.00000000
_cell_angle_beta   90.00000000
_cell_angle_gamma   120.23884175
_symmetry_Int_Tables_number   1
_chemical_formula_structural   PC2N3Cl4
_chemical_formula_sum   'P2 C4 N6 Cl8'
_cell_volume   453.55298423
_cell_formula_units_Z   2
loop_
 _symmetry_equiv_pos_site_id
 _symmetry_equiv_pos_as_xyz
  1  'x, y, z'
loop_
 _atom_site_type_symbol
 _atom_site_label
 _atom_site_symmetry_multiplicity
 _atom_site_fract_x
 _atom_site_fract_y
 _atom_site_fract_z
 _atom_site_occupancy
  P  P0  1  0.057859  0.942141  0.250000  1
  P  P1  1  0.942141  0.057859  0.750000  1
  C  C2  1  0.774635  0.225365  0.624522  1
  C  C3  1  0.225365  0.774635  0.124522  1
  C  C4  1  0.225365  0.774635  0.375478  1
  C  C5  1  0.774635  0.225365  0.875478  1
  N  N6  1  0.720914  0.279086  0.750000  1
  N  N7  1  0.873468  0.126532  0.601384  1
  N  N8  1  0.873468  0.126532  0.898616  1
  N  N9  1  0.126532  0.873468  0.398616  1
  N  N10  1  0.279086  0.720914  0.250000  1
  N  N11  1  0.126532  0.873468  0.101384  1
  Cl  Cl12  1  0.699901  0.300099  0.033532  1
  Cl  Cl13  1  0.300099  0.699901  0.533532  1
  Cl  Cl14  1  0.758094  0.827489  0.250000  1
  Cl  Cl15  1  0.300099  0.699901  0.966468  1
  Cl  Cl16  1  0.699901  0.300099  0.466468  1
  Cl  Cl17  1  0.241906  0.172511  0.750000  1
  Cl  Cl18  1  0.172511  0.241906  0.250000  1
  Cl  Cl19  1  0.827489  0.758094  0.750000  1
