# generated using pymatgen
data_La5Ti2AgS5O7
_symmetry_space_group_name_H-M   'P 1'
_cell_length_a   3.98098033
_cell_length_b   18.46502905
_cell_length_c   19.69733073
_cell_angle_alpha   90.00000000
_cell_angle_beta   90.00000000
_cell_angle_gamma   90.00000000
_symmetry_Int_Tables_number   1
_chemical_formula_structural   La5Ti2AgS5O7
_chemical_formula_sum   'La20 Ti8 Ag4 S20 O28'
_cell_volume   1447.92945844
_cell_formula_units_Z   4
loop_
 _symmetry_equiv_pos_site_id
 _symmetry_equiv_pos_as_xyz
  1  'x, y, z'
loop_
 _atom_site_type_symbol
 _atom_site_label
 _atom_site_symmetry_multiplicity
 _atom_site_fract_x
 _atom_site_fract_y
 _atom_site_fract_z
 _atom_site_occupancy
  La  La0  1  0.750000  0.214005  0.190946  1
  La  La1  1  0.250000  0.999187  0.392953  1
  La  La2  1  0.750000  0.028942  0.818428  1
  La  La3  1  0.750000  0.471058  0.318428  1
  La  La4  1  0.750000  0.000813  0.607047  1
  La  La5  1  0.750000  0.285995  0.690946  1
  La  La6  1  0.250000  0.304424  0.041561  1
  La  La7  1  0.250000  0.785995  0.809054  1
  La  La8  1  0.750000  0.499187  0.107047  1
  La  La9  1  0.250000  0.971058  0.181572  1
  La  La10  1  0.750000  0.377039  0.511914  1
  La  La11  1  0.750000  0.122961  0.011914  1
  La  La12  1  0.250000  0.714005  0.309054  1
  La  La13  1  0.250000  0.500813  0.892953  1
  La  La14  1  0.250000  0.877039  0.988086  1
  La  La15  1  0.750000  0.695576  0.958439  1
  La  La16  1  0.250000  0.195576  0.541561  1
  La  La17  1  0.250000  0.528942  0.681572  1
  La  La18  1  0.250000  0.622961  0.488086  1
  La  La19  1  0.750000  0.804424  0.458439  1
  Ti  Ti20  1  0.250000  0.331585  0.378424  1
  Ti  Ti21  1  0.750000  0.668415  0.621576  1
  Ti  Ti22  1  0.750000  0.887647  0.302570  1
  Ti  Ti23  1  0.250000  0.387647  0.197430  1
  Ti  Ti24  1  0.750000  0.612353  0.802570  1
  Ti  Ti25  1  0.250000  0.112353  0.697430  1
  Ti  Ti26  1  0.750000  0.831585  0.121576  1
  Ti  Ti27  1  0.250000  0.168415  0.878424  1
  Ag  Ag28  1  0.250000  0.654038  0.135510  1
  Ag  Ag29  1  0.750000  0.154038  0.364490  1
  Ag  Ag30  1  0.750000  0.345962  0.864490  1
  Ag  Ag31  1  0.250000  0.845962  0.635510  1
  S  S32  1  0.250000  0.542755  0.220276  1
  S  S33  1  0.250000  0.278239  0.816666  1
  S  S34  1  0.750000  0.619858  0.371049  1
  S  S35  1  0.750000  0.721761  0.183334  1
  S  S36  1  0.250000  0.032968  0.932834  1
  S  S37  1  0.250000  0.380142  0.628951  1
  S  S38  1  0.250000  0.119858  0.128951  1
  S  S39  1  0.750000  0.778239  0.683334  1
  S  S40  1  0.750000  0.880142  0.871049  1
  S  S41  1  0.250000  0.589579  0.024426  1
  S  S42  1  0.750000  0.410421  0.975574  1
  S  S43  1  0.750000  0.457245  0.779724  1
  S  S44  1  0.750000  0.089579  0.475574  1
  S  S45  1  0.250000  0.221761  0.316666  1
  S  S46  1  0.250000  0.910421  0.524426  1
  S  S47  1  0.750000  0.967032  0.067166  1
  S  S48  1  0.750000  0.042755  0.279724  1
  S  S49  1  0.250000  0.957245  0.720276  1
  S  S50  1  0.250000  0.467032  0.432834  1
  S  S51  1  0.750000  0.532968  0.567166  1
  O  O52  1  0.750000  0.253400  0.572603  1
  O  O53  1  0.750000  0.707569  0.828176  1
  O  O54  1  0.250000  0.194386  0.970715  1
  O  O55  1  0.750000  0.403247  0.200440  1
  O  O56  1  0.250000  0.903247  0.299560  1
  O  O57  1  0.750000  0.096753  0.700440  1
  O  O58  1  0.750000  0.153507  0.881718  1
  O  O59  1  0.250000  0.596753  0.799560  1
  O  O60  1  0.750000  0.346493  0.381718  1
  O  O61  1  0.250000  0.292431  0.171824  1
  O  O62  1  0.250000  0.395044  0.295463  1
  O  O63  1  0.750000  0.805614  0.029285  1
  O  O64  1  0.250000  0.075666  0.606926  1
  O  O65  1  0.250000  0.424334  0.106926  1
  O  O66  1  0.250000  0.746600  0.427397  1
  O  O67  1  0.250000  0.753400  0.927397  1
  O  O68  1  0.250000  0.104956  0.795463  1
  O  O69  1  0.750000  0.246600  0.072603  1
  O  O70  1  0.250000  0.653507  0.618282  1
  O  O71  1  0.750000  0.694386  0.529285  1
  O  O72  1  0.750000  0.575666  0.893074  1
  O  O73  1  0.750000  0.604956  0.704537  1
  O  O74  1  0.250000  0.207569  0.671824  1
  O  O75  1  0.750000  0.895044  0.204537  1
  O  O76  1  0.250000  0.846493  0.118282  1
  O  O77  1  0.750000  0.792431  0.328176  1
  O  O78  1  0.750000  0.924334  0.393074  1
  O  O79  1  0.250000  0.305614  0.470715  1
