# generated using pymatgen
data_CsNa5(WN3)2
_symmetry_space_group_name_H-M   'P 1'
_cell_length_a   9.48052614
_cell_length_b   10.33819901
_cell_length_c   19.69309566
_cell_angle_alpha   90.00000000
_cell_angle_beta   90.08971055
_cell_angle_gamma   90.00000000
_symmetry_Int_Tables_number   1
_chemical_formula_structural   CsNa5(WN3)2
_chemical_formula_sum   'Cs8 Na40 W16 N48'
_cell_volume   1930.14877768
_cell_formula_units_Z   8
loop_
 _symmetry_equiv_pos_site_id
 _symmetry_equiv_pos_as_xyz
  1  'x, y, z'
loop_
 _atom_site_type_symbol
 _atom_site_label
 _atom_site_symmetry_multiplicity
 _atom_site_fract_x
 _atom_site_fract_y
 _atom_site_fract_z
 _atom_site_occupancy
  Cs  Cs0  1  0.872933  0.239461  0.459098  1
  Cs  Cs1  1  0.383528  0.265558  0.418614  1
  Cs  Cs2  1  0.616472  0.734442  0.581386  1
  Cs  Cs3  1  0.127067  0.739461  0.040902  1
  Cs  Cs4  1  0.127067  0.760539  0.540902  1
  Cs  Cs5  1  0.383528  0.234442  0.918614  1
  Cs  Cs6  1  0.872933  0.260539  0.959098  1
  Cs  Cs7  1  0.616472  0.765558  0.081386  1
  Na  Na8  1  0.624949  0.997127  0.935897  1
  Na  Na9  1  0.620054  0.506312  0.937922  1
  Na  Na10  1  0.875271  0.006641  0.818152  1
  Na  Na11  1  0.889663  0.493431  0.818658  1
  Na  Na12  1  0.627714  0.509530  0.704740  1
  Na  Na13  1  0.873676  0.520216  0.552475  1
  Na  Na14  1  0.367253  0.512730  0.827438  1
  Na  Na15  1  0.126324  0.479784  0.447525  1
  Na  Na16  1  0.367253  0.987270  0.327438  1
  Na  Na17  1  0.375051  0.002873  0.064103  1
  Na  Na18  1  0.632747  0.012730  0.672562  1
  Na  Na19  1  0.124729  0.506641  0.681848  1
  Na  Na20  1  0.121238  0.833532  0.840248  1
  Na  Na21  1  0.632747  0.487270  0.172562  1
  Na  Na22  1  0.110337  0.506569  0.181342  1
  Na  Na23  1  0.620490  0.835650  0.785736  1
  Na  Na24  1  0.889663  0.006569  0.318658  1
  Na  Na25  1  0.379946  0.493688  0.062078  1
  Na  Na26  1  0.620490  0.664350  0.285736  1
  Na  Na27  1  0.121238  0.666468  0.340248  1
  Na  Na28  1  0.873676  0.979784  0.052475  1
  Na  Na29  1  0.875271  0.493359  0.318152  1
  Na  Na30  1  0.627714  0.990470  0.204740  1
  Na  Na31  1  0.869860  0.508224  0.060222  1
  Na  Na32  1  0.878762  0.333532  0.659752  1
  Na  Na33  1  0.620054  0.993688  0.437922  1
  Na  Na34  1  0.624949  0.502873  0.435897  1
  Na  Na35  1  0.130140  0.491776  0.939778  1
  Na  Na36  1  0.372286  0.009530  0.795260  1
  Na  Na37  1  0.379946  0.006312  0.562078  1
  Na  Na38  1  0.110337  0.993431  0.681342  1
  Na  Na39  1  0.372286  0.490470  0.295260  1
  Na  Na40  1  0.878762  0.166468  0.159752  1
  Na  Na41  1  0.375051  0.497127  0.564103  1
  Na  Na42  1  0.379510  0.164350  0.214264  1
  Na  Na43  1  0.124729  0.993359  0.181848  1
  Na  Na44  1  0.869860  0.991776  0.560222  1
  Na  Na45  1  0.130140  0.008224  0.439778  1
  Na  Na46  1  0.379510  0.335650  0.714264  1
  Na  Na47  1  0.126324  0.020216  0.947525  1
  W  W48  1  0.079344  0.261636  0.286144  1
  W  W49  1  0.826763  0.755824  0.404566  1
  W  W50  1  0.173237  0.255824  0.095434  1
  W  W51  1  0.422287  0.755841  0.911219  1
  W  W52  1  0.325641  0.741500  0.719454  1
  W  W53  1  0.826763  0.744176  0.904566  1
  W  W54  1  0.173237  0.244176  0.595434  1
  W  W55  1  0.920656  0.761636  0.213856  1
  W  W56  1  0.920656  0.738364  0.713856  1
  W  W57  1  0.577713  0.244159  0.088781  1
  W  W58  1  0.325641  0.758500  0.219454  1
  W  W59  1  0.674359  0.258500  0.280546  1
  W  W60  1  0.674359  0.241500  0.780546  1
  W  W61  1  0.079344  0.238364  0.786144  1
  W  W62  1  0.577713  0.255841  0.588781  1
  W  W63  1  0.422287  0.744159  0.411219  1
  N  N64  1  0.638540  0.396043  0.050095  1
  N  N65  1  0.865730  0.749823  0.808126  1
  N  N66  1  0.638540  0.103957  0.550095  1
  N  N67  1  0.161927  0.373299  0.831693  1
  N  N68  1  0.413896  0.622906  0.176455  1
  N  N69  1  0.868160  0.920516  0.178085  1
  N  N70  1  0.081384  0.384030  0.558196  1
  N  N71  1  0.374606  0.261855  0.584402  1
  N  N72  1  0.123499  0.744106  0.209842  1
  N  N73  1  0.161927  0.126701  0.331693  1
  N  N74  1  0.868160  0.579484  0.678085  1
  N  N75  1  0.876501  0.244106  0.290158  1
  N  N76  1  0.653758  0.396280  0.544937  1
  N  N77  1  0.374606  0.238145  0.084402  1
  N  N78  1  0.361460  0.896043  0.449905  1
  N  N79  1  0.838073  0.873299  0.668307  1
  N  N80  1  0.123499  0.755894  0.709842  1
  N  N81  1  0.615861  0.081954  0.813739  1
  N  N82  1  0.384139  0.581954  0.686261  1
  N  N83  1  0.865730  0.750177  0.308126  1
  N  N84  1  0.134270  0.250177  0.191874  1
  N  N85  1  0.625394  0.761855  0.915598  1
  N  N86  1  0.918616  0.884030  0.941804  1
  N  N87  1  0.368812  0.740669  0.315259  1
  N  N88  1  0.131840  0.079484  0.821915  1
  N  N89  1  0.413896  0.877094  0.676455  1
  N  N90  1  0.631188  0.259331  0.684741  1
  N  N91  1  0.081384  0.115970  0.058196  1
  N  N92  1  0.888824  0.909939  0.440587  1
  N  N93  1  0.586104  0.122906  0.323545  1
  N  N94  1  0.625394  0.738145  0.415598  1
  N  N95  1  0.346242  0.603720  0.455063  1
  N  N96  1  0.134270  0.249823  0.691874  1
  N  N97  1  0.631188  0.240669  0.184741  1
  N  N98  1  0.368812  0.759331  0.815259  1
  N  N99  1  0.111176  0.409939  0.059413  1
  N  N100  1  0.918616  0.615970  0.441804  1
  N  N101  1  0.346242  0.896280  0.955063  1
  N  N102  1  0.876501  0.255894  0.790158  1
  N  N103  1  0.615861  0.418046  0.313739  1
  N  N104  1  0.111176  0.090061  0.559413  1
  N  N105  1  0.653758  0.103720  0.044937  1
  N  N106  1  0.838073  0.626701  0.168307  1
  N  N107  1  0.361460  0.603957  0.949905  1
  N  N108  1  0.131840  0.420516  0.321915  1
  N  N109  1  0.888824  0.590061  0.940587  1
  N  N110  1  0.586104  0.377094  0.823545  1
  N  N111  1  0.384139  0.918046  0.186261  1
