# generated using pymatgen
data_MnBiAsO5
_symmetry_space_group_name_H-M   'P 1'
_cell_length_a   5.47439675
_cell_length_b   7.01100722
_cell_length_c   7.03509585
_cell_angle_alpha   109.33802079
_cell_angle_beta   96.67614516
_cell_angle_gamma   108.99217833
_symmetry_Int_Tables_number   1
_chemical_formula_structural   MnBiAsO5
_chemical_formula_sum   'Mn2 Bi2 As2 O10'
_cell_volume   233.19329321
_cell_formula_units_Z   2
loop_
 _symmetry_equiv_pos_site_id
 _symmetry_equiv_pos_as_xyz
  1  'x, y, z'
loop_
 _atom_site_type_symbol
 _atom_site_label
 _atom_site_symmetry_multiplicity
 _atom_site_fract_x
 _atom_site_fract_y
 _atom_site_fract_z
 _atom_site_occupancy
  Mn  Mn0  1  0.672968  0.783179  0.632791  1
  Mn  Mn1  1  0.327032  0.216821  0.367209  1
  Bi  Bi2  1  0.908190  0.471888  0.244764  1
  Bi  Bi3  1  0.091810  0.528112  0.755236  1
  As  As4  1  0.349600  0.118830  0.822408  1
  As  As5  1  0.650400  0.881170  0.177592  1
  O  O6  1  0.735297  0.453294  0.498870  1
  O  O7  1  0.568514  0.708099  0.916885  1
  O  O8  1  0.431486  0.291901  0.083115  1
  O  O9  1  0.222776  0.225794  0.663482  1
  O  O10  1  0.264703  0.546706  0.501130  1
  O  O11  1  0.777224  0.774206  0.336518  1
  O  O12  1  0.367048  0.907669  0.239654  1
  O  O13  1  0.093583  0.874250  0.782061  1
  O  O14  1  0.632952  0.092331  0.760346  1
  O  O15  1  0.906417  0.125750  0.217939  1
