# generated using pymatgen
data_MgZn5
_symmetry_space_group_name_H-M   'P 1'
_cell_length_a   9.86458398
_cell_length_b   9.86458398
_cell_length_c   8.85243818
_cell_angle_alpha   67.94503662
_cell_angle_beta   112.05496338
_cell_angle_gamma   150.38471943
_symmetry_Int_Tables_number   1
_chemical_formula_structural   MgZn5
_chemical_formula_sum   'Mg4 Zn20'
_cell_volume   392.27642218
_cell_formula_units_Z   4
loop_
 _symmetry_equiv_pos_site_id
 _symmetry_equiv_pos_as_xyz
  1  'x, y, z'
loop_
 _atom_site_type_symbol
 _atom_site_label
 _atom_site_symmetry_multiplicity
 _atom_site_fract_x
 _atom_site_fract_y
 _atom_site_fract_z
 _atom_site_occupancy
  Mg  Mg0  1  0.719095  0.280905  0.373635  1
  Mg  Mg1  1  0.280905  0.719095  0.626365  1
  Mg  Mg2  1  0.533513  0.466487  0.202128  1
  Mg  Mg3  1  0.466487  0.533513  0.797872  1
  Zn  Zn4  1  0.500000  0.500000  0.500000  1
  Zn  Zn5  1  0.964664  0.035336  0.295405  1
  Zn  Zn6  1  0.789203  0.210797  0.125468  1
  Zn  Zn7  1  0.876855  0.123145  0.711899  1
  Zn  Zn8  1  0.123145  0.876855  0.288101  1
  Zn  Zn9  1  0.383853  0.122989  0.038203  1
  Zn  Zn10  1  0.375105  0.119103  0.540264  1
  Zn  Zn11  1  0.035336  0.964664  0.704595  1
  Zn  Zn12  1  0.253236  0.746764  0.235520  1
  Zn  Zn13  1  0.119103  0.375105  0.459736  1
  Zn  Zn14  1  0.880897  0.624895  0.540264  1
  Zn  Zn15  1  0.624895  0.880897  0.459736  1
  Zn  Zn16  1  0.122989  0.383853  0.961797  1
  Zn  Zn17  1  0.210797  0.789203  0.874532  1
  Zn  Zn18  1  0.877011  0.616147  0.038203  1
  Zn  Zn19  1  0.616147  0.877011  0.961797  1
  Zn  Zn20  1  0.000000  0.000000  0.000000  1
  Zn  Zn21  1  0.612013  0.387987  0.778971  1
  Zn  Zn22  1  0.387987  0.612013  0.221029  1
  Zn  Zn23  1  0.746764  0.253236  0.764480  1
