# generated using pymatgen
data_Na2Cu2Si4H4O13
_symmetry_space_group_name_H-M   'P 1'
_cell_length_a   5.26828339
_cell_length_b   6.45736332
_cell_length_c   8.79276686
_cell_angle_alpha   101.87097550
_cell_angle_beta   93.61688195
_cell_angle_gamma   103.10176172
_symmetry_Int_Tables_number   1
_chemical_formula_structural   Na2Cu2Si4H4O13
_chemical_formula_sum   'Na2 Cu2 Si4 H4 O13'
_cell_volume   283.21073767
_cell_formula_units_Z   1
loop_
 _symmetry_equiv_pos_site_id
 _symmetry_equiv_pos_as_xyz
  1  'x, y, z'
loop_
 _atom_site_type_symbol
 _atom_site_label
 _atom_site_symmetry_multiplicity
 _atom_site_fract_x
 _atom_site_fract_y
 _atom_site_fract_z
 _atom_site_occupancy
  Na  Na0  1  0.357544  0.360936  0.199025  1
  Na  Na1  1  0.642456  0.639064  0.800975  1
  Cu  Cu2  1  0.797556  0.121724  0.076934  1
  Cu  Cu3  1  0.202444  0.878276  0.923066  1
  Si  Si4  1  0.526788  0.113838  0.685784  1
  Si  Si5  1  0.107294  0.331120  0.831325  1
  Si  Si6  1  0.473212  0.886162  0.314216  1
  Si  Si7  1  0.892706  0.668880  0.168675  1
  H  H8  1  0.159599  0.255434  0.499178  1
  H  H9  1  0.840401  0.744566  0.500822  1
  H  H10  1  0.924286  0.305203  0.410048  1
  H  H11  1  0.075714  0.694797  0.589952  1
  O  O12  1  0.097185  0.162885  0.951836  1
  O  O13  1  0.233669  0.583425  0.913181  1
  O  O14  1  0.691644  0.735400  0.301668  1
  O  O15  1  0.098346  0.280942  0.398038  1
  O  O16  1  0.901654  0.719058  0.601962  1
  O  O17  1  0.182876  0.710561  0.269809  1
  O  O18  1  0.766331  0.416575  0.086819  1
  O  O19  1  0.519500  0.058320  0.204446  1
  O  O20  1  0.817124  0.289439  0.730191  1
  O  O21  1  0.500000  0.000000  0.500000  1
  O  O22  1  0.480500  0.941680  0.795554  1
  O  O23  1  0.308356  0.264600  0.698332  1
  O  O24  1  0.902815  0.837115  0.048164  1
