# generated using pymatgen
data_YAlGeO5
_symmetry_space_group_name_H-M   'P 1'
_cell_length_a   5.67448952
_cell_length_b   7.32674313
_cell_length_c   8.41988512
_cell_angle_alpha   90.00000000
_cell_angle_beta   90.00000000
_cell_angle_gamma   90.00000000
_symmetry_Int_Tables_number   1
_chemical_formula_structural   YAlGeO5
_chemical_formula_sum   'Y4 Al4 Ge4 O20'
_cell_volume   350.06116204
_cell_formula_units_Z   4
loop_
 _symmetry_equiv_pos_site_id
 _symmetry_equiv_pos_as_xyz
  1  'x, y, z'
loop_
 _atom_site_type_symbol
 _atom_site_label
 _atom_site_symmetry_multiplicity
 _atom_site_fract_x
 _atom_site_fract_y
 _atom_site_fract_z
 _atom_site_occupancy
  Y  Y0  1  0.000000  0.357250  0.326104  1
  Y  Y1  1  0.000000  0.642750  0.673896  1
  Y  Y2  1  0.000000  0.857250  0.173896  1
  Y  Y3  1  0.000000  0.142750  0.826104  1
  Al  Al4  1  0.249571  0.500000  0.000000  1
  Al  Al5  1  0.750429  0.000000  0.500000  1
  Al  Al6  1  0.750429  0.500000  0.000000  1
  Al  Al7  1  0.249571  0.000000  0.500000  1
  Ge  Ge8  1  0.500000  0.120248  0.144264  1
  Ge  Ge9  1  0.500000  0.879752  0.855736  1
  Ge  Ge10  1  0.500000  0.620248  0.355736  1
  Ge  Ge11  1  0.500000  0.379752  0.644264  1
  O  O12  1  0.000000  0.339129  0.053240  1
  O  O13  1  0.000000  0.660871  0.946760  1
  O  O14  1  0.000000  0.839129  0.446760  1
  O  O15  1  0.000000  0.160871  0.553240  1
  O  O16  1  0.500000  0.346590  0.068914  1
  O  O17  1  0.500000  0.653410  0.931086  1
  O  O18  1  0.500000  0.846590  0.431086  1
  O  O19  1  0.500000  0.153410  0.568914  1
  O  O20  1  0.253263  0.105704  0.287385  1
  O  O21  1  0.253263  0.894296  0.712615  1
  O  O22  1  0.746737  0.605704  0.212615  1
  O  O23  1  0.746737  0.394296  0.787385  1
  O  O24  1  0.746737  0.894296  0.712615  1
  O  O25  1  0.746737  0.105704  0.287385  1
  O  O26  1  0.253263  0.394296  0.787385  1
  O  O27  1  0.253263  0.605704  0.212615  1
  O  O28  1  0.285154  0.000000  0.000000  1
  O  O29  1  0.714846  0.500000  0.500000  1
  O  O30  1  0.714846  0.000000  0.000000  1
  O  O31  1  0.285154  0.500000  0.500000  1
