# generated using pymatgen
data_AuSeClO3
_symmetry_space_group_name_H-M   'P 1'
_cell_length_a   4.49358713
_cell_length_b   9.99119197
_cell_length_c   10.90349835
_cell_angle_alpha   82.05733940
_cell_angle_beta   88.32463017
_cell_angle_gamma   88.44212894
_symmetry_Int_Tables_number   1
_chemical_formula_structural   AuSeClO3
_chemical_formula_sum   'Au4 Se4 Cl4 O12'
_cell_volume   484.49080431
_cell_formula_units_Z   4
loop_
 _symmetry_equiv_pos_site_id
 _symmetry_equiv_pos_as_xyz
  1  'x, y, z'
loop_
 _atom_site_type_symbol
 _atom_site_label
 _atom_site_symmetry_multiplicity
 _atom_site_fract_x
 _atom_site_fract_y
 _atom_site_fract_z
 _atom_site_occupancy
  Au  Au0  1  0.004720  0.578972  0.186213  1
  Au  Au1  1  0.000000  0.000000  0.000000  1
  Au  Au2  1  0.995280  0.421028  0.813787  1
  Au  Au3  1  0.000000  0.000000  0.500000  1
  Se  Se4  1  0.719856  0.864452  0.270410  1
  Se  Se5  1  0.207909  0.711674  0.904170  1
  Se  Se6  1  0.792091  0.288326  0.095830  1
  Se  Se7  1  0.280144  0.135548  0.729590  1
  Cl  Cl8  1  0.337798  0.495788  0.662233  1
  Cl  Cl9  1  0.662202  0.504212  0.337767  1
  Cl  Cl10  1  0.278976  0.190941  0.444192  1
  Cl  Cl11  1  0.721024  0.809059  0.555808  1
  O  O12  1  0.655196  0.950669  0.122540  1
  O  O13  1  0.678777  0.354240  0.948489  1
  O  O14  1  0.033011  0.762021  0.244931  1
  O  O15  1  0.080877  0.172760  0.068525  1
  O  O16  1  0.071153  0.396256  0.129060  1
  O  O17  1  0.919123  0.827240  0.931475  1
  O  O18  1  0.321223  0.645760  0.051511  1
  O  O19  1  0.966989  0.237979  0.755069  1
  O  O20  1  0.930404  0.992475  0.318518  1
  O  O21  1  0.928847  0.603744  0.870940  1
  O  O22  1  0.344804  0.049331  0.877460  1
  O  O23  1  0.069596  0.007525  0.681482  1
