# generated using pymatgen
data_TiGa2
_symmetry_space_group_name_H-M   'P 1'
_cell_length_a   12.53285183
_cell_length_b   12.53285183
_cell_length_c   12.53285183
_cell_angle_alpha   161.93558774
_cell_angle_beta   161.93558774
_cell_angle_gamma   25.65504039
_symmetry_Int_Tables_number   1
_chemical_formula_structural   TiGa2
_chemical_formula_sum   'Ti4 Ga8'
_cell_volume   189.22359605
_cell_formula_units_Z   4
loop_
 _symmetry_equiv_pos_site_id
 _symmetry_equiv_pos_as_xyz
  1  'x, y, z'
loop_
 _atom_site_type_symbol
 _atom_site_label
 _atom_site_symmetry_multiplicity
 _atom_site_fract_x
 _atom_site_fract_y
 _atom_site_fract_z
 _atom_site_occupancy
  Ti  Ti0  1  0.326102  0.826102  0.500000  1
  Ti  Ti1  1  0.173898  0.673898  0.500000  1
  Ti  Ti2  1  0.576102  0.576102  0.000000  1
  Ti  Ti3  1  0.423898  0.423898  0.000000  1
  Ga  Ga4  1  0.088231  0.088231  0.000000  1
  Ga  Ga5  1  0.661769  0.161769  0.500000  1
  Ga  Ga6  1  0.911769  0.911769  0.000000  1
  Ga  Ga7  1  0.838231  0.338231  0.500000  1
  Ga  Ga8  1  0.750364  0.750364  0.000000  1
  Ga  Ga9  1  0.500364  0.000364  0.500000  1
  Ga  Ga10  1  0.999636  0.499636  0.500000  1
  Ga  Ga11  1  0.249636  0.249636  0.000000  1
