# generated using pymatgen
data_CsLa2CuSe4
_symmetry_space_group_name_H-M   'P 1'
_cell_length_a   7.89408621
_cell_length_b   7.89408621
_cell_length_c   14.89066270
_cell_angle_alpha   90.00000000
_cell_angle_beta   90.00000000
_cell_angle_gamma   148.05616286
_symmetry_Int_Tables_number   1
_chemical_formula_structural   CsLa2CuSe4
_chemical_formula_sum   'Cs2 La4 Cu2 Se8'
_cell_volume   490.95924978
_cell_formula_units_Z   2
loop_
 _symmetry_equiv_pos_site_id
 _symmetry_equiv_pos_as_xyz
  1  'x, y, z'
loop_
 _atom_site_type_symbol
 _atom_site_label
 _atom_site_symmetry_multiplicity
 _atom_site_fract_x
 _atom_site_fract_y
 _atom_site_fract_z
 _atom_site_occupancy
  Cs  Cs0  1  0.894648  0.105352  0.750000  1
  Cs  Cs1  1  0.105352  0.894648  0.250000  1
  La  La2  1  0.634631  0.365369  0.939039  1
  La  La3  1  0.365369  0.634631  0.060961  1
  La  La4  1  0.365369  0.634631  0.439039  1
  La  La5  1  0.634631  0.365369  0.560961  1
  Cu  Cu6  1  0.165365  0.834635  0.750000  1
  Cu  Cu7  1  0.834635  0.165365  0.250000  1
  Se  Se8  1  0.740961  0.259039  0.388038  1
  Se  Se9  1  0.259039  0.740961  0.611962  1
  Se  Se10  1  0.259039  0.740961  0.888038  1
  Se  Se11  1  0.740961  0.259039  0.111962  1
  Se  Se12  1  0.579513  0.420487  0.750000  1
  Se  Se13  1  0.420487  0.579513  0.250000  1
  Se  Se14  1  0.000000  0.000000  0.000000  1
  Se  Se15  1  0.000000  0.000000  0.500000  1
