# generated using pymatgen
data_BaAg2SnS4
_symmetry_space_group_name_H-M   'P 1'
_cell_length_a   6.50847176
_cell_length_b   6.50847176
_cell_length_c   6.50847176
_cell_angle_alpha   115.93530764
_cell_angle_beta   112.55787026
_cell_angle_gamma   100.31312400
_symmetry_Int_Tables_number   1
_chemical_formula_structural   BaAg2SnS4
_chemical_formula_sum   'Ba1 Ag2 Sn1 S4'
_cell_volume   208.04569394
_cell_formula_units_Z   1
loop_
 _symmetry_equiv_pos_site_id
 _symmetry_equiv_pos_as_xyz
  1  'x, y, z'
loop_
 _atom_site_type_symbol
 _atom_site_label
 _atom_site_symmetry_multiplicity
 _atom_site_fract_x
 _atom_site_fract_y
 _atom_site_fract_z
 _atom_site_occupancy
  Ba  Ba0  1  0.000000  0.000000  0.000000  1
  Ag  Ag1  1  0.701822  0.201822  0.500000  1
  Ag  Ag2  1  0.298178  0.798178  0.500000  1
  Sn  Sn3  1  0.500000  0.500000  0.000000  1
  S  S4  1  0.137327  0.128051  0.604163  1
  S  S5  1  0.523888  0.533164  0.395837  1
  S  S6  1  0.862673  0.466836  0.990724  1
  S  S7  1  0.476112  0.871949  0.009276  1
