# generated using pymatgen
data_Sc3B2Rh5
_symmetry_space_group_name_H-M   'P 1'
_cell_length_a   9.52679159
_cell_length_b   9.52679159
_cell_length_c   3.11500448
_cell_angle_alpha   90.00000000
_cell_angle_beta   90.00000000
_cell_angle_gamma   90.00000000
_symmetry_Int_Tables_number   1
_chemical_formula_structural   Sc3B2Rh5
_chemical_formula_sum   'Sc6 B4 Rh10'
_cell_volume   282.71705277
_cell_formula_units_Z   2
loop_
 _symmetry_equiv_pos_site_id
 _symmetry_equiv_pos_as_xyz
  1  'x, y, z'
loop_
 _atom_site_type_symbol
 _atom_site_label
 _atom_site_symmetry_multiplicity
 _atom_site_fract_x
 _atom_site_fract_y
 _atom_site_fract_z
 _atom_site_occupancy
  Sc  Sc0  1  0.825202  0.325202  0.000000  1
  Sc  Sc1  1  0.325202  0.174798  0.000000  1
  Sc  Sc2  1  0.674798  0.825202  0.000000  1
  Sc  Sc3  1  0.174798  0.674798  0.000000  1
  Sc  Sc4  1  0.000000  0.000000  0.000000  1
  Sc  Sc5  1  0.500000  0.500000  0.000000  1
  B  B6  1  0.622205  0.122205  0.000000  1
  B  B7  1  0.122205  0.377795  0.000000  1
  B  B8  1  0.877795  0.622205  0.000000  1
  B  B9  1  0.377795  0.877795  0.000000  1
  Rh  Rh10  1  0.071512  0.222780  0.500000  1
  Rh  Rh11  1  0.222780  0.928488  0.500000  1
  Rh  Rh12  1  0.777220  0.071512  0.500000  1
  Rh  Rh13  1  0.928488  0.777220  0.500000  1
  Rh  Rh14  1  0.428488  0.722780  0.500000  1
  Rh  Rh15  1  0.571512  0.277220  0.500000  1
  Rh  Rh16  1  0.722780  0.571512  0.500000  1
  Rh  Rh17  1  0.277220  0.428488  0.500000  1
  Rh  Rh18  1  0.500000  0.000000  0.500000  1
  Rh  Rh19  1  0.000000  0.500000  0.500000  1
