# generated using pymatgen
data_Fe3Se4
_symmetry_space_group_name_H-M   'P 1'
_cell_length_a   3.51144790
_cell_length_b   3.51144790
_cell_length_c   11.58449046
_cell_angle_alpha   90.00000000
_cell_angle_beta   90.00000000
_cell_angle_gamma   120.00000000
_symmetry_Int_Tables_number   1
_chemical_formula_structural   Fe3Se4
_chemical_formula_sum   'Fe3 Se4'
_cell_volume   123.70294103
_cell_formula_units_Z   1
loop_
 _symmetry_equiv_pos_site_id
 _symmetry_equiv_pos_as_xyz
  1  'x, y, z'
loop_
 _atom_site_type_symbol
 _atom_site_label
 _atom_site_symmetry_multiplicity
 _atom_site_fract_x
 _atom_site_fract_y
 _atom_site_fract_z
 _atom_site_occupancy
  Fe  Fe0  1  0.000000  0.000000  0.245745  1
  Fe  Fe1  1  0.000000  0.000000  0.500000  1
  Fe  Fe2  1  0.000000  0.000000  0.754255  1
  Se  Se3  1  0.333333  0.666667  0.368860  1
  Se  Se4  1  0.666667  0.333333  0.631140  1
  Se  Se5  1  0.666667  0.333333  0.135695  1
  Se  Se6  1  0.333333  0.666667  0.864305  1
