# generated using pymatgen
data_Cr2(PO4)3
_symmetry_space_group_name_H-M   'P 1'
_cell_length_a   8.69816845
_cell_length_b   8.69816845
_cell_length_c   8.69816845
_cell_angle_alpha   59.03037613
_cell_angle_beta   59.03037613
_cell_angle_gamma   59.03037613
_symmetry_Int_Tables_number   1
_chemical_formula_structural   Cr2(PO4)3
_chemical_formula_sum   'Cr4 P6 O24'
_cell_volume   455.04760058
_cell_formula_units_Z   2
loop_
 _symmetry_equiv_pos_site_id
 _symmetry_equiv_pos_as_xyz
  1  'x, y, z'
loop_
 _atom_site_type_symbol
 _atom_site_label
 _atom_site_symmetry_multiplicity
 _atom_site_fract_x
 _atom_site_fract_y
 _atom_site_fract_z
 _atom_site_occupancy
  Cr  Cr0  1  0.358097  0.358097  0.358097  1
  Cr  Cr1  1  0.858097  0.858097  0.858097  1
  Cr  Cr2  1  0.641903  0.641903  0.641903  1
  Cr  Cr3  1  0.141903  0.141903  0.141903  1
  P  P4  1  0.750000  0.464770  0.035230  1
  P  P5  1  0.535230  0.964770  0.250000  1
  P  P6  1  0.035230  0.750000  0.464770  1
  P  P7  1  0.464770  0.035230  0.750000  1
  P  P8  1  0.964770  0.250000  0.535230  1
  P  P9  1  0.250000  0.535230  0.964770  1
  O  O10  1  0.131897  0.287342  0.502428  1
  O  O11  1  0.631897  0.002428  0.787342  1
  O  O12  1  0.415861  0.562191  0.775756  1
  O  O13  1  0.915861  0.275756  0.062191  1
  O  O14  1  0.287342  0.502428  0.131897  1
  O  O15  1  0.787342  0.631897  0.002428  1
  O  O16  1  0.562191  0.775756  0.415861  1
  O  O17  1  0.062191  0.915861  0.275756  1
  O  O18  1  0.502428  0.131897  0.287342  1
  O  O19  1  0.275756  0.062191  0.915861  1
  O  O20  1  0.724244  0.937809  0.084139  1
  O  O21  1  0.002428  0.787342  0.631897  1
  O  O22  1  0.775756  0.415861  0.562191  1
  O  O23  1  0.224244  0.584139  0.437809  1
  O  O24  1  0.486452  0.868454  0.711115  1
  O  O25  1  0.986452  0.211115  0.368454  1
  O  O26  1  0.437809  0.224244  0.584139  1
  O  O27  1  0.937809  0.084139  0.724244  1
  O  O28  1  0.712658  0.497572  0.868103  1
  O  O29  1  0.212658  0.368103  0.997572  1
  O  O30  1  0.584139  0.437809  0.224244  1
  O  O31  1  0.084139  0.724244  0.937809  1
  O  O32  1  0.868103  0.712658  0.497572  1
  O  O33  1  0.368103  0.997572  0.212658  1
