# generated using pymatgen
data_Cs2U(Cl2O)2
_symmetry_space_group_name_H-M   'P 1'
_cell_length_a   7.27876135
_cell_length_b   7.27876135
_cell_length_c   5.95762566
_cell_angle_alpha   81.55540530
_cell_angle_beta   98.44459470
_cell_angle_gamma   114.77582346
_symmetry_Int_Tables_number   1
_chemical_formula_structural   Cs2U(Cl2O)2
_chemical_formula_sum   'Cs2 U1 Cl4 O2'
_cell_volume   282.19530832
_cell_formula_units_Z   1
loop_
 _symmetry_equiv_pos_site_id
 _symmetry_equiv_pos_as_xyz
  1  'x, y, z'
loop_
 _atom_site_type_symbol
 _atom_site_label
 _atom_site_symmetry_multiplicity
 _atom_site_fract_x
 _atom_site_fract_y
 _atom_site_fract_z
 _atom_site_occupancy
  Cs  Cs0  1  0.666196  0.333804  0.322044  1
  Cs  Cs1  1  0.333804  0.666196  0.677956  1
  U  U2  1  0.000000  0.000000  0.000000  1
  Cl  Cl3  1  0.148337  0.346971  0.201144  1
  Cl  Cl4  1  0.346971  0.148337  0.798856  1
  Cl  Cl5  1  0.851663  0.653029  0.798856  1
  Cl  Cl6  1  0.653029  0.851663  0.201144  1
  O  O7  1  0.116340  0.883660  0.233905  1
  O  O8  1  0.883660  0.116340  0.766095  1
