# generated using pymatgen
data_Li2Mn(PO3)4
_symmetry_space_group_name_H-M   'P 1'
_cell_length_a   5.00067637
_cell_length_b   7.11335290
_cell_length_c   7.53390122
_cell_angle_alpha   113.78512081
_cell_angle_beta   83.76622335
_cell_angle_gamma   107.98866338
_symmetry_Int_Tables_number   1
_chemical_formula_structural   Li2Mn(PO3)4
_chemical_formula_sum   'Li2 Mn1 P4 O12'
_cell_volume   233.20391372
_cell_formula_units_Z   1
loop_
 _symmetry_equiv_pos_site_id
 _symmetry_equiv_pos_as_xyz
  1  'x, y, z'
loop_
 _atom_site_type_symbol
 _atom_site_label
 _atom_site_symmetry_multiplicity
 _atom_site_fract_x
 _atom_site_fract_y
 _atom_site_fract_z
 _atom_site_occupancy
  Li  Li0  1  0.965000  0.259690  0.449903  1
  Li  Li1  1  0.035000  0.740310  0.550097  1
  Mn  Mn2  1  0.000000  0.000000  0.000000  1
  P  P3  1  0.563227  0.194367  0.788577  1
  P  P4  1  0.434583  0.600608  0.782191  1
  P  P5  1  0.436773  0.805633  0.211423  1
  P  P6  1  0.565417  0.399392  0.217809  1
  O  O7  1  0.724539  0.751591  0.782623  1
  O  O8  1  0.785699  0.143620  0.646905  1
  O  O9  1  0.706292  0.298706  0.006759  1
  O  O10  1  0.293708  0.701294  0.993241  1
  O  O11  1  0.703742  0.981407  0.213996  1
  O  O12  1  0.214301  0.856380  0.353095  1
  O  O13  1  0.223228  0.544231  0.630019  1
  O  O14  1  0.275461  0.248409  0.217377  1
  O  O15  1  0.465225  0.386090  0.785067  1
  O  O16  1  0.534775  0.613910  0.214933  1
  O  O17  1  0.776772  0.455769  0.369981  1
  O  O18  1  0.296258  0.018593  0.786004  1
