# generated using pymatgen
data_Ba6Na2Mn2Ru2O17
_symmetry_space_group_name_H-M   'P 1'
_cell_length_a   5.92056723
_cell_length_b   5.92056723
_cell_length_c   30.11224707
_cell_angle_alpha   90.00000000
_cell_angle_beta   90.00000000
_cell_angle_gamma   120.00000000
_symmetry_Int_Tables_number   1
_chemical_formula_structural   Ba6Na2Mn2Ru2O17
_chemical_formula_sum   'Ba12 Na4 Mn4 Ru4 O34'
_cell_volume   914.11414975
_cell_formula_units_Z   2
loop_
 _symmetry_equiv_pos_site_id
 _symmetry_equiv_pos_as_xyz
  1  'x, y, z'
loop_
 _atom_site_type_symbol
 _atom_site_label
 _atom_site_symmetry_multiplicity
 _atom_site_fract_x
 _atom_site_fract_y
 _atom_site_fract_z
 _atom_site_occupancy
  Ba  Ba0  1  0.333333  0.666667  0.179707  1
  Ba  Ba1  1  0.666667  0.333333  0.679707  1
  Ba  Ba2  1  0.666667  0.333333  0.820293  1
  Ba  Ba3  1  0.333333  0.666667  0.320293  1
  Ba  Ba4  1  0.333333  0.666667  0.591920  1
  Ba  Ba5  1  0.666667  0.333333  0.091920  1
  Ba  Ba6  1  0.666667  0.333333  0.408080  1
  Ba  Ba7  1  0.333333  0.666667  0.908080  1
  Ba  Ba8  1  0.000000  0.000000  0.000000  1
  Ba  Ba9  1  0.000000  0.000000  0.500000  1
  Ba  Ba10  1  0.000000  0.000000  0.250000  1
  Ba  Ba11  1  0.000000  0.000000  0.750000  1
  Na  Na12  1  0.000000  0.000000  0.124315  1
  Na  Na13  1  0.000000  0.000000  0.624315  1
  Na  Na14  1  0.000000  0.000000  0.875685  1
  Na  Na15  1  0.000000  0.000000  0.375685  1
  Mn  Mn16  1  0.333333  0.666667  0.052312  1
  Mn  Mn17  1  0.666667  0.333333  0.552312  1
  Mn  Mn18  1  0.666667  0.333333  0.947688  1
  Mn  Mn19  1  0.333333  0.666667  0.447688  1
  Ru  Ru20  1  0.333333  0.666667  0.703730  1
  Ru  Ru21  1  0.666667  0.333333  0.203730  1
  Ru  Ru22  1  0.666667  0.333333  0.296270  1
  Ru  Ru23  1  0.333333  0.666667  0.796270  1
  O  O24  1  0.176482  0.352964  0.426856  1
  O  O25  1  0.823518  0.176482  0.926856  1
  O  O26  1  0.352964  0.176482  0.926856  1
  O  O27  1  0.647036  0.823518  0.426856  1
  O  O28  1  0.176482  0.823518  0.426856  1
  O  O29  1  0.823518  0.647036  0.573144  1
  O  O30  1  0.823518  0.176482  0.573144  1
  O  O31  1  0.823518  0.647036  0.926856  1
  O  O32  1  0.352964  0.176482  0.573144  1
  O  O33  1  0.647036  0.823518  0.073144  1
  O  O34  1  0.176482  0.352964  0.073144  1
  O  O35  1  0.176482  0.823518  0.073144  1
  O  O36  1  0.176793  0.353586  0.830115  1
  O  O37  1  0.823207  0.176793  0.330115  1
  O  O38  1  0.353586  0.176793  0.330115  1
  O  O39  1  0.646414  0.823207  0.830115  1
  O  O40  1  0.176793  0.823207  0.830115  1
  O  O41  1  0.823207  0.646414  0.169885  1
  O  O42  1  0.823207  0.176793  0.169885  1
  O  O43  1  0.823207  0.646414  0.330115  1
  O  O44  1  0.353586  0.176793  0.169885  1
  O  O45  1  0.646414  0.823207  0.669885  1
  O  O46  1  0.176793  0.353586  0.669885  1
  O  O47  1  0.176793  0.823207  0.669885  1
  O  O48  1  0.513729  0.027459  0.250000  1
  O  O49  1  0.486271  0.513729  0.750000  1
  O  O50  1  0.027459  0.513729  0.750000  1
  O  O51  1  0.972541  0.486271  0.250000  1
  O  O52  1  0.513729  0.486271  0.250000  1
  O  O53  1  0.486271  0.972541  0.750000  1
  O  O54  1  0.333333  0.666667  0.503946  1
  O  O55  1  0.666667  0.333333  0.003946  1
  O  O56  1  0.666667  0.333333  0.496054  1
  O  O57  1  0.333333  0.666667  0.996054  1
