# generated using pymatgen
data_CaH2CO4
_symmetry_space_group_name_H-M   'P 1'
_cell_length_a   10.64538599
_cell_length_b   10.64538599
_cell_length_c   7.64425984
_cell_angle_alpha   90.00000000
_cell_angle_beta   90.00000000
_cell_angle_gamma   120.00000000
_symmetry_Int_Tables_number   1
_chemical_formula_structural   CaH2CO4
_chemical_formula_sum   'Ca9 H18 C9 O36'
_cell_volume   750.22045143
_cell_formula_units_Z   9
loop_
 _symmetry_equiv_pos_site_id
 _symmetry_equiv_pos_as_xyz
  1  'x, y, z'
loop_
 _atom_site_type_symbol
 _atom_site_label
 _atom_site_symmetry_multiplicity
 _atom_site_fract_x
 _atom_site_fract_y
 _atom_site_fract_z
 _atom_site_occupancy
  Ca  Ca0  1  0.184740  0.093512  0.331676  1
  Ca  Ca1  1  0.518543  0.750689  0.353639  1
  Ca  Ca2  1  0.852214  0.426867  0.340041  1
  Ca  Ca3  1  0.232146  0.481457  0.020305  1
  Ca  Ca4  1  0.249311  0.767854  0.686972  1
  Ca  Ca5  1  0.573133  0.425348  0.673374  1
  Ca  Ca6  1  0.906488  0.091228  0.665010  1
  Ca  Ca7  1  0.574652  0.147786  0.006707  1
  Ca  Ca8  1  0.908772  0.815260  0.998343  1
  H  H9  1  0.336986  0.215025  0.922903  1
  H  H10  1  0.216217  0.330717  0.579888  1
  H  H11  1  0.212868  0.879780  0.090468  1
  H  H12  1  0.331098  0.115977  0.765658  1
  H  H13  1  0.461484  0.996310  0.429633  1
  H  H14  1  0.878038  0.663014  0.589569  1
  H  H15  1  0.120220  0.333088  0.423802  1
  H  H16  1  0.784975  0.121962  0.256236  1
  H  H17  1  0.003690  0.465174  0.762966  1
  H  H18  1  0.784879  0.668902  0.432324  1
  H  H19  1  0.666912  0.787132  0.757135  1
  H  H20  1  0.560593  0.001912  0.586458  1
  H  H21  1  0.114499  0.783783  0.246555  1
  H  H22  1  0.669283  0.885501  0.913221  1
  H  H23  1  0.884023  0.215121  0.098991  1
  H  H24  1  0.998088  0.558682  0.919791  1
  H  H25  1  0.441318  0.439407  0.253125  1
  H  H26  1  0.534826  0.538516  0.096299  1
  C  C27  1  0.766844  0.257080  0.711804  1
  C  C28  1  0.742920  0.509764  0.045137  1
  C  C29  1  0.428278  0.584617  0.725755  1
  C  C30  1  0.083212  0.905287  0.633036  1
  C  C31  1  0.156339  0.571722  0.392422  1
  C  C32  1  0.415383  0.843661  0.059088  1
  C  C33  1  0.490236  0.233156  0.378471  1
  C  C34  1  0.094713  0.177925  0.966370  1
  C  C35  1  0.822075  0.916788  0.299703  1
  O  O36  1  0.055139  0.058234  0.885293  1
  O  O37  1  0.476255  0.933394  0.513662  1
  O  O38  1  0.066606  0.542861  0.846995  1
  O  O39  1  0.543584  0.641321  0.625078  1
  O  O40  1  0.025338  0.248568  0.937210  1
  O  O41  1  0.003094  0.944861  0.551959  1
  O  O42  1  0.207653  0.235434  0.069265  1
  O  O43  1  0.881131  0.314073  0.611458  1
  O  O44  1  0.027781  0.792347  0.735932  1
  O  O45  1  0.132555  0.866595  0.170398  1
  O  O46  1  0.685927  0.567058  0.944792  1
  O  O47  1  0.611942  0.277030  0.456613  1
  O  O48  1  0.734040  0.867445  0.837065  1
  O  O49  1  0.764566  0.972219  0.402598  1
  O  O50  1  0.133405  0.265960  0.503732  1
  O  O51  1  0.941766  0.996906  0.218626  1
  O  O52  1  0.665088  0.388058  0.123280  1
  O  O53  1  0.085798  0.640620  0.420233  1
  O  O54  1  0.554823  0.914202  0.086900  1
  O  O55  1  0.223230  0.974662  0.603877  1
  O  O56  1  0.722970  0.334912  0.789947  1
  O  O57  1  0.097737  0.456416  0.291745  1
  O  O58  1  0.358679  0.902263  0.958412  1
  O  O59  1  0.399789  0.196756  0.842600  1
  O  O60  1  0.432942  0.118869  0.278125  1
  O  O61  1  0.417478  0.300374  0.409200  1
  O  O62  1  0.457139  0.523745  0.180329  1
  O  O63  1  0.796967  0.600211  0.509267  1
  O  O64  1  0.387740  0.664761  0.804864  1
  O  O65  1  0.803244  0.203033  0.175934  1
  O  O66  1  0.882896  0.582522  0.075867  1
  O  O67  1  0.277021  0.612260  0.471531  1
  O  O68  1  0.335239  0.722979  0.138197  1
  O  O69  1  0.751432  0.776770  0.270544  1
  O  O70  1  0.699626  0.117104  0.742533  1
  O  O71  1  0.359380  0.445177  0.753566  1
