# generated using pymatgen
data_NiF2
_symmetry_space_group_name_H-M   'P 1'
_cell_length_a   3.11815289
_cell_length_b   4.64407633
_cell_length_c   4.74356529
_cell_angle_alpha   90.00000000
_cell_angle_beta   90.00000000
_cell_angle_gamma   90.00000000
_symmetry_Int_Tables_number   1
_chemical_formula_structural   NiF2
_chemical_formula_sum   'Ni2 F4'
_cell_volume   68.69128449
_cell_formula_units_Z   2
loop_
 _symmetry_equiv_pos_site_id
 _symmetry_equiv_pos_as_xyz
  1  'x, y, z'
loop_
 _atom_site_type_symbol
 _atom_site_label
 _atom_site_symmetry_multiplicity
 _atom_site_fract_x
 _atom_site_fract_y
 _atom_site_fract_z
 _atom_site_occupancy
  Ni  Ni0  1  0.000000  0.000000  0.000000  1
  Ni  Ni1  1  0.500000  0.500000  0.500000  1
  F  F2  1  0.000000  0.288007  0.319894  1
  F  F3  1  0.500000  0.211993  0.819894  1
  F  F4  1  0.000000  0.711993  0.680106  1
  F  F5  1  0.500000  0.788007  0.180106  1
