# generated using pymatgen
data_HfNi5(BO5)2
_symmetry_space_group_name_H-M   'P 1'
_cell_length_a   6.16226020
_cell_length_b   9.39898644
_cell_length_c   12.41325383
_cell_angle_alpha   90.00000000
_cell_angle_beta   90.00000000
_cell_angle_gamma   90.00000000
_symmetry_Int_Tables_number   1
_chemical_formula_structural   HfNi5(BO5)2
_chemical_formula_sum   'Hf4 Ni20 B8 O40'
_cell_volume   718.96324932
_cell_formula_units_Z   4
loop_
 _symmetry_equiv_pos_site_id
 _symmetry_equiv_pos_as_xyz
  1  'x, y, z'
loop_
 _atom_site_type_symbol
 _atom_site_label
 _atom_site_symmetry_multiplicity
 _atom_site_fract_x
 _atom_site_fract_y
 _atom_site_fract_z
 _atom_site_occupancy
  Hf  Hf0  1  0.250000  0.240674  0.384123  1
  Hf  Hf1  1  0.750000  0.259326  0.884123  1
  Hf  Hf2  1  0.250000  0.740674  0.115877  1
  Hf  Hf3  1  0.750000  0.759326  0.615877  1
  Ni  Ni4  1  0.504767  0.501113  0.282415  1
  Ni  Ni5  1  0.750000  0.492819  0.497117  1
  Ni  Ni6  1  0.750000  0.737885  0.114194  1
  Ni  Ni7  1  0.995233  0.501113  0.282415  1
  Ni  Ni8  1  0.495233  0.998887  0.782415  1
  Ni  Ni9  1  0.250000  0.262115  0.885806  1
  Ni  Ni10  1  0.995233  0.001113  0.217585  1
  Ni  Ni11  1  0.504767  0.001113  0.217585  1
  Ni  Ni12  1  0.495233  0.498887  0.717585  1
  Ni  Ni13  1  0.004767  0.998887  0.782415  1
  Ni  Ni14  1  0.004767  0.498887  0.717585  1
  Ni  Ni15  1  0.000000  0.000000  0.500000  1
  Ni  Ni16  1  0.250000  0.762115  0.614194  1
  Ni  Ni17  1  0.250000  0.007181  0.997117  1
  Ni  Ni18  1  0.750000  0.992819  0.002883  1
  Ni  Ni19  1  0.250000  0.507181  0.502883  1
  Ni  Ni20  1  0.500000  0.500000  0.000000  1
  Ni  Ni21  1  0.000000  0.500000  0.000000  1
  Ni  Ni22  1  0.750000  0.237885  0.385806  1
  Ni  Ni23  1  0.500000  0.000000  0.500000  1
  B  B24  1  0.250000  0.776697  0.364769  1
  B  B25  1  0.250000  0.276697  0.135231  1
  B  B26  1  0.750000  0.223303  0.635231  1
  B  B27  1  0.750000  0.723303  0.864769  1
  B  B28  1  0.750000  0.772126  0.355849  1
  B  B29  1  0.250000  0.227874  0.644151  1
  B  B30  1  0.750000  0.272126  0.144151  1
  B  B31  1  0.250000  0.727874  0.855849  1
  O  O32  1  0.006326  0.388374  0.423435  1
  O  O33  1  0.750000  0.649238  0.766118  1
  O  O34  1  0.250000  0.654485  0.954915  1
  O  O35  1  0.750000  0.345515  0.045085  1
  O  O36  1  0.750000  0.348307  0.239187  1
  O  O37  1  0.993674  0.611626  0.576565  1
  O  O38  1  0.250000  0.651693  0.760813  1
  O  O39  1  0.996490  0.397174  0.856349  1
  O  O40  1  0.250000  0.129558  0.139479  1
  O  O41  1  0.250000  0.154485  0.545085  1
  O  O42  1  0.750000  0.870442  0.860521  1
  O  O43  1  0.493674  0.888374  0.076565  1
  O  O44  1  0.750000  0.370442  0.639479  1
  O  O45  1  0.506326  0.611626  0.576565  1
  O  O46  1  0.003510  0.102826  0.356349  1
  O  O47  1  0.993674  0.111626  0.923435  1
  O  O48  1  0.003510  0.602826  0.143651  1
  O  O49  1  0.750000  0.848307  0.260813  1
  O  O50  1  0.503510  0.897174  0.643651  1
  O  O51  1  0.496490  0.602826  0.143651  1
  O  O52  1  0.750000  0.624444  0.356405  1
  O  O53  1  0.750000  0.646699  0.959956  1
  O  O54  1  0.750000  0.845515  0.454915  1
  O  O55  1  0.250000  0.875556  0.856405  1
  O  O56  1  0.250000  0.629558  0.360521  1
  O  O57  1  0.006326  0.888374  0.076565  1
  O  O58  1  0.250000  0.350762  0.233882  1
  O  O59  1  0.493674  0.388374  0.423435  1
  O  O60  1  0.496490  0.102826  0.356349  1
  O  O61  1  0.503510  0.397174  0.856349  1
  O  O62  1  0.750000  0.124444  0.143595  1
  O  O63  1  0.250000  0.853301  0.459956  1
  O  O64  1  0.250000  0.353301  0.040044  1
  O  O65  1  0.996490  0.897174  0.643651  1
  O  O66  1  0.250000  0.375556  0.643595  1
  O  O67  1  0.250000  0.850762  0.266118  1
  O  O68  1  0.506326  0.111626  0.923435  1
  O  O69  1  0.250000  0.151693  0.739187  1
  O  O70  1  0.750000  0.149238  0.733882  1
  O  O71  1  0.750000  0.146699  0.540044  1
