# generated using pymatgen
data_PNCl2
_symmetry_space_group_name_H-M   'P 1'
_cell_length_a   11.40364560
_cell_length_b   11.40364560
_cell_length_c   6.32929967
_cell_angle_alpha   90.00000000
_cell_angle_beta   90.00000000
_cell_angle_gamma   90.00000000
_symmetry_Int_Tables_number   1
_chemical_formula_structural   PNCl2
_chemical_formula_sum   'P8 N8 Cl16'
_cell_volume   823.08195860
_cell_formula_units_Z   8
loop_
 _symmetry_equiv_pos_site_id
 _symmetry_equiv_pos_as_xyz
  1  'x, y, z'
loop_
 _atom_site_type_symbol
 _atom_site_label
 _atom_site_symmetry_multiplicity
 _atom_site_fract_x
 _atom_site_fract_y
 _atom_site_fract_z
 _atom_site_occupancy
  P  P0  1  0.540850  0.331359  0.057109  1
  P  P1  1  0.168641  0.040850  0.557109  1
  P  P2  1  0.959150  0.168641  0.442891  1
  P  P3  1  0.831359  0.959150  0.557109  1
  P  P4  1  0.040850  0.831359  0.442891  1
  P  P5  1  0.459150  0.668641  0.057109  1
  P  P6  1  0.668641  0.540850  0.942891  1
  P  P7  1  0.331359  0.459150  0.942891  1
  N  N8  1  0.092426  0.130879  0.424825  1
  N  N9  1  0.407574  0.369121  0.075175  1
  N  N10  1  0.907574  0.869121  0.424825  1
  N  N11  1  0.130879  0.907574  0.575175  1
  N  N12  1  0.869121  0.092426  0.575175  1
  N  N13  1  0.592426  0.630879  0.075175  1
  N  N14  1  0.630879  0.407574  0.924825  1
  N  N15  1  0.369121  0.592426  0.924825  1
  Cl  Cl16  1  0.403728  0.694025  0.356689  1
  Cl  Cl17  1  0.550535  0.168809  0.932382  1
  Cl  Cl18  1  0.596272  0.305975  0.356689  1
  Cl  Cl19  1  0.050535  0.668809  0.567618  1
  Cl  Cl20  1  0.694025  0.596272  0.643311  1
  Cl  Cl21  1  0.831191  0.550535  0.067618  1
  Cl  Cl22  1  0.449465  0.831191  0.932382  1
  Cl  Cl23  1  0.805975  0.903728  0.856689  1
  Cl  Cl24  1  0.331191  0.050535  0.432382  1
  Cl  Cl25  1  0.096272  0.805975  0.143311  1
  Cl  Cl26  1  0.668809  0.949465  0.432382  1
  Cl  Cl27  1  0.949465  0.331191  0.567618  1
  Cl  Cl28  1  0.168809  0.449465  0.067618  1
  Cl  Cl29  1  0.194025  0.096272  0.856689  1
  Cl  Cl30  1  0.305975  0.403728  0.643311  1
  Cl  Cl31  1  0.903728  0.194025  0.143311  1
