# generated using pymatgen
data_MgAl2O4
_symmetry_space_group_name_H-M   'P 1'
_cell_length_a   5.76635236
_cell_length_b   5.76635236
_cell_length_c   19.20826248
_cell_angle_alpha   81.27466232
_cell_angle_beta   98.72533768
_cell_angle_gamma   120.09920945
_symmetry_Int_Tables_number   1
_chemical_formula_structural   MgAl2O4
_chemical_formula_sum   'Mg8 Al16 O32'
_cell_volume   544.03370341
_cell_formula_units_Z   8
loop_
 _symmetry_equiv_pos_site_id
 _symmetry_equiv_pos_as_xyz
  1  'x, y, z'
loop_
 _atom_site_type_symbol
 _atom_site_label
 _atom_site_symmetry_multiplicity
 _atom_site_fract_x
 _atom_site_fract_y
 _atom_site_fract_z
 _atom_site_occupancy
  Mg  Mg0  1  0.655673  0.344327  0.966334  1
  Mg  Mg1  1  0.905082  0.094918  0.714308  1
  Mg  Mg2  1  0.249067  0.750933  0.747392  1
  Mg  Mg3  1  0.626964  0.373036  0.375872  1
  Mg  Mg4  1  0.405703  0.594297  0.222419  1
  Mg  Mg5  1  0.845944  0.154056  0.533240  1
  Mg  Mg6  1  0.999813  0.000187  0.998685  1
  Mg  Mg7  1  0.096415  0.903585  0.278491  1
  Al  Al8  1  0.120385  0.879615  0.875299  1
  Al  Al9  1  0.120507  0.365605  0.875311  1
  Al  Al10  1  0.634395  0.879493  0.875311  1
  Al  Al11  1  0.373993  0.626007  0.625087  1
  Al  Al12  1  0.374484  0.123428  0.624913  1
  Al  Al13  1  0.151302  0.848698  0.468844  1
  Al  Al14  1  0.876572  0.625516  0.624913  1
  Al  Al15  1  0.628402  0.882121  0.374842  1
  Al  Al16  1  0.595382  0.404618  0.786298  1
  Al  Al17  1  0.500175  0.499825  0.502953  1
  Al  Al18  1  0.117879  0.371598  0.374842  1
  Al  Al19  1  0.872656  0.127344  0.125296  1
  Al  Al20  1  0.872277  0.619160  0.125677  1
  Al  Al21  1  0.751353  0.248647  0.251069  1
  Al  Al22  1  0.380840  0.127723  0.125677  1
  Al  Al23  1  0.344125  0.655875  0.032715  1
  O  O24  1  0.282657  0.176669  0.929189  1
  O  O25  1  0.939515  0.060485  0.819016  1
  O  O26  1  0.823331  0.717343  0.929189  1
  O  O27  1  0.823454  0.176546  0.929236  1
  O  O28  1  0.530959  0.927594  0.676135  1
  O  O29  1  0.432152  0.567848  0.817916  1
  O  O30  1  0.431957  0.046380  0.818004  1
  O  O31  1  0.311162  0.688838  0.933424  1
  O  O32  1  0.072406  0.469041  0.676135  1
  O  O33  1  0.187908  0.812092  0.563932  1
  O  O34  1  0.072674  0.927326  0.676000  1
  O  O35  1  0.953620  0.568043  0.818004  1
  O  O36  1  0.793216  0.689428  0.441034  1
  O  O37  1  0.668707  0.331293  0.566993  1
  O  O38  1  0.667336  0.768746  0.567947  1
  O  O39  1  0.563043  0.436957  0.688034  1
  O  O40  1  0.310572  0.206784  0.441034  1
  O  O41  1  0.432326  0.567674  0.326922  1
  O  O42  1  0.231254  0.332664  0.567947  1
  O  O43  1  0.317647  0.682353  0.438633  1
  O  O44  1  0.024820  0.418495  0.183969  1
  O  O45  1  0.925673  0.074327  0.315765  1
  O  O46  1  0.819383  0.180617  0.429426  1
  O  O47  1  0.689979  0.310021  0.071870  1
  O  O48  1  0.581505  0.975180  0.183969  1
  O  O49  1  0.934506  0.526137  0.312228  1
  O  O50  1  0.579505  0.420495  0.185000  1
  O  O51  1  0.473863  0.065494  0.312228  1
  O  O52  1  0.186105  0.813895  0.067540  1
  O  O53  1  0.185898  0.304418  0.067430  1
  O  O54  1  0.057897  0.942103  0.172632  1
  O  O55  1  0.695582  0.814102  0.067430  1
