# generated using pymatgen
data_MnH2SO4
_symmetry_space_group_name_H-M   'P 1'
_cell_length_a   4.91394516
_cell_length_b   12.38945055
_cell_length_c   7.53414316
_cell_angle_alpha   90.00000000
_cell_angle_beta   127.05415551
_cell_angle_gamma   90.00000000
_symmetry_Int_Tables_number   1
_chemical_formula_structural   MnH2SO4
_chemical_formula_sum   'Mn4 H8 S4 O16'
_cell_volume   366.06246921
_cell_formula_units_Z   4
loop_
 _symmetry_equiv_pos_site_id
 _symmetry_equiv_pos_as_xyz
  1  'x, y, z'
loop_
 _atom_site_type_symbol
 _atom_site_label
 _atom_site_symmetry_multiplicity
 _atom_site_fract_x
 _atom_site_fract_y
 _atom_site_fract_z
 _atom_site_occupancy
  Mn  Mn0  1  0.173639  0.224766  0.301781  1
  Mn  Mn1  1  0.826361  0.724766  0.198219  1
  Mn  Mn2  1  0.826361  0.775234  0.698219  1
  Mn  Mn3  1  0.173639  0.275234  0.801781  1
  H  H4  1  0.829610  0.104170  0.424415  1
  H  H5  1  0.170390  0.604170  0.075585  1
  H  H6  1  0.170390  0.895830  0.575585  1
  H  H7  1  0.829610  0.395830  0.924415  1
  H  H8  1  0.772337  0.026925  0.238355  1
  H  H9  1  0.227663  0.526925  0.261645  1
  H  H10  1  0.227663  0.973075  0.761645  1
  H  H11  1  0.772337  0.473075  0.738355  1
  S  S12  1  0.735480  0.104896  0.795355  1
  S  S13  1  0.264520  0.604896  0.704645  1
  S  S14  1  0.264520  0.895104  0.204645  1
  S  S15  1  0.735480  0.395104  0.295355  1
  O  O16  1  0.040839  0.323449  0.483755  1
  O  O17  1  0.959161  0.823449  0.016245  1
  O  O18  1  0.959161  0.676551  0.516245  1
  O  O19  1  0.040839  0.176551  0.983755  1
  O  O20  1  0.668700  0.162607  0.585501  1
  O  O21  1  0.331300  0.662607  0.914499  1
  O  O22  1  0.331300  0.837393  0.414499  1
  O  O23  1  0.668700  0.337393  0.085501  1
  O  O24  1  0.433198  0.130572  0.795790  1
  O  O25  1  0.566802  0.630572  0.704210  1
  O  O26  1  0.566802  0.869428  0.204210  1
  O  O27  1  0.433198  0.369428  0.295790  1
  O  O28  1  0.883013  0.405839  0.818619  1
  O  O29  1  0.116987  0.905839  0.681381  1
  O  O30  1  0.116987  0.594161  0.181381  1
  O  O31  1  0.883013  0.094161  0.318619  1
