# generated using pymatgen
data_Cs3W2Cl9
_symmetry_space_group_name_H-M   'P 1'
_cell_length_a   7.55488966
_cell_length_b   7.55488966
_cell_length_c   18.21011236
_cell_angle_alpha   90.00000000
_cell_angle_beta   90.00000000
_cell_angle_gamma   120.00000000
_symmetry_Int_Tables_number   1
_chemical_formula_structural   Cs3W2Cl9
_chemical_formula_sum   'Cs6 W4 Cl18'
_cell_volume   900.11812829
_cell_formula_units_Z   2
loop_
 _symmetry_equiv_pos_site_id
 _symmetry_equiv_pos_as_xyz
  1  'x, y, z'
loop_
 _atom_site_type_symbol
 _atom_site_label
 _atom_site_symmetry_multiplicity
 _atom_site_fract_x
 _atom_site_fract_y
 _atom_site_fract_z
 _atom_site_occupancy
  Cs  Cs0  1  0.333333  0.666667  0.072290  1
  Cs  Cs1  1  0.000000  0.000000  0.250000  1
  Cs  Cs2  1  0.333333  0.666667  0.427710  1
  Cs  Cs3  1  0.000000  0.000000  0.750000  1
  Cs  Cs4  1  0.666667  0.333333  0.572290  1
  Cs  Cs5  1  0.666667  0.333333  0.927710  1
  W  W6  1  0.333333  0.666667  0.673662  1
  W  W7  1  0.333333  0.666667  0.826338  1
  W  W8  1  0.666667  0.333333  0.173662  1
  W  W9  1  0.666667  0.333333  0.326338  1
  Cl  Cl10  1  0.491959  0.508041  0.750000  1
  Cl  Cl11  1  0.983918  0.491959  0.250000  1
  Cl  Cl12  1  0.508041  0.491959  0.250000  1
  Cl  Cl13  1  0.636205  0.818103  0.597853  1
  Cl  Cl14  1  0.818103  0.636205  0.402147  1
  Cl  Cl15  1  0.508041  0.016082  0.250000  1
  Cl  Cl16  1  0.181897  0.818103  0.597853  1
  Cl  Cl17  1  0.181897  0.818103  0.902147  1
  Cl  Cl18  1  0.818103  0.181897  0.097853  1
  Cl  Cl19  1  0.181897  0.363795  0.902147  1
  Cl  Cl20  1  0.363795  0.181897  0.097853  1
  Cl  Cl21  1  0.818103  0.636205  0.097853  1
  Cl  Cl22  1  0.181897  0.363795  0.597853  1
  Cl  Cl23  1  0.491959  0.983918  0.750000  1
  Cl  Cl24  1  0.016082  0.508041  0.750000  1
  Cl  Cl25  1  0.363795  0.181897  0.402147  1
  Cl  Cl26  1  0.636205  0.818103  0.902147  1
  Cl  Cl27  1  0.818103  0.181897  0.402147  1
