# generated using pymatgen
data_SiO2
_symmetry_space_group_name_H-M   'P 1'
_cell_length_a   7.48763479
_cell_length_b   11.56065203
_cell_length_c   11.67784738
_cell_angle_alpha   104.84707491
_cell_angle_beta   94.74801345
_cell_angle_gamma   96.16795430
_symmetry_Int_Tables_number   1
_chemical_formula_structural   SiO2
_chemical_formula_sum   'Si16 O32'
_cell_volume   965.03125209
_cell_formula_units_Z   16
loop_
 _symmetry_equiv_pos_site_id
 _symmetry_equiv_pos_as_xyz
  1  'x, y, z'
loop_
 _atom_site_type_symbol
 _atom_site_label
 _atom_site_symmetry_multiplicity
 _atom_site_fract_x
 _atom_site_fract_y
 _atom_site_fract_z
 _atom_site_occupancy
  Si  Si0  1  0.695964  0.440743  0.123633  1
  Si  Si1  1  0.590447  0.857085  0.356559  1
  Si  Si2  1  0.430724  0.638913  0.142287  1
  Si  Si3  1  0.955350  0.761533  0.432265  1
  Si  Si4  1  0.409553  0.142915  0.643441  1
  Si  Si5  1  0.670445  0.132562  0.441040  1
  Si  Si6  1  0.220866  0.412691  0.428232  1
  Si  Si7  1  0.569276  0.361087  0.857713  1
  Si  Si8  1  0.389082  0.640411  0.644657  1
  Si  Si9  1  0.304036  0.559257  0.876367  1
  Si  Si10  1  0.044650  0.238467  0.567735  1
  Si  Si11  1  0.925066  0.459188  0.758028  1
  Si  Si12  1  0.610918  0.359589  0.355343  1
  Si  Si13  1  0.074934  0.540812  0.241972  1
  Si  Si14  1  0.329555  0.867438  0.558960  1
  Si  Si15  1  0.779134  0.587309  0.571768  1
  O  O16  1  0.491813  0.774448  0.228094  1
  O  O17  1  0.395421  0.002177  0.646210  1
  O  O18  1  0.126271  0.864431  0.494613  1
  O  O19  1  0.873729  0.135569  0.505387  1
  O  O20  1  0.372875  0.649226  0.008102  1
  O  O21  1  0.207997  0.176136  0.616159  1
  O  O22  1  0.098644  0.447787  0.324090  1
  O  O23  1  0.602325  0.564038  0.143083  1
  O  O24  1  0.901356  0.552213  0.675910  1
  O  O25  1  0.893184  0.694347  0.531627  1
  O  O26  1  0.106816  0.305653  0.468373  1
  O  O27  1  0.357380  0.627599  0.776443  1
  O  O28  1  0.730934  0.469601  0.457465  1
  O  O29  1  0.604579  0.997823  0.353790  1
  O  O30  1  0.627125  0.350774  0.991898  1
  O  O31  1  0.329554  0.769339  0.636642  1
  O  O32  1  0.269066  0.530399  0.542535  1
  O  O33  1  0.399943  0.363520  0.375552  1
  O  O34  1  0.508187  0.225552  0.771906  1
  O  O35  1  0.262798  0.568468  0.188268  1
  O  O36  1  0.019076  0.666566  0.319886  1
  O  O37  1  0.600057  0.636480  0.624448  1
  O  O38  1  0.792003  0.823864  0.383841  1
  O  O39  1  0.469008  0.833066  0.459503  1
  O  O40  1  0.914585  0.476841  0.134367  1
  O  O41  1  0.397675  0.435962  0.856917  1
  O  O42  1  0.980924  0.333434  0.680114  1
  O  O43  1  0.642620  0.372401  0.223557  1
  O  O44  1  0.085415  0.523159  0.865633  1
  O  O45  1  0.670446  0.230661  0.363358  1
  O  O46  1  0.737202  0.431532  0.811732  1
  O  O47  1  0.530992  0.166934  0.540497  1
