# generated using pymatgen
data_MoP2NCl12
_symmetry_space_group_name_H-M   'P 1'
_cell_length_a   8.44579356
_cell_length_b   21.82542515
_cell_length_c   10.60266989
_cell_angle_alpha   90.00000000
_cell_angle_beta   101.31847589
_cell_angle_gamma   90.00000000
_symmetry_Int_Tables_number   1
_chemical_formula_structural   MoP2NCl12
_chemical_formula_sum   'Mo4 P8 N4 Cl48'
_cell_volume   1916.41158563
_cell_formula_units_Z   4
loop_
 _symmetry_equiv_pos_site_id
 _symmetry_equiv_pos_as_xyz
  1  'x, y, z'
loop_
 _atom_site_type_symbol
 _atom_site_label
 _atom_site_symmetry_multiplicity
 _atom_site_fract_x
 _atom_site_fract_y
 _atom_site_fract_z
 _atom_site_occupancy
  Mo  Mo0  1  0.156267  0.891618  0.195268  1
  Mo  Mo1  1  0.156267  0.608382  0.695268  1
  Mo  Mo2  1  0.843733  0.108382  0.804732  1
  Mo  Mo3  1  0.843733  0.391618  0.304732  1
  P  P4  1  0.311400  0.330444  0.870816  1
  P  P5  1  0.688600  0.669556  0.129184  1
  P  P6  1  0.444432  0.897896  0.738103  1
  P  P7  1  0.555568  0.397896  0.761897  1
  P  P8  1  0.311400  0.169556  0.370816  1
  P  P9  1  0.444432  0.602104  0.238103  1
  P  P10  1  0.688600  0.830444  0.629184  1
  P  P11  1  0.555568  0.102104  0.261897  1
  N  N12  1  0.556278  0.620819  0.141972  1
  N  N13  1  0.443722  0.379181  0.858028  1
  N  N14  1  0.556278  0.879181  0.641972  1
  N  N15  1  0.443722  0.120819  0.358028  1
  Cl  Cl16  1  0.684934  0.328285  0.716729  1
  Cl  Cl17  1  0.598023  0.747388  0.585676  1
  Cl  Cl18  1  0.709996  0.038328  0.337280  1
  Cl  Cl19  1  0.125765  0.796844  0.085234  1
  Cl  Cl20  1  0.875153  0.895211  0.181399  1
  Cl  Cl21  1  0.875153  0.604789  0.681399  1
  Cl  Cl22  1  0.812341  0.335559  0.109785  1
  Cl  Cl23  1  0.566204  0.568766  0.402369  1
  Cl  Cl24  1  0.598023  0.752612  0.085676  1
  Cl  Cl25  1  0.433796  0.431234  0.597631  1
  Cl  Cl26  1  0.561903  0.110174  0.781363  1
  Cl  Cl27  1  0.857252  0.680213  0.287467  1
  Cl  Cl28  1  0.187659  0.835559  0.390215  1
  Cl  Cl29  1  0.315066  0.828285  0.783271  1
  Cl  Cl30  1  0.829799  0.014336  0.694261  1
  Cl  Cl31  1  0.125765  0.703156  0.585234  1
  Cl  Cl32  1  0.136528  0.941163  0.997556  1
  Cl  Cl33  1  0.803403  0.646632  0.991114  1
  Cl  Cl34  1  0.142748  0.180213  0.212533  1
  Cl  Cl35  1  0.170201  0.514336  0.805739  1
  Cl  Cl36  1  0.124847  0.104789  0.818601  1
  Cl  Cl37  1  0.315066  0.671715  0.283271  1
  Cl  Cl38  1  0.438097  0.610174  0.718637  1
  Cl  Cl39  1  0.187659  0.664441  0.890215  1
  Cl  Cl40  1  0.857252  0.819787  0.787467  1
  Cl  Cl41  1  0.196597  0.353368  0.008886  1
  Cl  Cl42  1  0.290004  0.961672  0.662720  1
  Cl  Cl43  1  0.874235  0.203156  0.914766  1
  Cl  Cl44  1  0.136528  0.558837  0.497556  1
  Cl  Cl45  1  0.709996  0.461672  0.837280  1
  Cl  Cl46  1  0.812341  0.164441  0.609785  1
  Cl  Cl47  1  0.124847  0.395211  0.318601  1
  Cl  Cl48  1  0.863472  0.058837  0.002444  1
  Cl  Cl49  1  0.829799  0.485664  0.194261  1
  Cl  Cl50  1  0.874235  0.296844  0.414766  1
  Cl  Cl51  1  0.170201  0.985664  0.305739  1
  Cl  Cl52  1  0.401977  0.252612  0.414324  1
  Cl  Cl53  1  0.566204  0.931234  0.902369  1
  Cl  Cl54  1  0.196597  0.146632  0.508886  1
  Cl  Cl55  1  0.438097  0.889826  0.218637  1
  Cl  Cl56  1  0.142748  0.319787  0.712533  1
  Cl  Cl57  1  0.433796  0.068766  0.097631  1
  Cl  Cl58  1  0.684934  0.171715  0.216729  1
  Cl  Cl59  1  0.863472  0.441163  0.502444  1
  Cl  Cl60  1  0.803403  0.853368  0.491114  1
  Cl  Cl61  1  0.401977  0.247388  0.914324  1
  Cl  Cl62  1  0.290004  0.538328  0.162720  1
  Cl  Cl63  1  0.561903  0.389826  0.281363  1
