# generated using pymatgen
data_Ba3(CdSb2)2
_symmetry_space_group_name_H-M   'P 1'
_cell_length_a   9.40844787
_cell_length_b   9.40844787
_cell_length_c   7.82919627
_cell_angle_alpha   68.74738335
_cell_angle_beta   111.25261665
_cell_angle_gamma   149.56955195
_symmetry_Int_Tables_number   1
_chemical_formula_structural   Ba3(CdSb2)2
_chemical_formula_sum   'Ba3 Cd2 Sb4'
_cell_volume   325.30754722
_cell_formula_units_Z   1
loop_
 _symmetry_equiv_pos_site_id
 _symmetry_equiv_pos_as_xyz
  1  'x, y, z'
loop_
 _atom_site_type_symbol
 _atom_site_label
 _atom_site_symmetry_multiplicity
 _atom_site_fract_x
 _atom_site_fract_y
 _atom_site_fract_z
 _atom_site_occupancy
  Ba  Ba0  1  0.857909  0.142091  0.409351  1
  Ba  Ba1  1  0.142091  0.857909  0.590649  1
  Ba  Ba2  1  0.000000  0.000000  0.000000  1
  Cd  Cd3  1  0.331869  0.668131  0.028341  1
  Cd  Cd4  1  0.668131  0.331869  0.971659  1
  Sb  Sb5  1  0.497877  0.502123  0.314501  1
  Sb  Sb6  1  0.792448  0.207552  0.802639  1
  Sb  Sb7  1  0.502123  0.497877  0.685499  1
  Sb  Sb8  1  0.207552  0.792448  0.197361  1
