# generated using pymatgen
data_Sr2Fe2Se2OF2
_symmetry_space_group_name_H-M   'P 1'
_cell_length_a   9.90546543
_cell_length_b   9.90546543
_cell_length_c   9.90546543
_cell_angle_alpha   155.72987475
_cell_angle_beta   155.72987475
_cell_angle_gamma   34.59000205
_symmetry_Int_Tables_number   1
_chemical_formula_structural   Sr2Fe2Se2OF2
_chemical_formula_sum   'Sr2 Fe2 Se2 O1 F2'
_cell_volume   164.03111181
_cell_formula_units_Z   1
loop_
 _symmetry_equiv_pos_site_id
 _symmetry_equiv_pos_as_xyz
  1  'x, y, z'
loop_
 _atom_site_type_symbol
 _atom_site_label
 _atom_site_symmetry_multiplicity
 _atom_site_fract_x
 _atom_site_fract_y
 _atom_site_fract_z
 _atom_site_occupancy
  Sr  Sr0  1  0.675537  0.675537  0.000000  1
  Sr  Sr1  1  0.324463  0.324463  0.000000  1
  Fe  Fe2  1  0.000000  0.500000  0.500000  1
  Fe  Fe3  1  0.500000  0.000000  0.500000  1
  Se  Se4  1  0.902435  0.902435  0.000000  1
  Se  Se5  1  0.097566  0.097566  0.000000  1
  O  O6  1  0.500000  0.500000  0.000000  1
  F  F7  1  0.250000  0.750000  0.500000  1
  F  F8  1  0.750000  0.250000  0.500000  1
