# generated using pymatgen
data_Pa3P4
_symmetry_space_group_name_H-M   'P 1'
_cell_length_a   7.17726519
_cell_length_b   7.17726519
_cell_length_c   7.17726519
_cell_angle_alpha   109.47122063
_cell_angle_beta   109.47122063
_cell_angle_gamma   109.47122063
_symmetry_Int_Tables_number   1
_chemical_formula_structural   Pa3P4
_chemical_formula_sum   'Pa6 P8'
_cell_volume   284.61323314
_cell_formula_units_Z   2
loop_
 _symmetry_equiv_pos_site_id
 _symmetry_equiv_pos_as_xyz
  1  'x, y, z'
loop_
 _atom_site_type_symbol
 _atom_site_label
 _atom_site_symmetry_multiplicity
 _atom_site_fract_x
 _atom_site_fract_y
 _atom_site_fract_z
 _atom_site_occupancy
  Pa  Pa0  1  0.125000  0.750000  0.875000  1
  Pa  Pa1  1  0.625000  0.375000  0.250000  1
  Pa  Pa2  1  0.375000  0.250000  0.625000  1
  Pa  Pa3  1  0.750000  0.875000  0.125000  1
  Pa  Pa4  1  0.250000  0.625000  0.375000  1
  Pa  Pa5  1  0.875000  0.125000  0.750000  1
  P  P6  1  0.660304  0.660304  0.660304  1
  P  P7  1  1.000000  0.839696  0.500000  1
  P  P8  1  0.839696  0.500000  1.000000  1
  P  P9  1  1.000000  0.339696  0.500000  1
  P  P10  1  0.500000  1.000000  0.839696  1
  P  P11  1  0.500000  1.000000  0.339696  1
  P  P12  1  0.339696  0.500000  1.000000  1
  P  P13  1  0.160304  0.160304  0.160304  1
