# generated using pymatgen
data_MnAs2S2(OF3)4
_symmetry_space_group_name_H-M   'P 1'
_cell_length_a   11.99514322
_cell_length_b   10.30352605
_cell_length_c   9.09321893
_cell_angle_alpha   76.11548992
_cell_angle_beta   56.49906101
_cell_angle_gamma   47.38544908
_symmetry_Int_Tables_number   1
_chemical_formula_structural   MnAs2S2(OF3)4
_chemical_formula_sum   'Mn2 As4 S4 O8 F24'
_cell_volume   673.09765684
_cell_formula_units_Z   2
loop_
 _symmetry_equiv_pos_site_id
 _symmetry_equiv_pos_as_xyz
  1  'x, y, z'
loop_
 _atom_site_type_symbol
 _atom_site_label
 _atom_site_symmetry_multiplicity
 _atom_site_fract_x
 _atom_site_fract_y
 _atom_site_fract_z
 _atom_site_occupancy
  Mn  Mn0  1  0.788602  0.711398  0.711398  1
  Mn  Mn1  1  0.538602  0.461398  0.461398  1
  As  As2  1  0.449143  0.663473  0.865870  1
  As  As3  1  0.021514  0.865870  0.663473  1
  As  As4  1  0.384130  0.228486  0.800857  1
  As  As5  1  0.586527  0.800857  0.228486  1
  S  S6  1  0.943788  0.746883  0.254899  1
  S  S7  1  0.054431  0.254899  0.746883  1
  S  S8  1  0.995101  0.195569  0.306212  1
  S  S9  1  0.503117  0.306212  0.195569  1
  O  O10  1  0.914594  0.673239  0.418752  1
  O  O11  1  0.993415  0.418752  0.673239  1
  O  O12  1  0.831248  0.256585  0.335406  1
  O  O13  1  0.576761  0.335406  0.256585  1
  O  O14  1  0.853118  0.934788  0.278966  1
  O  O15  1  0.933128  0.278966  0.934788  1
  O  O16  1  0.971034  0.316872  0.396882  1
  O  O17  1  0.315212  0.396882  0.316872  1
  F  F18  1  0.596447  0.711967  0.738157  1
  F  F19  1  0.953428  0.738157  0.711967  1
  F  F20  1  0.511843  0.296572  0.653553  1
  F  F21  1  0.538033  0.653553  0.296572  1
  F  F22  1  0.522325  0.578852  0.646644  1
  F  F23  1  0.252179  0.646644  0.578852  1
  F  F24  1  0.603356  0.997821  0.727675  1
  F  F25  1  0.671148  0.727675  0.997821  1
  F  F26  1  0.386920  0.744252  0.069263  1
  F  F27  1  0.799566  0.069263  0.744252  1
  F  F28  1  0.180737  0.450434  0.863080  1
  F  F29  1  0.505748  0.863080  0.450434  1
  F  F30  1  0.274266  0.876827  0.861617  1
  F  F31  1  0.987290  0.861617  0.876827  1
  F  F32  1  0.388383  0.262710  0.975734  1
  F  F33  1  0.373173  0.975734  0.262710  1
  F  F34  1  0.638420  0.445193  0.848544  1
  F  F35  1  0.067844  0.848544  0.445193  1
  F  F36  1  0.401456  0.182156  0.611580  1
  F  F37  1  0.804807  0.611580  0.182156  1
  F  F38  1  0.317123  0.606190  0.975678  1
  F  F39  1  0.101010  0.975678  0.606190  1
  F  F40  1  0.274322  0.148990  0.932877  1
  F  F41  1  0.643810  0.932877  0.148990  1
