# generated using pymatgen
data_Cs4Mg3F10
_symmetry_space_group_name_H-M   'P 1'
_cell_length_a   8.01340629
_cell_length_b   8.01340629
_cell_length_c   13.89973451
_cell_angle_alpha   90.00000000
_cell_angle_beta   90.00000000
_cell_angle_gamma   134.22535645
_symmetry_Int_Tables_number   1
_chemical_formula_structural   Cs4Mg3F10
_chemical_formula_sum   'Cs8 Mg6 F20'
_cell_volume   639.61530770
_cell_formula_units_Z   2
loop_
 _symmetry_equiv_pos_site_id
 _symmetry_equiv_pos_as_xyz
  1  'x, y, z'
loop_
 _atom_site_type_symbol
 _atom_site_label
 _atom_site_symmetry_multiplicity
 _atom_site_fract_x
 _atom_site_fract_y
 _atom_site_fract_z
 _atom_site_occupancy
  Cs  Cs0  1  0.252952  0.747048  0.607817  1
  Cs  Cs1  1  0.747048  0.252952  0.392183  1
  Cs  Cs2  1  0.247048  0.752952  0.107817  1
  Cs  Cs3  1  0.752952  0.247048  0.892183  1
  Cs  Cs4  1  0.949042  0.050958  0.638619  1
  Cs  Cs5  1  0.050958  0.949042  0.361381  1
  Cs  Cs6  1  0.550958  0.449042  0.138619  1
  Cs  Cs7  1  0.449042  0.550958  0.861381  1
  Mg  Mg8  1  0.616780  0.383220  0.657570  1
  Mg  Mg9  1  0.383220  0.616780  0.342430  1
  Mg  Mg10  1  0.883220  0.116780  0.157570  1
  Mg  Mg11  1  0.116780  0.883220  0.842430  1
  Mg  Mg12  1  0.500000  0.500000  0.500000  1
  Mg  Mg13  1  0.000000  0.000000  0.000000  1
  F  F14  1  0.613230  0.805718  0.459716  1
  F  F15  1  0.805718  0.613230  0.540284  1
  F  F16  1  0.886770  0.694282  0.959716  1
  F  F17  1  0.694282  0.886770  0.040284  1
  F  F18  1  0.386770  0.194282  0.540284  1
  F  F19  1  0.194282  0.386770  0.459716  1
  F  F20  1  0.113230  0.305718  0.040284  1
  F  F21  1  0.305718  0.113230  0.959716  1
  F  F22  1  0.474037  0.525963  0.642727  1
  F  F23  1  0.525963  0.474037  0.357273  1
  F  F24  1  0.025963  0.974037  0.142727  1
  F  F25  1  0.974037  0.025963  0.857273  1
  F  F26  1  0.748177  0.251823  0.649832  1
  F  F27  1  0.251823  0.748177  0.350168  1
  F  F28  1  0.359660  0.140340  0.750000  1
  F  F29  1  0.140340  0.359660  0.250000  1
  F  F30  1  0.640340  0.859660  0.250000  1
  F  F31  1  0.859660  0.640340  0.750000  1
  F  F32  1  0.248177  0.751823  0.850168  1
  F  F33  1  0.751823  0.248177  0.149832  1
