# generated using pymatgen
data_Eu(IO3)3
_symmetry_space_group_name_H-M   'P 1'
_cell_length_a   8.94752572
_cell_length_b   6.07072456
_cell_length_c   17.00423616
_cell_angle_alpha   90.00000000
_cell_angle_beta   114.82796415
_cell_angle_gamma   90.00000000
_symmetry_Int_Tables_number   1
_chemical_formula_structural   Eu(IO3)3
_chemical_formula_sum   'Eu4 I12 O36'
_cell_volume   838.26630922
_cell_formula_units_Z   4
loop_
 _symmetry_equiv_pos_site_id
 _symmetry_equiv_pos_as_xyz
  1  'x, y, z'
loop_
 _atom_site_type_symbol
 _atom_site_label
 _atom_site_symmetry_multiplicity
 _atom_site_fract_x
 _atom_site_fract_y
 _atom_site_fract_z
 _atom_site_occupancy
  Eu  Eu0  1  0.859734  0.769709  0.899509  1
  Eu  Eu1  1  0.859734  0.730291  0.399509  1
  Eu  Eu2  1  0.140266  0.269709  0.600491  1
  Eu  Eu3  1  0.140266  0.230291  0.100491  1
  I  I4  1  0.356287  0.861871  0.021917  1
  I  I5  1  0.581998  0.409259  0.197908  1
  I  I6  1  0.418002  0.909259  0.302092  1
  I  I7  1  0.069252  0.312728  0.852190  1
  I  I8  1  0.581998  0.090741  0.697908  1
  I  I9  1  0.930748  0.812728  0.647810  1
  I  I10  1  0.356287  0.638129  0.521917  1
  I  I11  1  0.643713  0.138129  0.978083  1
  I  I12  1  0.069252  0.187272  0.352190  1
  I  I13  1  0.418002  0.590741  0.802092  1
  I  I14  1  0.643713  0.361871  0.478083  1
  I  I15  1  0.930748  0.687272  0.147810  1
  O  O16  1  0.131771  0.891064  0.990308  1
  O  O17  1  0.902037  0.600389  0.039163  1
  O  O18  1  0.093925  0.894692  0.170831  1
  O  O19  1  0.656116  0.681515  0.244313  1
  O  O20  1  0.633014  0.502185  0.866233  1
  O  O21  1  0.398445  0.030150  0.118439  1
  O  O22  1  0.339335  0.587762  0.885399  1
  O  O23  1  0.355158  0.419601  0.445070  1
  O  O24  1  0.660665  0.412238  0.114601  1
  O  O25  1  0.902037  0.899611  0.539163  1
  O  O26  1  0.938921  0.551476  0.800456  1
  O  O27  1  0.355158  0.080399  0.945070  1
  O  O28  1  0.656116  0.818485  0.744313  1
  O  O29  1  0.938921  0.948524  0.300456  1
  O  O30  1  0.601555  0.530150  0.381561  1
  O  O31  1  0.093925  0.605308  0.670831  1
  O  O32  1  0.366986  0.497815  0.133767  1
  O  O33  1  0.906075  0.394692  0.329169  1
  O  O34  1  0.131771  0.608936  0.490308  1
  O  O35  1  0.366986  0.002185  0.633767  1
  O  O36  1  0.339335  0.912238  0.385399  1
  O  O37  1  0.061079  0.051476  0.699544  1
  O  O38  1  0.343884  0.318485  0.755687  1
  O  O39  1  0.097963  0.100389  0.460837  1
  O  O40  1  0.398445  0.469850  0.618439  1
  O  O41  1  0.644842  0.580399  0.554930  1
  O  O42  1  0.660665  0.087762  0.614601  1
  O  O43  1  0.906075  0.105308  0.829169  1
  O  O44  1  0.061079  0.448524  0.199544  1
  O  O45  1  0.633014  0.997815  0.366233  1
  O  O46  1  0.644842  0.919601  0.054930  1
  O  O47  1  0.868229  0.391064  0.509692  1
  O  O48  1  0.343884  0.181515  0.255687  1
  O  O49  1  0.097963  0.399611  0.960837  1
  O  O50  1  0.868229  0.108936  0.009692  1
  O  O51  1  0.601555  0.969850  0.881561  1
