# generated using pymatgen
data_NdCoSb3
_symmetry_space_group_name_H-M   'P 1'
_cell_length_a   6.20255342
_cell_length_b   12.14786514
_cell_length_c   12.75695103
_cell_angle_alpha   90.00000000
_cell_angle_beta   90.00000000
_cell_angle_gamma   90.00000000
_symmetry_Int_Tables_number   1
_chemical_formula_structural   NdCoSb3
_chemical_formula_sum   'Nd8 Co8 Sb24'
_cell_volume   961.20797119
_cell_formula_units_Z   8
loop_
 _symmetry_equiv_pos_site_id
 _symmetry_equiv_pos_as_xyz
  1  'x, y, z'
loop_
 _atom_site_type_symbol
 _atom_site_label
 _atom_site_symmetry_multiplicity
 _atom_site_fract_x
 _atom_site_fract_y
 _atom_site_fract_z
 _atom_site_occupancy
  Nd  Nd0  1  0.222076  0.250000  0.303079  1
  Nd  Nd1  1  0.250000  0.000000  0.700492  1
  Nd  Nd2  1  0.777924  0.750000  0.696921  1
  Nd  Nd3  1  0.277924  0.750000  0.303079  1
  Nd  Nd4  1  0.750000  0.500000  0.299508  1
  Nd  Nd5  1  0.750000  0.000000  0.299508  1
  Nd  Nd6  1  0.722076  0.250000  0.696921  1
  Nd  Nd7  1  0.250000  0.500000  0.700492  1
  Co  Co8  1  0.038444  0.863946  0.098105  1
  Co  Co9  1  0.461556  0.136054  0.098105  1
  Co  Co10  1  0.961556  0.363946  0.901895  1
  Co  Co11  1  0.038444  0.636054  0.098105  1
  Co  Co12  1  0.538444  0.863946  0.901895  1
  Co  Co13  1  0.461556  0.363946  0.098105  1
  Co  Co14  1  0.961556  0.136054  0.901895  1
  Co  Co15  1  0.538444  0.636054  0.901895  1
  Sb  Sb16  1  0.230580  0.250000  0.785989  1
  Sb  Sb17  1  0.614311  0.250000  0.944571  1
  Sb  Sb18  1  0.769420  0.750000  0.214011  1
  Sb  Sb19  1  0.114311  0.250000  0.055429  1
  Sb  Sb20  1  0.250000  0.000000  0.219373  1
  Sb  Sb21  1  0.750000  0.000000  0.027854  1
  Sb  Sb22  1  0.985139  0.124285  0.502669  1
  Sb  Sb23  1  0.250000  0.500000  0.219373  1
  Sb  Sb24  1  0.514861  0.624285  0.502669  1
  Sb  Sb25  1  0.750000  0.000000  0.780627  1
  Sb  Sb26  1  0.750000  0.500000  0.027854  1
  Sb  Sb27  1  0.730580  0.250000  0.214011  1
  Sb  Sb28  1  0.485139  0.375715  0.497331  1
  Sb  Sb29  1  0.885689  0.750000  0.944571  1
  Sb  Sb30  1  0.014861  0.624285  0.497331  1
  Sb  Sb31  1  0.269420  0.750000  0.785989  1
  Sb  Sb32  1  0.985139  0.375715  0.502669  1
  Sb  Sb33  1  0.250000  0.000000  0.972146  1
  Sb  Sb34  1  0.750000  0.500000  0.780627  1
  Sb  Sb35  1  0.514861  0.875715  0.502669  1
  Sb  Sb36  1  0.014861  0.875715  0.497331  1
  Sb  Sb37  1  0.485139  0.124285  0.497331  1
  Sb  Sb38  1  0.385689  0.750000  0.055429  1
  Sb  Sb39  1  0.250000  0.500000  0.972146  1
