# generated using pymatgen
data_Sm2AlGe3
_symmetry_space_group_name_H-M   'P 1'
_cell_length_a   4.30969700
_cell_length_b   6.87566026
_cell_length_c   18.07959414
_cell_angle_alpha   90.00000000
_cell_angle_beta   90.00000000
_cell_angle_gamma   90.00000000
_symmetry_Int_Tables_number   1
_chemical_formula_structural   Sm2AlGe3
_chemical_formula_sum   'Sm8 Al4 Ge12'
_cell_volume   535.73475766
_cell_formula_units_Z   4
loop_
 _symmetry_equiv_pos_site_id
 _symmetry_equiv_pos_as_xyz
  1  'x, y, z'
loop_
 _atom_site_type_symbol
 _atom_site_label
 _atom_site_symmetry_multiplicity
 _atom_site_fract_x
 _atom_site_fract_y
 _atom_site_fract_z
 _atom_site_occupancy
  Sm  Sm0  1  0.250000  0.673493  0.704028  1
  Sm  Sm1  1  0.250000  0.672075  0.915647  1
  Sm  Sm2  1  0.750000  0.827925  0.415647  1
  Sm  Sm3  1  0.250000  0.173493  0.795972  1
  Sm  Sm4  1  0.250000  0.172075  0.584353  1
  Sm  Sm5  1  0.750000  0.826507  0.204028  1
  Sm  Sm6  1  0.750000  0.327925  0.084353  1
  Sm  Sm7  1  0.750000  0.326507  0.295972  1
  Al  Al8  1  0.250000  0.951227  0.064377  1
  Al  Al9  1  0.250000  0.451227  0.435623  1
  Al  Al10  1  0.750000  0.048773  0.935623  1
  Al  Al11  1  0.750000  0.548773  0.564377  1
  Ge  Ge12  1  0.750000  0.758569  0.035327  1
  Ge  Ge13  1  0.250000  0.524416  0.175601  1
  Ge  Ge14  1  0.250000  0.142240  0.188163  1
  Ge  Ge15  1  0.750000  0.357760  0.688163  1
  Ge  Ge16  1  0.750000  0.258569  0.464673  1
  Ge  Ge17  1  0.750000  0.975584  0.675601  1
  Ge  Ge18  1  0.750000  0.857760  0.811837  1
  Ge  Ge19  1  0.250000  0.642240  0.311837  1
  Ge  Ge20  1  0.250000  0.024416  0.324399  1
  Ge  Ge21  1  0.250000  0.241431  0.964673  1
  Ge  Ge22  1  0.750000  0.475584  0.824399  1
  Ge  Ge23  1  0.250000  0.741431  0.535327  1
