# generated using pymatgen
data_Mn4Bi3NO15
_symmetry_space_group_name_H-M   'P 1'
_cell_length_a   5.06738317
_cell_length_b   5.06738317
_cell_length_c   13.35117127
_cell_angle_alpha   90.00000000
_cell_angle_beta   90.00000000
_cell_angle_gamma   120.00000000
_symmetry_Int_Tables_number   1
_chemical_formula_structural   Mn4Bi3NO15
_chemical_formula_sum   'Mn4 Bi3 N1 O15'
_cell_volume   296.90498375
_cell_formula_units_Z   1
loop_
 _symmetry_equiv_pos_site_id
 _symmetry_equiv_pos_as_xyz
  1  'x, y, z'
loop_
 _atom_site_type_symbol
 _atom_site_label
 _atom_site_symmetry_multiplicity
 _atom_site_fract_x
 _atom_site_fract_y
 _atom_site_fract_z
 _atom_site_occupancy
  Mn  Mn0  1  0.000000  0.000000  0.181355  1
  Mn  Mn1  1  0.333333  0.666667  0.181015  1
  Mn  Mn2  1  0.333333  0.666667  0.818985  1
  Mn  Mn3  1  0.000000  0.000000  0.818645  1
  Bi  Bi4  1  0.666667  0.333333  0.000000  1
  Bi  Bi5  1  0.666667  0.333333  0.347915  1
  Bi  Bi6  1  0.666667  0.333333  0.652085  1
  N  N7  1  0.333333  0.666667  0.500000  1
  O  O8  1  0.041129  0.333049  0.889411  1
  O  O9  1  0.188841  0.811159  0.500000  1
  O  O10  1  0.301706  0.967743  0.264818  1
  O  O11  1  0.666951  0.958871  0.110589  1
  O  O12  1  0.291920  0.958871  0.889411  1
  O  O13  1  0.666951  0.708080  0.889411  1
  O  O14  1  0.032257  0.698294  0.735182  1
  O  O15  1  0.666037  0.698294  0.264818  1
  O  O16  1  0.188841  0.377682  0.500000  1
  O  O17  1  0.666037  0.967743  0.735182  1
  O  O18  1  0.032257  0.333963  0.264818  1
  O  O19  1  0.301706  0.333963  0.735182  1
  O  O20  1  0.041129  0.708080  0.110589  1
  O  O21  1  0.291920  0.333049  0.110589  1
  O  O22  1  0.622318  0.811159  0.500000  1
