# generated using pymatgen
data_BaTi6O13
_symmetry_space_group_name_H-M   'P 1'
_cell_length_a   7.57115453
_cell_length_b   7.62492239
_cell_length_c   10.00514654
_cell_angle_alpha   72.36554558
_cell_angle_beta   74.45990561
_cell_angle_gamma   60.72660128
_symmetry_Int_Tables_number   1
_chemical_formula_structural   BaTi6O13
_chemical_formula_sum   'Ba2 Ti12 O26'
_cell_volume   475.14510522
_cell_formula_units_Z   2
loop_
 _symmetry_equiv_pos_site_id
 _symmetry_equiv_pos_as_xyz
  1  'x, y, z'
loop_
 _atom_site_type_symbol
 _atom_site_label
 _atom_site_symmetry_multiplicity
 _atom_site_fract_x
 _atom_site_fract_y
 _atom_site_fract_z
 _atom_site_occupancy
  Ba  Ba0  1  0.676219  0.031160  0.131731  1
  Ba  Ba1  1  0.323781  0.968840  0.868269  1
  Ti  Ti2  1  0.207457  0.460352  0.018615  1
  Ti  Ti3  1  0.130780  0.275305  0.496218  1
  Ti  Ti4  1  0.920883  0.914926  0.768972  1
  Ti  Ti5  1  0.318068  0.627864  0.248513  1
  Ti  Ti6  1  0.792543  0.539648  0.981385  1
  Ti  Ti7  1  0.247672  0.491395  0.719974  1
  Ti  Ti8  1  0.407021  0.845656  0.496148  1
  Ti  Ti9  1  0.681932  0.372136  0.751487  1
  Ti  Ti10  1  0.752328  0.508605  0.280026  1
  Ti  Ti11  1  0.079117  0.085074  0.231028  1
  Ti  Ti12  1  0.869220  0.724695  0.503782  1
  Ti  Ti13  1  0.592979  0.154344  0.503852  1
  O  O14  1  0.168776  0.011284  0.612014  1
  O  O15  1  0.562806  0.674093  0.141041  1
  O  O16  1  0.982954  0.276921  0.365941  1
  O  O17  1  0.118902  0.554587  0.391139  1
  O  O18  1  0.367310  0.459736  0.127682  1
  O  O19  1  0.154083  0.708920  0.861172  1
  O  O20  1  0.831224  0.988716  0.387986  1
  O  O21  1  0.127449  0.869603  0.147773  1
  O  O22  1  0.259851  0.171584  0.109050  1
  O  O23  1  0.017046  0.723079  0.634059  1
  O  O24  1  0.723353  0.150522  0.639373  1
  O  O25  1  0.632690  0.540264  0.872318  1
  O  O26  1  0.690877  0.710901  0.376362  1
  O  O27  1  0.944153  0.582240  0.116742  1
  O  O28  1  0.276647  0.849478  0.360627  1
  O  O29  1  0.602137  0.873990  0.599402  1
  O  O30  1  0.740149  0.828416  0.890950  1
  O  O31  1  0.309123  0.289099  0.623638  1
  O  O32  1  0.452292  0.586561  0.625894  1
  O  O33  1  0.397863  0.126010  0.400598  1
  O  O34  1  0.881098  0.445413  0.608861  1
  O  O35  1  0.872551  0.130397  0.852227  1
  O  O36  1  0.845917  0.291080  0.138828  1
  O  O37  1  0.055847  0.417760  0.883258  1
  O  O38  1  0.547708  0.413439  0.374106  1
  O  O39  1  0.437194  0.325907  0.858959  1
