# generated using pymatgen
data_Yb4Mn2Sn5
_symmetry_space_group_name_H-M   'P 1'
_cell_length_a   8.67355107
_cell_length_b   8.67355107
_cell_length_c   7.69440726
_cell_angle_alpha   73.21039833
_cell_angle_beta   106.78960167
_cell_angle_gamma   149.09932654
_symmetry_Int_Tables_number   1
_chemical_formula_structural   Yb4Mn2Sn5
_chemical_formula_sum   'Yb4 Mn2 Sn5'
_cell_volume   283.60782861
_cell_formula_units_Z   1
loop_
 _symmetry_equiv_pos_site_id
 _symmetry_equiv_pos_as_xyz
  1  'x, y, z'
loop_
 _atom_site_type_symbol
 _atom_site_label
 _atom_site_symmetry_multiplicity
 _atom_site_fract_x
 _atom_site_fract_y
 _atom_site_fract_z
 _atom_site_occupancy
  Yb  Yb0  1  0.920506  0.079494  0.136794  1
  Yb  Yb1  1  0.849737  0.150263  0.562422  1
  Yb  Yb2  1  0.079494  0.920506  0.863206  1
  Yb  Yb3  1  0.150263  0.849737  0.437578  1
  Mn  Mn4  1  0.276008  0.723992  0.888639  1
  Mn  Mn5  1  0.723992  0.276008  0.111361  1
  Sn  Sn6  1  0.429244  0.570756  0.838646  1
  Sn  Sn7  1  0.304061  0.695939  0.255899  1
  Sn  Sn8  1  0.500000  0.500000  0.500000  1
  Sn  Sn9  1  0.570756  0.429244  0.161354  1
  Sn  Sn10  1  0.695939  0.304061  0.744101  1
