# generated using pymatgen
data_V2Cu5(HO3)4
_symmetry_space_group_name_H-M   'P 1'
_cell_length_a   5.52096242
_cell_length_b   6.30386662
_cell_length_c   6.94612602
_cell_angle_alpha   93.56916563
_cell_angle_beta   90.57182055
_cell_angle_gamma   90.35454250
_symmetry_Int_Tables_number   1
_chemical_formula_structural   V2Cu5(HO3)4
_chemical_formula_sum   'V2 Cu5 H4 O12'
_cell_volume   241.26234286
_cell_formula_units_Z   1
loop_
 _symmetry_equiv_pos_site_id
 _symmetry_equiv_pos_as_xyz
  1  'x, y, z'
loop_
 _atom_site_type_symbol
 _atom_site_label
 _atom_site_symmetry_multiplicity
 _atom_site_fract_x
 _atom_site_fract_y
 _atom_site_fract_z
 _atom_site_occupancy
  V  V0  1  0.557325  0.191253  0.313843  1
  V  V1  1  0.442675  0.808747  0.686157  1
  Cu  Cu2  1  0.003559  0.846793  0.338228  1
  Cu  Cu3  1  0.000000  0.500000  0.000000  1
  Cu  Cu4  1  0.996441  0.153207  0.661772  1
  Cu  Cu5  1  0.503384  0.683066  0.178250  1
  Cu  Cu6  1  0.496616  0.316934  0.821750  1
  H  H7  1  0.790726  0.878516  0.990737  1
  H  H8  1  0.201311  0.473751  0.344804  1
  H  H9  1  0.209274  0.121484  0.009263  1
  H  H10  1  0.798689  0.526249  0.655196  1
  O  O11  1  0.611742  0.386998  0.149058  1
  O  O12  1  0.393528  0.978918  0.195623  1
  O  O13  1  0.150619  0.883461  0.594773  1
  O  O14  1  0.624687  0.704758  0.509004  1
  O  O15  1  0.375313  0.295242  0.490996  1
  O  O16  1  0.388258  0.613002  0.850942  1
  O  O17  1  0.606472  0.021082  0.804377  1
  O  O18  1  0.831546  0.417453  0.750698  1
  O  O19  1  0.165778  0.228512  0.915199  1
  O  O20  1  0.849381  0.116539  0.405227  1
  O  O21  1  0.168454  0.582547  0.249302  1
  O  O22  1  0.834222  0.771488  0.084801  1
