# generated using pymatgen
data_Na3Fe2(MoO4)3
_symmetry_space_group_name_H-M   'P 1'
_cell_length_a   9.29015609
_cell_length_b   9.29015609
_cell_length_c   7.32417194
_cell_angle_alpha   74.28556376
_cell_angle_beta   105.71443624
_cell_angle_gamma   83.90087065
_symmetry_Int_Tables_number   1
_chemical_formula_structural   Na3Fe2(MoO4)3
_chemical_formula_sum   'Na6 Fe4 Mo6 O24'
_cell_volume   574.64903407
_cell_formula_units_Z   2
loop_
 _symmetry_equiv_pos_site_id
 _symmetry_equiv_pos_as_xyz
  1  'x, y, z'
loop_
 _atom_site_type_symbol
 _atom_site_label
 _atom_site_symmetry_multiplicity
 _atom_site_fract_x
 _atom_site_fract_y
 _atom_site_fract_z
 _atom_site_occupancy
  Na  Na0  1  0.508919  0.508919  0.750000  1
  Na  Na1  1  0.491081  0.491082  0.250000  1
  Na  Na2  1  0.767593  0.767593  0.250000  1
  Na  Na3  1  0.232407  0.232407  0.750000  1
  Na  Na4  1  0.000000  0.000000  0.000000  1
  Na  Na5  1  0.000000  0.000000  0.500000  1
  Fe  Fe6  1  0.445928  0.873895  0.370505  1
  Fe  Fe7  1  0.873895  0.445928  0.129495  1
  Fe  Fe8  1  0.554072  0.126105  0.629495  1
  Fe  Fe9  1  0.126105  0.554072  0.870505  1
  Mo  Mo10  1  0.836992  0.380739  0.626976  1
  Mo  Mo11  1  0.380739  0.836992  0.873024  1
  Mo  Mo12  1  0.163008  0.619261  0.373024  1
  Mo  Mo13  1  0.619261  0.163008  0.126976  1
  Mo  Mo14  1  0.780132  0.780132  0.750000  1
  Mo  Mo15  1  0.219868  0.219868  0.250000  1
  O  O16  1  0.658804  0.741833  0.523580  1
  O  O17  1  0.741833  0.658804  0.976420  1
  O  O18  1  0.341196  0.258167  0.476420  1
  O  O19  1  0.258167  0.341196  0.023580  1
  O  O20  1  0.963453  0.205252  0.694654  1
  O  O21  1  0.205252  0.963453  0.805346  1
  O  O22  1  0.036547  0.794748  0.305346  1
  O  O23  1  0.794748  0.036547  0.194654  1
  O  O24  1  0.839187  0.497348  0.388365  1
  O  O25  1  0.497348  0.839187  0.111635  1
  O  O26  1  0.160813  0.502652  0.611635  1
  O  O27  1  0.502652  0.160813  0.888365  1
  O  O28  1  0.644920  0.344847  0.599987  1
  O  O29  1  0.344847  0.644920  0.900013  1
  O  O30  1  0.355080  0.655153  0.400013  1
  O  O31  1  0.655153  0.355080  0.099987  1
  O  O32  1  0.758083  0.978267  0.768692  1
  O  O33  1  0.978267  0.758083  0.731308  1
  O  O34  1  0.241917  0.021733  0.231308  1
  O  O35  1  0.021733  0.241917  0.268692  1
  O  O36  1  0.899472  0.462707  0.827904  1
  O  O37  1  0.462707  0.899472  0.672096  1
  O  O38  1  0.100528  0.537293  0.172096  1
  O  O39  1  0.537293  0.100528  0.327904  1
