# generated using pymatgen
data_Li2CrF6
_symmetry_space_group_name_H-M   'P 1'
_cell_length_a   4.67729879
_cell_length_b   4.67729879
_cell_length_c   9.04122554
_cell_angle_alpha   90.00000000
_cell_angle_beta   90.00000000
_cell_angle_gamma   90.00000000
_symmetry_Int_Tables_number   1
_chemical_formula_structural   Li2CrF6
_chemical_formula_sum   'Li4 Cr2 F12'
_cell_volume   197.79601199
_cell_formula_units_Z   2
loop_
 _symmetry_equiv_pos_site_id
 _symmetry_equiv_pos_as_xyz
  1  'x, y, z'
loop_
 _atom_site_type_symbol
 _atom_site_label
 _atom_site_symmetry_multiplicity
 _atom_site_fract_x
 _atom_site_fract_y
 _atom_site_fract_z
 _atom_site_occupancy
  Li  Li0  1  0.500000  0.500000  0.334859  1
  Li  Li1  1  0.000000  0.000000  0.165141  1
  Li  Li2  1  0.500000  0.500000  0.665141  1
  Li  Li3  1  0.000000  0.000000  0.834859  1
  Cr  Cr4  1  0.000000  0.000000  0.500000  1
  Cr  Cr5  1  0.500000  0.500000  0.000000  1
  F  F6  1  0.192036  0.192036  0.348046  1
  F  F7  1  0.692036  0.307964  0.848046  1
  F  F8  1  0.807964  0.807964  0.651954  1
  F  F9  1  0.719999  0.280001  0.500000  1
  F  F10  1  0.692036  0.307964  0.151954  1
  F  F11  1  0.192036  0.192036  0.651954  1
  F  F12  1  0.807964  0.807964  0.348046  1
  F  F13  1  0.307964  0.692036  0.151954  1
  F  F14  1  0.280001  0.719999  0.500000  1
  F  F15  1  0.780001  0.780001  0.000000  1
  F  F16  1  0.307964  0.692036  0.848046  1
  F  F17  1  0.219999  0.219999  0.000000  1
