# generated using pymatgen
data_Na2YbMoPO8
_symmetry_space_group_name_H-M   'P 1'
_cell_length_a   11.53277512
_cell_length_b   11.53277512
_cell_length_c   11.53277512
_cell_angle_alpha   144.77483217
_cell_angle_beta   115.58471532
_cell_angle_gamma   75.59722676
_symmetry_Int_Tables_number   1
_chemical_formula_structural   Na2YbMoPO8
_chemical_formula_sum   'Na8 Yb4 Mo4 P4 O32'
_cell_volume   781.87871860
_cell_formula_units_Z   4
loop_
 _symmetry_equiv_pos_site_id
 _symmetry_equiv_pos_as_xyz
  1  'x, y, z'
loop_
 _atom_site_type_symbol
 _atom_site_label
 _atom_site_symmetry_multiplicity
 _atom_site_fract_x
 _atom_site_fract_y
 _atom_site_fract_z
 _atom_site_occupancy
  Na  Na0  1  0.784250  0.856930  0.442281  1
  Na  Na1  1  0.715750  0.658031  0.572680  1
  Na  Na2  1  0.215750  0.143070  0.557719  1
  Na  Na3  1  0.585350  0.158031  0.942281  1
  Na  Na4  1  0.914650  0.356930  0.072680  1
  Na  Na5  1  0.414650  0.841969  0.057719  1
  Na  Na6  1  0.284250  0.341969  0.427320  1
  Na  Na7  1  0.085350  0.643070  0.927320  1
  Yb  Yb8  1  0.680908  0.250000  0.430908  1
  Yb  Yb9  1  0.819092  0.750000  0.069092  1
  Yb  Yb10  1  0.180908  0.250000  0.930908  1
  Yb  Yb11  1  0.319092  0.750000  0.569092  1
  Mo  Mo12  1  0.428288  0.678288  0.250000  1
  Mo  Mo13  1  0.571712  0.321712  0.750000  1
  Mo  Mo14  1  0.071712  0.821712  0.750000  1
  Mo  Mo15  1  0.928288  0.178288  0.250000  1
  P  P16  1  0.567730  0.750000  0.817730  1
  P  P17  1  0.067730  0.750000  0.317730  1
  P  P18  1  0.432270  0.250000  0.182270  1
  P  P19  1  0.932270  0.250000  0.682270  1
  O  O20  1  0.345129  0.414198  0.281147  1
  O  O21  1  0.654871  0.585802  0.718853  1
  O  O22  1  0.426013  0.663940  0.727383  1
  O  O23  1  0.573987  0.336060  0.272617  1
  O  O24  1  0.936557  0.198630  0.772617  1
  O  O25  1  0.633051  0.914198  0.069069  1
  O  O26  1  0.897677  0.730655  0.592999  1
  O  O27  1  0.105435  0.087592  0.937544  1
  O  O28  1  0.366949  0.085802  0.930931  1
  O  O29  1  0.926013  0.698630  0.262072  1
  O  O30  1  0.602323  0.695322  0.332978  1
  O  O31  1  0.605435  0.167891  0.517842  1
  O  O32  1  0.063443  0.801370  0.227383  1
  O  O33  1  0.394565  0.832109  0.482158  1
  O  O34  1  0.133051  0.563981  0.218853  1
  O  O35  1  0.894565  0.912408  0.062456  1
  O  O36  1  0.650048  0.587592  0.982158  1
  O  O37  1  0.349952  0.412408  0.017842  1
  O  O38  1  0.862343  0.195322  0.092999  1
  O  O39  1  0.362343  0.769345  0.167022  1
  O  O40  1  0.849952  0.332109  0.437544  1
  O  O41  1  0.866949  0.436019  0.781147  1
  O  O42  1  0.436557  0.163940  0.237928  1
  O  O43  1  0.397677  0.304678  0.667022  1
  O  O44  1  0.137657  0.804678  0.907001  1
  O  O45  1  0.102323  0.269345  0.407001  1
  O  O46  1  0.154871  0.936019  0.569069  1
  O  O47  1  0.845129  0.063981  0.430931  1
  O  O48  1  0.073987  0.301370  0.737928  1
  O  O49  1  0.637657  0.230655  0.832978  1
  O  O50  1  0.563443  0.836060  0.762072  1
  O  O51  1  0.150048  0.667891  0.562456  1
