# generated using pymatgen
data_Tb3Se2ClO8
_symmetry_space_group_name_H-M   'P 1'
_cell_length_a   5.42856397
_cell_length_b   10.91710262
_cell_length_c   15.30773305
_cell_angle_alpha   90.00000000
_cell_angle_beta   90.00000000
_cell_angle_gamma   90.00000000
_symmetry_Int_Tables_number   1
_chemical_formula_structural   Tb3Se2ClO8
_chemical_formula_sum   'Tb12 Se8 Cl4 O32'
_cell_volume   907.20039902
_cell_formula_units_Z   4
loop_
 _symmetry_equiv_pos_site_id
 _symmetry_equiv_pos_as_xyz
  1  'x, y, z'
loop_
 _atom_site_type_symbol
 _atom_site_label
 _atom_site_symmetry_multiplicity
 _atom_site_fract_x
 _atom_site_fract_y
 _atom_site_fract_z
 _atom_site_occupancy
  Tb  Tb0  1  0.480926  0.635727  0.424977  1
  Tb  Tb1  1  0.029582  0.356574  0.750000  1
  Tb  Tb2  1  0.980926  0.864273  0.075023  1
  Tb  Tb3  1  0.970418  0.643426  0.250000  1
  Tb  Tb4  1  0.470418  0.856574  0.250000  1
  Tb  Tb5  1  0.529582  0.143426  0.750000  1
  Tb  Tb6  1  0.519074  0.364273  0.924977  1
  Tb  Tb7  1  0.019074  0.135727  0.924977  1
  Tb  Tb8  1  0.519074  0.364273  0.575023  1
  Tb  Tb9  1  0.980926  0.864273  0.424977  1
  Tb  Tb10  1  0.019074  0.135727  0.575023  1
  Tb  Tb11  1  0.480926  0.635727  0.075023  1
  Se  Se12  1  0.049607  0.375126  0.099794  1
  Se  Se13  1  0.950393  0.624874  0.599794  1
  Se  Se14  1  0.549607  0.124874  0.099794  1
  Se  Se15  1  0.450393  0.875126  0.900206  1
  Se  Se16  1  0.450393  0.875126  0.599794  1
  Se  Se17  1  0.950393  0.624874  0.900206  1
  Se  Se18  1  0.549607  0.124874  0.400206  1
  Se  Se19  1  0.049607  0.375126  0.400206  1
  Cl  Cl20  1  0.582847  0.492765  0.750000  1
  Cl  Cl21  1  0.417153  0.507235  0.250000  1
  Cl  Cl22  1  0.082847  0.007235  0.750000  1
  Cl  Cl23  1  0.917153  0.992765  0.250000  1
  O  O24  1  0.192771  0.941227  0.951231  1
  O  O25  1  0.116770  0.498898  0.631032  1
  O  O26  1  0.385963  0.184263  0.011167  1
  O  O27  1  0.226429  0.750492  0.157383  1
  O  O28  1  0.383230  0.998898  0.131032  1
  O  O29  1  0.883230  0.501102  0.131032  1
  O  O30  1  0.885963  0.315737  0.488833  1
  O  O31  1  0.114037  0.684263  0.988833  1
  O  O32  1  0.614037  0.815737  0.511167  1
  O  O33  1  0.273571  0.250492  0.657383  1
  O  O34  1  0.807229  0.058773  0.048769  1
  O  O35  1  0.273571  0.250492  0.842617  1
  O  O36  1  0.773571  0.249508  0.657383  1
  O  O37  1  0.726429  0.749508  0.342617  1
  O  O38  1  0.692771  0.558773  0.951231  1
  O  O39  1  0.616770  0.001102  0.868968  1
  O  O40  1  0.616770  0.001102  0.631032  1
  O  O41  1  0.773571  0.249508  0.842617  1
  O  O42  1  0.226429  0.750492  0.342617  1
  O  O43  1  0.614037  0.815737  0.988833  1
  O  O44  1  0.192771  0.941227  0.548769  1
  O  O45  1  0.692771  0.558773  0.548769  1
  O  O46  1  0.726429  0.749508  0.157383  1
  O  O47  1  0.383230  0.998898  0.368968  1
  O  O48  1  0.116770  0.498898  0.868968  1
  O  O49  1  0.807229  0.058773  0.451231  1
  O  O50  1  0.307229  0.441227  0.451231  1
  O  O51  1  0.885963  0.315737  0.011167  1
  O  O52  1  0.883230  0.501102  0.368968  1
  O  O53  1  0.114037  0.684263  0.511167  1
  O  O54  1  0.307229  0.441227  0.048769  1
  O  O55  1  0.385963  0.184263  0.488833  1
