# generated using pymatgen
data_Na3Al2(AsO4)3
_symmetry_space_group_name_H-M   'P 1'
_cell_length_a   10.01853532
_cell_length_b   10.01853532
_cell_length_c   9.92456038
_cell_angle_alpha   84.89288861
_cell_angle_beta   95.10711139
_cell_angle_gamma   95.15588427
_symmetry_Int_Tables_number   1
_chemical_formula_structural   Na3Al2(AsO4)3
_chemical_formula_sum   'Na12 Al8 As12 O48'
_cell_volume   984.86822610
_cell_formula_units_Z   4
loop_
 _symmetry_equiv_pos_site_id
 _symmetry_equiv_pos_as_xyz
  1  'x, y, z'
loop_
 _atom_site_type_symbol
 _atom_site_label
 _atom_site_symmetry_multiplicity
 _atom_site_fract_x
 _atom_site_fract_y
 _atom_site_fract_z
 _atom_site_occupancy
  Na  Na0  1  0.826370  0.455520  0.483776  1
  Na  Na1  1  0.298582  0.702106  0.173608  1
  Na  Na2  1  0.998579  0.499835  0.765885  1
  Na  Na3  1  0.455520  0.826370  0.516224  1
  Na  Na4  1  0.499835  0.998579  0.234115  1
  Na  Na5  1  0.702106  0.298582  0.826392  1
  Na  Na6  1  0.271152  0.639778  0.736097  1
  Na  Na7  1  0.773047  0.973958  0.409441  1
  Na  Na8  1  0.242426  0.040232  0.074154  1
  Na  Na9  1  0.040232  0.242426  0.925846  1
  Na  Na10  1  0.973958  0.773047  0.590559  1
  Na  Na11  1  0.639778  0.271152  0.263903  1
  Al  Al12  1  0.471068  0.471068  0.500000  1
  Al  Al13  1  0.030933  0.255349  0.280059  1
  Al  Al14  1  0.970547  0.752677  0.222040  1
  Al  Al15  1  0.531752  0.531752  0.000000  1
  Al  Al16  1  0.752918  0.752918  0.000000  1
  Al  Al17  1  0.255349  0.030933  0.719941  1
  Al  Al18  1  0.253271  0.253271  0.500000  1
  Al  Al19  1  0.752677  0.970547  0.777960  1
  As  As20  1  0.674532  0.661175  0.702429  1
  As  As21  1  0.548950  0.161446  0.573415  1
  As  As22  1  0.337494  0.336161  0.801245  1
  As  As23  1  0.161446  0.548950  0.426585  1
  As  As24  1  0.171021  0.958181  0.405762  1
  As  As25  1  0.458541  0.841620  0.916954  1
  As  As26  1  0.958181  0.171021  0.594238  1
  As  As27  1  0.336161  0.337494  0.198755  1
  As  As28  1  0.832326  0.049063  0.090547  1
  As  As29  1  0.661175  0.674532  0.297571  1
  As  As30  1  0.841620  0.458541  0.083046  1
  As  As31  1  0.049063  0.832326  0.909453  1
  O  O32  1  0.984047  0.129116  0.148122  1
  O  O33  1  0.332384  0.164339  0.833656  1
  O  O34  1  0.705285  0.092319  0.170662  1
  O  O35  1  0.122984  0.372434  0.422694  1
  O  O36  1  0.169868  0.135176  0.370233  1
  O  O37  1  0.299255  0.906539  0.331065  1
  O  O38  1  0.593349  0.096427  0.435334  1
  O  O39  1  0.333400  0.587618  0.426119  1
  O  O40  1  0.337119  0.378246  0.620849  1
  O  O41  1  0.835072  0.871679  0.128555  1
  O  O42  1  0.135176  0.169868  0.629767  1
  O  O43  1  0.880494  0.016867  0.648020  1
  O  O44  1  0.379315  0.900273  0.764963  1
  O  O45  1  0.378246  0.337119  0.379151  1
  O  O46  1  0.601030  0.522877  0.374898  1
  O  O47  1  0.598456  0.808957  0.350089  1
  O  O48  1  0.179262  0.919727  0.579709  1
  O  O49  1  0.906539  0.299255  0.668935  1
  O  O50  1  0.882165  0.634874  0.081277  1
  O  O51  1  0.833447  0.674874  0.334618  1
  O  O52  1  0.405498  0.204132  0.152192  1
  O  O53  1  0.893505  0.398958  0.946064  1
  O  O54  1  0.092319  0.705285  0.829338  1
  O  O55  1  0.919727  0.179262  0.420291  1
  O  O56  1  0.404127  0.488004  0.127387  1
  O  O57  1  0.900273  0.379315  0.235037  1
  O  O58  1  0.488004  0.404127  0.872613  1
  O  O59  1  0.129116  0.984047  0.851878  1
  O  O60  1  0.427092  0.669273  0.916237  1
  O  O61  1  0.164339  0.332384  0.166344  1
  O  O62  1  0.623147  0.675991  0.119308  1
  O  O63  1  0.674874  0.833447  0.665382  1
  O  O64  1  0.675991  0.623147  0.880692  1
  O  O65  1  0.871679  0.835072  0.871445  1
  O  O66  1  0.086118  0.828247  0.083599  1
  O  O67  1  0.828247  0.086118  0.916401  1
  O  O68  1  0.204132  0.405498  0.847808  1
  O  O69  1  0.587618  0.333400  0.573881  1
  O  O70  1  0.096940  0.629087  0.278546  1
  O  O71  1  0.096427  0.593349  0.564666  1
  O  O72  1  0.016867  0.880494  0.351980  1
  O  O73  1  0.629087  0.096940  0.721454  1
  O  O74  1  0.808957  0.598456  0.649911  1
  O  O75  1  0.634874  0.882165  0.918723  1
  O  O76  1  0.398958  0.893505  0.053936  1
  O  O77  1  0.669273  0.427092  0.083763  1
  O  O78  1  0.372434  0.122984  0.577306  1
  O  O79  1  0.522877  0.601030  0.625102  1
