# generated using pymatgen
data_FeP2O7
_symmetry_space_group_name_H-M   'P 1'
_cell_length_a   7.41294014
_cell_length_b   8.16106213
_cell_length_c   9.62341611
_cell_angle_alpha   90.00000000
_cell_angle_beta   110.63777766
_cell_angle_gamma   90.00000000
_symmetry_Int_Tables_number   1
_chemical_formula_structural   FeP2O7
_chemical_formula_sum   'Fe4 P8 O28'
_cell_volume   544.83145726
_cell_formula_units_Z   4
loop_
 _symmetry_equiv_pos_site_id
 _symmetry_equiv_pos_as_xyz
  1  'x, y, z'
loop_
 _atom_site_type_symbol
 _atom_site_label
 _atom_site_symmetry_multiplicity
 _atom_site_fract_x
 _atom_site_fract_y
 _atom_site_fract_z
 _atom_site_occupancy
  Fe  Fe0  1  0.731354  0.507518  0.249975  1
  Fe  Fe1  1  0.268646  0.007518  0.250025  1
  Fe  Fe2  1  0.268646  0.492482  0.750025  1
  Fe  Fe3  1  0.731354  0.992482  0.749975  1
  P  P4  1  0.071430  0.260201  0.447598  1
  P  P5  1  0.321455  0.703555  0.052196  1
  P  P6  1  0.928570  0.739799  0.552402  1
  P  P7  1  0.678545  0.296445  0.947804  1
  P  P8  1  0.678545  0.203555  0.447804  1
  P  P9  1  0.928570  0.760201  0.052402  1
  P  P10  1  0.071430  0.239799  0.947598  1
  P  P11  1  0.321455  0.796445  0.552196  1
  O  O12  1  0.458916  0.918230  0.656913  1
  O  O13  1  0.193519  0.354174  0.893098  1
  O  O14  1  0.645096  0.380846  0.395268  1
  O  O15  1  0.645096  0.119154  0.895268  1
  O  O16  1  0.679683  0.185567  0.606450  1
  O  O17  1  0.679683  0.314433  0.106450  1
  O  O18  1  0.193519  0.145826  0.393098  1
  O  O19  1  0.889576  0.348530  0.948269  1
  O  O20  1  0.185464  0.193542  0.108256  1
  O  O21  1  0.996926  0.091373  0.846512  1
  O  O22  1  0.320317  0.685567  0.893550  1
  O  O23  1  0.806481  0.854174  0.606902  1
  O  O24  1  0.806481  0.645826  0.106902  1
  O  O25  1  0.541084  0.418230  0.843087  1
  O  O26  1  0.320317  0.814433  0.393550  1
  O  O27  1  0.458916  0.581770  0.156913  1
  O  O28  1  0.110424  0.848530  0.551731  1
  O  O29  1  0.354904  0.619154  0.604732  1
  O  O30  1  0.541084  0.081770  0.343087  1
  O  O31  1  0.996926  0.408627  0.346512  1
  O  O32  1  0.354904  0.880846  0.104732  1
  O  O33  1  0.814536  0.806458  0.891744  1
  O  O34  1  0.003074  0.591373  0.653488  1
  O  O35  1  0.814536  0.693542  0.391744  1
  O  O36  1  0.185464  0.306458  0.608256  1
  O  O37  1  0.003074  0.908627  0.153488  1
  O  O38  1  0.889576  0.151470  0.448269  1
  O  O39  1  0.110424  0.651470  0.051731  1
