# generated using pymatgen
data_Lu2Te5O13
_symmetry_space_group_name_H-M   'P 1'
_cell_length_a   6.89789740
_cell_length_b   8.74477436
_cell_length_c   10.70256227
_cell_angle_alpha   88.57737434
_cell_angle_beta   86.94368805
_cell_angle_gamma   74.58339379
_symmetry_Int_Tables_number   1
_chemical_formula_structural   Lu2Te5O13
_chemical_formula_sum   'Lu4 Te10 O26'
_cell_volume   621.43205898
_cell_formula_units_Z   2
loop_
 _symmetry_equiv_pos_site_id
 _symmetry_equiv_pos_as_xyz
  1  'x, y, z'
loop_
 _atom_site_type_symbol
 _atom_site_label
 _atom_site_symmetry_multiplicity
 _atom_site_fract_x
 _atom_site_fract_y
 _atom_site_fract_z
 _atom_site_occupancy
  Lu  Lu0  1  0.998263  0.256955  0.758908  1
  Lu  Lu1  1  0.551413  0.531101  0.180710  1
  Lu  Lu2  1  0.001737  0.743045  0.241092  1
  Lu  Lu3  1  0.448587  0.468899  0.819290  1
  Te  Te4  1  0.873375  0.646198  0.894776  1
  Te  Te5  1  0.557799  0.097557  0.700402  1
  Te  Te6  1  0.126625  0.353802  0.105224  1
  Te  Te7  1  0.709652  0.125072  0.023077  1
  Te  Te8  1  0.442201  0.902443  0.299598  1
  Te  Te9  1  0.728757  0.603806  0.512178  1
  Te  Te10  1  0.841004  0.197733  0.357100  1
  Te  Te11  1  0.290348  0.874928  0.976923  1
  Te  Te12  1  0.158996  0.802267  0.642900  1
  Te  Te13  1  0.271243  0.396194  0.487822  1
  O  O14  1  0.529089  0.331089  0.996805  1
  O  O15  1  0.679079  0.770273  0.222632  1
  O  O16  1  0.928904  0.983118  0.308036  1
  O  O17  1  0.660234  0.487670  0.380233  1
  O  O18  1  0.232358  0.502533  0.186862  1
  O  O19  1  0.039032  0.352117  0.568949  1
  O  O20  1  0.054539  0.819932  0.043423  1
  O  O21  1  0.662944  0.265713  0.224748  1
  O  O22  1  0.932249  0.734854  0.723882  1
  O  O23  1  0.868488  0.507121  0.100770  1
  O  O24  1  0.470911  0.668911  0.003195  1
  O  O25  1  0.945461  0.180068  0.956577  1
  O  O26  1  0.071096  0.016882  0.691964  1
  O  O27  1  0.960968  0.647883  0.431051  1
  O  O28  1  0.320921  0.229727  0.777368  1
  O  O29  1  0.351350  0.984403  0.122454  1
  O  O30  1  0.767642  0.497467  0.813138  1
  O  O31  1  0.314666  0.736928  0.284188  1
  O  O32  1  0.339766  0.512330  0.619767  1
  O  O33  1  0.337056  0.734287  0.775252  1
  O  O34  1  0.461842  0.193582  0.520123  1
  O  O35  1  0.067751  0.265146  0.276118  1
  O  O36  1  0.131512  0.492879  0.899230  1
  O  O37  1  0.685334  0.263072  0.715812  1
  O  O38  1  0.538158  0.806418  0.479877  1
  O  O39  1  0.648650  0.015597  0.877546  1
