# generated using pymatgen
data_Sm3CuGeSe7
_symmetry_space_group_name_H-M   'P 1'
_cell_length_a   10.53394320
_cell_length_b   10.53394320
_cell_length_c   6.12375733
_cell_angle_alpha   90.00000000
_cell_angle_beta   90.00000000
_cell_angle_gamma   120.00000000
_symmetry_Int_Tables_number   1
_chemical_formula_structural   Sm3CuGeSe7
_chemical_formula_sum   'Sm6 Cu2 Ge2 Se14'
_cell_volume   588.47842912
_cell_formula_units_Z   2
loop_
 _symmetry_equiv_pos_site_id
 _symmetry_equiv_pos_as_xyz
  1  'x, y, z'
loop_
 _atom_site_type_symbol
 _atom_site_label
 _atom_site_symmetry_multiplicity
 _atom_site_fract_x
 _atom_site_fract_y
 _atom_site_fract_z
 _atom_site_occupancy
  Sm  Sm0  1  0.224301  0.869042  0.753621  1
  Sm  Sm1  1  0.869042  0.644741  0.253621  1
  Sm  Sm2  1  0.355259  0.224301  0.253621  1
  Sm  Sm3  1  0.644741  0.775699  0.753621  1
  Sm  Sm4  1  0.775699  0.130958  0.253621  1
  Sm  Sm5  1  0.130958  0.355259  0.753621  1
  Cu  Cu6  1  0.000000  0.000000  0.717226  1
  Cu  Cu7  1  0.000000  0.000000  0.217226  1
  Ge  Ge8  1  0.666667  0.333333  0.835436  1
  Ge  Ge9  1  0.333333  0.666667  0.335436  1
  Se  Se10  1  0.741352  0.837782  0.231162  1
  Se  Se11  1  0.903570  0.741352  0.731162  1
  Se  Se12  1  0.666667  0.333333  0.450494  1
  Se  Se13  1  0.903634  0.421143  0.998598  1
  Se  Se14  1  0.578857  0.482491  0.998598  1
  Se  Se15  1  0.421143  0.517509  0.498598  1
  Se  Se16  1  0.096430  0.258648  0.231162  1
  Se  Se17  1  0.837782  0.096430  0.731162  1
  Se  Se18  1  0.517509  0.096366  0.998598  1
  Se  Se19  1  0.162218  0.903570  0.231162  1
  Se  Se20  1  0.482491  0.903634  0.498598  1
  Se  Se21  1  0.333333  0.666667  0.950494  1
  Se  Se22  1  0.258648  0.162218  0.731162  1
  Se  Se23  1  0.096366  0.578857  0.498598  1
