# generated using pymatgen
data_Rb2CoCl4
_symmetry_space_group_name_H-M   'P 1'
_cell_length_a   7.38708521
_cell_length_b   9.38057021
_cell_length_c   12.93292515
_cell_angle_alpha   90.00000000
_cell_angle_beta   90.00000000
_cell_angle_gamma   90.00000000
_symmetry_Int_Tables_number   1
_chemical_formula_structural   Rb2CoCl4
_chemical_formula_sum   'Rb8 Co4 Cl16'
_cell_volume   896.18797245
_cell_formula_units_Z   4
loop_
 _symmetry_equiv_pos_site_id
 _symmetry_equiv_pos_as_xyz
  1  'x, y, z'
loop_
 _atom_site_type_symbol
 _atom_site_label
 _atom_site_symmetry_multiplicity
 _atom_site_fract_x
 _atom_site_fract_y
 _atom_site_fract_z
 _atom_site_occupancy
  Rb  Rb0  1  0.250549  0.988938  0.178394  1
  Rb  Rb1  1  0.251587  0.130368  0.590936  1
  Rb  Rb2  1  0.751587  0.369632  0.090936  1
  Rb  Rb3  1  0.751587  0.869632  0.409064  1
  Rb  Rb4  1  0.251587  0.630368  0.909064  1
  Rb  Rb5  1  0.750549  0.511062  0.678394  1
  Rb  Rb6  1  0.250549  0.488938  0.321606  1
  Rb  Rb7  1  0.750549  0.011062  0.821606  1
  Co  Co8  1  0.250979  0.223456  0.921682  1
  Co  Co9  1  0.750979  0.776544  0.078318  1
  Co  Co10  1  0.250979  0.723456  0.578318  1
  Co  Co11  1  0.750979  0.276544  0.421682  1
  Cl  Cl12  1  0.755296  0.677440  0.918424  1
  Cl  Cl13  1  0.500998  0.687339  0.154386  1
  Cl  Cl14  1  0.755296  0.177440  0.581576  1
  Cl  Cl15  1  0.500998  0.187339  0.345614  1
  Cl  Cl16  1  0.000998  0.812661  0.654386  1
  Cl  Cl17  1  0.000998  0.312661  0.845614  1
  Cl  Cl18  1  0.756391  0.016030  0.080697  1
  Cl  Cl19  1  0.256391  0.483970  0.580697  1
  Cl  Cl20  1  0.256391  0.983970  0.919303  1
  Cl  Cl21  1  0.493200  0.307100  0.835247  1
  Cl  Cl22  1  0.993200  0.692900  0.164753  1
  Cl  Cl23  1  0.756391  0.516030  0.419303  1
  Cl  Cl24  1  0.255296  0.322560  0.081576  1
  Cl  Cl25  1  0.993200  0.192900  0.335247  1
  Cl  Cl26  1  0.493200  0.807100  0.664753  1
  Cl  Cl27  1  0.255296  0.822560  0.418424  1
