# generated using pymatgen
data_Ba2CrO4
_symmetry_space_group_name_H-M   'P 1'
_cell_length_a   6.01695562
_cell_length_b   7.73225087
_cell_length_c   10.72422629
_cell_angle_alpha   90.00000000
_cell_angle_beta   90.00000000
_cell_angle_gamma   90.00000000
_symmetry_Int_Tables_number   1
_chemical_formula_structural   Ba2CrO4
_chemical_formula_sum   'Ba8 Cr4 O16'
_cell_volume   498.94044921
_cell_formula_units_Z   4
loop_
 _symmetry_equiv_pos_site_id
 _symmetry_equiv_pos_as_xyz
  1  'x, y, z'
loop_
 _atom_site_type_symbol
 _atom_site_label
 _atom_site_symmetry_multiplicity
 _atom_site_fract_x
 _atom_site_fract_y
 _atom_site_fract_z
 _atom_site_occupancy
  Ba  Ba0  1  0.243280  0.997347  0.195969  1
  Ba  Ba1  1  0.238693  0.651076  0.930630  1
  Ba  Ba2  1  0.738693  0.348924  0.069370  1
  Ba  Ba3  1  0.238693  0.151076  0.569370  1
  Ba  Ba4  1  0.743280  0.002653  0.804031  1
  Ba  Ba5  1  0.743280  0.502653  0.695969  1
  Ba  Ba6  1  0.738693  0.848924  0.430630  1
  Ba  Ba7  1  0.243280  0.497347  0.304031  1
  Cr  Cr8  1  0.237759  0.717821  0.579390  1
  Cr  Cr9  1  0.237759  0.217821  0.920610  1
  Cr  Cr10  1  0.737759  0.282179  0.420610  1
  Cr  Cr11  1  0.737759  0.782179  0.079390  1
  O  O12  1  0.483976  0.801542  0.652156  1
  O  O13  1  0.491596  0.189144  0.353107  1
  O  O14  1  0.721936  0.511995  0.423235  1
  O  O15  1  0.983976  0.698458  0.152156  1
  O  O16  1  0.991596  0.810856  0.646893  1
  O  O17  1  0.491596  0.689144  0.146893  1
  O  O18  1  0.991596  0.310856  0.853107  1
  O  O19  1  0.740960  0.685749  0.923471  1
  O  O20  1  0.240960  0.314251  0.076529  1
  O  O21  1  0.483976  0.301542  0.847844  1
  O  O22  1  0.983976  0.198458  0.347844  1
  O  O23  1  0.240960  0.814251  0.423471  1
  O  O24  1  0.221936  0.988005  0.923235  1
  O  O25  1  0.221936  0.488005  0.576765  1
  O  O26  1  0.740960  0.185749  0.576529  1
  O  O27  1  0.721936  0.011995  0.076765  1
