# generated using pymatgen
data_ZnSnAs2
_symmetry_space_group_name_H-M   'P 1'
_cell_length_a   7.29898117
_cell_length_b   7.29898117
_cell_length_c   7.29898117
_cell_angle_alpha   131.91820638
_cell_angle_beta   131.91820638
_cell_angle_gamma   70.35824173
_symmetry_Int_Tables_number   1
_chemical_formula_structural   ZnSnAs2
_chemical_formula_sum   'Zn2 Sn2 As4'
_cell_volume   210.99645820
_cell_formula_units_Z   2
loop_
 _symmetry_equiv_pos_site_id
 _symmetry_equiv_pos_as_xyz
  1  'x, y, z'
loop_
 _atom_site_type_symbol
 _atom_site_label
 _atom_site_symmetry_multiplicity
 _atom_site_fract_x
 _atom_site_fract_y
 _atom_site_fract_z
 _atom_site_occupancy
  Zn  Zn0  1  0.750000  0.250000  0.500000  1
  Zn  Zn1  1  0.000000  1.000000  0.000000  1
  Sn  Sn2  1  0.250000  0.750000  0.500000  1
  Sn  Sn3  1  0.500000  0.500000  0.000000  1
  As  As4  1  0.101429  0.125000  0.476429  1
  As  As5  1  0.648571  0.625000  0.523571  1
  As  As6  1  0.875000  0.351429  0.976429  1
  As  As7  1  0.375000  0.898571  0.023571  1
