# generated using pymatgen
data_NaSrFeF6
_symmetry_space_group_name_H-M   'P 1'
_cell_length_a   5.47359502
_cell_length_b   9.46797862
_cell_length_c   10.51844537
_cell_angle_alpha   90.00000000
_cell_angle_beta   90.00000000
_cell_angle_gamma   90.00000000
_symmetry_Int_Tables_number   1
_chemical_formula_structural   NaSrFeF6
_chemical_formula_sum   'Na4 Sr4 Fe4 F24'
_cell_volume   545.10665720
_cell_formula_units_Z   4
loop_
 _symmetry_equiv_pos_site_id
 _symmetry_equiv_pos_as_xyz
  1  'x, y, z'
loop_
 _atom_site_type_symbol
 _atom_site_label
 _atom_site_symmetry_multiplicity
 _atom_site_fract_x
 _atom_site_fract_y
 _atom_site_fract_z
 _atom_site_occupancy
  Na  Na0  1  0.042744  0.647407  0.084273  1
  Na  Na1  1  0.542744  0.852593  0.915727  1
  Na  Na2  1  0.457256  0.352593  0.584273  1
  Na  Na3  1  0.957256  0.147407  0.415727  1
  Sr  Sr4  1  0.493040  0.815161  0.323270  1
  Sr  Sr5  1  0.506960  0.315161  0.176730  1
  Sr  Sr6  1  0.006960  0.184839  0.823270  1
  Sr  Sr7  1  0.993040  0.684839  0.676730  1
  Fe  Fe8  1  0.036837  0.000760  0.126303  1
  Fe  Fe9  1  0.536837  0.499240  0.873697  1
  Fe  Fe10  1  0.963163  0.500760  0.373697  1
  Fe  Fe11  1  0.463163  0.999240  0.626303  1
  F  F12  1  0.210092  0.622529  0.295789  1
  F  F13  1  0.140300  0.496107  0.534494  1
  F  F14  1  0.788405  0.643289  0.913053  1
  F  F15  1  0.711595  0.356711  0.413053  1
  F  F16  1  0.859700  0.996107  0.965506  1
  F  F17  1  0.781096  0.659477  0.451664  1
  F  F18  1  0.341298  0.661534  0.817603  1
  F  F19  1  0.158702  0.338466  0.317603  1
  F  F20  1  0.640300  0.003893  0.465506  1
  F  F21  1  0.359700  0.503893  0.034494  1
  F  F22  1  0.219392  0.021153  0.285573  1
  F  F23  1  0.281096  0.840523  0.548336  1
  F  F24  1  0.218904  0.159477  0.048336  1
  F  F25  1  0.780608  0.521153  0.214427  1
  F  F26  1  0.718904  0.340523  0.951664  1
  F  F27  1  0.280608  0.978847  0.785573  1
  F  F28  1  0.719392  0.478847  0.714427  1
  F  F29  1  0.789908  0.122529  0.204211  1
  F  F30  1  0.211595  0.143289  0.586947  1
  F  F31  1  0.289908  0.377471  0.795789  1
  F  F32  1  0.288405  0.856711  0.086947  1
  F  F33  1  0.710092  0.877471  0.704211  1
  F  F34  1  0.658702  0.161534  0.682397  1
  F  F35  1  0.841298  0.838466  0.182397  1
