# generated using pymatgen
data_Nb2Se9
_symmetry_space_group_name_H-M   'P 1'
_cell_length_a   8.52516220
_cell_length_b   8.77065659
_cell_length_c   8.84056032
_cell_angle_alpha   100.06237653
_cell_angle_beta   96.01152908
_cell_angle_gamma   94.29068293
_symmetry_Int_Tables_number   1
_chemical_formula_structural   Nb2Se9
_chemical_formula_sum   'Nb4 Se18'
_cell_volume   644.33990938
_cell_formula_units_Z   2
loop_
 _symmetry_equiv_pos_site_id
 _symmetry_equiv_pos_as_xyz
  1  'x, y, z'
loop_
 _atom_site_type_symbol
 _atom_site_label
 _atom_site_symmetry_multiplicity
 _atom_site_fract_x
 _atom_site_fract_y
 _atom_site_fract_z
 _atom_site_occupancy
  Nb  Nb0  1  0.089646  0.097947  0.138100  1
  Nb  Nb1  1  0.910354  0.902053  0.861900  1
  Nb  Nb2  1  0.414478  0.361944  0.398397  1
  Nb  Nb3  1  0.585522  0.638056  0.601603  1
  Se  Se4  1  0.978874  0.184436  0.406373  1
  Se  Se5  1  0.021126  0.815564  0.593627  1
  Se  Se6  1  0.338828  0.477405  0.679313  1
  Se  Se7  1  0.661172  0.522595  0.320687  1
  Se  Se8  1  0.612820  0.790725  0.904644  1
  Se  Se9  1  0.387180  0.209275  0.095356  1
  Se  Se10  1  0.960435  0.813164  0.136628  1
  Se  Se11  1  0.039565  0.186836  0.863372  1
  Se  Se12  1  0.265440  0.080683  0.406740  1
  Se  Se13  1  0.734560  0.919317  0.593260  1
  Se  Se14  1  0.571119  0.352041  0.670739  1
  Se  Se15  1  0.428881  0.647959  0.329261  1
  Se  Se16  1  0.179239  0.827810  0.998552  1
  Se  Se17  1  0.820761  0.172190  0.001448  1
  Se  Se18  1  0.896545  0.604988  0.691830  1
  Se  Se19  1  0.103455  0.395012  0.308170  1
  Se  Se20  1  0.540961  0.103901  0.288676  1
  Se  Se21  1  0.459039  0.896099  0.711324  1
