# generated using pymatgen
data_SmCoSb3
_symmetry_space_group_name_H-M   'P 1'
_cell_length_a   6.18340647
_cell_length_b   12.10737782
_cell_length_c   12.59718829
_cell_angle_alpha   90.00000000
_cell_angle_beta   90.00000000
_cell_angle_gamma   90.00000000
_symmetry_Int_Tables_number   1
_chemical_formula_structural   SmCoSb3
_chemical_formula_sum   'Sm8 Co8 Sb24'
_cell_volume   943.08646496
_cell_formula_units_Z   8
loop_
 _symmetry_equiv_pos_site_id
 _symmetry_equiv_pos_as_xyz
  1  'x, y, z'
loop_
 _atom_site_type_symbol
 _atom_site_label
 _atom_site_symmetry_multiplicity
 _atom_site_fract_x
 _atom_site_fract_y
 _atom_site_fract_z
 _atom_site_occupancy
  Sm  Sm0  1  0.722414  0.250000  0.696456  1
  Sm  Sm1  1  0.750000  0.000000  0.299958  1
  Sm  Sm2  1  0.222414  0.250000  0.303544  1
  Sm  Sm3  1  0.250000  0.000000  0.700042  1
  Sm  Sm4  1  0.750000  0.500000  0.299958  1
  Sm  Sm5  1  0.250000  0.500000  0.700042  1
  Sm  Sm6  1  0.777586  0.750000  0.696456  1
  Sm  Sm7  1  0.277586  0.750000  0.303544  1
  Co  Co8  1  0.537460  0.636042  0.899972  1
  Co  Co9  1  0.537460  0.863958  0.899972  1
  Co  Co10  1  0.962540  0.136042  0.899972  1
  Co  Co11  1  0.037460  0.863958  0.100028  1
  Co  Co12  1  0.462540  0.136042  0.100028  1
  Co  Co13  1  0.962540  0.363958  0.899972  1
  Co  Co14  1  0.462540  0.363958  0.100028  1
  Co  Co15  1  0.037460  0.636042  0.100028  1
  Sb  Sb16  1  0.250000  0.000000  0.222822  1
  Sb  Sb17  1  0.250000  0.500000  0.222822  1
  Sb  Sb18  1  0.486265  0.124309  0.497165  1
  Sb  Sb19  1  0.732618  0.250000  0.217347  1
  Sb  Sb20  1  0.385186  0.750000  0.055780  1
  Sb  Sb21  1  0.513735  0.624309  0.502835  1
  Sb  Sb22  1  0.885186  0.750000  0.944220  1
  Sb  Sb23  1  0.114814  0.250000  0.055780  1
  Sb  Sb24  1  0.614814  0.250000  0.944220  1
  Sb  Sb25  1  0.250000  0.500000  0.972180  1
  Sb  Sb26  1  0.750000  0.500000  0.027820  1
  Sb  Sb27  1  0.013735  0.875691  0.497165  1
  Sb  Sb28  1  0.986265  0.375691  0.502835  1
  Sb  Sb29  1  0.767382  0.750000  0.217347  1
  Sb  Sb30  1  0.250000  0.000000  0.972180  1
  Sb  Sb31  1  0.513735  0.875691  0.502835  1
  Sb  Sb32  1  0.750000  0.000000  0.027820  1
  Sb  Sb33  1  0.232618  0.250000  0.782653  1
  Sb  Sb34  1  0.486265  0.375691  0.497165  1
  Sb  Sb35  1  0.750000  0.000000  0.777178  1
  Sb  Sb36  1  0.267382  0.750000  0.782653  1
  Sb  Sb37  1  0.013735  0.624309  0.497165  1
  Sb  Sb38  1  0.986265  0.124309  0.502835  1
  Sb  Sb39  1  0.750000  0.500000  0.777178  1
