# generated using pymatgen
data_K3SnIrCl8
_symmetry_space_group_name_H-M   'P 1'
_cell_length_a   8.04873293
_cell_length_b   9.68592083
_cell_length_c   9.73492023
_cell_angle_alpha   90.00000000
_cell_angle_beta   90.00000000
_cell_angle_gamma   90.00000000
_symmetry_Int_Tables_number   1
_chemical_formula_structural   K3SnIrCl8
_chemical_formula_sum   'K6 Sn2 Ir2 Cl16'
_cell_volume   758.92844226
_cell_formula_units_Z   2
loop_
 _symmetry_equiv_pos_site_id
 _symmetry_equiv_pos_as_xyz
  1  'x, y, z'
loop_
 _atom_site_type_symbol
 _atom_site_label
 _atom_site_symmetry_multiplicity
 _atom_site_fract_x
 _atom_site_fract_y
 _atom_site_fract_z
 _atom_site_occupancy
  K  K0  1  0.934820  0.241019  0.373354  1
  K  K1  1  0.434820  0.258981  0.626646  1
  K  K2  1  0.934820  0.758981  0.373354  1
  K  K3  1  0.003481  0.000000  0.862224  1
  K  K4  1  0.503481  0.500000  0.137776  1
  K  K5  1  0.434820  0.741019  0.626646  1
  Sn  Sn6  1  0.520485  0.000000  0.096048  1
  Sn  Sn7  1  0.020485  0.500000  0.903952  1
  Ir  Ir8  1  0.841467  0.500000  0.689505  1
  Ir  Ir9  1  0.341467  0.000000  0.310495  1
  Cl  Cl10  1  0.586166  0.500000  0.811563  1
  Cl  Cl11  1  0.215644  0.687790  0.933087  1
  Cl  Cl12  1  0.715644  0.187790  0.066913  1
  Cl  Cl13  1  0.182650  0.000000  0.525901  1
  Cl  Cl14  1  0.682650  0.500000  0.474099  1
  Cl  Cl15  1  0.836379  0.746352  0.686206  1
  Cl  Cl16  1  0.086166  0.000000  0.188437  1
  Cl  Cl17  1  0.097012  0.500000  0.562597  1
  Cl  Cl18  1  0.715644  0.812210  0.066913  1
  Cl  Cl19  1  0.426253  0.000000  0.856818  1
  Cl  Cl20  1  0.215644  0.312210  0.933087  1
  Cl  Cl21  1  0.597012  0.000000  0.437403  1
  Cl  Cl22  1  0.926253  0.500000  0.143182  1
  Cl  Cl23  1  0.836379  0.253648  0.686206  1
  Cl  Cl24  1  0.336379  0.753648  0.313794  1
  Cl  Cl25  1  0.336379  0.246352  0.313794  1
