# generated using pymatgen
data_CsTi3Si2P6O25
_symmetry_space_group_name_H-M   'P 1'
_cell_length_a   8.36275519
_cell_length_b   8.36275519
_cell_length_c   17.52852100
_cell_angle_alpha   90.00000000
_cell_angle_beta   90.00000000
_cell_angle_gamma   120.00000000
_symmetry_Int_Tables_number   1
_chemical_formula_structural   CsTi3Si2P6O25
_chemical_formula_sum   'Cs2 Ti6 Si4 P12 O50'
_cell_volume   1061.63364065
_cell_formula_units_Z   2
loop_
 _symmetry_equiv_pos_site_id
 _symmetry_equiv_pos_as_xyz
  1  'x, y, z'
loop_
 _atom_site_type_symbol
 _atom_site_label
 _atom_site_symmetry_multiplicity
 _atom_site_fract_x
 _atom_site_fract_y
 _atom_site_fract_z
 _atom_site_occupancy
  Cs  Cs0  1  0.333333  0.666667  0.250000  1
  Cs  Cs1  1  0.666667  0.333333  0.750000  1
  Ti  Ti2  1  0.333333  0.666667  0.022324  1
  Ti  Ti3  1  0.333333  0.666667  0.477676  1
  Ti  Ti4  1  0.666667  0.333333  0.977676  1
  Ti  Ti5  1  0.666667  0.333333  0.522324  1
  Ti  Ti6  1  0.666667  0.333333  0.250000  1
  Ti  Ti7  1  0.333333  0.666667  0.750000  1
  Si  Si8  1  0.000000  0.000000  0.091334  1
  Si  Si9  1  0.000000  0.000000  0.408666  1
  Si  Si10  1  0.000000  0.000000  0.908666  1
  Si  Si11  1  0.000000  0.000000  0.591334  1
  P  P12  1  0.384066  0.332238  0.109152  1
  P  P13  1  0.667762  0.051829  0.109152  1
  P  P14  1  0.948171  0.615934  0.109152  1
  P  P15  1  0.667762  0.615934  0.390848  1
  P  P16  1  0.948171  0.332238  0.390848  1
  P  P17  1  0.384066  0.051829  0.390848  1
  P  P18  1  0.615934  0.667762  0.890848  1
  P  P19  1  0.332238  0.948171  0.890848  1
  P  P20  1  0.051829  0.384066  0.890848  1
  P  P21  1  0.332238  0.384066  0.609152  1
  P  P22  1  0.051829  0.667762  0.609152  1
  P  P23  1  0.615934  0.948171  0.609152  1
  O  O24  1  0.117975  0.599780  0.089557  1
  O  O25  1  0.400220  0.518196  0.089557  1
  O  O26  1  0.481804  0.882025  0.089557  1
  O  O27  1  0.400220  0.882025  0.410443  1
  O  O28  1  0.481804  0.599780  0.410443  1
  O  O29  1  0.117975  0.518196  0.410443  1
  O  O30  1  0.882025  0.400220  0.910443  1
  O  O31  1  0.599780  0.481804  0.910443  1
  O  O32  1  0.518196  0.117975  0.910443  1
  O  O33  1  0.599780  0.117975  0.589557  1
  O  O34  1  0.518196  0.400220  0.589557  1
  O  O35  1  0.882025  0.481804  0.589557  1
  O  O36  1  0.807650  0.253405  0.456073  1
  O  O37  1  0.746595  0.554246  0.456073  1
  O  O38  1  0.445754  0.192350  0.456073  1
  O  O39  1  0.746595  0.192350  0.043927  1
  O  O40  1  0.445754  0.253405  0.043927  1
  O  O41  1  0.807650  0.554246  0.043927  1
  O  O42  1  0.192350  0.746595  0.543927  1
  O  O43  1  0.253405  0.445754  0.543927  1
  O  O44  1  0.554246  0.807650  0.543927  1
  O  O45  1  0.253405  0.807650  0.956073  1
  O  O46  1  0.554246  0.746595  0.956073  1
  O  O47  1  0.192350  0.445754  0.956073  1
  O  O48  1  0.478836  0.345784  0.185261  1
  O  O49  1  0.654216  0.133053  0.185261  1
  O  O50  1  0.866947  0.521164  0.185261  1
  O  O51  1  0.654216  0.521164  0.314739  1
  O  O52  1  0.866947  0.345784  0.314739  1
  O  O53  1  0.478836  0.133053  0.314739  1
  O  O54  1  0.521164  0.654216  0.814739  1
  O  O55  1  0.345784  0.866947  0.814739  1
  O  O56  1  0.133053  0.478836  0.814739  1
  O  O57  1  0.345784  0.478836  0.685261  1
  O  O58  1  0.133053  0.654216  0.685261  1
  O  O59  1  0.521164  0.866947  0.685261  1
  O  O60  1  0.000000  0.000000  0.000000  1
  O  O61  1  0.000000  0.000000  0.500000  1
  O  O62  1  0.022194  0.829972  0.124720  1
  O  O63  1  0.170028  0.192223  0.124720  1
  O  O64  1  0.807777  0.977806  0.124720  1
  O  O65  1  0.170028  0.977806  0.375280  1
  O  O66  1  0.807777  0.829972  0.375280  1
  O  O67  1  0.022194  0.192223  0.375280  1
  O  O68  1  0.977806  0.170028  0.875280  1
  O  O69  1  0.829972  0.807777  0.875280  1
  O  O70  1  0.192223  0.022194  0.875280  1
  O  O71  1  0.829972  0.022194  0.624720  1
  O  O72  1  0.192223  0.170028  0.624720  1
  O  O73  1  0.977806  0.807777  0.624720  1
