# generated using pymatgen
data_Zn2BiPO6
_symmetry_space_group_name_H-M   'P 1'
_cell_length_a   5.34038273
_cell_length_b   7.92246081
_cell_length_c   12.14436009
_cell_angle_alpha   90.00000000
_cell_angle_beta   90.00000000
_cell_angle_gamma   90.00000000
_symmetry_Int_Tables_number   1
_chemical_formula_structural   Zn2BiPO6
_chemical_formula_sum   'Zn8 Bi4 P4 O24'
_cell_volume   513.81540180
_cell_formula_units_Z   4
loop_
 _symmetry_equiv_pos_site_id
 _symmetry_equiv_pos_as_xyz
  1  'x, y, z'
loop_
 _atom_site_type_symbol
 _atom_site_label
 _atom_site_symmetry_multiplicity
 _atom_site_fract_x
 _atom_site_fract_y
 _atom_site_fract_z
 _atom_site_occupancy
  Zn  Zn0  1  0.250000  0.700768  0.908050  1
  Zn  Zn1  1  0.750000  0.200768  0.591950  1
  Zn  Zn2  1  0.750000  0.805107  0.603572  1
  Zn  Zn3  1  0.750000  0.299232  0.091950  1
  Zn  Zn4  1  0.250000  0.799232  0.408050  1
  Zn  Zn5  1  0.250000  0.194893  0.396428  1
  Zn  Zn6  1  0.750000  0.694893  0.103572  1
  Zn  Zn7  1  0.250000  0.305107  0.896428  1
  Bi  Bi8  1  0.750000  0.984460  0.901864  1
  Bi  Bi9  1  0.750000  0.515540  0.401864  1
  Bi  Bi10  1  0.250000  0.484460  0.598136  1
  Bi  Bi11  1  0.250000  0.015540  0.098136  1
  P  P12  1  0.750000  0.975102  0.301209  1
  P  P13  1  0.250000  0.024898  0.698791  1
  P  P14  1  0.750000  0.524898  0.801209  1
  P  P15  1  0.250000  0.475102  0.198791  1
  O  O16  1  0.001686  0.327314  0.493118  1
  O  O17  1  0.993229  0.993997  0.373058  1
  O  O18  1  0.498314  0.172686  0.993118  1
  O  O19  1  0.250000  0.606897  0.291720  1
  O  O20  1  0.006771  0.006003  0.626942  1
  O  O21  1  0.993229  0.506003  0.873058  1
  O  O22  1  0.006771  0.493997  0.126942  1
  O  O23  1  0.250000  0.292296  0.244371  1
  O  O24  1  0.750000  0.393103  0.708280  1
  O  O25  1  0.493229  0.006003  0.626942  1
  O  O26  1  0.001686  0.172686  0.993118  1
  O  O27  1  0.998314  0.827314  0.006882  1
  O  O28  1  0.493229  0.493997  0.126942  1
  O  O29  1  0.506771  0.506003  0.873058  1
  O  O30  1  0.250000  0.207704  0.744371  1
  O  O31  1  0.498314  0.327314  0.493118  1
  O  O32  1  0.501686  0.827314  0.006882  1
  O  O33  1  0.501686  0.672686  0.506882  1
  O  O34  1  0.998314  0.672686  0.506882  1
  O  O35  1  0.750000  0.106897  0.208280  1
  O  O36  1  0.750000  0.792296  0.255629  1
  O  O37  1  0.506771  0.993997  0.373058  1
  O  O38  1  0.250000  0.893103  0.791720  1
  O  O39  1  0.750000  0.707704  0.755629  1
