# generated using pymatgen
data_In5(BiS4)3
_symmetry_space_group_name_H-M   'P 1'
_cell_length_a   16.87289000
_cell_length_b   16.87289000
_cell_length_c   14.56597532
_cell_angle_alpha   89.42696978
_cell_angle_beta   90.57303022
_cell_angle_gamma   166.65441295
_symmetry_Int_Tables_number   1
_chemical_formula_structural   In5(BiS4)3
_chemical_formula_sum   'In10 Bi6 S24'
_cell_volume   957.14427365
_cell_formula_units_Z   2
loop_
 _symmetry_equiv_pos_site_id
 _symmetry_equiv_pos_as_xyz
  1  'x, y, z'
loop_
 _atom_site_type_symbol
 _atom_site_label
 _atom_site_symmetry_multiplicity
 _atom_site_fract_x
 _atom_site_fract_y
 _atom_site_fract_z
 _atom_site_occupancy
  In  In0  1  0.000000  0.000000  0.000000  1
  In  In1  1  0.000000  0.000000  0.500000  1
  In  In2  1  0.216772  0.783228  0.417752  1
  In  In3  1  0.783228  0.216772  0.582248  1
  In  In4  1  0.402364  0.597636  0.503545  1
  In  In5  1  0.597636  0.402364  0.496455  1
  In  In6  1  0.673422  0.326578  0.219718  1
  In  In7  1  0.326578  0.673422  0.780282  1
  In  In8  1  0.928382  0.071618  0.278162  1
  In  In9  1  0.071618  0.928382  0.721838  1
  Bi  Bi10  1  0.134961  0.865039  0.985334  1
  Bi  Bi11  1  0.865039  0.134961  0.014666  1
  Bi  Bi12  1  0.319796  0.680204  0.267198  1
  Bi  Bi13  1  0.680204  0.319796  0.732802  1
  Bi  Bi14  1  0.552851  0.447149  0.209935  1
  Bi  Bi15  1  0.447149  0.552851  0.790065  1
  S  S16  1  0.994024  0.005976  0.181641  1
  S  S17  1  0.005976  0.994024  0.818359  1
  S  S18  1  0.062114  0.937886  0.401416  1
  S  S19  1  0.937886  0.062114  0.598584  1
  S  S20  1  0.114412  0.885588  0.180881  1
  S  S21  1  0.885588  0.114412  0.819119  1
  S  S22  1  0.222093  0.777907  0.239080  1
  S  S23  1  0.777907  0.222093  0.760920  1
  S  S24  1  0.395011  0.604989  0.187101  1
  S  S25  1  0.604989  0.395011  0.812899  1
  S  S26  1  0.465433  0.534567  0.393654  1
  S  S27  1  0.534567  0.465433  0.606346  1
  S  S28  1  0.553133  0.446867  0.027095  1
  S  S29  1  0.446867  0.553133  0.972905  1
  S  S30  1  0.661952  0.338048  0.398191  1
  S  S31  1  0.338048  0.661952  0.601809  1
  S  S32  1  0.804674  0.195326  0.147757  1
  S  S33  1  0.195326  0.804674  0.852243  1
  S  S34  1  0.873259  0.126741  0.395520  1
  S  S35  1  0.126741  0.873259  0.604480  1
  S  S36  1  0.772013  0.227987  0.408843  1
  S  S37  1  0.227987  0.772013  0.591157  1
  S  S38  1  0.682608  0.317392  0.041556  1
  S  S39  1  0.317392  0.682608  0.958444  1
