# generated using pymatgen
data_Al2(WO4)3
_symmetry_space_group_name_H-M   'P 1'
_cell_length_a   9.22254174
_cell_length_b   9.31104364
_cell_length_c   12.89263915
_cell_angle_alpha   90.00000000
_cell_angle_beta   90.00000000
_cell_angle_gamma   90.00000000
_symmetry_Int_Tables_number   1
_chemical_formula_structural   Al2(WO4)3
_chemical_formula_sum   'Al8 W12 O48'
_cell_volume   1107.11011557
_cell_formula_units_Z   4
loop_
 _symmetry_equiv_pos_site_id
 _symmetry_equiv_pos_as_xyz
  1  'x, y, z'
loop_
 _atom_site_type_symbol
 _atom_site_label
 _atom_site_symmetry_multiplicity
 _atom_site_fract_x
 _atom_site_fract_y
 _atom_site_fract_z
 _atom_site_occupancy
  Al  Al0  1  0.001601  0.217384  0.882418  1
  Al  Al1  1  0.498259  0.217407  0.619702  1
  Al  Al2  1  0.501741  0.282593  0.119702  1
  Al  Al3  1  0.998399  0.282616  0.382418  1
  Al  Al4  1  0.501741  0.717407  0.880298  1
  Al  Al5  1  0.001601  0.782616  0.117582  1
  Al  Al6  1  0.498259  0.782593  0.380298  1
  Al  Al7  1  0.998399  0.717384  0.617582  1
  W  W8  1  0.145106  0.133022  0.145701  1
  W  W9  1  0.642528  0.134622  0.356646  1
  W  W10  1  0.854894  0.633022  0.354299  1
  W  W11  1  0.223348  0.000000  0.500000  1
  W  W12  1  0.642528  0.865378  0.643354  1
  W  W13  1  0.145106  0.866978  0.854299  1
  W  W14  1  0.776652  0.500000  0.000000  1
  W  W15  1  0.854894  0.366978  0.645701  1
  W  W16  1  0.357472  0.634622  0.143354  1
  W  W17  1  0.274122  0.500000  0.500000  1
  W  W18  1  0.725878  0.000000  0.000000  1
  W  W19  1  0.357472  0.365378  0.856646  1
  O  O20  1  0.336636  0.092670  0.593640  1
  O  O21  1  0.564867  0.244688  0.255144  1
  O  O22  1  0.436118  0.684739  0.020587  1
  O  O23  1  0.435133  0.744688  0.244856  1
  O  O24  1  0.158997  0.589416  0.594836  1
  O  O25  1  0.107842  0.126838  0.434367  1
  O  O26  1  0.393167  0.555070  0.834193  1
  O  O27  1  0.563882  0.815261  0.520587  1
  O  O28  1  0.841003  0.910584  0.094836  1
  O  O29  1  0.383459  0.629242  0.431068  1
  O  O30  1  0.563882  0.184739  0.479413  1
  O  O31  1  0.163364  0.660372  0.138216  1
  O  O32  1  0.338630  0.837381  0.856920  1
  O  O33  1  0.892158  0.373162  0.934367  1
  O  O34  1  0.060785  0.760511  0.753743  1
  O  O35  1  0.939215  0.739489  0.253743  1
  O  O36  1  0.435133  0.255312  0.755144  1
  O  O37  1  0.663364  0.407330  0.093640  1
  O  O38  1  0.888915  0.443198  0.334333  1
  O  O39  1  0.606833  0.055070  0.665807  1
  O  O40  1  0.068597  0.818472  0.978022  1
  O  O41  1  0.841003  0.089416  0.905164  1
  O  O42  1  0.836636  0.839628  0.638216  1
  O  O43  1  0.892158  0.626838  0.065633  1
  O  O44  1  0.661370  0.662619  0.356920  1
  O  O45  1  0.888915  0.556802  0.665667  1
  O  O46  1  0.163364  0.339628  0.861784  1
  O  O47  1  0.393167  0.444930  0.165807  1
  O  O48  1  0.931403  0.681528  0.478022  1
  O  O49  1  0.111085  0.943198  0.165667  1
  O  O50  1  0.564867  0.755312  0.744856  1
  O  O51  1  0.836636  0.160372  0.361784  1
  O  O52  1  0.107842  0.873162  0.565633  1
  O  O53  1  0.939215  0.260511  0.746257  1
  O  O54  1  0.931403  0.318472  0.521978  1
  O  O55  1  0.158997  0.410584  0.405164  1
  O  O56  1  0.436118  0.315261  0.979413  1
  O  O57  1  0.111085  0.056802  0.834333  1
  O  O58  1  0.661370  0.337381  0.643080  1
  O  O59  1  0.060785  0.239489  0.246257  1
  O  O60  1  0.616541  0.129242  0.068932  1
  O  O61  1  0.068597  0.181528  0.021978  1
  O  O62  1  0.336636  0.907330  0.406360  1
  O  O63  1  0.338630  0.162619  0.143080  1
  O  O64  1  0.616541  0.870758  0.931068  1
  O  O65  1  0.383459  0.370758  0.568932  1
  O  O66  1  0.606833  0.944930  0.334193  1
  O  O67  1  0.663364  0.592670  0.906360  1
