# generated using pymatgen
data_Cu(PO3)3
_symmetry_space_group_name_H-M   'P 1'
_cell_length_a   8.42258646
_cell_length_b   8.44749362
_cell_length_c   9.01583487
_cell_angle_alpha   90.00000000
_cell_angle_beta   90.00000000
_cell_angle_gamma   90.00000000
_symmetry_Int_Tables_number   1
_chemical_formula_structural   Cu(PO3)3
_chemical_formula_sum   'Cu4 P12 O36'
_cell_volume   641.47435543
_cell_formula_units_Z   4
loop_
 _symmetry_equiv_pos_site_id
 _symmetry_equiv_pos_as_xyz
  1  'x, y, z'
loop_
 _atom_site_type_symbol
 _atom_site_label
 _atom_site_symmetry_multiplicity
 _atom_site_fract_x
 _atom_site_fract_y
 _atom_site_fract_z
 _atom_site_occupancy
  Cu  Cu0  1  0.653005  0.625841  0.614008  1
  Cu  Cu1  1  0.846995  0.374159  0.114008  1
  Cu  Cu2  1  0.346995  0.125841  0.885992  1
  Cu  Cu3  1  0.153005  0.874159  0.385992  1
  P  P4  1  0.801330  0.681125  0.918760  1
  P  P5  1  0.022500  0.684437  0.667736  1
  P  P6  1  0.188013  0.531119  0.193319  1
  P  P7  1  0.311987  0.468881  0.693319  1
  P  P8  1  0.477500  0.315563  0.167736  1
  P  P9  1  0.698670  0.318875  0.418760  1
  P  P10  1  0.198670  0.181125  0.581240  1
  P  P11  1  0.977500  0.184437  0.832264  1
  P  P12  1  0.811987  0.031119  0.306681  1
  P  P13  1  0.688013  0.968881  0.806681  1
  P  P14  1  0.522500  0.815563  0.332264  1
  P  P15  1  0.301330  0.818875  0.081240  1
  O  O16  1  0.960370  0.733402  0.830775  1
  O  O17  1  0.614604  0.680266  0.398147  1
  O  O18  1  0.222619  0.647116  0.052644  1
  O  O19  1  0.886342  0.618403  0.578317  1
  O  O20  1  0.843743  0.613423  0.068154  1
  O  O21  1  0.149168  0.631706  0.327706  1
  O  O22  1  0.420392  0.601703  0.647909  1
  O  O23  1  0.693291  0.580877  0.823077  1
  O  O24  1  0.140085  0.545117  0.718627  1
  O  O25  1  0.359915  0.454883  0.218627  1
  O  O26  1  0.806709  0.419123  0.323077  1
  O  O27  1  0.079608  0.398297  0.147909  1
  O  O28  1  0.350832  0.368294  0.827706  1
  O  O29  1  0.656257  0.386577  0.568154  1
  O  O30  1  0.613658  0.381597  0.078317  1
  O  O31  1  0.277381  0.352884  0.552644  1
  O  O32  1  0.885396  0.319734  0.898147  1
  O  O33  1  0.539630  0.266598  0.330775  1
  O  O34  1  0.039630  0.233402  0.669225  1
  O  O35  1  0.385396  0.180266  0.101853  1
  O  O36  1  0.777381  0.147116  0.447356  1
  O  O37  1  0.113658  0.118403  0.921683  1
  O  O38  1  0.156257  0.113423  0.431846  1
  O  O39  1  0.850832  0.131706  0.172294  1
  O  O40  1  0.579608  0.101703  0.852091  1
  O  O41  1  0.306709  0.080877  0.676923  1
  O  O42  1  0.859915  0.045117  0.781373  1
  O  O43  1  0.640085  0.954883  0.281373  1
  O  O44  1  0.193291  0.919123  0.176923  1
  O  O45  1  0.920392  0.898297  0.352091  1
  O  O46  1  0.649168  0.868294  0.672294  1
  O  O47  1  0.343743  0.886577  0.931846  1
  O  O48  1  0.386342  0.881597  0.421683  1
  O  O49  1  0.722619  0.852884  0.947356  1
  O  O50  1  0.114604  0.819734  0.601853  1
  O  O51  1  0.460370  0.766598  0.169225  1
