# generated using pymatgen
data_Na4U(MoO4)4
_symmetry_space_group_name_H-M   'P 1'
_cell_length_a   10.09910550
_cell_length_b   10.09910550
_cell_length_c   10.09910550
_cell_angle_alpha   110.89635494
_cell_angle_beta   110.89635494
_cell_angle_gamma   106.65707575
_symmetry_Int_Tables_number   1
_chemical_formula_structural   Na4U(MoO4)4
_chemical_formula_sum   'Na8 U2 Mo8 O32'
_cell_volume   791.48966937
_cell_formula_units_Z   2
loop_
 _symmetry_equiv_pos_site_id
 _symmetry_equiv_pos_as_xyz
  1  'x, y, z'
loop_
 _atom_site_type_symbol
 _atom_site_label
 _atom_site_symmetry_multiplicity
 _atom_site_fract_x
 _atom_site_fract_y
 _atom_site_fract_z
 _atom_site_occupancy
  Na  Na0  1  0.914668  0.753528  0.607264  1
  Na  Na1  1  0.146264  0.307404  0.392736  1
  Na  Na2  1  0.603736  0.942596  0.107264  1
  Na  Na3  1  0.246472  0.853736  0.161141  1
  Na  Na4  1  0.057404  0.164668  0.661141  1
  Na  Na5  1  0.692596  0.085332  0.838859  1
  Na  Na6  1  0.503528  0.396264  0.338859  1
  Na  Na7  1  0.835332  0.496472  0.892736  1
  U  U8  1  0.250000  0.750000  0.500000  1
  U  U9  1  0.500000  0.500000  1.000000  1
  Mo  Mo10  1  0.174723  0.584836  0.769645  1
  Mo  Mo11  1  0.155078  0.424723  0.089887  1
  Mo  Mo12  1  0.334836  0.065191  0.910113  1
  Mo  Mo13  1  0.934809  0.844922  0.269645  1
  Mo  Mo14  1  0.415164  0.184809  0.589887  1
  Mo  Mo15  1  0.594922  0.825277  0.410113  1
  Mo  Mo16  1  0.815191  0.405078  0.230355  1
  Mo  Mo17  1  0.575277  0.665164  0.730355  1
  O  O18  1  0.942226  0.322132  0.964605  1
  O  O19  1  0.033244  0.481607  0.327350  1
  O  O20  1  0.154258  0.705894  0.672650  1
  O  O21  1  0.392473  0.272379  0.464605  1
  O  O22  1  0.388137  0.648085  0.911494  1
  O  O23  1  0.226643  0.638137  0.240052  1
  O  O24  1  0.618039  0.229403  0.695658  1
  O  O25  1  0.736592  0.476643  0.088506  1
  O  O26  1  0.357527  0.977621  0.035395  1
  O  O27  1  0.807774  0.927868  0.535395  1
  O  O28  1  0.677868  0.642473  0.620094  1
  O  O29  1  0.131961  0.020597  0.804342  1
  O  O30  1  0.022379  0.057774  0.379906  1
  O  O31  1  0.361863  0.601915  0.588506  1
  O  O32  1  0.770597  0.466255  0.388636  1
  O  O33  1  0.979403  0.783745  0.111364  1
  O  O34  1  0.727621  0.192226  0.120094  1
  O  O35  1  0.455894  0.283244  0.051637  1
  O  O36  1  0.533745  0.922381  0.304342  1
  O  O37  1  0.672381  0.868039  0.888636  1
  O  O38  1  0.523357  0.611863  0.259948  1
  O  O39  1  0.398085  0.986592  0.759948  1
  O  O40  1  0.351915  0.263408  0.740052  1
  O  O41  1  0.595742  0.544106  0.827350  1
  O  O42  1  0.294106  0.966756  0.448363  1
  O  O43  1  0.077619  0.381961  0.611364  1
  O  O44  1  0.013408  0.773357  0.411494  1
  O  O45  1  0.216255  0.327619  0.195658  1
  O  O46  1  0.231607  0.404258  0.948363  1
  O  O47  1  0.072132  0.607527  0.879906  1
  O  O48  1  0.716756  0.768393  0.172650  1
  O  O49  1  0.518393  0.845742  0.551637  1
