# generated using pymatgen
data_SiO2
_symmetry_space_group_name_H-M   'P 1'
_cell_length_a   5.17587953
_cell_length_b   5.17587953
_cell_length_c   6.80731536
_cell_angle_alpha   81.66960166
_cell_angle_beta   98.33039834
_cell_angle_gamma   83.63472018
_symmetry_Int_Tables_number   1
_chemical_formula_structural   SiO2
_chemical_formula_sum   'Si4 O8'
_cell_volume   176.91142548
_cell_formula_units_Z   4
loop_
 _symmetry_equiv_pos_site_id
 _symmetry_equiv_pos_as_xyz
  1  'x, y, z'
loop_
 _atom_site_type_symbol
 _atom_site_label
 _atom_site_symmetry_multiplicity
 _atom_site_fract_x
 _atom_site_fract_y
 _atom_site_fract_z
 _atom_site_occupancy
  Si  Si0  1  0.817199  0.444244  0.430706  1
  Si  Si1  1  0.444244  0.817199  0.569294  1
  Si  Si2  1  0.005064  0.989716  0.237162  1
  Si  Si3  1  0.989717  0.005064  0.762838  1
  O  O4  1  0.795559  0.233220  0.273422  1
  O  O5  1  0.535222  0.535222  0.500000  1
  O  O6  1  0.295849  0.011162  0.361486  1
  O  O7  1  0.704270  0.921378  0.679397  1
  O  O8  1  0.233220  0.795559  0.726578  1
  O  O9  1  0.015187  0.015187  0.000000  1
  O  O10  1  0.921378  0.704270  0.320603  1
  O  O11  1  0.011162  0.295849  0.638514  1
