# generated using pymatgen
data_LiVP2O7
_symmetry_space_group_name_H-M   'P 1'
_cell_length_a   8.46256797
_cell_length_b   5.06472233
_cell_length_c   13.49257686
_cell_angle_alpha   90.00000000
_cell_angle_beta   116.43386692
_cell_angle_gamma   90.00000000
_symmetry_Int_Tables_number   1
_chemical_formula_structural   LiVP2O7
_chemical_formula_sum   'Li4 V4 P8 O28'
_cell_volume   517.83745827
_cell_formula_units_Z   4
loop_
 _symmetry_equiv_pos_site_id
 _symmetry_equiv_pos_as_xyz
  1  'x, y, z'
loop_
 _atom_site_type_symbol
 _atom_site_label
 _atom_site_symmetry_multiplicity
 _atom_site_fract_x
 _atom_site_fract_y
 _atom_site_fract_z
 _atom_site_occupancy
  Li  Li0  1  0.909114  0.731407  0.297440  1
  Li  Li1  1  0.090886  0.231407  0.202560  1
  Li  Li2  1  0.909114  0.768593  0.797440  1
  Li  Li3  1  0.090886  0.268593  0.702560  1
  V  V4  1  0.767814  0.763691  0.030826  1
  V  V5  1  0.232186  0.263691  0.469174  1
  V  V6  1  0.767814  0.736309  0.530826  1
  V  V7  1  0.232186  0.236309  0.969174  1
  P  P8  1  0.672602  0.244556  0.145776  1
  P  P9  1  0.196169  0.767890  0.616414  1
  P  P10  1  0.327398  0.744556  0.354224  1
  P  P11  1  0.196169  0.732110  0.116414  1
  P  P12  1  0.803831  0.267890  0.883586  1
  P  P13  1  0.672602  0.255444  0.645776  1
  P  P14  1  0.803831  0.232110  0.383586  1
  P  P15  1  0.327398  0.755444  0.854224  1
  O  O16  1  0.749039  0.963700  0.158851  1
  O  O17  1  0.805794  0.449402  0.141681  1
  O  O18  1  0.972843  0.344609  0.382009  1
  O  O19  1  0.183713  0.066663  0.594256  1
  O  O20  1  0.345559  0.707119  0.740797  1
  O  O21  1  0.255128  0.614196  0.542981  1
  O  O22  1  0.512083  0.717028  0.944170  1
  O  O23  1  0.027157  0.844609  0.117991  1
  O  O24  1  0.194206  0.949402  0.358319  1
  O  O25  1  0.250961  0.463700  0.341149  1
  O  O26  1  0.487917  0.217028  0.555830  1
  O  O27  1  0.183713  0.433337  0.094256  1
  O  O28  1  0.744872  0.114196  0.957019  1
  O  O29  1  0.654441  0.207119  0.759203  1
  O  O30  1  0.345559  0.792881  0.240797  1
  O  O31  1  0.255128  0.885804  0.042981  1
  O  O32  1  0.816287  0.566663  0.905744  1
  O  O33  1  0.512083  0.782972  0.444170  1
  O  O34  1  0.749039  0.536300  0.658851  1
  O  O35  1  0.805794  0.050598  0.641681  1
  O  O36  1  0.972843  0.155391  0.882009  1
  O  O37  1  0.487917  0.282972  0.055830  1
  O  O38  1  0.744872  0.385804  0.457019  1
  O  O39  1  0.654441  0.292881  0.259203  1
  O  O40  1  0.816287  0.933337  0.405744  1
  O  O41  1  0.027157  0.655391  0.617991  1
  O  O42  1  0.194206  0.550598  0.858319  1
  O  O43  1  0.250961  0.036300  0.841149  1
