# generated using pymatgen
data_BaHg2(ClO)2
_symmetry_space_group_name_H-M   'P 1'
_cell_length_a   12.13352540
_cell_length_b   12.13352540
_cell_length_c   4.37539369
_cell_angle_alpha   90.00000000
_cell_angle_beta   90.00000000
_cell_angle_gamma   90.00000000
_symmetry_Int_Tables_number   1
_chemical_formula_structural   BaHg2(ClO)2
_chemical_formula_sum   'Ba4 Hg8 Cl8 O8'
_cell_volume   644.15612902
_cell_formula_units_Z   4
loop_
 _symmetry_equiv_pos_site_id
 _symmetry_equiv_pos_as_xyz
  1  'x, y, z'
loop_
 _atom_site_type_symbol
 _atom_site_label
 _atom_site_symmetry_multiplicity
 _atom_site_fract_x
 _atom_site_fract_y
 _atom_site_fract_z
 _atom_site_occupancy
  Ba  Ba0  1  0.636048  0.136048  0.000000  1
  Ba  Ba1  1  0.363952  0.863952  0.000000  1
  Ba  Ba2  1  0.136048  0.363952  0.000000  1
  Ba  Ba3  1  0.863952  0.636048  0.000000  1
  Hg  Hg4  1  0.672900  0.422234  0.500000  1
  Hg  Hg5  1  0.327100  0.577766  0.500000  1
  Hg  Hg6  1  0.172900  0.077766  0.500000  1
  Hg  Hg7  1  0.577766  0.672900  0.500000  1
  Hg  Hg8  1  0.827100  0.922234  0.500000  1
  Hg  Hg9  1  0.077766  0.827100  0.500000  1
  Hg  Hg10  1  0.922234  0.172900  0.500000  1
  Hg  Hg11  1  0.422234  0.327100  0.500000  1
  Cl  Cl12  1  0.500000  0.000000  0.500000  1
  Cl  Cl13  1  0.327446  0.172554  0.000000  1
  Cl  Cl14  1  0.672554  0.827446  0.000000  1
  Cl  Cl15  1  0.827446  0.327446  0.000000  1
  Cl  Cl16  1  0.000000  0.000000  0.000000  1
  Cl  Cl17  1  0.500000  0.500000  0.000000  1
  Cl  Cl18  1  0.172554  0.672554  0.000000  1
  Cl  Cl19  1  0.000000  0.500000  0.500000  1
  O  O20  1  0.586350  0.271218  0.500000  1
  O  O21  1  0.413650  0.728782  0.500000  1
  O  O22  1  0.271218  0.413650  0.500000  1
  O  O23  1  0.913650  0.771218  0.500000  1
  O  O24  1  0.228782  0.913650  0.500000  1
  O  O25  1  0.086350  0.228782  0.500000  1
  O  O26  1  0.771218  0.086350  0.500000  1
  O  O27  1  0.728782  0.586350  0.500000  1
