# generated using pymatgen
data_Zr2H12(N2O7)5
_symmetry_space_group_name_H-M   'P 1'
_cell_length_a   10.54590363
_cell_length_b   10.54590363
_cell_length_c   15.00515758
_cell_angle_alpha   90.00000000
_cell_angle_beta   90.00000000
_cell_angle_gamma   120.00000000
_symmetry_Int_Tables_number   1
_chemical_formula_structural   Zr2H12(N2O7)5
_chemical_formula_sum   'Zr4 H24 N20 O70'
_cell_volume   1445.23605914
_cell_formula_units_Z   2
loop_
 _symmetry_equiv_pos_site_id
 _symmetry_equiv_pos_as_xyz
  1  'x, y, z'
loop_
 _atom_site_type_symbol
 _atom_site_label
 _atom_site_symmetry_multiplicity
 _atom_site_fract_x
 _atom_site_fract_y
 _atom_site_fract_z
 _atom_site_occupancy
  Zr  Zr0  1  0.333333  0.666667  0.037108  1
  Zr  Zr1  1  0.333333  0.666667  0.537108  1
  Zr  Zr2  1  0.666667  0.333333  0.462892  1
  Zr  Zr3  1  0.666667  0.333333  0.962892  1
  H  H4  1  0.456885  0.566881  0.675951  1
  H  H5  1  0.816565  0.560022  0.333325  1
  H  H6  1  0.890004  0.433119  0.824049  1
  H  H7  1  0.183435  0.439978  0.666675  1
  H  H8  1  0.439978  0.256543  0.333325  1
  H  H9  1  0.256543  0.816565  0.666675  1
  H  H10  1  0.743457  0.183435  0.333325  1
  H  H11  1  0.560022  0.816565  0.166675  1
  H  H12  1  0.456885  0.890004  0.175951  1
  H  H13  1  0.543115  0.109996  0.824049  1
  H  H14  1  0.256543  0.439978  0.166675  1
  H  H15  1  0.566881  0.456885  0.824049  1
  H  H16  1  0.439978  0.183435  0.833325  1
  H  H17  1  0.433119  0.543115  0.175951  1
  H  H18  1  0.183435  0.743457  0.166675  1
  H  H19  1  0.566881  0.109996  0.324049  1
  H  H20  1  0.560022  0.743457  0.666675  1
  H  H21  1  0.433119  0.890004  0.675951  1
  H  H22  1  0.109996  0.543115  0.675951  1
  H  H23  1  0.543115  0.433119  0.324049  1
  H  H24  1  0.890004  0.456885  0.324049  1
  H  H25  1  0.816565  0.256543  0.833325  1
  H  H26  1  0.109996  0.566881  0.175951  1
  H  H27  1  0.743457  0.560022  0.833325  1
  N  N28  1  0.689508  0.689508  0.250000  1
  N  N29  1  0.000000  0.310492  0.250000  1
  N  N30  1  0.229776  0.402417  0.453472  1
  N  N31  1  0.770224  0.172642  0.046528  1
  N  N32  1  0.172642  0.402417  0.953472  1
  N  N33  1  0.402417  0.172642  0.546528  1
  N  N34  1  0.310492  0.000000  0.250000  1
  N  N35  1  0.172642  0.770224  0.453472  1
  N  N36  1  0.597583  0.770224  0.953472  1
  N  N37  1  0.770224  0.597583  0.546528  1
  N  N38  1  0.000000  0.000000  0.750000  1
  N  N39  1  0.402417  0.229776  0.046528  1
  N  N40  1  0.229776  0.827358  0.953472  1
  N  N41  1  0.000000  0.689508  0.750000  1
  N  N42  1  0.310492  0.310492  0.750000  1
  N  N43  1  0.827358  0.229776  0.546528  1
  N  N44  1  0.597583  0.827358  0.453472  1
  N  N45  1  0.689508  0.000000  0.750000  1
  N  N46  1  0.000000  0.000000  0.250000  1
  N  N47  1  0.827358  0.597583  0.046528  1
  O  O48  1  0.104813  0.802501  0.715639  1
  O  O49  1  0.800874  0.498578  0.572436  1
  O  O50  1  0.873391  0.557420  0.977751  1
  O  O51  1  0.715351  0.816192  0.916988  1
  O  O52  1  0.802501  0.697688  0.284361  1
  O  O53  1  0.652739  0.168569  0.363886  1
  O  O54  1  0.100841  0.816192  0.416988  1
  O  O55  1  0.484170  0.652739  0.636114  1
  O  O56  1  0.431792  0.000000  0.250000  1
  O  O57  1  0.557420  0.684030  0.022249  1
  O  O58  1  0.302296  0.800874  0.427564  1
  O  O59  1  0.831431  0.347261  0.863886  1
  O  O60  1  0.431792  0.431792  0.750000  1
  O  O61  1  0.515830  0.168569  0.863886  1
  O  O62  1  0.895187  0.697688  0.784361  1
  O  O63  1  0.895187  0.197499  0.284361  1
  O  O64  1  0.302312  0.104813  0.284361  1
  O  O65  1  0.831431  0.484170  0.363886  1
  O  O66  1  0.199126  0.697704  0.927564  1
  O  O67  1  0.800874  0.302296  0.072436  1
  O  O68  1  0.802501  0.104813  0.784361  1
  O  O69  1  0.126609  0.442580  0.022249  1
  O  O70  1  0.899159  0.183808  0.583012  1
  O  O71  1  0.515830  0.347261  0.363886  1
  O  O72  1  0.000000  0.000000  0.174128  1
  O  O73  1  0.697704  0.199126  0.572436  1
  O  O74  1  0.557420  0.873391  0.522249  1
  O  O75  1  0.697704  0.498578  0.072436  1
  O  O76  1  0.899159  0.715351  0.083012  1
  O  O77  1  0.104813  0.302312  0.215639  1
  O  O78  1  0.126609  0.684030  0.522249  1
  O  O79  1  0.347261  0.515830  0.136114  1
  O  O80  1  0.697688  0.895187  0.715639  1
  O  O81  1  0.183808  0.899159  0.916988  1
  O  O82  1  0.501422  0.199126  0.072436  1
  O  O83  1  0.302296  0.501422  0.927564  1
  O  O84  1  0.168569  0.652739  0.136114  1
  O  O85  1  0.315970  0.442580  0.522249  1
  O  O86  1  0.684030  0.557420  0.477751  1
  O  O87  1  0.347261  0.831431  0.636114  1
  O  O88  1  0.816192  0.100841  0.083012  1
  O  O89  1  0.501422  0.302296  0.572436  1
  O  O90  1  0.284649  0.100841  0.583012  1
  O  O91  1  0.442580  0.126609  0.477751  1
  O  O92  1  0.484170  0.831431  0.136114  1
  O  O93  1  0.000000  0.000000  0.674128  1
  O  O94  1  0.498578  0.697704  0.427564  1
  O  O95  1  0.168569  0.515830  0.636114  1
  O  O96  1  0.498578  0.800874  0.927564  1
  O  O97  1  0.000000  0.568208  0.750000  1
  O  O98  1  0.442580  0.315970  0.977751  1
  O  O99  1  0.697688  0.802501  0.215639  1
  O  O100  1  0.873391  0.315970  0.477751  1
  O  O101  1  0.568208  0.000000  0.750000  1
  O  O102  1  0.816192  0.715351  0.583012  1
  O  O103  1  0.100841  0.284649  0.916988  1
  O  O104  1  0.000000  0.000000  0.825872  1
  O  O105  1  0.652739  0.484170  0.863886  1
  O  O106  1  0.199126  0.501422  0.427564  1
  O  O107  1  0.000000  0.431792  0.250000  1
  O  O108  1  0.568208  0.568208  0.250000  1
  O  O109  1  0.183808  0.284649  0.416988  1
  O  O110  1  0.000000  0.000000  0.325872  1
  O  O111  1  0.715351  0.899159  0.416988  1
  O  O112  1  0.197499  0.895187  0.215639  1
  O  O113  1  0.284649  0.183808  0.083012  1
  O  O114  1  0.302312  0.197499  0.784361  1
  O  O115  1  0.197499  0.302312  0.715639  1
  O  O116  1  0.315970  0.873391  0.022249  1
  O  O117  1  0.684030  0.126609  0.977751  1
