# generated using pymatgen
data_NbI2O
_symmetry_space_group_name_H-M   'P 1'
_cell_length_a   8.28172342
_cell_length_b   8.28172342
_cell_length_c   7.60452384
_cell_angle_alpha   75.48473783
_cell_angle_beta   104.51526217
_cell_angle_gamma   152.24476721
_symmetry_Int_Tables_number   1
_chemical_formula_structural   NbI2O
_chemical_formula_sum   'Nb2 I4 O2'
_cell_volume   234.65875094
_cell_formula_units_Z   2
loop_
 _symmetry_equiv_pos_site_id
 _symmetry_equiv_pos_as_xyz
  1  'x, y, z'
loop_
 _atom_site_type_symbol
 _atom_site_label
 _atom_site_symmetry_multiplicity
 _atom_site_fract_x
 _atom_site_fract_y
 _atom_site_fract_z
 _atom_site_occupancy
  Nb  Nb0  1  0.963733  0.963202  0.291707  1
  Nb  Nb1  1  0.963202  0.963733  0.708293  1
  I  I2  1  0.853975  0.150066  0.418163  1
  I  I3  1  0.884667  0.127747  0.934263  1
  I  I4  1  0.127747  0.884667  0.065737  1
  I  I5  1  0.150066  0.853975  0.581837  1
  O  O6  1  0.498128  0.497282  0.287149  1
  O  O7  1  0.497282  0.498128  0.712851  1
