# generated using pymatgen
data_Tb3Si2S8I
_symmetry_space_group_name_H-M   'P 1'
_cell_length_a   8.77160379
_cell_length_b   8.77160379
_cell_length_c   10.69548138
_cell_angle_alpha   81.83968565
_cell_angle_beta   98.16031435
_cell_angle_gamma   128.04252117
_symmetry_Int_Tables_number   1
_chemical_formula_structural   Tb3Si2S8I
_chemical_formula_sum   'Tb6 Si4 S16 I2'
_cell_volume   639.96467096
_cell_formula_units_Z   2
loop_
 _symmetry_equiv_pos_site_id
 _symmetry_equiv_pos_as_xyz
  1  'x, y, z'
loop_
 _atom_site_type_symbol
 _atom_site_label
 _atom_site_symmetry_multiplicity
 _atom_site_fract_x
 _atom_site_fract_y
 _atom_site_fract_z
 _atom_site_occupancy
  Tb  Tb0  1  0.327824  0.924455  0.680891  1
  Tb  Tb1  1  0.924455  0.327824  0.819109  1
  Tb  Tb2  1  0.672176  0.075545  0.319109  1
  Tb  Tb3  1  0.611686  0.611686  0.750000  1
  Tb  Tb4  1  0.075545  0.672176  0.180891  1
  Tb  Tb5  1  0.388314  0.388314  0.250000  1
  Si  Si6  1  0.620276  0.303678  0.025453  1
  Si  Si7  1  0.696322  0.379724  0.525453  1
  Si  Si8  1  0.303678  0.620276  0.474547  1
  Si  Si9  1  0.379724  0.696322  0.974547  1
  S  S10  1  0.149284  0.714942  0.912830  1
  S  S11  1  0.550160  0.255234  0.829540  1
  S  S12  1  0.714942  0.149284  0.587170  1
  S  S13  1  0.255234  0.550160  0.670460  1
  S  S14  1  0.449840  0.744766  0.170460  1
  S  S15  1  0.269284  0.404689  0.965117  1
  S  S16  1  0.744766  0.449840  0.329540  1
  S  S17  1  0.895022  0.608204  0.645895  1
  S  S18  1  0.391796  0.104978  0.145895  1
  S  S19  1  0.404689  0.269284  0.534883  1
  S  S20  1  0.595311  0.730716  0.465117  1
  S  S21  1  0.850716  0.285058  0.087170  1
  S  S22  1  0.608204  0.895022  0.854105  1
  S  S23  1  0.285058  0.850716  0.412830  1
  S  S24  1  0.730716  0.595311  0.034883  1
  S  S25  1  0.104978  0.391796  0.354105  1
  I  I26  1  0.017817  0.017817  0.750000  1
  I  I27  1  0.982183  0.982183  0.250000  1
