# generated using pymatgen
data_LiMo8(P2O11)4
_symmetry_space_group_name_H-M   'P 1'
_cell_length_a   9.97328136
_cell_length_b   10.00359159
_cell_length_c   10.21651752
_cell_angle_alpha   66.99020200
_cell_angle_beta   67.29480397
_cell_angle_gamma   80.56075669
_symmetry_Int_Tables_number   1
_chemical_formula_structural   LiMo8(P2O11)4
_chemical_formula_sum   'Li1 Mo8 P8 O44'
_cell_volume   865.38112022
_cell_formula_units_Z   1
loop_
 _symmetry_equiv_pos_site_id
 _symmetry_equiv_pos_as_xyz
  1  'x, y, z'
loop_
 _atom_site_type_symbol
 _atom_site_label
 _atom_site_symmetry_multiplicity
 _atom_site_fract_x
 _atom_site_fract_y
 _atom_site_fract_z
 _atom_site_occupancy
  Li  Li0  1  0.000000  0.000000  0.000000  1
  Mo  Mo1  1  0.534993  0.284881  0.855966  1
  Mo  Mo2  1  0.465007  0.715119  0.144034  1
  Mo  Mo3  1  0.076750  0.323587  0.706410  1
  Mo  Mo4  1  0.575985  0.825210  0.707427  1
  Mo  Mo5  1  0.923250  0.676413  0.293590  1
  Mo  Mo6  1  0.424015  0.174790  0.292573  1
  Mo  Mo7  1  0.036024  0.781113  0.851350  1
  Mo  Mo8  1  0.963976  0.218887  0.148650  1
  P  P9  1  0.279100  0.031595  0.116792  1
  P  P10  1  0.780230  0.531349  0.119049  1
  P  P11  1  0.292489  0.044018  0.671399  1
  P  P12  1  0.793709  0.541965  0.672518  1
  P  P13  1  0.707511  0.955982  0.328601  1
  P  P14  1  0.206291  0.458035  0.327482  1
  P  P15  1  0.720900  0.968405  0.883208  1
  P  P16  1  0.219770  0.468651  0.880951  1
  O  O17  1  0.001820  0.770477  0.089523  1
  O  O18  1  0.007450  0.762011  0.355998  1
  O  O19  1  0.828985  0.062450  0.194772  1
  O  O20  1  0.122572  0.059881  0.111729  1
  O  O21  1  0.814437  0.374138  0.117216  1
  O  O22  1  0.320155  0.874218  0.115207  1
  O  O23  1  0.051488  0.807625  0.672619  1
  O  O24  1  0.877428  0.940119  0.888271  1
  O  O25  1  0.495561  0.743272  0.909857  1
  O  O26  1  0.490701  0.737606  0.647841  1
  O  O27  1  0.676587  0.426987  0.801258  1
  O  O28  1  0.185563  0.625862  0.882784  1
  O  O29  1  0.376980  0.432335  0.882600  1
  O  O30  1  0.679845  0.125782  0.884793  1
  O  O31  1  0.448278  0.696714  0.321592  1
  O  O32  1  0.551722  0.303286  0.678408  1
  O  O33  1  0.623020  0.567665  0.117400  1
  O  O34  1  0.201452  0.452215  0.748121  1
  O  O35  1  0.707796  0.950286  0.748793  1
  O  O36  1  0.881989  0.633135  0.962240  1
  O  O37  1  0.382732  0.134804  0.960905  1
  O  O38  1  0.323413  0.573013  0.198742  1
  O  O39  1  0.509299  0.262394  0.352159  1
  O  O40  1  0.197161  0.453581  0.481652  1
  O  O41  1  0.700985  0.952564  0.481626  1
  O  O42  1  0.750392  0.688081  0.695693  1
  O  O43  1  0.254385  0.194177  0.688910  1
  O  O44  1  0.937765  0.493188  0.702485  1
  O  O45  1  0.438342  0.996627  0.697670  1
  O  O46  1  0.998180  0.229523  0.910477  1
  O  O47  1  0.504439  0.256728  0.090143  1
  O  O48  1  0.062235  0.506812  0.297515  1
  O  O49  1  0.561658  0.003373  0.302330  1
  O  O50  1  0.249608  0.311919  0.304307  1
  O  O51  1  0.745615  0.805823  0.311090  1
  O  O52  1  0.802839  0.546419  0.518348  1
  O  O53  1  0.299015  0.047436  0.518374  1
  O  O54  1  0.992550  0.237989  0.644002  1
  O  O55  1  0.171015  0.937550  0.805228  1
  O  O56  1  0.118011  0.366865  0.037760  1
  O  O57  1  0.798548  0.547785  0.251879  1
  O  O58  1  0.617268  0.865196  0.039095  1
  O  O59  1  0.292204  0.049714  0.251207  1
  O  O60  1  0.948512  0.192375  0.327381  1
