# generated using pymatgen
data_SiO2
_symmetry_space_group_name_H-M   'P 1'
_cell_length_a   12.25202443
_cell_length_b   12.25202443
_cell_length_c   12.25202443
_cell_angle_alpha   135.75047346
_cell_angle_beta   135.75047346
_cell_angle_gamma   64.36634392
_symmetry_Int_Tables_number   1
_chemical_formula_structural   SiO2
_chemical_formula_sum   'Si16 O32'
_cell_volume   883.18341375
_cell_formula_units_Z   16
loop_
 _symmetry_equiv_pos_site_id
 _symmetry_equiv_pos_as_xyz
  1  'x, y, z'
loop_
 _atom_site_type_symbol
 _atom_site_label
 _atom_site_symmetry_multiplicity
 _atom_site_fract_x
 _atom_site_fract_y
 _atom_site_fract_z
 _atom_site_occupancy
  Si  Si0  1  0.385101  0.889325  0.157745  1
  Si  Si1  1  0.977356  0.635101  0.995776  1
  Si  Si2  1  0.110675  0.268420  0.495776  1
  Si  Si3  1  0.018420  0.360675  0.995776  1
  Si  Si4  1  0.639325  0.635101  0.657745  1
  Si  Si5  1  0.731580  0.227356  0.842255  1
  Si  Si6  1  0.385101  0.227356  0.495776  1
  Si  Si7  1  0.772644  0.614899  0.504224  1
  Si  Si8  1  0.110675  0.614899  0.842255  1
  Si  Si9  1  0.364899  0.360675  0.342255  1
  Si  Si10  1  0.731580  0.889325  0.504224  1
  Si  Si11  1  0.772644  0.268420  0.157745  1
  Si  Si12  1  0.018420  0.022644  0.657745  1
  Si  Si13  1  0.977356  0.981580  0.342255  1
  Si  Si14  1  0.364899  0.022644  0.004224  1
  Si  Si15  1  0.639325  0.981580  0.004224  1
  O  O16  1  0.793105  0.579936  0.786831  1
  O  O17  1  0.329936  0.043105  0.286831  1
  O  O18  1  0.956895  0.243726  0.286831  1
  O  O19  1  0.183824  0.372870  0.189046  1
  O  O20  1  0.420064  0.206895  0.213169  1
  O  O21  1  0.020091  0.979909  0.500000  1
  O  O22  1  0.956895  0.670064  0.713169  1
  O  O23  1  0.270091  0.270091  0.540183  1
  O  O24  1  0.479909  0.979909  0.959817  1
  O  O25  1  0.993726  0.206895  0.786831  1
  O  O26  1  0.875000  0.904042  0.529042  1
  O  O27  1  0.375000  0.345958  0.470958  1
  O  O28  1  0.793105  0.006274  0.213169  1
  O  O29  1  0.627130  0.816176  0.810954  1
  O  O30  1  0.729909  0.729909  0.459817  1
  O  O31  1  0.875000  0.345958  0.970958  1
  O  O32  1  0.020091  0.520091  0.040183  1
  O  O33  1  0.729909  0.270091  0.000000  1
  O  O34  1  0.479909  0.520091  0.500000  1
  O  O35  1  0.122870  0.433824  0.689046  1
  O  O36  1  0.566176  0.255222  0.689046  1
  O  O37  1  0.654042  0.625000  0.529042  1
  O  O38  1  0.744778  0.433824  0.310954  1
  O  O39  1  0.095958  0.625000  0.970958  1
  O  O40  1  0.654042  0.125000  0.029042  1
  O  O41  1  0.566176  0.877130  0.310954  1
  O  O42  1  0.183824  0.994778  0.810954  1
  O  O43  1  0.005222  0.816176  0.189046  1
  O  O44  1  0.270091  0.729909  0.000000  1
  O  O45  1  0.095958  0.125000  0.470958  1
  O  O46  1  0.756274  0.043105  0.713169  1
  O  O47  1  0.375000  0.904042  0.029042  1
