# generated using pymatgen
data_RbErSeCl2O3
_symmetry_space_group_name_H-M   'P 1'
_cell_length_a   6.60624599
_cell_length_b   7.01547305
_cell_length_c   17.58629100
_cell_angle_alpha   90.00000000
_cell_angle_beta   105.30003445
_cell_angle_gamma   90.00000000
_symmetry_Int_Tables_number   1
_chemical_formula_structural   RbErSeCl2O3
_chemical_formula_sum   'Rb4 Er4 Se4 Cl8 O12'
_cell_volume   786.16548148
_cell_formula_units_Z   4
loop_
 _symmetry_equiv_pos_site_id
 _symmetry_equiv_pos_as_xyz
  1  'x, y, z'
loop_
 _atom_site_type_symbol
 _atom_site_label
 _atom_site_symmetry_multiplicity
 _atom_site_fract_x
 _atom_site_fract_y
 _atom_site_fract_z
 _atom_site_occupancy
  Rb  Rb0  1  0.764472  0.199542  0.942852  1
  Rb  Rb1  1  0.764472  0.300458  0.442852  1
  Rb  Rb2  1  0.235528  0.800458  0.057148  1
  Rb  Rb3  1  0.235528  0.699542  0.557148  1
  Er  Er4  1  0.861358  0.655084  0.740779  1
  Er  Er5  1  0.138642  0.155084  0.759221  1
  Er  Er6  1  0.138642  0.344916  0.259221  1
  Er  Er7  1  0.861358  0.844916  0.240779  1
  Se  Se8  1  0.370158  0.840832  0.294129  1
  Se  Se9  1  0.370158  0.659168  0.794129  1
  Se  Se10  1  0.629842  0.340832  0.205871  1
  Se  Se11  1  0.629842  0.159168  0.705871  1
  Cl  Cl12  1  0.242492  0.360850  0.415001  1
  Cl  Cl13  1  0.887832  0.839874  0.392862  1
  Cl  Cl14  1  0.757508  0.639150  0.584999  1
  Cl  Cl15  1  0.757508  0.860850  0.084999  1
  Cl  Cl16  1  0.887832  0.660126  0.892862  1
  Cl  Cl17  1  0.112168  0.339874  0.107138  1
  Cl  Cl18  1  0.112168  0.160126  0.607138  1
  Cl  Cl19  1  0.242492  0.139150  0.915001  1
  O  O20  1  0.821440  0.168389  0.242755  1
  O  O21  1  0.505727  0.847343  0.224240  1
  O  O22  1  0.815818  0.978475  0.734965  1
  O  O23  1  0.815818  0.521525  0.234965  1
  O  O24  1  0.821440  0.331611  0.742755  1
  O  O25  1  0.178560  0.831611  0.757245  1
  O  O26  1  0.184182  0.021525  0.265035  1
  O  O27  1  0.505727  0.652657  0.724240  1
  O  O28  1  0.178560  0.668389  0.257245  1
  O  O29  1  0.184182  0.478475  0.765035  1
  O  O30  1  0.494273  0.152657  0.775760  1
  O  O31  1  0.494273  0.347343  0.275760  1
