# generated using pymatgen
data_Cd2Os(CN)6
_symmetry_space_group_name_H-M   'P 1'
_cell_length_a   6.45403130
_cell_length_b   6.45403130
_cell_length_c   6.63649985
_cell_angle_alpha   90.00000000
_cell_angle_beta   90.00000000
_cell_angle_gamma   120.00000000
_symmetry_Int_Tables_number   1
_chemical_formula_structural   Cd2Os(CN)6
_chemical_formula_sum   'Cd2 Os1 C6 N6'
_cell_volume   239.40424943
_cell_formula_units_Z   1
loop_
 _symmetry_equiv_pos_site_id
 _symmetry_equiv_pos_as_xyz
  1  'x, y, z'
loop_
 _atom_site_type_symbol
 _atom_site_label
 _atom_site_symmetry_multiplicity
 _atom_site_fract_x
 _atom_site_fract_y
 _atom_site_fract_z
 _atom_site_occupancy
  Cd  Cd0  1  0.333333  0.666667  0.500000  1
  Cd  Cd1  1  0.666667  0.333333  0.500000  1
  Os  Os2  1  0.000000  0.000000  0.000000  1
  C  C3  1  0.000000  0.752053  0.815852  1
  C  C4  1  0.247947  0.247947  0.815852  1
  C  C5  1  0.752053  0.000000  0.815852  1
  C  C6  1  0.247947  0.000000  0.184148  1
  C  C7  1  0.752053  0.752053  0.184148  1
  C  C8  1  0.000000  0.247947  0.184148  1
  N  N9  1  0.615121  0.615121  0.303265  1
  N  N10  1  0.000000  0.384879  0.303265  1
  N  N11  1  0.615121  0.000000  0.696735  1
  N  N12  1  0.384879  0.000000  0.303265  1
  N  N13  1  0.000000  0.615121  0.696735  1
  N  N14  1  0.384879  0.384879  0.696735  1
