# generated using pymatgen
data_Cu2PHO5
_symmetry_space_group_name_H-M   'P 1'
_cell_length_a   5.96663354
_cell_length_b   8.13574130
_cell_length_c   8.52248769
_cell_angle_alpha   90.00000000
_cell_angle_beta   90.00000000
_cell_angle_gamma   90.00000000
_symmetry_Int_Tables_number   1
_chemical_formula_structural   Cu2PHO5
_chemical_formula_sum   'Cu8 P4 H4 O20'
_cell_volume   413.70700840
_cell_formula_units_Z   4
loop_
 _symmetry_equiv_pos_site_id
 _symmetry_equiv_pos_as_xyz
  1  'x, y, z'
loop_
 _atom_site_type_symbol
 _atom_site_label
 _atom_site_symmetry_multiplicity
 _atom_site_fract_x
 _atom_site_fract_y
 _atom_site_fract_z
 _atom_site_occupancy
  Cu  Cu0  1  0.248804  0.000000  0.500000  1
  Cu  Cu1  1  0.251196  0.500000  0.000000  1
  Cu  Cu2  1  0.751196  0.000000  0.500000  1
  Cu  Cu3  1  0.748804  0.500000  0.000000  1
  Cu  Cu4  1  0.500000  0.638513  0.371399  1
  Cu  Cu5  1  0.500000  0.361487  0.628601  1
  Cu  Cu6  1  0.000000  0.138513  0.128601  1
  Cu  Cu7  1  0.000000  0.861487  0.871399  1
  P  P8  1  0.000000  0.767625  0.253545  1
  P  P9  1  0.000000  0.232375  0.746455  1
  P  P10  1  0.500000  0.267625  0.246455  1
  P  P11  1  0.500000  0.732375  0.753545  1
  H  H12  1  0.500000  0.923543  0.291670  1
  H  H13  1  0.500000  0.076457  0.708330  1
  H  H14  1  0.000000  0.423543  0.208330  1
  H  H15  1  0.000000  0.576457  0.791670  1
  O  O16  1  0.000000  0.863456  0.414421  1
  O  O17  1  0.000000  0.136544  0.585579  1
  O  O18  1  0.500000  0.363456  0.085579  1
  O  O19  1  0.500000  0.636544  0.914421  1
  O  O20  1  0.000000  0.898289  0.118605  1
  O  O21  1  0.000000  0.101711  0.881395  1
  O  O22  1  0.500000  0.398289  0.381395  1
  O  O23  1  0.500000  0.601711  0.618605  1
  O  O24  1  0.210422  0.657923  0.241354  1
  O  O25  1  0.210422  0.342077  0.758646  1
  O  O26  1  0.289578  0.157923  0.258646  1
  O  O27  1  0.289578  0.842077  0.741354  1
  O  O28  1  0.789578  0.342077  0.758646  1
  O  O29  1  0.789578  0.657923  0.241354  1
  O  O30  1  0.710422  0.842077  0.741354  1
  O  O31  1  0.710422  0.157923  0.258646  1
  O  O32  1  0.500000  0.875528  0.397846  1
  O  O33  1  0.500000  0.124472  0.602154  1
  O  O34  1  0.000000  0.375528  0.102154  1
  O  O35  1  0.000000  0.624472  0.897846  1
