# generated using pymatgen
data_AlPO4
_symmetry_space_group_name_H-M   'P 1'
_cell_length_a   12.25563199
_cell_length_b   12.25563199
_cell_length_c   12.25563199
_cell_angle_alpha   118.14622341
_cell_angle_beta   118.14622341
_cell_angle_gamma   118.14622341
_symmetry_Int_Tables_number   1
_chemical_formula_structural   AlPO4
_chemical_formula_sum   'Al6 P6 O24'
_cell_volume   644.26128906
_cell_formula_units_Z   6
loop_
 _symmetry_equiv_pos_site_id
 _symmetry_equiv_pos_as_xyz
  1  'x, y, z'
loop_
 _atom_site_type_symbol
 _atom_site_label
 _atom_site_symmetry_multiplicity
 _atom_site_fract_x
 _atom_site_fract_y
 _atom_site_fract_z
 _atom_site_occupancy
  Al  Al0  1  0.943725  0.497708  0.646408  1
  Al  Al1  1  0.056275  0.502292  0.353592  1
  Al  Al2  1  0.497708  0.646408  0.943725  1
  Al  Al3  1  0.646408  0.943725  0.497708  1
  Al  Al4  1  0.353592  0.056275  0.502292  1
  Al  Al5  1  0.502292  0.353592  0.056275  1
  P  P6  1  0.404482  0.964246  0.260251  1
  P  P7  1  0.595518  0.035754  0.739749  1
  P  P8  1  0.035754  0.739749  0.595518  1
  P  P9  1  0.739749  0.595518  0.035754  1
  P  P10  1  0.260251  0.404482  0.964246  1
  P  P11  1  0.964246  0.260251  0.404482  1
  O  O12  1  0.305057  0.308468  0.972308  1
  O  O13  1  0.950137  0.150776  0.687067  1
  O  O14  1  0.694943  0.691532  0.027692  1
  O  O15  1  0.972308  0.305057  0.308468  1
  O  O16  1  0.404578  0.561234  0.997435  1
  O  O17  1  0.595422  0.438766  0.002565  1
  O  O18  1  0.619783  0.403311  0.799535  1
  O  O19  1  0.849224  0.312933  0.049863  1
  O  O20  1  0.561234  0.997435  0.404578  1
  O  O21  1  0.150776  0.687067  0.950137  1
  O  O22  1  0.799535  0.619783  0.403311  1
  O  O23  1  0.687067  0.950137  0.150776  1
  O  O24  1  0.049863  0.849224  0.312933  1
  O  O25  1  0.380217  0.596689  0.200465  1
  O  O26  1  0.403311  0.799535  0.619783  1
  O  O27  1  0.312933  0.049863  0.849224  1
  O  O28  1  0.027692  0.694943  0.691532  1
  O  O29  1  0.438766  0.002565  0.595422  1
  O  O30  1  0.308468  0.972308  0.305057  1
  O  O31  1  0.997435  0.404578  0.561234  1
  O  O32  1  0.002565  0.595422  0.438766  1
  O  O33  1  0.691532  0.027692  0.694943  1
  O  O34  1  0.200465  0.380217  0.596689  1
  O  O35  1  0.596689  0.200465  0.380217  1
