# generated using pymatgen
data_K14(Tl7Cd3)3
_symmetry_space_group_name_H-M   'P 1'
_cell_length_a   10.21663543
_cell_length_b   10.21663543
_cell_length_c   17.57670334
_cell_angle_alpha   90.00000000
_cell_angle_beta   90.00000000
_cell_angle_gamma   120.00000000
_symmetry_Int_Tables_number   1
_chemical_formula_structural   K14(Tl7Cd3)3
_chemical_formula_sum   'K14 Tl21 Cd9'
_cell_volume   1588.85347062
_cell_formula_units_Z   1
loop_
 _symmetry_equiv_pos_site_id
 _symmetry_equiv_pos_as_xyz
  1  'x, y, z'
loop_
 _atom_site_type_symbol
 _atom_site_label
 _atom_site_symmetry_multiplicity
 _atom_site_fract_x
 _atom_site_fract_y
 _atom_site_fract_z
 _atom_site_occupancy
  K  K0  1  0.748506  0.000000  0.178090  1
  K  K1  1  0.000000  0.387823  0.683799  1
  K  K2  1  0.251494  0.251494  0.821910  1
  K  K3  1  0.612177  0.612177  0.316201  1
  K  K4  1  0.387823  0.000000  0.683799  1
  K  K5  1  0.612177  0.612177  0.683799  1
  K  K6  1  0.748506  0.000000  0.821910  1
  K  K7  1  0.387823  0.000000  0.316201  1
  K  K8  1  0.000000  0.748506  0.178090  1
  K  K9  1  0.000000  0.387823  0.316201  1
  K  K10  1  0.333333  0.666667  0.500000  1
  K  K11  1  0.000000  0.748506  0.821910  1
  K  K12  1  0.666667  0.333333  0.500000  1
  K  K13  1  0.251494  0.251494  0.178090  1
  Tl  Tl14  1  0.333333  0.666667  0.835578  1
  Tl  Tl15  1  0.599392  0.599392  0.108792  1
  Tl  Tl16  1  0.000000  0.400608  0.891208  1
  Tl  Tl17  1  0.778972  0.778972  0.500000  1
  Tl  Tl18  1  0.000000  0.000000  0.652506  1
  Tl  Tl19  1  0.294645  0.294645  0.406010  1
  Tl  Tl20  1  0.294645  0.294645  0.593990  1
  Tl  Tl21  1  0.221028  0.000000  0.500000  1
  Tl  Tl22  1  0.705355  0.000000  0.593990  1
  Tl  Tl23  1  0.000000  0.221028  0.500000  1
  Tl  Tl24  1  0.333333  0.666667  0.164422  1
  Tl  Tl25  1  0.000000  0.400608  0.108792  1
  Tl  Tl26  1  0.400608  0.000000  0.891208  1
  Tl  Tl27  1  0.000000  0.705355  0.406010  1
  Tl  Tl28  1  0.000000  0.000000  0.347494  1
  Tl  Tl29  1  0.599392  0.599392  0.891208  1
  Tl  Tl30  1  0.705355  0.000000  0.406010  1
  Tl  Tl31  1  0.666667  0.333333  0.164422  1
  Tl  Tl32  1  0.400608  0.000000  0.108792  1
  Tl  Tl33  1  0.666667  0.333333  0.835578  1
  Tl  Tl34  1  0.000000  0.705355  0.593990  1
  Cd  Cd35  1  0.164795  0.000000  0.000000  1
  Cd  Cd36  1  0.299210  0.471696  0.000000  1
  Cd  Cd37  1  0.000000  0.164795  0.000000  1
  Cd  Cd38  1  0.700790  0.172486  0.000000  1
  Cd  Cd39  1  0.835205  0.835205  0.000000  1
  Cd  Cd40  1  0.827514  0.528304  0.000000  1
  Cd  Cd41  1  0.471696  0.299210  0.000000  1
  Cd  Cd42  1  0.528304  0.827514  0.000000  1
  Cd  Cd43  1  0.172486  0.700790  0.000000  1
