# generated using pymatgen
data_Bi(PO3)4
_symmetry_space_group_name_H-M   'P 1'
_cell_length_a   7.28438986
_cell_length_b   8.61187498
_cell_length_c   8.02264849
_cell_angle_alpha   90.00000000
_cell_angle_beta   92.37491226
_cell_angle_gamma   90.00000000
_symmetry_Int_Tables_number   1
_chemical_formula_structural   Bi(PO3)4
_chemical_formula_sum   'Bi2 P8 O24'
_cell_volume   502.84654795
_cell_formula_units_Z   2
loop_
 _symmetry_equiv_pos_site_id
 _symmetry_equiv_pos_as_xyz
  1  'x, y, z'
loop_
 _atom_site_type_symbol
 _atom_site_label
 _atom_site_symmetry_multiplicity
 _atom_site_fract_x
 _atom_site_fract_y
 _atom_site_fract_z
 _atom_site_occupancy
  Bi  Bi0  1  0.748239  0.247724  0.746031  1
  Bi  Bi1  1  0.251761  0.747724  0.253969  1
  P  P2  1  0.899392  0.669132  0.890083  1
  P  P3  1  0.563523  0.872744  0.902714  1
  P  P4  1  0.009568  0.395468  0.393116  1
  P  P5  1  0.436477  0.372744  0.097286  1
  P  P6  1  0.622853  0.498182  0.401419  1
  P  P7  1  0.100608  0.169132  0.109917  1
  P  P8  1  0.377147  0.998182  0.598581  1
  P  P9  1  0.990432  0.895468  0.606884  1
  O  O10  1  0.997924  0.287220  0.228292  1
  O  O11  1  0.607597  0.440843  0.577095  1
  O  O12  1  0.820699  0.994562  0.611253  1
  O  O13  1  0.687269  0.720986  0.881593  1
  O  O14  1  0.567172  0.350069  0.959673  1
  O  O15  1  0.320235  0.517180  0.077364  1
  O  O16  1  0.392403  0.940843  0.422905  1
  O  O17  1  0.019646  0.190394  0.935919  1
  O  O18  1  0.312731  0.220986  0.118407  1
  O  O19  1  0.093217  0.007342  0.179475  1
  O  O20  1  0.835775  0.505646  0.355409  1
  O  O21  1  0.540534  0.652438  0.356261  1
  O  O22  1  0.002076  0.787220  0.771708  1
  O  O23  1  0.679765  0.017180  0.922636  1
  O  O24  1  0.432828  0.850069  0.040327  1
  O  O25  1  0.459466  0.152438  0.643739  1
  O  O26  1  0.017827  0.793844  0.457822  1
  O  O27  1  0.980354  0.690394  0.064081  1
  O  O28  1  0.982173  0.293844  0.542178  1
  O  O29  1  0.547339  0.364769  0.274317  1
  O  O30  1  0.906783  0.507342  0.820525  1
  O  O31  1  0.164225  0.005646  0.644591  1
  O  O32  1  0.179301  0.494562  0.388747  1
  O  O33  1  0.452661  0.864769  0.725683  1
