# generated using pymatgen
data_ZnCuAsHO5
_symmetry_space_group_name_H-M   'P 1'
_cell_length_a   6.01506374
_cell_length_b   8.68327074
_cell_length_c   8.75111220
_cell_angle_alpha   90.00000000
_cell_angle_beta   90.00000000
_cell_angle_gamma   90.00000000
_symmetry_Int_Tables_number   1
_chemical_formula_structural   ZnCuAsHO5
_chemical_formula_sum   'Zn4 Cu4 As4 H4 O20'
_cell_volume   457.07432669
_cell_formula_units_Z   4
loop_
 _symmetry_equiv_pos_site_id
 _symmetry_equiv_pos_as_xyz
  1  'x, y, z'
loop_
 _atom_site_type_symbol
 _atom_site_label
 _atom_site_symmetry_multiplicity
 _atom_site_fract_x
 _atom_site_fract_y
 _atom_site_fract_z
 _atom_site_occupancy
  Zn  Zn0  1  0.000000  0.639266  0.875481  1
  Zn  Zn1  1  0.000000  0.360734  0.124519  1
  Zn  Zn2  1  0.500000  0.139266  0.624519  1
  Zn  Zn3  1  0.500000  0.860734  0.375481  1
  Cu  Cu4  1  0.749761  0.000000  0.000000  1
  Cu  Cu5  1  0.750239  0.500000  0.500000  1
  Cu  Cu6  1  0.250239  0.000000  0.000000  1
  Cu  Cu7  1  0.249761  0.500000  0.500000  1
  As  As8  1  0.500000  0.764654  0.753756  1
  As  As9  1  0.500000  0.235346  0.246244  1
  As  As10  1  0.000000  0.264654  0.746244  1
  As  As11  1  0.000000  0.735346  0.253756  1
  H  H12  1  0.000000  0.929808  0.798933  1
  H  H13  1  0.000000  0.070192  0.201067  1
  H  H14  1  0.500000  0.429808  0.701067  1
  H  H15  1  0.500000  0.570192  0.298933  1
  O  O16  1  0.500000  0.870543  0.924091  1
  O  O17  1  0.500000  0.129457  0.075909  1
  O  O18  1  0.000000  0.370543  0.575909  1
  O  O19  1  0.000000  0.629457  0.424091  1
  O  O20  1  0.000000  0.883988  0.901662  1
  O  O21  1  0.000000  0.116012  0.098338  1
  O  O22  1  0.500000  0.383987  0.598338  1
  O  O23  1  0.500000  0.616012  0.401662  1
  O  O24  1  0.500000  0.895551  0.604867  1
  O  O25  1  0.500000  0.104449  0.395133  1
  O  O26  1  0.000000  0.395551  0.895133  1
  O  O27  1  0.000000  0.604449  0.104867  1
  O  O28  1  0.727955  0.646782  0.743429  1
  O  O29  1  0.727955  0.353218  0.256571  1
  O  O30  1  0.772045  0.146782  0.756571  1
  O  O31  1  0.772045  0.853218  0.243429  1
  O  O32  1  0.272045  0.353218  0.256571  1
  O  O33  1  0.272045  0.646782  0.743429  1
  O  O34  1  0.227955  0.853218  0.243429  1
  O  O35  1  0.227955  0.146782  0.756571  1
