# generated using pymatgen
data_K2SnCl6
_symmetry_space_group_name_H-M   'P 1'
_cell_length_a   7.29233082
_cell_length_b   7.29233082
_cell_length_c   10.06924542
_cell_angle_alpha   90.00000000
_cell_angle_beta   90.00000000
_cell_angle_gamma   90.00000000
_symmetry_Int_Tables_number   1
_chemical_formula_structural   K2SnCl6
_chemical_formula_sum   'K4 Sn2 Cl12'
_cell_volume   535.46322698
_cell_formula_units_Z   2
loop_
 _symmetry_equiv_pos_site_id
 _symmetry_equiv_pos_as_xyz
  1  'x, y, z'
loop_
 _atom_site_type_symbol
 _atom_site_label
 _atom_site_symmetry_multiplicity
 _atom_site_fract_x
 _atom_site_fract_y
 _atom_site_fract_z
 _atom_site_occupancy
  K  K0  1  0.000000  0.500000  0.250000  1
  K  K1  1  0.000000  0.500000  0.750000  1
  K  K2  1  0.500000  0.000000  0.750000  1
  K  K3  1  0.500000  0.000000  0.250000  1
  Sn  Sn4  1  0.500000  0.500000  0.500000  1
  Sn  Sn5  1  0.000000  0.000000  0.000000  1
  Cl  Cl6  1  0.500000  0.500000  0.255283  1
  Cl  Cl7  1  0.745388  0.776842  0.000000  1
  Cl  Cl8  1  0.223158  0.745388  0.000000  1
  Cl  Cl9  1  0.000000  0.000000  0.755283  1
  Cl  Cl10  1  0.254612  0.223158  0.000000  1
  Cl  Cl11  1  0.276842  0.245388  0.500000  1
  Cl  Cl12  1  0.723158  0.754612  0.500000  1
  Cl  Cl13  1  0.245388  0.723158  0.500000  1
  Cl  Cl14  1  0.500000  0.500000  0.744717  1
  Cl  Cl15  1  0.754612  0.276842  0.500000  1
  Cl  Cl16  1  0.000000  0.000000  0.244717  1
  Cl  Cl17  1  0.776842  0.254612  0.000000  1
