# generated using pymatgen
data_KUNbO6
_symmetry_space_group_name_H-M   'P 1'
_cell_length_a   7.63426297
_cell_length_b   10.47445333
_cell_length_c   13.63424891
_cell_angle_alpha   90.00000000
_cell_angle_beta   90.00000000
_cell_angle_gamma   90.00000000
_symmetry_Int_Tables_number   1
_chemical_formula_structural   KUNbO6
_chemical_formula_sum   'K8 U8 Nb8 O48'
_cell_volume   1090.25904904
_cell_formula_units_Z   8
loop_
 _symmetry_equiv_pos_site_id
 _symmetry_equiv_pos_as_xyz
  1  'x, y, z'
loop_
 _atom_site_type_symbol
 _atom_site_label
 _atom_site_symmetry_multiplicity
 _atom_site_fract_x
 _atom_site_fract_y
 _atom_site_fract_z
 _atom_site_occupancy
  K  K0  1  0.992233  0.856080  0.941048  1
  K  K1  1  0.507767  0.356080  0.558952  1
  K  K2  1  0.007767  0.143920  0.058952  1
  K  K3  1  0.992233  0.356080  0.558952  1
  K  K4  1  0.492233  0.143920  0.058952  1
  K  K5  1  0.492233  0.643920  0.441048  1
  K  K6  1  0.007767  0.643920  0.441048  1
  K  K7  1  0.507767  0.856080  0.941048  1
  U  U8  1  0.750000  0.353592  0.275035  1
  U  U9  1  0.750000  0.853592  0.224965  1
  U  U10  1  0.750000  0.684340  0.701875  1
  U  U11  1  0.250000  0.646408  0.724965  1
  U  U12  1  0.250000  0.146408  0.775035  1
  U  U13  1  0.750000  0.184340  0.798125  1
  U  U14  1  0.250000  0.315660  0.298125  1
  U  U15  1  0.250000  0.815660  0.201875  1
  Nb  Nb16  1  0.500488  0.951009  0.608183  1
  Nb  Nb17  1  0.999512  0.451009  0.891817  1
  Nb  Nb18  1  0.999512  0.951009  0.608183  1
  Nb  Nb19  1  0.000488  0.548991  0.108183  1
  Nb  Nb20  1  0.000488  0.048991  0.391817  1
  Nb  Nb21  1  0.499512  0.048991  0.391817  1
  Nb  Nb22  1  0.499512  0.548991  0.108183  1
  Nb  Nb23  1  0.500488  0.451009  0.891817  1
  O  O24  1  0.750000  0.587871  0.586646  1
  O  O25  1  0.966274  0.060363  0.730894  1
  O  O26  1  0.531231  0.232738  0.341732  1
  O  O27  1  0.750000  0.953999  0.112372  1
  O  O28  1  0.750000  0.783192  0.813450  1
  O  O29  1  0.750000  0.893027  0.616582  1
  O  O30  1  0.250000  0.981021  0.644744  1
  O  O31  1  0.750000  0.247021  0.167721  1
  O  O32  1  0.050821  0.893486  0.472603  1
  O  O33  1  0.750000  0.283192  0.686550  1
  O  O34  1  0.968769  0.732738  0.158268  1
  O  O35  1  0.250000  0.046001  0.887628  1
  O  O36  1  0.033726  0.439637  0.230894  1
  O  O37  1  0.250000  0.716808  0.313450  1
  O  O38  1  0.250000  0.252979  0.667721  1
  O  O39  1  0.949179  0.106514  0.527397  1
  O  O40  1  0.750000  0.518979  0.144744  1
  O  O41  1  0.531231  0.732738  0.158268  1
  O  O42  1  0.550821  0.606514  0.972603  1
  O  O43  1  0.250000  0.412129  0.413354  1
  O  O44  1  0.750000  0.747021  0.332279  1
  O  O45  1  0.250000  0.546001  0.612372  1
  O  O46  1  0.250000  0.216808  0.186550  1
  O  O47  1  0.466274  0.439637  0.230894  1
  O  O48  1  0.250000  0.912129  0.086646  1
  O  O49  1  0.533726  0.060363  0.730894  1
  O  O50  1  0.550821  0.106514  0.527397  1
  O  O51  1  0.031231  0.267262  0.841732  1
  O  O52  1  0.966274  0.560363  0.769106  1
  O  O53  1  0.031231  0.767262  0.658268  1
  O  O54  1  0.968769  0.232738  0.341732  1
  O  O55  1  0.468769  0.267262  0.841732  1
  O  O56  1  0.033726  0.939637  0.269106  1
  O  O57  1  0.750000  0.018979  0.355256  1
  O  O58  1  0.449179  0.393486  0.027397  1
  O  O59  1  0.250000  0.752979  0.832279  1
  O  O60  1  0.750000  0.393027  0.883418  1
  O  O61  1  0.750000  0.087871  0.913354  1
  O  O62  1  0.250000  0.606973  0.116582  1
  O  O63  1  0.949179  0.606514  0.972603  1
  O  O64  1  0.250000  0.481021  0.855256  1
  O  O65  1  0.449179  0.893486  0.472603  1
  O  O66  1  0.750000  0.453999  0.387628  1
  O  O67  1  0.466274  0.939637  0.269106  1
  O  O68  1  0.250000  0.106973  0.383418  1
  O  O69  1  0.050821  0.393486  0.027397  1
  O  O70  1  0.468769  0.767262  0.658268  1
  O  O71  1  0.533726  0.560363  0.769106  1
