# generated using pymatgen
data_Zr21Re25
_symmetry_space_group_name_H-M   'P 1'
_cell_length_a   15.27741499
_cell_length_b   15.27741499
_cell_length_c   15.27741499
_cell_angle_alpha   116.38836944
_cell_angle_beta   116.38836944
_cell_angle_gamma   116.38836944
_symmetry_Int_Tables_number   1
_chemical_formula_structural   Zr21Re25
_chemical_formula_sum   'Zr42 Re50'
_cell_volume   1716.71059817
_cell_formula_units_Z   2
loop_
 _symmetry_equiv_pos_site_id
 _symmetry_equiv_pos_as_xyz
  1  'x, y, z'
loop_
 _atom_site_type_symbol
 _atom_site_label
 _atom_site_symmetry_multiplicity
 _atom_site_fract_x
 _atom_site_fract_y
 _atom_site_fract_z
 _atom_site_occupancy
  Zr  Zr0  1  0.319336  0.435323  0.550330  1
  Zr  Zr1  1  0.750000  0.445649  0.054351  1
  Zr  Zr2  1  0.548151  0.774013  0.315380  1
  Zr  Zr3  1  0.361394  0.937811  0.455738  1
  Zr  Zr4  1  0.048151  0.815380  0.274013  1
  Zr  Zr5  1  0.437811  0.861394  0.955737  1
  Zr  Zr6  1  0.062189  0.544263  0.638606  1
  Zr  Zr7  1  0.774013  0.315380  0.548151  1
  Zr  Zr8  1  0.044262  0.562189  0.138606  1
  Zr  Zr9  1  0.861394  0.955738  0.437811  1
  Zr  Zr10  1  0.550330  0.319336  0.435323  1
  Zr  Zr11  1  0.250000  0.554351  0.945649  1
  Zr  Zr12  1  0.455738  0.361394  0.937811  1
  Zr  Zr13  1  0.315380  0.548151  0.774013  1
  Zr  Zr14  1  0.937811  0.455738  0.361394  1
  Zr  Zr15  1  0.949670  0.064677  0.180664  1
  Zr  Zr16  1  0.274013  0.048151  0.815380  1
  Zr  Zr17  1  0.544262  0.638606  0.062189  1
  Zr  Zr18  1  0.451849  0.225987  0.684620  1
  Zr  Zr19  1  0.638606  0.062189  0.544262  1
  Zr  Zr20  1  0.945649  0.250000  0.554351  1
  Zr  Zr21  1  0.725987  0.951849  0.184620  1
  Zr  Zr22  1  0.815380  0.274013  0.048151  1
  Zr  Zr23  1  0.180664  0.949670  0.064677  1
  Zr  Zr24  1  0.564677  0.449670  0.680664  1
  Zr  Zr25  1  0.435323  0.550330  0.319336  1
  Zr  Zr26  1  0.562189  0.138606  0.044262  1
  Zr  Zr27  1  0.184620  0.725987  0.951849  1
  Zr  Zr28  1  0.449670  0.680664  0.564677  1
  Zr  Zr29  1  0.680664  0.564677  0.449670  1
  Zr  Zr30  1  0.951849  0.184620  0.725987  1
  Zr  Zr31  1  0.955738  0.437811  0.861394  1
  Zr  Zr32  1  0.554351  0.945649  0.250000  1
  Zr  Zr33  1  0.445649  0.054351  0.750000  1
  Zr  Zr34  1  0.819336  0.050330  0.935323  1
  Zr  Zr35  1  0.225987  0.684620  0.451849  1
  Zr  Zr36  1  0.054351  0.750000  0.445649  1
  Zr  Zr37  1  0.064677  0.180664  0.949670  1
  Zr  Zr38  1  0.050330  0.935323  0.819336  1
  Zr  Zr39  1  0.935323  0.819336  0.050330  1
  Zr  Zr40  1  0.684620  0.451849  0.225987  1
  Zr  Zr41  1  0.138606  0.044263  0.562189  1
  Re  Re42  1  0.572058  0.981712  0.688950  1
  Re  Re43  1  0.881908  0.235516  0.885364  1
  Re  Re44  1  0.427942  0.018288  0.311050  1
  Re  Re45  1  0.381908  0.385364  0.735516  1
  Re  Re46  1  0.018288  0.311050  0.427942  1
  Re  Re47  1  0.693927  0.929824  0.632701  1
  Re  Re48  1  0.188950  0.481712  0.072058  1
  Re  Re49  1  0.735516  0.381908  0.385364  1
  Re  Re50  1  0.194699  0.305301  0.750000  1
  Re  Re51  1  0.367299  0.306073  0.070176  1
  Re  Re52  1  0.306073  0.070176  0.367299  1
  Re  Re53  1  0.689289  0.750000  0.810711  1
  Re  Re54  1  0.981712  0.688950  0.572058  1
  Re  Re55  1  0.310711  0.250000  0.189289  1
  Re  Re56  1  0.618092  0.614636  0.264484  1
  Re  Re57  1  0.518288  0.927942  0.811050  1
  Re  Re58  1  0.632701  0.693927  0.929824  1
  Re  Re59  1  0.305301  0.750000  0.194699  1
  Re  Re60  1  0.193927  0.132701  0.429824  1
  Re  Re61  1  0.114636  0.118092  0.764484  1
  Re  Re62  1  0.811050  0.518288  0.927942  1
  Re  Re63  1  0.806073  0.867299  0.570176  1
  Re  Re64  1  0.929824  0.632701  0.693927  1
  Re  Re65  1  0.764484  0.114636  0.118092  1
  Re  Re66  1  0.614636  0.264484  0.618092  1
  Re  Re67  1  0.429824  0.193927  0.132701  1
  Re  Re68  1  0.570176  0.806073  0.867299  1
  Re  Re69  1  0.132701  0.429824  0.193927  1
  Re  Re70  1  0.070176  0.367299  0.306073  1
  Re  Re71  1  0.235516  0.885364  0.881908  1
  Re  Re72  1  0.927942  0.811050  0.518288  1
  Re  Re73  1  0.500000  0.500000  0.500000  1
  Re  Re74  1  0.000000  0.000000  0.000000  1
  Re  Re75  1  0.189289  0.310711  0.250000  1
  Re  Re76  1  0.750000  0.194699  0.305301  1
  Re  Re77  1  0.250000  0.189289  0.310711  1
  Re  Re78  1  0.885364  0.881908  0.235516  1
  Re  Re79  1  0.810711  0.689289  0.750000  1
  Re  Re80  1  0.118092  0.764484  0.114636  1
  Re  Re81  1  0.311050  0.427942  0.018288  1
  Re  Re82  1  0.750000  0.810711  0.689289  1
  Re  Re83  1  0.264484  0.618092  0.614636  1
  Re  Re84  1  0.385364  0.735516  0.381908  1
  Re  Re85  1  0.072058  0.188950  0.481712  1
  Re  Re86  1  0.250000  0.805301  0.694699  1
  Re  Re87  1  0.805301  0.694699  0.250000  1
  Re  Re88  1  0.694699  0.250000  0.805301  1
  Re  Re89  1  0.481712  0.072058  0.188950  1
  Re  Re90  1  0.867299  0.570176  0.806073  1
  Re  Re91  1  0.688950  0.572058  0.981712  1
