# generated using pymatgen
data_HoCu(WO4)2
_symmetry_space_group_name_H-M   'P 1'
_cell_length_a   5.08136931
_cell_length_b   5.99657668
_cell_length_c   10.99776039
_cell_angle_alpha   90.00000000
_cell_angle_beta   114.38915991
_cell_angle_gamma   90.00000000
_symmetry_Int_Tables_number   1
_chemical_formula_structural   HoCu(WO4)2
_chemical_formula_sum   'Ho2 Cu2 W4 O16'
_cell_volume   305.20610217
_cell_formula_units_Z   2
loop_
 _symmetry_equiv_pos_site_id
 _symmetry_equiv_pos_as_xyz
  1  'x, y, z'
loop_
 _atom_site_type_symbol
 _atom_site_label
 _atom_site_symmetry_multiplicity
 _atom_site_fract_x
 _atom_site_fract_y
 _atom_site_fract_z
 _atom_site_occupancy
  Ho  Ho0  1  0.000000  0.330821  0.750000  1
  Ho  Ho1  1  0.000000  0.669179  0.250000  1
  Cu  Cu2  1  0.500000  0.720821  0.750000  1
  Cu  Cu3  1  0.500000  0.279179  0.250000  1
  W  W4  1  0.762789  0.169331  0.012339  1
  W  W5  1  0.237211  0.830669  0.987661  1
  W  W6  1  0.237211  0.169331  0.487661  1
  W  W7  1  0.762789  0.830669  0.512339  1
  O  O8  1  0.730505  0.360785  0.137379  1
  O  O9  1  0.269495  0.360785  0.362621  1
  O  O10  1  0.269495  0.639215  0.862621  1
  O  O11  1  0.730505  0.639215  0.637379  1
  O  O12  1  0.159818  0.912555  0.611284  1
  O  O13  1  0.840182  0.912555  0.888716  1
  O  O14  1  0.840182  0.087445  0.388716  1
  O  O15  1  0.159818  0.087445  0.111284  1
  O  O16  1  0.214877  0.634304  0.110483  1
  O  O17  1  0.785123  0.634304  0.389517  1
  O  O18  1  0.785123  0.365696  0.889517  1
  O  O19  1  0.214877  0.365696  0.610483  1
  O  O20  1  0.658430  0.114413  0.596372  1
  O  O21  1  0.341570  0.114413  0.903628  1
  O  O22  1  0.341570  0.885587  0.403628  1
  O  O23  1  0.658430  0.885587  0.096372  1
