# generated using pymatgen
data_AlBPbO4
_symmetry_space_group_name_H-M   'P 1'
_cell_length_a   7.15405194
_cell_length_b   9.53455681
_cell_length_c   9.98020054
_cell_angle_alpha   90.00000000
_cell_angle_beta   90.00000000
_cell_angle_gamma   90.00000000
_symmetry_Int_Tables_number   1
_chemical_formula_structural   AlBPbO4
_chemical_formula_sum   'Al8 B8 Pb8 O32'
_cell_volume   680.75661112
_cell_formula_units_Z   8
loop_
 _symmetry_equiv_pos_site_id
 _symmetry_equiv_pos_as_xyz
  1  'x, y, z'
loop_
 _atom_site_type_symbol
 _atom_site_label
 _atom_site_symmetry_multiplicity
 _atom_site_fract_x
 _atom_site_fract_y
 _atom_site_fract_z
 _atom_site_occupancy
  Al  Al0  1  0.500000  0.000000  0.500000  1
  Al  Al1  1  0.000000  0.750000  0.165312  1
  Al  Al2  1  0.000000  0.250000  0.834688  1
  Al  Al3  1  0.500000  0.750000  0.665312  1
  Al  Al4  1  0.000000  0.000000  0.000000  1
  Al  Al5  1  0.500000  0.250000  0.334688  1
  Al  Al6  1  0.500000  0.500000  0.500000  1
  Al  Al7  1  0.000000  0.500000  0.000000  1
  B  B8  1  0.778700  0.252604  0.094200  1
  B  B9  1  0.721300  0.252604  0.594200  1
  B  B10  1  0.721300  0.752604  0.405800  1
  B  B11  1  0.778700  0.752604  0.905800  1
  B  B12  1  0.221300  0.247396  0.094200  1
  B  B13  1  0.221300  0.747396  0.905800  1
  B  B14  1  0.278700  0.747396  0.405800  1
  B  B15  1  0.278700  0.247396  0.594200  1
  Pb  Pb16  1  0.571699  0.547472  0.171783  1
  Pb  Pb17  1  0.428301  0.452528  0.828217  1
  Pb  Pb18  1  0.428301  0.952528  0.171783  1
  Pb  Pb19  1  0.928301  0.547472  0.671783  1
  Pb  Pb20  1  0.571699  0.047472  0.828217  1
  Pb  Pb21  1  0.071699  0.452528  0.328217  1
  Pb  Pb22  1  0.928301  0.047472  0.328217  1
  Pb  Pb23  1  0.071699  0.952528  0.671783  1
  O  O24  1  0.332133  0.886576  0.391650  1
  O  O25  1  0.672175  0.314174  0.194884  1
  O  O26  1  0.832133  0.113424  0.108350  1
  O  O27  1  0.667867  0.113424  0.608350  1
  O  O28  1  0.835164  0.829910  0.016614  1
  O  O29  1  0.667867  0.613424  0.391650  1
  O  O30  1  0.332133  0.386576  0.608350  1
  O  O31  1  0.401906  0.928590  0.656270  1
  O  O32  1  0.901906  0.071410  0.843730  1
  O  O33  1  0.832133  0.613424  0.891650  1
  O  O34  1  0.827825  0.314174  0.694884  1
  O  O35  1  0.098094  0.928590  0.156270  1
  O  O36  1  0.664836  0.829910  0.516614  1
  O  O37  1  0.327825  0.685826  0.805116  1
  O  O38  1  0.172175  0.185826  0.694884  1
  O  O39  1  0.172175  0.685826  0.305116  1
  O  O40  1  0.327825  0.185826  0.194884  1
  O  O41  1  0.098094  0.428590  0.843730  1
  O  O42  1  0.672175  0.814174  0.805116  1
  O  O43  1  0.664836  0.329910  0.483386  1
  O  O44  1  0.598094  0.071410  0.343730  1
  O  O45  1  0.835164  0.329910  0.983386  1
  O  O46  1  0.335164  0.670090  0.516614  1
  O  O47  1  0.335164  0.170090  0.483386  1
  O  O48  1  0.167867  0.386576  0.108350  1
  O  O49  1  0.827825  0.814174  0.305116  1
  O  O50  1  0.164836  0.170090  0.983386  1
  O  O51  1  0.598094  0.571410  0.656270  1
  O  O52  1  0.901906  0.571410  0.156270  1
  O  O53  1  0.164836  0.670090  0.016614  1
  O  O54  1  0.167867  0.886576  0.891650  1
  O  O55  1  0.401906  0.428590  0.343730  1
