# generated using pymatgen
data_CaV2O4
_symmetry_space_group_name_H-M   'P 1'
_cell_length_a   3.09394272
_cell_length_b   9.27597816
_cell_length_c   10.83650274
_cell_angle_alpha   90.00000000
_cell_angle_beta   90.00000000
_cell_angle_gamma   90.00000000
_symmetry_Int_Tables_number   1
_chemical_formula_structural   CaV2O4
_chemical_formula_sum   'Ca4 V8 O16'
_cell_volume   311.00053193
_cell_formula_units_Z   4
loop_
 _symmetry_equiv_pos_site_id
 _symmetry_equiv_pos_as_xyz
  1  'x, y, z'
loop_
 _atom_site_type_symbol
 _atom_site_label
 _atom_site_symmetry_multiplicity
 _atom_site_fract_x
 _atom_site_fract_y
 _atom_site_fract_z
 _atom_site_occupancy
  Ca  Ca0  1  0.250000  0.756160  0.347416  1
  Ca  Ca1  1  0.750000  0.243840  0.652584  1
  Ca  Ca2  1  0.250000  0.256160  0.152584  1
  Ca  Ca3  1  0.750000  0.743840  0.847416  1
  V  V4  1  0.250000  0.934563  0.112772  1
  V  V5  1  0.750000  0.065437  0.887228  1
  V  V6  1  0.250000  0.434563  0.387228  1
  V  V7  1  0.750000  0.565437  0.612772  1
  V  V8  1  0.250000  0.917571  0.605322  1
  V  V9  1  0.750000  0.082429  0.394678  1
  V  V10  1  0.250000  0.417571  0.894678  1
  V  V11  1  0.750000  0.582429  0.105322  1
  O  O12  1  0.250000  0.707252  0.665899  1
  O  O13  1  0.750000  0.292748  0.334101  1
  O  O14  1  0.250000  0.207252  0.834101  1
  O  O15  1  0.750000  0.792748  0.165899  1
  O  O16  1  0.250000  0.617464  0.975091  1
  O  O17  1  0.750000  0.382536  0.024909  1
  O  O18  1  0.250000  0.117464  0.524909  1
  O  O19  1  0.750000  0.882536  0.475091  1
  O  O20  1  0.250000  0.525160  0.217495  1
  O  O21  1  0.750000  0.474840  0.782505  1
  O  O22  1  0.250000  0.025160  0.282505  1
  O  O23  1  0.750000  0.974840  0.717495  1
  O  O24  1  0.250000  0.918952  0.927669  1
  O  O25  1  0.750000  0.081048  0.072331  1
  O  O26  1  0.250000  0.418952  0.572331  1
  O  O27  1  0.750000  0.581048  0.427669  1
