# generated using pymatgen
data_K3Bi
_symmetry_space_group_name_H-M   'P 1'
_cell_length_a   6.24571866
_cell_length_b   6.24571866
_cell_length_c   11.09282422
_cell_angle_alpha   90.00000000
_cell_angle_beta   90.00000000
_cell_angle_gamma   120.00000000
_symmetry_Int_Tables_number   1
_chemical_formula_structural   K3Bi
_chemical_formula_sum   'K6 Bi2'
_cell_volume   374.74651096
_cell_formula_units_Z   2
loop_
 _symmetry_equiv_pos_site_id
 _symmetry_equiv_pos_as_xyz
  1  'x, y, z'
loop_
 _atom_site_type_symbol
 _atom_site_label
 _atom_site_symmetry_multiplicity
 _atom_site_fract_x
 _atom_site_fract_y
 _atom_site_fract_z
 _atom_site_occupancy
  K  K0  1  0.333333  0.666667  0.918081  1
  K  K1  1  0.666667  0.333333  0.418081  1
  K  K2  1  0.000000  0.000000  0.250000  1
  K  K3  1  0.666667  0.333333  0.081919  1
  K  K4  1  0.000000  0.000000  0.750000  1
  K  K5  1  0.333333  0.666667  0.581919  1
  Bi  Bi6  1  0.666667  0.333333  0.750000  1
  Bi  Bi7  1  0.333333  0.666667  0.250000  1
