# generated using pymatgen
data_Sr5B3ClO9
_symmetry_space_group_name_H-M   'P 1'
_cell_length_a   8.79787161
_cell_length_b   8.79787161
_cell_length_c   7.48775318
_cell_angle_alpha   90.00000000
_cell_angle_beta   90.00000000
_cell_angle_gamma   109.99575831
_symmetry_Int_Tables_number   1
_chemical_formula_structural   Sr5B3ClO9
_chemical_formula_sum   'Sr10 B6 Cl2 O18'
_cell_volume   544.63340784
_cell_formula_units_Z   2
loop_
 _symmetry_equiv_pos_site_id
 _symmetry_equiv_pos_as_xyz
  1  'x, y, z'
loop_
 _atom_site_type_symbol
 _atom_site_label
 _atom_site_symmetry_multiplicity
 _atom_site_fract_x
 _atom_site_fract_y
 _atom_site_fract_z
 _atom_site_occupancy
  Sr  Sr0  1  0.761264  0.761264  1.000000  1
  Sr  Sr1  1  0.262113  0.004642  0.936234  1
  Sr  Sr2  1  0.238736  0.238736  0.500000  1
  Sr  Sr3  1  0.634960  0.365040  0.750000  1
  Sr  Sr4  1  0.365040  0.634960  0.250000  1
  Sr  Sr5  1  0.362302  0.637698  0.750000  1
  Sr  Sr6  1  0.737887  0.995358  0.436234  1
  Sr  Sr7  1  0.637698  0.362302  0.250000  1
  Sr  Sr8  1  0.995358  0.737887  0.563766  1
  Sr  Sr9  1  0.004642  0.262113  0.063766  1
  B  B10  1  0.985278  0.409296  0.470616  1
  B  B11  1  0.590704  0.014722  0.029384  1
  B  B12  1  0.370160  0.370160  0.000000  1
  B  B13  1  0.409296  0.985278  0.529384  1
  B  B14  1  0.629840  0.629840  0.500000  1
  B  B15  1  0.014722  0.590704  0.970616  1
  Cl  Cl16  1  0.946748  0.053252  0.750000  1
  Cl  Cl17  1  0.053252  0.946748  0.250000  1
  O  O18  1  0.490837  0.490837  0.500000  1
  O  O19  1  0.444776  0.846961  0.487480  1
  O  O20  1  0.509163  0.509163  0.000000  1
  O  O21  1  0.303356  0.304842  0.162243  1
  O  O22  1  0.846961  0.444776  0.512520  1
  O  O23  1  0.028595  0.734668  0.885679  1
  O  O24  1  0.971405  0.265332  0.385679  1
  O  O25  1  0.696644  0.695158  0.662243  1
  O  O26  1  0.304842  0.303356  0.837757  1
  O  O27  1  0.153039  0.555224  0.012520  1
  O  O28  1  0.521245  0.139206  0.490234  1
  O  O29  1  0.734668  0.028595  0.114321  1
  O  O30  1  0.695158  0.696644  0.337757  1
  O  O31  1  0.478755  0.860794  0.990234  1
  O  O32  1  0.555224  0.153039  0.987480  1
  O  O33  1  0.860794  0.478755  0.009766  1
  O  O34  1  0.265332  0.971405  0.614321  1
  O  O35  1  0.139206  0.521245  0.509766  1
