# generated using pymatgen
data_FeP2O7
_symmetry_space_group_name_H-M   'P 1'
_cell_length_a   6.56701526
_cell_length_b   6.56701526
_cell_length_c   6.98355702
_cell_angle_alpha   68.20144550
_cell_angle_beta   111.79855450
_cell_angle_gamma   100.05877068
_symmetry_Int_Tables_number   1
_chemical_formula_structural   FeP2O7
_chemical_formula_sum   'Fe2 P4 O14'
_cell_volume   259.40411089
_cell_formula_units_Z   2
loop_
 _symmetry_equiv_pos_site_id
 _symmetry_equiv_pos_as_xyz
  1  'x, y, z'
loop_
 _atom_site_type_symbol
 _atom_site_label
 _atom_site_symmetry_multiplicity
 _atom_site_fract_x
 _atom_site_fract_y
 _atom_site_fract_z
 _atom_site_occupancy
  Fe  Fe0  1  0.306094  0.306094  0.500000  1
  Fe  Fe1  1  0.693906  0.693906  0.500000  1
  P  P2  1  0.234282  0.765718  0.574952  1
  P  P3  1  0.690272  0.309728  0.948683  1
  P  P4  1  0.765718  0.234282  0.425048  1
  P  P5  1  0.309728  0.690272  0.051317  1
  O  O6  1  0.462343  0.231490  0.825343  1
  O  O7  1  0.768510  0.537657  0.825343  1
  O  O8  1  0.638271  0.361729  0.490373  1
  O  O9  1  0.990335  0.709265  0.499640  1
  O  O10  1  0.290735  0.009665  0.499640  1
  O  O11  1  0.668519  0.331481  0.161087  1
  O  O12  1  0.140575  0.859425  0.986450  1
  O  O13  1  0.709265  0.990335  0.500360  1
  O  O14  1  0.009665  0.290735  0.500360  1
  O  O15  1  0.361729  0.638271  0.509627  1
  O  O16  1  0.231490  0.462343  0.174657  1
  O  O17  1  0.537657  0.768510  0.174657  1
  O  O18  1  0.859425  0.140575  0.013550  1
  O  O19  1  0.331481  0.668519  0.838913  1
