# generated using pymatgen
data_Ba5P3ClO12
_symmetry_space_group_name_H-M   'P 1'
_cell_length_a   10.43919642
_cell_length_b   10.43919642
_cell_length_c   7.74703789
_cell_angle_alpha   90.00000000
_cell_angle_beta   90.00000000
_cell_angle_gamma   120.00000000
_symmetry_Int_Tables_number   1
_chemical_formula_structural   Ba5P3ClO12
_chemical_formula_sum   'Ba10 P6 Cl2 O24'
_cell_volume   731.13984186
_cell_formula_units_Z   2
loop_
 _symmetry_equiv_pos_site_id
 _symmetry_equiv_pos_as_xyz
  1  'x, y, z'
loop_
 _atom_site_type_symbol
 _atom_site_label
 _atom_site_symmetry_multiplicity
 _atom_site_fract_x
 _atom_site_fract_y
 _atom_site_fract_z
 _atom_site_occupancy
  Ba  Ba0  1  0.666667  0.333333  0.000125  1
  Ba  Ba1  1  0.753272  0.740331  0.750000  1
  Ba  Ba2  1  0.246728  0.259669  0.250000  1
  Ba  Ba3  1  0.259669  0.012941  0.750000  1
  Ba  Ba4  1  0.012941  0.753272  0.250000  1
  Ba  Ba5  1  0.333333  0.666667  0.500125  1
  Ba  Ba6  1  0.666667  0.333333  0.499875  1
  Ba  Ba7  1  0.987059  0.246728  0.750000  1
  Ba  Ba8  1  0.740331  0.987059  0.250000  1
  Ba  Ba9  1  0.333333  0.666667  0.999875  1
  P  P10  1  0.593532  0.965042  0.750000  1
  P  P11  1  0.371510  0.406468  0.750000  1
  P  P12  1  0.628490  0.593532  0.250000  1
  P  P13  1  0.406468  0.034958  0.250000  1
  P  P14  1  0.965042  0.371510  0.250000  1
  P  P15  1  0.034958  0.628490  0.750000  1
  Cl  Cl16  1  0.000000  0.000000  0.000000  1
  Cl  Cl17  1  0.000000  0.000000  0.500000  1
  O  O18  1  0.085335  0.729210  0.586686  1
  O  O19  1  0.356125  0.085335  0.086686  1
  O  O20  1  0.522402  0.658566  0.250000  1
  O  O21  1  0.477598  0.341434  0.750000  1
  O  O22  1  0.914665  0.270790  0.413314  1
  O  O23  1  0.341434  0.863836  0.250000  1
  O  O24  1  0.463087  0.579680  0.750000  1
  O  O25  1  0.270790  0.356125  0.586686  1
  O  O26  1  0.863836  0.522402  0.750000  1
  O  O27  1  0.729210  0.643875  0.086686  1
  O  O28  1  0.420320  0.883406  0.750000  1
  O  O29  1  0.914665  0.270790  0.086686  1
  O  O30  1  0.643875  0.914665  0.913314  1
  O  O31  1  0.579680  0.116594  0.250000  1
  O  O32  1  0.536913  0.420320  0.250000  1
  O  O33  1  0.883406  0.463087  0.250000  1
  O  O34  1  0.643875  0.914665  0.586686  1
  O  O35  1  0.356125  0.085335  0.413314  1
  O  O36  1  0.658566  0.136164  0.750000  1
  O  O37  1  0.116594  0.536913  0.750000  1
  O  O38  1  0.270790  0.356125  0.913314  1
  O  O39  1  0.729210  0.643875  0.413314  1
  O  O40  1  0.085335  0.729210  0.913314  1
  O  O41  1  0.136164  0.477598  0.250000  1
