# generated using pymatgen
data_BaV2(CuO4)2
_symmetry_space_group_name_H-M   'P 1'
_cell_length_a   10.13256999
_cell_length_b   10.13256999
_cell_length_c   10.13256999
_cell_angle_alpha   99.44035199
_cell_angle_beta   99.44035199
_cell_angle_gamma   132.21840490
_symmetry_Int_Tables_number   1
_chemical_formula_structural   BaV2(CuO4)2
_chemical_formula_sum   'Ba4 V8 Cu8 O32'
_cell_volume   704.42331086
_cell_formula_units_Z   4
loop_
 _symmetry_equiv_pos_site_id
 _symmetry_equiv_pos_as_xyz
  1  'x, y, z'
loop_
 _atom_site_type_symbol
 _atom_site_label
 _atom_site_symmetry_multiplicity
 _atom_site_fract_x
 _atom_site_fract_y
 _atom_site_fract_z
 _atom_site_occupancy
  Ba  Ba0  1  0.500000  0.500000  0.000000  1
  Ba  Ba1  1  0.000000  0.000000  0.000000  1
  Ba  Ba2  1  0.750000  0.250000  0.500000  1
  Ba  Ba3  1  0.250000  0.750000  0.500000  1
  V  V4  1  0.125000  0.774910  0.149910  1
  V  V5  1  0.225090  0.375000  0.350090  1
  V  V6  1  0.576447  0.875000  0.201447  1
  V  V7  1  0.625000  0.423553  0.298553  1
  V  V8  1  0.673553  0.375000  0.798553  1
  V  V9  1  0.125000  0.326447  0.701447  1
  V  V10  1  0.024910  0.875000  0.649910  1
  V  V11  1  0.625000  0.975090  0.850090  1
  Cu  Cu12  1  0.836069  0.315915  0.166655  1
  Cu  Cu13  1  0.565915  0.586069  0.666655  1
  Cu  Cu14  1  0.330586  0.163931  0.479845  1
  Cu  Cu15  1  0.100740  0.434085  0.020155  1
  Cu  Cu16  1  0.413931  0.080586  0.979845  1
  Cu  Cu17  1  0.684085  0.850740  0.520155  1
  Cu  Cu18  1  0.919414  0.899260  0.333345  1
  Cu  Cu19  1  0.149260  0.669414  0.833345  1
  O  O20  1  0.132839  0.501811  0.685169  1
  O  O21  1  0.626644  0.988044  0.684513  1
  O  O22  1  0.552329  0.867161  0.368972  1
  O  O23  1  0.192132  0.053531  0.815487  1
  O  O24  1  0.816642  0.447671  0.314831  1
  O  O25  1  0.612008  0.303809  0.941271  1
  O  O26  1  0.498189  0.183358  0.631028  1
  O  O27  1  0.637992  0.079263  0.191801  1
  O  O28  1  0.153552  0.156835  0.352043  1
  O  O29  1  0.198491  0.846448  0.003282  1
  O  O30  1  0.920737  0.112538  0.558729  1
  O  O31  1  0.303531  0.942132  0.315487  1
  O  O32  1  0.553809  0.362008  0.441271  1
  O  O33  1  0.096448  0.948491  0.503282  1
  O  O34  1  0.946469  0.761956  0.138600  1
  O  O35  1  0.696191  0.637462  0.308199  1
  O  O36  1  0.406835  0.903552  0.852043  1
  O  O37  1  0.623356  0.807868  0.861400  1
  O  O38  1  0.329263  0.387992  0.691801  1
  O  O39  1  0.445208  0.593165  0.496718  1
  O  O40  1  0.843165  0.195208  0.996718  1
  O  O41  1  0.887462  0.446191  0.808199  1
  O  O42  1  0.362538  0.670737  0.058729  1
  O  O43  1  0.804792  0.801509  0.647957  1
  O  O44  1  0.238044  0.376644  0.184513  1
  O  O45  1  0.057868  0.373356  0.361400  1
  O  O46  1  0.751811  0.882839  0.185169  1
  O  O47  1  0.051509  0.554792  0.147957  1
  O  O48  1  0.011956  0.696469  0.638600  1
  O  O49  1  0.697671  0.566642  0.814831  1
  O  O50  1  0.117161  0.302329  0.868972  1
  O  O51  1  0.433358  0.248189  0.131028  1
