# generated using pymatgen
data_Ce2Ni7P4
_symmetry_space_group_name_H-M   'P 1'
_cell_length_a   3.75905942
_cell_length_b   9.14972553
_cell_length_c   10.35275229
_cell_angle_alpha   90.00000000
_cell_angle_beta   90.00000000
_cell_angle_gamma   90.00000000
_symmetry_Int_Tables_number   1
_chemical_formula_structural   Ce2Ni7P4
_chemical_formula_sum   'Ce4 Ni14 P8'
_cell_volume   356.07630938
_cell_formula_units_Z   2
loop_
 _symmetry_equiv_pos_site_id
 _symmetry_equiv_pos_as_xyz
  1  'x, y, z'
loop_
 _atom_site_type_symbol
 _atom_site_label
 _atom_site_symmetry_multiplicity
 _atom_site_fract_x
 _atom_site_fract_y
 _atom_site_fract_z
 _atom_site_occupancy
  Ce  Ce0  1  0.000000  0.061131  0.000201  1
  Ce  Ce1  1  0.500000  0.938869  0.500201  1
  Ce  Ce2  1  0.000000  0.441002  0.778757  1
  Ce  Ce3  1  0.500000  0.558998  0.278757  1
  Ni  Ni4  1  0.000000  0.079997  0.308866  1
  Ni  Ni5  1  0.500000  0.920003  0.808866  1
  Ni  Ni6  1  0.000000  0.192806  0.567236  1
  Ni  Ni7  1  0.500000  0.807194  0.067236  1
  Ni  Ni8  1  0.000000  0.400476  0.078353  1
  Ni  Ni9  1  0.500000  0.599524  0.578353  1
  Ni  Ni10  1  0.000000  0.440714  0.475547  1
  Ni  Ni11  1  0.500000  0.559286  0.975547  1
  Ni  Ni12  1  0.000000  0.755401  0.899503  1
  Ni  Ni13  1  0.500000  0.244599  0.399503  1
  Ni  Ni14  1  0.000000  0.777458  0.667406  1
  Ni  Ni15  1  0.500000  0.222542  0.167406  1
  Ni  Ni16  1  0.000000  0.814709  0.264332  1
  Ni  Ni17  1  0.500000  0.185291  0.764332  1
  P  P18  1  0.000000  0.025875  0.718402  1
  P  P19  1  0.500000  0.974125  0.218402  1
  P  P20  1  0.000000  0.316767  0.283397  1
  P  P21  1  0.500000  0.683233  0.783397  1
  P  P22  1  0.000000  0.655385  0.088082  1
  P  P23  1  0.500000  0.344615  0.588082  1
  P  P24  1  0.000000  0.689078  0.465225  1
  P  P25  1  0.500000  0.310922  0.965225  1
