# generated using pymatgen
data_KMnF3
_symmetry_space_group_name_H-M   'P 1'
_cell_length_a   6.02298182
_cell_length_b   6.02298182
_cell_length_c   8.53803400
_cell_angle_alpha   90.00000000
_cell_angle_beta   90.00000000
_cell_angle_gamma   90.00000000
_symmetry_Int_Tables_number   1
_chemical_formula_structural   KMnF3
_chemical_formula_sum   'K4 Mn4 F12'
_cell_volume   309.72836821
_cell_formula_units_Z   4
loop_
 _symmetry_equiv_pos_site_id
 _symmetry_equiv_pos_as_xyz
  1  'x, y, z'
loop_
 _atom_site_type_symbol
 _atom_site_label
 _atom_site_symmetry_multiplicity
 _atom_site_fract_x
 _atom_site_fract_y
 _atom_site_fract_z
 _atom_site_occupancy
  K  K0  1  0.000000  0.500000  0.247928  1
  K  K1  1  0.500000  0.000000  0.752072  1
  K  K2  1  0.000000  0.500000  0.752072  1
  K  K3  1  0.500000  0.000000  0.247928  1
  Mn  Mn4  1  0.500000  0.500000  0.500000  1
  Mn  Mn5  1  0.000000  0.000000  0.000000  1
  Mn  Mn6  1  0.000000  0.000000  0.500000  1
  Mn  Mn7  1  0.500000  0.500000  0.000000  1
  F  F8  1  0.225810  0.274190  0.500000  1
  F  F9  1  0.249916  0.749916  0.000000  1
  F  F10  1  0.000000  0.000000  0.249889  1
  F  F11  1  0.000000  0.000000  0.750111  1
  F  F12  1  0.750084  0.250084  0.000000  1
  F  F13  1  0.250084  0.249916  0.000000  1
  F  F14  1  0.274190  0.774190  0.500000  1
  F  F15  1  0.774190  0.725810  0.500000  1
  F  F16  1  0.725810  0.225810  0.500000  1
  F  F17  1  0.500000  0.500000  0.249889  1
  F  F18  1  0.749916  0.750084  0.000000  1
  F  F19  1  0.500000  0.500000  0.750111  1
