# generated using pymatgen
data_Na2Li3CoO4
_symmetry_space_group_name_H-M   'P 1'
_cell_length_a   6.60238547
_cell_length_b   8.04808592
_cell_length_c   8.24274727
_cell_angle_alpha   90.00000000
_cell_angle_beta   90.00000000
_cell_angle_gamma   90.00000000
_symmetry_Int_Tables_number   1
_chemical_formula_structural   Na2Li3CoO4
_chemical_formula_sum   'Na8 Li12 Co4 O16'
_cell_volume   437.99128054
_cell_formula_units_Z   4
loop_
 _symmetry_equiv_pos_site_id
 _symmetry_equiv_pos_as_xyz
  1  'x, y, z'
loop_
 _atom_site_type_symbol
 _atom_site_label
 _atom_site_symmetry_multiplicity
 _atom_site_fract_x
 _atom_site_fract_y
 _atom_site_fract_z
 _atom_site_occupancy
  Na  Na0  1  0.000000  0.259311  0.748865  1
  Na  Na1  1  0.000000  0.740689  0.251135  1
  Na  Na2  1  0.500000  0.759311  0.751135  1
  Na  Na3  1  0.500000  0.240689  0.248865  1
  Na  Na4  1  0.744187  0.500000  0.000000  1
  Na  Na5  1  0.755813  0.000000  0.500000  1
  Na  Na6  1  0.255813  0.500000  0.000000  1
  Na  Na7  1  0.244187  0.000000  0.500000  1
  Li  Li8  1  0.754739  0.485751  0.350410  1
  Li  Li9  1  0.754739  0.514249  0.649590  1
  Li  Li10  1  0.745261  0.985751  0.149590  1
  Li  Li11  1  0.745261  0.014249  0.850410  1
  Li  Li12  1  0.245261  0.514249  0.649590  1
  Li  Li13  1  0.245261  0.485751  0.350410  1
  Li  Li14  1  0.254739  0.014249  0.850410  1
  Li  Li15  1  0.254739  0.985751  0.149590  1
  Li  Li16  1  0.000000  0.264028  0.407113  1
  Li  Li17  1  0.000000  0.735972  0.592887  1
  Li  Li18  1  0.500000  0.764028  0.092887  1
  Li  Li19  1  0.500000  0.235972  0.907113  1
  Co  Co20  1  0.000000  0.775503  0.882374  1
  Co  Co21  1  0.000000  0.224497  0.117626  1
  Co  Co22  1  0.500000  0.275503  0.617626  1
  Co  Co23  1  0.500000  0.724497  0.382374  1
  O  O24  1  0.000000  0.562178  0.779425  1
  O  O25  1  0.000000  0.437822  0.220575  1
  O  O26  1  0.500000  0.062178  0.720575  1
  O  O27  1  0.500000  0.937822  0.279425  1
  O  O28  1  0.752833  0.803433  0.984669  1
  O  O29  1  0.752833  0.196567  0.015331  1
  O  O30  1  0.747167  0.303433  0.515331  1
  O  O31  1  0.747167  0.696567  0.484669  1
  O  O32  1  0.247167  0.196567  0.015331  1
  O  O33  1  0.247167  0.803433  0.984669  1
  O  O34  1  0.252833  0.696567  0.484669  1
  O  O35  1  0.252833  0.303433  0.515331  1
  O  O36  1  0.000000  0.953969  0.725562  1
  O  O37  1  0.000000  0.046031  0.274438  1
  O  O38  1  0.500000  0.453969  0.774438  1
  O  O39  1  0.500000  0.546031  0.225562  1
