# generated using pymatgen
data_K8NbAs5Pb
_symmetry_space_group_name_H-M   'P 1'
_cell_length_a   16.73683987
_cell_length_b   16.73683987
_cell_length_c   13.62018208
_cell_angle_alpha   85.13573629
_cell_angle_beta   94.86426371
_cell_angle_gamma   147.09500184
_symmetry_Int_Tables_number   1
_chemical_formula_structural   K8NbAs5Pb
_chemical_formula_sum   'K32 Nb4 As20 Pb4'
_cell_volume   2064.54115022
_cell_formula_units_Z   4
loop_
 _symmetry_equiv_pos_site_id
 _symmetry_equiv_pos_as_xyz
  1  'x, y, z'
loop_
 _atom_site_type_symbol
 _atom_site_label
 _atom_site_symmetry_multiplicity
 _atom_site_fract_x
 _atom_site_fract_y
 _atom_site_fract_z
 _atom_site_occupancy
  K  K0  1  0.638132  0.285131  0.217479  1
  K  K1  1  0.986012  0.066421  0.881371  1
  K  K2  1  0.392847  0.265661  0.210356  1
  K  K3  1  0.191519  0.723609  0.554720  1
  K  K4  1  0.599021  0.638287  0.107233  1
  K  K5  1  0.808481  0.276391  0.445280  1
  K  K6  1  0.361868  0.714869  0.782521  1
  K  K7  1  0.820913  0.521913  0.458485  1
  K  K8  1  0.285131  0.638132  0.282521  1
  K  K9  1  0.155828  0.926566  0.398651  1
  K  K10  1  0.478087  0.179087  0.958485  1
  K  K11  1  0.066421  0.986012  0.618629  1
  K  K12  1  0.844172  0.073434  0.601349  1
  K  K13  1  0.521913  0.820913  0.041515  1
  K  K14  1  0.179087  0.478087  0.541515  1
  K  K15  1  0.068744  0.620868  0.831107  1
  K  K16  1  0.926566  0.155828  0.101349  1
  K  K17  1  0.361713  0.400979  0.607233  1
  K  K18  1  0.638287  0.599021  0.392767  1
  K  K19  1  0.073434  0.844172  0.898651  1
  K  K20  1  0.379132  0.931256  0.331107  1
  K  K21  1  0.607153  0.734339  0.789644  1
  K  K22  1  0.620868  0.068744  0.668893  1
  K  K23  1  0.400979  0.361713  0.892767  1
  K  K24  1  0.723609  0.191519  0.945280  1
  K  K25  1  0.276391  0.808481  0.054720  1
  K  K26  1  0.933579  0.013988  0.381371  1
  K  K27  1  0.265661  0.392847  0.289644  1
  K  K28  1  0.931256  0.379132  0.168893  1
  K  K29  1  0.714869  0.361868  0.717479  1
  K  K30  1  0.013988  0.933579  0.118629  1
  K  K31  1  0.734339  0.607153  0.710356  1
  Nb  Nb32  1  0.682548  0.996289  0.317825  1
  Nb  Nb33  1  0.003711  0.317452  0.817825  1
  Nb  Nb34  1  0.317452  0.003711  0.682175  1
  Nb  Nb35  1  0.996289  0.682548  0.182175  1
  As  As36  1  0.237035  0.953933  0.149621  1
  As  As37  1  0.401539  0.971285  0.814317  1
  As  As38  1  0.529473  0.882186  0.471979  1
  As  As39  1  0.882186  0.529473  0.028021  1
  As  As40  1  0.198679  0.385616  0.762309  1
  As  As41  1  0.971285  0.401539  0.685683  1
  As  As42  1  0.729204  0.786079  0.578157  1
  As  As43  1  0.786079  0.729204  0.921843  1
  As  As44  1  0.213921  0.270796  0.078157  1
  As  As45  1  0.046067  0.762965  0.649621  1
  As  As46  1  0.614384  0.801321  0.262309  1
  As  As47  1  0.598461  0.028715  0.185683  1
  As  As48  1  0.028715  0.598461  0.314317  1
  As  As49  1  0.953933  0.237035  0.350379  1
  As  As50  1  0.270796  0.213921  0.421843  1
  As  As51  1  0.470527  0.117814  0.528021  1
  As  As52  1  0.117814  0.470527  0.971979  1
  As  As53  1  0.385616  0.198679  0.737691  1
  As  As54  1  0.762965  0.046067  0.850379  1
  As  As55  1  0.801321  0.614384  0.237691  1
  Pb  Pb56  1  0.475273  0.294489  0.535664  1
  Pb  Pb57  1  0.524727  0.705511  0.464336  1
  Pb  Pb58  1  0.705511  0.524727  0.035664  1
  Pb  Pb59  1  0.294489  0.475273  0.964336  1
