# generated using pymatgen
data_Ho2MoO6
_symmetry_space_group_name_H-M   'P 1'
_cell_length_a   9.91241094
_cell_length_b   9.91241094
_cell_length_c   5.37794906
_cell_angle_alpha   75.02283379
_cell_angle_beta   104.97716621
_cell_angle_gamma   111.92863535
_symmetry_Int_Tables_number   1
_chemical_formula_structural   Ho2MoO6
_chemical_formula_sum   'Ho8 Mo4 O24'
_cell_volume   465.73793688
_cell_formula_units_Z   4
loop_
 _symmetry_equiv_pos_site_id
 _symmetry_equiv_pos_as_xyz
  1  'x, y, z'
loop_
 _atom_site_type_symbol
 _atom_site_label
 _atom_site_symmetry_multiplicity
 _atom_site_fract_x
 _atom_site_fract_y
 _atom_site_fract_z
 _atom_site_occupancy
  Ho  Ho0  1  0.783439  0.447719  0.377844  1
  Ho  Ho1  1  0.447719  0.783439  0.122156  1
  Ho  Ho2  1  0.216561  0.552281  0.622156  1
  Ho  Ho3  1  0.552281  0.216561  0.877844  1
  Ho  Ho4  1  0.863383  0.863383  0.250000  1
  Ho  Ho5  1  0.136617  0.136617  0.750000  1
  Ho  Ho6  1  0.393908  0.393908  0.250000  1
  Ho  Ho7  1  0.606092  0.606092  0.750000  1
  Mo  Mo8  1  0.988524  0.296374  0.061389  1
  Mo  Mo9  1  0.296374  0.988524  0.438611  1
  Mo  Mo10  1  0.011476  0.703626  0.938611  1
  Mo  Mo11  1  0.703626  0.011476  0.561389  1
  O  O12  1  0.426982  0.609487  0.922176  1
  O  O13  1  0.609487  0.426982  0.577824  1
  O  O14  1  0.573018  0.390513  0.077824  1
  O  O15  1  0.390513  0.573018  0.422176  1
  O  O16  1  0.192997  0.337910  0.918140  1
  O  O17  1  0.337910  0.192997  0.581860  1
  O  O18  1  0.807003  0.662090  0.081860  1
  O  O19  1  0.662090  0.807003  0.418140  1
  O  O20  1  0.116116  0.325655  0.374720  1
  O  O21  1  0.325655  0.116116  0.125280  1
  O  O22  1  0.883884  0.674345  0.625280  1
  O  O23  1  0.674345  0.883884  0.874720  1
  O  O24  1  0.710880  0.184214  0.637115  1
  O  O25  1  0.184214  0.710880  0.862885  1
  O  O26  1  0.289120  0.815786  0.362885  1
  O  O27  1  0.815786  0.289120  0.137115  1
  O  O28  1  0.889899  0.047982  0.514605  1
  O  O29  1  0.047982  0.889899  0.985395  1
  O  O30  1  0.110101  0.952018  0.485395  1
  O  O31  1  0.952018  0.110101  0.014605  1
  O  O32  1  0.567119  0.024915  0.254483  1
  O  O33  1  0.024915  0.567119  0.245517  1
  O  O34  1  0.432881  0.975085  0.745517  1
  O  O35  1  0.975085  0.432881  0.754483  1
