# generated using pymatgen
data_K3Np(H3O4)2
_symmetry_space_group_name_H-M   'P 1'
_cell_length_a   7.66479094
_cell_length_b   8.46462304
_cell_length_c   7.96821564
_cell_angle_alpha   90.00000000
_cell_angle_beta   117.11639427
_cell_angle_gamma   90.00000000
_symmetry_Int_Tables_number   1
_chemical_formula_structural   K3Np(H3O4)2
_chemical_formula_sum   'K6 Np2 H12 O16'
_cell_volume   460.14980091
_cell_formula_units_Z   2
loop_
 _symmetry_equiv_pos_site_id
 _symmetry_equiv_pos_as_xyz
  1  'x, y, z'
loop_
 _atom_site_type_symbol
 _atom_site_label
 _atom_site_symmetry_multiplicity
 _atom_site_fract_x
 _atom_site_fract_y
 _atom_site_fract_z
 _atom_site_occupancy
  K  K0  1  0.000000  0.000000  0.500000  1
  K  K1  1  0.587058  0.190360  0.542272  1
  K  K2  1  0.412942  0.809640  0.457728  1
  K  K3  1  0.412942  0.690360  0.957728  1
  K  K4  1  0.000000  0.500000  0.000000  1
  K  K5  1  0.587058  0.309640  0.042272  1
  Np  Np6  1  0.000000  0.500000  0.500000  1
  Np  Np7  1  0.000000  0.000000  0.000000  1
  H  H8  1  0.170507  0.197796  0.323112  1
  H  H9  1  0.354480  0.032106  0.829500  1
  H  H10  1  0.829493  0.697796  0.176888  1
  H  H11  1  0.829493  0.802204  0.676888  1
  H  H12  1  0.354480  0.467894  0.329500  1
  H  H13  1  0.572687  0.981741  0.872526  1
  H  H14  1  0.645520  0.532106  0.670500  1
  H  H15  1  0.170507  0.302204  0.823112  1
  H  H16  1  0.645520  0.967894  0.170500  1
  H  H17  1  0.427313  0.481741  0.627474  1
  H  H18  1  0.427313  0.018259  0.127474  1
  H  H19  1  0.572687  0.518259  0.372526  1
  O  O20  1  0.806302  0.587522  0.200342  1
  O  O21  1  0.193698  0.412478  0.799658  1
  O  O22  1  0.203830  0.431101  0.424559  1
  O  O23  1  0.127988  0.696971  0.574729  1
  O  O24  1  0.193698  0.087522  0.299658  1
  O  O25  1  0.796170  0.568899  0.575441  1
  O  O26  1  0.558279  0.510637  0.731254  1
  O  O27  1  0.203830  0.068899  0.924559  1
  O  O28  1  0.872012  0.196971  0.925271  1
  O  O29  1  0.796170  0.931101  0.075441  1
  O  O30  1  0.806302  0.912478  0.700342  1
  O  O31  1  0.872012  0.303029  0.425271  1
  O  O32  1  0.441721  0.489363  0.268746  1
  O  O33  1  0.127988  0.803029  0.074729  1
  O  O34  1  0.441721  0.010637  0.768746  1
  O  O35  1  0.558279  0.989363  0.231254  1
