# generated using pymatgen
data_Sc8Te3
_symmetry_space_group_name_H-M   'P 1'
_cell_length_a   14.69378318
_cell_length_b   14.69378318
_cell_length_c   22.50475313
_cell_angle_alpha   57.68056918
_cell_angle_beta   122.31943082
_cell_angle_gamma   164.92950443
_symmetry_Int_Tables_number   1
_chemical_formula_structural   Sc8Te3
_chemical_formula_sum   'Sc32 Te12'
_cell_volume   1063.89575137
_cell_formula_units_Z   4
loop_
 _symmetry_equiv_pos_site_id
 _symmetry_equiv_pos_as_xyz
  1  'x, y, z'
loop_
 _atom_site_type_symbol
 _atom_site_label
 _atom_site_symmetry_multiplicity
 _atom_site_fract_x
 _atom_site_fract_y
 _atom_site_fract_z
 _atom_site_occupancy
  Sc  Sc0  1  0.408125  0.591875  0.589311  1
  Sc  Sc1  1  0.591875  0.408125  0.410689  1
  Sc  Sc2  1  0.276705  0.723295  0.397697  1
  Sc  Sc3  1  0.723295  0.276705  0.602303  1
  Sc  Sc4  1  0.302696  0.697304  0.245651  1
  Sc  Sc5  1  0.697304  0.302696  0.754349  1
  Sc  Sc6  1  0.426241  0.573759  0.431600  1
  Sc  Sc7  1  0.573759  0.426241  0.568400  1
  Sc  Sc8  1  0.437762  0.562238  0.946693  1
  Sc  Sc9  1  0.562238  0.437762  0.053307  1
  Sc  Sc10  1  0.008154  0.991846  0.912928  1
  Sc  Sc11  1  0.991846  0.008154  0.087072  1
  Sc  Sc12  1  0.938596  0.061404  0.715018  1
  Sc  Sc13  1  0.061404  0.938596  0.284982  1
  Sc  Sc14  1  0.798684  0.201316  0.529729  1
  Sc  Sc15  1  0.201316  0.798684  0.470271  1
  Sc  Sc16  1  0.712714  0.287286  0.133556  1
  Sc  Sc17  1  0.287286  0.712714  0.866444  1
  Sc  Sc18  1  0.671262  0.328738  0.344617  1
  Sc  Sc19  1  0.328738  0.671262  0.655383  1
  Sc  Sc20  1  0.633996  0.366004  0.937517  1
  Sc  Sc21  1  0.366004  0.633996  0.062483  1
  Sc  Sc22  1  0.461703  0.538297  0.286087  1
  Sc  Sc23  1  0.538297  0.461703  0.713913  1
  Sc  Sc24  1  0.832555  0.167445  0.152219  1
  Sc  Sc25  1  0.167445  0.832555  0.847781  1
  Sc  Sc26  1  0.150783  0.849217  0.190309  1
  Sc  Sc27  1  0.849217  0.150783  0.809691  1
  Sc  Sc28  1  0.239205  0.760795  0.042394  1
  Sc  Sc29  1  0.760795  0.239205  0.957606  1
  Sc  Sc30  1  0.988194  0.011806  0.567487  1
  Sc  Sc31  1  0.011806  0.988194  0.432513  1
  Te  Te32  1  0.740629  0.259371  0.279581  1
  Te  Te33  1  0.259371  0.740629  0.720419  1
  Te  Te34  1  0.895425  0.104575  0.313849  1
  Te  Te35  1  0.104575  0.895425  0.686151  1
  Te  Te36  1  0.056266  0.943734  0.826594  1
  Te  Te37  1  0.943734  0.056266  0.173406  1
  Te  Te38  1  0.425807  0.574193  0.807272  1
  Te  Te39  1  0.574193  0.425807  0.192728  1
  Te  Te40  1  0.869728  0.130272  0.961962  1
  Te  Te41  1  0.130272  0.869728  0.038038  1
  Te  Te42  1  0.868757  0.131243  0.469256  1
  Te  Te43  1  0.131243  0.868757  0.530744  1
