# generated using pymatgen
data_Rb3Sc(HO)6
_symmetry_space_group_name_H-M   'P 1'
_cell_length_a   7.73074673
_cell_length_b   7.73074673
_cell_length_c   7.73074673
_cell_angle_alpha   96.79766580
_cell_angle_beta   96.79766580
_cell_angle_gamma   96.79766580
_symmetry_Int_Tables_number   1
_chemical_formula_structural   Rb3Sc(HO)6
_chemical_formula_sum   'Rb6 Sc2 H12 O12'
_cell_volume   451.42672617
_cell_formula_units_Z   2
loop_
 _symmetry_equiv_pos_site_id
 _symmetry_equiv_pos_as_xyz
  1  'x, y, z'
loop_
 _atom_site_type_symbol
 _atom_site_label
 _atom_site_symmetry_multiplicity
 _atom_site_fract_x
 _atom_site_fract_y
 _atom_site_fract_z
 _atom_site_occupancy
  Rb  Rb0  1  0.250000  0.867156  0.632844  1
  Rb  Rb1  1  0.867156  0.632844  0.250000  1
  Rb  Rb2  1  0.632844  0.250000  0.867156  1
  Rb  Rb3  1  0.750000  0.132844  0.367156  1
  Rb  Rb4  1  0.132844  0.367156  0.750000  1
  Rb  Rb5  1  0.367156  0.750000  0.132844  1
  Sc  Sc6  1  0.000000  0.000000  0.000000  1
  Sc  Sc7  1  0.500000  0.500000  0.500000  1
  H  H8  1  0.161841  0.424020  0.376621  1
  H  H9  1  0.424020  0.376621  0.161841  1
  H  H10  1  0.376621  0.161841  0.424020  1
  H  H11  1  0.338159  0.123379  0.075980  1
  H  H12  1  0.123379  0.075980  0.338159  1
  H  H13  1  0.075980  0.338159  0.123379  1
  H  H14  1  0.838159  0.575980  0.623379  1
  H  H15  1  0.575980  0.623379  0.838159  1
  H  H16  1  0.623379  0.838159  0.575980  1
  H  H17  1  0.661841  0.876621  0.924020  1
  H  H18  1  0.876621  0.924020  0.661841  1
  H  H19  1  0.924020  0.661841  0.876621  1
  O  O20  1  0.233863  0.537817  0.409530  1
  O  O21  1  0.537817  0.409530  0.233863  1
  O  O22  1  0.409530  0.233863  0.537817  1
  O  O23  1  0.266137  0.090470  0.962183  1
  O  O24  1  0.090470  0.962183  0.266137  1
  O  O25  1  0.962183  0.266137  0.090470  1
  O  O26  1  0.766137  0.462183  0.590470  1
  O  O27  1  0.462183  0.590470  0.766137  1
  O  O28  1  0.590470  0.766137  0.462183  1
  O  O29  1  0.733863  0.909530  0.037817  1
  O  O30  1  0.909530  0.037817  0.733863  1
  O  O31  1  0.037817  0.733863  0.909530  1
