# generated using pymatgen
data_K3BSb4O13
_symmetry_space_group_name_H-M   'P 1'
_cell_length_a   7.23309698
_cell_length_b   7.34553525
_cell_length_c   13.46058579
_cell_angle_alpha   82.03230460
_cell_angle_beta   80.15291876
_cell_angle_gamma   63.05177120
_symmetry_Int_Tables_number   1
_chemical_formula_structural   K3BSb4O13
_chemical_formula_sum   'K6 B2 Sb8 O26'
_cell_volume   626.60331959
_cell_formula_units_Z   2
loop_
 _symmetry_equiv_pos_site_id
 _symmetry_equiv_pos_as_xyz
  1  'x, y, z'
loop_
 _atom_site_type_symbol
 _atom_site_label
 _atom_site_symmetry_multiplicity
 _atom_site_fract_x
 _atom_site_fract_y
 _atom_site_fract_z
 _atom_site_occupancy
  K  K0  1  0.705713  0.215626  0.693896  1
  K  K1  1  0.099147  0.604511  0.558408  1
  K  K2  1  0.309169  0.780827  0.031030  1
  K  K3  1  0.294287  0.784374  0.306104  1
  K  K4  1  0.690831  0.219173  0.968970  1
  K  K5  1  0.900853  0.395489  0.441592  1
  B  B6  1  0.841360  0.731224  0.976735  1
  B  B7  1  0.158640  0.268776  0.023265  1
  Sb  Sb8  1  0.682570  0.691196  0.787018  1
  Sb  Sb9  1  0.162425  0.210525  0.790671  1
  Sb  Sb10  1  0.831711  0.292531  0.206631  1
  Sb  Sb11  1  0.837575  0.789475  0.209329  1
  Sb  Sb12  1  0.168289  0.707469  0.793369  1
  Sb  Sb13  1  0.317430  0.308804  0.212982  1
  Sb  Sb14  1  0.579740  0.065753  0.394491  1
  Sb  Sb15  1  0.420260  0.934247  0.605509  1
  O  O16  1  0.536632  0.012599  0.251023  1
  O  O17  1  0.838346  0.804901  0.361111  1
  O  O18  1  0.740908  0.225248  0.350742  1
  O  O19  1  0.138665  0.604111  0.192642  1
  O  O20  1  0.552641  0.383476  0.158551  1
  O  O21  1  0.677936  0.751153  0.927813  1
  O  O22  1  0.259092  0.774752  0.649258  1
  O  O23  1  0.050131  0.654114  0.935955  1
  O  O24  1  0.161654  0.195099  0.638889  1
  O  O25  1  0.447359  0.616524  0.841449  1
  O  O26  1  0.861335  0.395889  0.807358  1
  O  O27  1  0.269893  0.419549  0.752812  1
  O  O28  1  0.675213  0.673124  0.637899  1
  O  O29  1  0.730107  0.580451  0.247188  1
  O  O30  1  0.592941  0.085143  0.538858  1
  O  O31  1  0.897867  0.789929  0.738934  1
  O  O32  1  0.949869  0.345886  0.064045  1
  O  O33  1  0.772138  0.818730  0.068747  1
  O  O34  1  0.322064  0.248847  0.072187  1
  O  O35  1  0.062368  0.995431  0.832137  1
  O  O36  1  0.102133  0.210071  0.261066  1
  O  O37  1  0.937632  0.004569  0.167863  1
  O  O38  1  0.407059  0.914857  0.461142  1
  O  O39  1  0.227862  0.181270  0.931253  1
  O  O40  1  0.463368  0.987401  0.748977  1
  O  O41  1  0.324787  0.326876  0.362101  1
