# generated using pymatgen
data_VPO5
_symmetry_space_group_name_H-M   'P 1'
_cell_length_a   5.09612551
_cell_length_b   5.09612551
_cell_length_c   7.38904575
_cell_angle_alpha   72.07216795
_cell_angle_beta   107.92783205
_cell_angle_gamma   92.27199398
_symmetry_Int_Tables_number   1
_chemical_formula_structural   VPO5
_chemical_formula_sum   'V2 P2 O10'
_cell_volume   173.39225718
_cell_formula_units_Z   2
loop_
 _symmetry_equiv_pos_site_id
 _symmetry_equiv_pos_as_xyz
  1  'x, y, z'
loop_
 _atom_site_type_symbol
 _atom_site_label
 _atom_site_symmetry_multiplicity
 _atom_site_fract_x
 _atom_site_fract_y
 _atom_site_fract_z
 _atom_site_occupancy
  V  V0  1  0.769268  0.769053  0.995250  1
  V  V1  1  0.230947  0.230732  0.495250  1
  P  P2  1  0.411772  0.830783  0.284171  1
  P  P3  1  0.169217  0.588228  0.784171  1
  O  O4  1  0.148120  0.348568  0.696171  1
  O  O5  1  0.958678  0.342500  0.304767  1
  O  O6  1  0.126745  0.870179  0.619718  1
  O  O7  1  0.651432  0.851880  0.196171  1
  O  O8  1  0.444462  0.057296  0.386983  1
  O  O9  1  0.129821  0.873255  0.119718  1
  O  O10  1  0.942704  0.555538  0.886983  1
  O  O11  1  0.440841  0.543505  0.446740  1
  O  O12  1  0.456495  0.559159  0.946740  1
  O  O13  1  0.657500  0.041322  0.804767  1
