# generated using pymatgen
data_Cs3Nd(PS4)2
_symmetry_space_group_name_H-M   'P 1'
_cell_length_a   15.69994392
_cell_length_b   7.04320393
_cell_length_c   20.38939785
_cell_angle_alpha   90.00000000
_cell_angle_beta   129.93794054
_cell_angle_gamma   90.00000000
_symmetry_Int_Tables_number   1
_chemical_formula_structural   Cs3Nd(PS4)2
_chemical_formula_sum   'Cs12 Nd4 P8 S32'
_cell_volume   1728.70549219
_cell_formula_units_Z   4
loop_
 _symmetry_equiv_pos_site_id
 _symmetry_equiv_pos_as_xyz
  1  'x, y, z'
loop_
 _atom_site_type_symbol
 _atom_site_label
 _atom_site_symmetry_multiplicity
 _atom_site_fract_x
 _atom_site_fract_y
 _atom_site_fract_z
 _atom_site_occupancy
  Cs  Cs0  1  0.845391  0.242456  0.621778  1
  Cs  Cs1  1  0.934028  0.247608  0.886842  1
  Cs  Cs2  1  0.416458  0.255351  0.525641  1
  Cs  Cs3  1  0.583542  0.744649  0.474359  1
  Cs  Cs4  1  0.583542  0.755351  0.974359  1
  Cs  Cs5  1  0.154609  0.742456  0.878222  1
  Cs  Cs6  1  0.845391  0.257544  0.121778  1
  Cs  Cs7  1  0.416458  0.244649  0.025641  1
  Cs  Cs8  1  0.934028  0.252392  0.386842  1
  Cs  Cs9  1  0.065972  0.747608  0.613158  1
  Cs  Cs10  1  0.065972  0.752392  0.113158  1
  Cs  Cs11  1  0.154609  0.757544  0.378222  1
  Nd  Nd12  1  0.647574  0.768807  0.770335  1
  Nd  Nd13  1  0.352426  0.268807  0.729665  1
  Nd  Nd14  1  0.352426  0.231193  0.229665  1
  Nd  Nd15  1  0.647574  0.731193  0.270335  1
  P  P16  1  0.806095  0.745606  0.723082  1
  P  P17  1  0.346833  0.774101  0.129814  1
  P  P18  1  0.806095  0.754394  0.223082  1
  P  P19  1  0.653167  0.225899  0.870186  1
  P  P20  1  0.653167  0.274101  0.370186  1
  P  P21  1  0.193905  0.245606  0.776918  1
  P  P22  1  0.193905  0.254394  0.276918  1
  P  P23  1  0.346833  0.725899  0.629814  1
  S  S24  1  0.884887  0.739538  0.674515  1
  S  S25  1  0.441884  0.749337  0.093541  1
  S  S26  1  0.253907  0.967232  0.596692  1
  S  S27  1  0.746093  0.032768  0.403308  1
  S  S28  1  0.707378  0.985674  0.683220  1
  S  S29  1  0.703439  0.514223  0.685508  1
  S  S30  1  0.241927  0.495505  0.572787  1
  S  S31  1  0.456068  0.836328  0.259080  1
  S  S32  1  0.095833  0.249979  0.145617  1
  S  S33  1  0.904167  0.750021  0.854383  1
  S  S34  1  0.758073  0.995505  0.927213  1
  S  S35  1  0.904167  0.749979  0.354383  1
  S  S36  1  0.558116  0.250663  0.906459  1
  S  S37  1  0.441884  0.750663  0.593541  1
  S  S38  1  0.241927  0.004495  0.072787  1
  S  S39  1  0.296561  0.014223  0.814492  1
  S  S40  1  0.884887  0.760462  0.174515  1
  S  S41  1  0.746093  0.467232  0.903308  1
  S  S42  1  0.558116  0.249337  0.406459  1
  S  S43  1  0.707378  0.514326  0.183220  1
  S  S44  1  0.095833  0.250021  0.645617  1
  S  S45  1  0.703439  0.985777  0.185508  1
  S  S46  1  0.253907  0.532768  0.096692  1
  S  S47  1  0.115113  0.239538  0.825485  1
  S  S48  1  0.292622  0.485674  0.816780  1
  S  S49  1  0.456068  0.663672  0.759080  1
  S  S50  1  0.543932  0.163672  0.740920  1
  S  S51  1  0.292622  0.014326  0.316780  1
  S  S52  1  0.115113  0.260462  0.325485  1
  S  S53  1  0.543932  0.336328  0.240920  1
  S  S54  1  0.758073  0.504495  0.427213  1
  S  S55  1  0.296561  0.485777  0.314492  1
