# generated using pymatgen
data_Cu2SeO4
_symmetry_space_group_name_H-M   'P 1'
_cell_length_a   7.12105597
_cell_length_b   6.02848685
_cell_length_c   10.91342009
_cell_angle_alpha   90.00000000
_cell_angle_beta   128.56269242
_cell_angle_gamma   90.00000000
_symmetry_Int_Tables_number   1
_chemical_formula_structural   Cu2SeO4
_chemical_formula_sum   'Cu8 Se4 O16'
_cell_volume   366.33595344
_cell_formula_units_Z   4
loop_
 _symmetry_equiv_pos_site_id
 _symmetry_equiv_pos_as_xyz
  1  'x, y, z'
loop_
 _atom_site_type_symbol
 _atom_site_label
 _atom_site_symmetry_multiplicity
 _atom_site_fract_x
 _atom_site_fract_y
 _atom_site_fract_z
 _atom_site_occupancy
  Cu  Cu0  1  0.004471  0.296964  0.257883  1
  Cu  Cu1  1  0.995529  0.796964  0.242117  1
  Cu  Cu2  1  0.995529  0.703036  0.742117  1
  Cu  Cu3  1  0.500000  0.500000  0.000000  1
  Cu  Cu4  1  0.500000  0.000000  0.500000  1
  Cu  Cu5  1  0.000000  0.000000  0.500000  1
  Cu  Cu6  1  0.000000  0.500000  0.000000  1
  Cu  Cu7  1  0.004471  0.203036  0.757883  1
  Se  Se8  1  0.664644  0.081173  0.900522  1
  Se  Se9  1  0.335356  0.918827  0.099478  1
  Se  Se10  1  0.335356  0.581173  0.599478  1
  Se  Se11  1  0.664644  0.418827  0.400522  1
  O  O12  1  0.450467  0.279213  0.398343  1
  O  O13  1  0.549533  0.720787  0.601657  1
  O  O14  1  0.912943  0.063919  0.101838  1
  O  O15  1  0.155925  0.464596  0.902470  1
  O  O16  1  0.761357  0.211661  0.341377  1
  O  O17  1  0.238643  0.711661  0.158623  1
  O  O18  1  0.155925  0.035404  0.402470  1
  O  O19  1  0.450467  0.220787  0.898343  1
  O  O20  1  0.087057  0.936081  0.898162  1
  O  O21  1  0.844075  0.964596  0.597530  1
  O  O22  1  0.549533  0.779213  0.101657  1
  O  O23  1  0.761357  0.288339  0.841377  1
  O  O24  1  0.087057  0.563919  0.398162  1
  O  O25  1  0.238643  0.788339  0.658623  1
  O  O26  1  0.912943  0.436081  0.601838  1
  O  O27  1  0.844075  0.535404  0.097530  1
