# generated using pymatgen
data_NaPr(Si3O7)2
_symmetry_space_group_name_H-M   'P 1'
_cell_length_a   13.26815865
_cell_length_b   13.26815865
_cell_length_c   13.26815865
_cell_angle_alpha   145.93397886
_cell_angle_beta   107.79438389
_cell_angle_gamma   82.29951071
_symmetry_Int_Tables_number   1
_chemical_formula_structural   NaPr(Si3O7)2
_chemical_formula_sum   'Na4 Pr4 Si24 O56'
_cell_volume   1214.29615692
_cell_formula_units_Z   4
loop_
 _symmetry_equiv_pos_site_id
 _symmetry_equiv_pos_as_xyz
  1  'x, y, z'
loop_
 _atom_site_type_symbol
 _atom_site_label
 _atom_site_symmetry_multiplicity
 _atom_site_fract_x
 _atom_site_fract_y
 _atom_site_fract_z
 _atom_site_occupancy
  Na  Na0  1  0.750000  0.750000  0.000000  1
  Na  Na1  1  0.500000  0.000000  0.500000  1
  Na  Na2  1  0.250000  0.250000  0.000000  1
  Na  Na3  1  0.000000  0.500000  0.500000  1
  Pr  Pr4  1  0.478437  0.250000  0.228437  1
  Pr  Pr5  1  0.978437  0.750000  0.228437  1
  Pr  Pr6  1  0.521563  0.750000  0.771563  1
  Pr  Pr7  1  0.021563  0.250000  0.771563  1
  Si  Si8  1  0.233564  0.702549  0.229910  1
  Si  Si9  1  0.266436  0.496346  0.468985  1
  Si  Si10  1  0.666513  0.268227  0.934740  1
  Si  Si11  1  0.527361  0.996346  0.229910  1
  Si  Si12  1  0.366214  0.322599  0.688813  1
  Si  Si13  1  0.431764  0.615443  0.339559  1
  Si  Si14  1  0.972639  0.202549  0.468985  1
  Si  Si15  1  0.133786  0.822599  0.956385  1
  Si  Si16  1  0.068236  0.407795  0.183679  1
  Si  Si17  1  0.733564  0.503654  0.531015  1
  Si  Si18  1  0.931764  0.592205  0.816321  1
  Si  Si19  1  0.833487  0.768227  0.601714  1
  Si  Si20  1  0.224116  0.884557  0.816321  1
  Si  Si21  1  0.166513  0.231773  0.398286  1
  Si  Si22  1  0.027361  0.797451  0.531015  1
  Si  Si23  1  0.724116  0.907795  0.339559  1
  Si  Si24  1  0.766436  0.297451  0.770090  1
  Si  Si25  1  0.333487  0.731773  0.065260  1
  Si  Si26  1  0.775884  0.115443  0.183679  1
  Si  Si27  1  0.866214  0.177401  0.043615  1
  Si  Si28  1  0.568236  0.384557  0.660441  1
  Si  Si29  1  0.633786  0.677401  0.311187  1
  Si  Si30  1  0.275884  0.092205  0.660441  1
  Si  Si31  1  0.472639  0.003654  0.770090  1
  O  O32  1  0.492569  0.950037  0.066334  1
  O  O33  1  0.992569  0.926235  0.542532  1
  O  O34  1  0.983658  0.316180  0.173665  1
  O  O35  1  0.933754  0.720903  0.018681  1
  O  O36  1  0.809984  0.545167  0.688943  1
  O  O37  1  0.061401  0.267943  0.457807  1
  O  O38  1  0.566246  0.584927  0.787149  1
  O  O39  1  0.297778  0.084927  0.018681  1
  O  O40  1  0.229931  0.742389  0.972320  1
  O  O41  1  0.483658  0.309993  0.667478  1
  O  O42  1  0.561401  0.103594  0.793458  1
  O  O43  1  0.938599  0.732057  0.542193  1
  O  O44  1  0.883703  0.426235  0.933666  1
  O  O45  1  0.383703  0.450037  0.457468  1
  O  O46  1  0.016342  0.683820  0.826335  1
  O  O47  1  0.810136  0.603594  0.542193  1
  O  O48  1  0.862411  0.968947  0.831358  1
  O  O49  1  0.464153  0.777149  0.571893  1
  O  O50  1  0.438599  0.896406  0.206542  1
  O  O51  1  0.637589  0.468947  0.106536  1
  O  O52  1  0.507431  0.049963  0.933666  1
  O  O53  1  0.643776  0.954833  0.264817  1
  O  O54  1  0.007431  0.073765  0.457468  1
  O  O55  1  0.642515  0.816180  0.332522  1
  O  O56  1  0.433754  0.415073  0.212851  1
  O  O57  1  0.702222  0.915073  0.981319  1
  O  O58  1  0.142515  0.809993  0.826335  1
  O  O59  1  0.309984  0.621041  0.264817  1
  O  O60  1  0.310136  0.767943  0.206542  1
  O  O61  1  0.270069  0.242389  0.512458  1
  O  O62  1  0.616297  0.549963  0.542532  1
  O  O63  1  0.856224  0.121041  0.311057  1
  O  O64  1  0.035847  0.607740  0.312996  1
  O  O65  1  0.137589  0.031053  0.168642  1
  O  O66  1  0.770069  0.257611  0.027680  1
  O  O67  1  0.066246  0.279097  0.981319  1
  O  O68  1  0.857485  0.190007  0.173665  1
  O  O69  1  0.797778  0.779097  0.212851  1
  O  O70  1  0.143776  0.878959  0.688943  1
  O  O71  1  0.705256  0.277149  0.312996  1
  O  O72  1  0.294744  0.722851  0.687004  1
  O  O73  1  0.690016  0.378959  0.735183  1
  O  O74  1  0.964153  0.392260  0.687004  1
  O  O75  1  0.202222  0.220903  0.787149  1
  O  O76  1  0.794744  0.107740  0.571893  1
  O  O77  1  0.357485  0.183820  0.667478  1
  O  O78  1  0.729931  0.757611  0.487542  1
  O  O79  1  0.116297  0.573765  0.066334  1
  O  O80  1  0.356224  0.045167  0.735183  1
  O  O81  1  0.205256  0.892260  0.428107  1
  O  O82  1  0.535847  0.222851  0.428107  1
  O  O83  1  0.516342  0.690007  0.332522  1
  O  O84  1  0.190016  0.454833  0.311057  1
  O  O85  1  0.362411  0.531053  0.893464  1
  O  O86  1  0.689864  0.232057  0.793458  1
  O  O87  1  0.189864  0.396406  0.457807  1
