# generated using pymatgen
data_Cr3(P2O7)2
_symmetry_space_group_name_H-M   'P 1'
_cell_length_a   5.91531057
_cell_length_b   7.04445489
_cell_length_c   7.63909821
_cell_angle_alpha   80.87530324
_cell_angle_beta   73.58493879
_cell_angle_gamma   75.27679661
_symmetry_Int_Tables_number   1
_chemical_formula_structural   Cr3(P2O7)2
_chemical_formula_sum   'Cr3 P4 O14'
_cell_volume   294.02698992
_cell_formula_units_Z   1
loop_
 _symmetry_equiv_pos_site_id
 _symmetry_equiv_pos_as_xyz
  1  'x, y, z'
loop_
 _atom_site_type_symbol
 _atom_site_label
 _atom_site_symmetry_multiplicity
 _atom_site_fract_x
 _atom_site_fract_y
 _atom_site_fract_z
 _atom_site_occupancy
  Cr  Cr0  1  0.757971  0.528235  0.667785  1
  Cr  Cr1  1  0.242029  0.471765  0.332215  1
  Cr  Cr2  1  0.000000  0.000000  0.000000  1
  P  P3  1  0.215493  0.697577  0.685764  1
  P  P4  1  0.351622  0.325169  0.919649  1
  P  P5  1  0.648378  0.674831  0.080351  1
  P  P6  1  0.784507  0.302423  0.314236  1
  O  O7  1  0.482434  0.678497  0.581153  1
  O  O8  1  0.914882  0.384142  0.433329  1
  O  O9  1  0.666511  0.680575  0.876141  1
  O  O10  1  0.085118  0.615858  0.566671  1
  O  O11  1  0.333489  0.319425  0.123859  1
  O  O12  1  0.234804  0.177925  0.876574  1
  O  O13  1  0.078780  0.895630  0.746337  1
  O  O14  1  0.202921  0.546593  0.868049  1
  O  O15  1  0.921220  0.104370  0.253663  1
  O  O16  1  0.517566  0.321503  0.418847  1
  O  O17  1  0.765196  0.822075  0.123426  1
  O  O18  1  0.614725  0.312477  0.801913  1
  O  O19  1  0.797079  0.453407  0.131951  1
  O  O20  1  0.385275  0.687523  0.198087  1
