# generated using pymatgen
data_Rb2SbBr6
_symmetry_space_group_name_H-M   'P 1'
_cell_length_a   13.54166478
_cell_length_b   13.54166478
_cell_length_c   13.54166478
_cell_angle_alpha   131.98828003
_cell_angle_beta   131.98828003
_cell_angle_gamma   70.24753793
_symmetry_Int_Tables_number   1
_chemical_formula_structural   Rb2SbBr6
_chemical_formula_sum   'Rb8 Sb4 Br24'
_cell_volume   1344.64727104
_cell_formula_units_Z   4
loop_
 _symmetry_equiv_pos_site_id
 _symmetry_equiv_pos_as_xyz
  1  'x, y, z'
loop_
 _atom_site_type_symbol
 _atom_site_label
 _atom_site_symmetry_multiplicity
 _atom_site_fract_x
 _atom_site_fract_y
 _atom_site_fract_z
 _atom_site_occupancy
  Rb  Rb0  1  0.098966  0.625000  0.973966  1
  Rb  Rb1  1  0.375000  0.901034  0.026034  1
  Rb  Rb2  1  0.651034  0.625000  0.526034  1
  Rb  Rb3  1  0.375000  0.348966  0.473966  1
  Rb  Rb4  1  0.875000  0.348966  0.973966  1
  Rb  Rb5  1  0.875000  0.901034  0.526034  1
  Rb  Rb6  1  0.098966  0.125000  0.473966  1
  Rb  Rb7  1  0.651034  0.125000  0.026034  1
  Sb  Sb8  1  0.750000  0.250000  0.500000  1
  Sb  Sb9  1  0.500000  0.500000  0.000000  1
  Sb  Sb10  1  0.250000  0.750000  0.500000  1
  Sb  Sb11  1  1.000000  0.000000  0.000000  1
  Br  Br12  1  0.248044  0.997493  0.250551  1
  Br  Br13  1  0.002507  0.751956  0.749449  1
  Br  Br14  1  0.248476  0.990096  0.741620  1
  Br  Br15  1  0.747493  0.498044  0.750551  1
  Br  Br16  1  0.493144  0.751524  0.741620  1
  Br  Br17  1  0.124976  0.124976  0.000000  1
  Br  Br18  1  0.501524  0.743144  0.241620  1
  Br  Br19  1  0.874976  0.374976  0.500000  1
  Br  Br20  1  0.002507  0.253058  0.250551  1
  Br  Br21  1  0.380702  0.380702  0.000000  1
  Br  Br22  1  0.619298  0.619298  0.000000  1
  Br  Br23  1  0.501524  0.259904  0.758380  1
  Br  Br24  1  0.256856  0.498476  0.758380  1
  Br  Br25  1  0.501956  0.252507  0.249449  1
  Br  Br26  1  0.369298  0.869298  0.500000  1
  Br  Br27  1  0.625024  0.125024  0.500000  1
  Br  Br28  1  0.248476  0.506856  0.258380  1
  Br  Br29  1  0.130702  0.630702  0.500000  1
  Br  Br30  1  0.009904  0.751524  0.258380  1
  Br  Br31  1  0.003058  0.252507  0.750551  1
  Br  Br32  1  0.746942  0.997493  0.749449  1
  Br  Br33  1  0.740096  0.498476  0.241620  1
  Br  Br34  1  0.747493  0.996942  0.249449  1
  Br  Br35  1  0.875024  0.875024  0.000000  1
