# generated using pymatgen
data_SiO2
_symmetry_space_group_name_H-M   'P 1'
_cell_length_a   7.65326080
_cell_length_b   7.65326080
_cell_length_c   7.65326080
_cell_angle_alpha   110.71236773
_cell_angle_beta   110.71236773
_cell_angle_gamma   110.71236773
_symmetry_Int_Tables_number   1
_chemical_formula_structural   SiO2
_chemical_formula_sum   'Si6 O12'
_cell_volume   328.26619905
_cell_formula_units_Z   6
loop_
 _symmetry_equiv_pos_site_id
 _symmetry_equiv_pos_as_xyz
  1  'x, y, z'
loop_
 _atom_site_type_symbol
 _atom_site_label
 _atom_site_symmetry_multiplicity
 _atom_site_fract_x
 _atom_site_fract_y
 _atom_site_fract_z
 _atom_site_occupancy
  Si  Si0  1  0.214485  0.943101  0.729739  1
  Si  Si1  1  0.729739  0.214485  0.943101  1
  Si  Si2  1  0.785515  0.056899  0.270261  1
  Si  Si3  1  0.270261  0.785515  0.056899  1
  Si  Si4  1  0.943101  0.729739  0.214485  1
  Si  Si5  1  0.056899  0.270261  0.785515  1
  O  O6  1  0.536986  0.970589  0.223545  1
  O  O7  1  0.835127  0.196767  0.157147  1
  O  O8  1  0.029411  0.776455  0.463014  1
  O  O9  1  0.463014  0.029411  0.776454  1
  O  O10  1  0.803233  0.842853  0.164873  1
  O  O11  1  0.842853  0.164873  0.803233  1
  O  O12  1  0.157147  0.835127  0.196767  1
  O  O13  1  0.164873  0.803233  0.842853  1
  O  O14  1  0.196767  0.157147  0.835127  1
  O  O15  1  0.776455  0.463014  0.029411  1
  O  O16  1  0.223545  0.536986  0.970589  1
  O  O17  1  0.970589  0.223545  0.536986  1
