# generated using pymatgen
data_TiIn2O5
_symmetry_space_group_name_H-M   'P 1'
_cell_length_a   3.53644895
_cell_length_b   7.38241333
_cell_length_c   15.16067002
_cell_angle_alpha   90.00000000
_cell_angle_beta   90.00000000
_cell_angle_gamma   90.00000000
_symmetry_Int_Tables_number   1
_chemical_formula_structural   TiIn2O5
_chemical_formula_sum   'Ti4 In8 O20'
_cell_volume   395.80761507
_cell_formula_units_Z   4
loop_
 _symmetry_equiv_pos_site_id
 _symmetry_equiv_pos_as_xyz
  1  'x, y, z'
loop_
 _atom_site_type_symbol
 _atom_site_label
 _atom_site_symmetry_multiplicity
 _atom_site_fract_x
 _atom_site_fract_y
 _atom_site_fract_z
 _atom_site_occupancy
  Ti  Ti0  1  0.750000  0.892219  0.421970  1
  Ti  Ti1  1  0.250000  0.107781  0.578030  1
  Ti  Ti2  1  0.750000  0.392219  0.078030  1
  Ti  Ti3  1  0.250000  0.607781  0.921970  1
  In  In4  1  0.750000  0.901371  0.083499  1
  In  In5  1  0.250000  0.098629  0.916501  1
  In  In6  1  0.750000  0.401371  0.416501  1
  In  In7  1  0.250000  0.598629  0.583499  1
  In  In8  1  0.250000  0.675347  0.239244  1
  In  In9  1  0.750000  0.324653  0.760756  1
  In  In10  1  0.250000  0.175347  0.260756  1
  In  In11  1  0.750000  0.824653  0.739244  1
  O  O12  1  0.750000  0.763402  0.319509  1
  O  O13  1  0.250000  0.236598  0.680491  1
  O  O14  1  0.750000  0.263402  0.180491  1
  O  O15  1  0.250000  0.736598  0.819509  1
  O  O16  1  0.750000  0.654554  0.495130  1
  O  O17  1  0.250000  0.345446  0.504870  1
  O  O18  1  0.750000  0.154554  0.004870  1
  O  O19  1  0.250000  0.845446  0.995130  1
  O  O20  1  0.750000  0.630970  0.148623  1
  O  O21  1  0.250000  0.369030  0.851377  1
  O  O22  1  0.750000  0.130970  0.351377  1
  O  O23  1  0.250000  0.869030  0.648623  1
  O  O24  1  0.250000  0.942354  0.175502  1
  O  O25  1  0.750000  0.057646  0.824498  1
  O  O26  1  0.250000  0.442354  0.324498  1
  O  O27  1  0.750000  0.557646  0.675502  1
  O  O28  1  0.250000  0.928959  0.453478  1
  O  O29  1  0.750000  0.071041  0.546522  1
  O  O30  1  0.250000  0.428959  0.046522  1
  O  O31  1  0.750000  0.571041  0.953478  1
