# generated using pymatgen
data_Sm2Ti3(BiO6)2
_symmetry_space_group_name_H-M   'P 1'
_cell_length_a   16.76935240
_cell_length_b   16.76935240
_cell_length_c   16.76935240
_cell_angle_alpha   166.90948729
_cell_angle_beta   166.90948729
_cell_angle_gamma   18.55349830
_symmetry_Int_Tables_number   1
_chemical_formula_structural   Sm2Ti3(BiO6)2
_chemical_formula_sum   'Sm2 Ti3 Bi2 O12'
_cell_volume   241.88526584
_cell_formula_units_Z   1
loop_
 _symmetry_equiv_pos_site_id
 _symmetry_equiv_pos_as_xyz
  1  'x, y, z'
loop_
 _atom_site_type_symbol
 _atom_site_label
 _atom_site_symmetry_multiplicity
 _atom_site_fract_x
 _atom_site_fract_y
 _atom_site_fract_z
 _atom_site_occupancy
  Sm  Sm0  1  0.065824  0.065824  0.000000  1
  Sm  Sm1  1  0.934176  0.934176  0.000000  1
  Ti  Ti2  1  0.372991  0.372991  0.000000  1
  Ti  Ti3  1  0.500000  0.500000  0.000000  1
  Ti  Ti4  1  0.627009  0.627009  0.000000  1
  Bi  Bi5  1  0.210966  0.210966  0.000000  1
  Bi  Bi6  1  0.789034  0.789034  0.000000  1
  O  O7  1  0.681150  0.681150  0.000000  1
  O  O8  1  0.613492  0.113492  0.500000  1
  O  O9  1  0.750000  0.250000  0.500000  1
  O  O10  1  0.250000  0.750000  0.500000  1
  O  O11  1  0.500000  0.000000  0.500000  1
  O  O12  1  0.113492  0.613492  0.500000  1
  O  O13  1  0.386508  0.886508  0.500000  1
  O  O14  1  0.886508  0.386508  0.500000  1
  O  O15  1  0.318850  0.318850  0.000000  1
  O  O16  1  0.558634  0.558634  0.000000  1
  O  O17  1  0.441366  0.441366  0.000000  1
  O  O18  1  0.000000  0.500000  0.500000  1
