# generated using pymatgen
data_Ba4W(N2Cl)2
_symmetry_space_group_name_H-M   'P 1'
_cell_length_a   8.56835857
_cell_length_b   6.24006128
_cell_length_c   10.91093530
_cell_angle_alpha   90.00000000
_cell_angle_beta   98.82926068
_cell_angle_gamma   90.00000000
_symmetry_Int_Tables_number   1
_chemical_formula_structural   Ba4W(N2Cl)2
_chemical_formula_sum   'Ba8 W2 N8 Cl4'
_cell_volume   576.46294637
_cell_formula_units_Z   2
loop_
 _symmetry_equiv_pos_site_id
 _symmetry_equiv_pos_as_xyz
  1  'x, y, z'
loop_
 _atom_site_type_symbol
 _atom_site_label
 _atom_site_symmetry_multiplicity
 _atom_site_fract_x
 _atom_site_fract_y
 _atom_site_fract_z
 _atom_site_occupancy
  Ba  Ba0  1  0.286372  0.750000  0.706240  1
  Ba  Ba1  1  0.003505  0.750000  0.372530  1
  Ba  Ba2  1  0.444818  0.750000  0.377621  1
  Ba  Ba3  1  0.814324  0.750000  0.909185  1
  Ba  Ba4  1  0.996495  0.250000  0.627470  1
  Ba  Ba5  1  0.555182  0.250000  0.622379  1
  Ba  Ba6  1  0.185676  0.250000  0.090815  1
  Ba  Ba7  1  0.713628  0.250000  0.293760  1
  W  W8  1  0.770976  0.750000  0.600446  1
  W  W9  1  0.229024  0.250000  0.399554  1
  N  N10  1  0.036595  0.250000  0.290308  1
  N  N11  1  0.245478  0.003245  0.501853  1
  N  N12  1  0.754522  0.503245  0.498147  1
  N  N13  1  0.754522  0.996755  0.498147  1
  N  N14  1  0.610345  0.750000  0.701009  1
  N  N15  1  0.963405  0.750000  0.709692  1
  N  N16  1  0.245478  0.496755  0.501853  1
  N  N17  1  0.389655  0.250000  0.298991  1
  Cl  Cl18  1  0.326403  0.250000  0.834671  1
  Cl  Cl19  1  0.673597  0.750000  0.165329  1
  Cl  Cl20  1  0.840987  0.250000  0.901641  1
  Cl  Cl21  1  0.159013  0.750000  0.098359  1
