# generated using pymatgen
data_Nd(NiSb)2
_symmetry_space_group_name_H-M   'P 1'
_cell_length_a   6.18309525
_cell_length_b   6.18309525
_cell_length_c   6.18309525
_cell_angle_alpha   138.70724702
_cell_angle_beta   138.70724702
_cell_angle_gamma   59.82152525
_symmetry_Int_Tables_number   1
_chemical_formula_structural   Nd(NiSb)2
_chemical_formula_sum   'Nd1 Ni2 Sb2'
_cell_volume   101.89688372
_cell_formula_units_Z   1
loop_
 _symmetry_equiv_pos_site_id
 _symmetry_equiv_pos_as_xyz
  1  'x, y, z'
loop_
 _atom_site_type_symbol
 _atom_site_label
 _atom_site_symmetry_multiplicity
 _atom_site_fract_x
 _atom_site_fract_y
 _atom_site_fract_z
 _atom_site_occupancy
  Nd  Nd0  1  0.000000  0.000000  0.000000  1
  Ni  Ni1  1  0.250000  0.750000  0.500000  1
  Ni  Ni2  1  0.750000  0.250000  0.500000  1
  Sb  Sb3  1  0.364222  0.364222  0.000000  1
  Sb  Sb4  1  0.635778  0.635778  0.000000  1
