# generated using pymatgen
data_Ba17Y16Zn8Pt4O57
_symmetry_space_group_name_H-M   'P 1'
_cell_length_a   16.63572987
_cell_length_b   16.63572987
_cell_length_c   16.63572987
_cell_angle_alpha   91.72923874
_cell_angle_beta   91.72923874
_cell_angle_gamma   159.99241656
_symmetry_Int_Tables_number   1
_chemical_formula_structural   Ba17Y16Zn8Pt4O57
_chemical_formula_sum   'Ba17 Y16 Zn8 Pt4 O57'
_cell_volume   1551.24912767
_cell_formula_units_Z   1
loop_
 _symmetry_equiv_pos_site_id
 _symmetry_equiv_pos_as_xyz
  1  'x, y, z'
loop_
 _atom_site_type_symbol
 _atom_site_label
 _atom_site_symmetry_multiplicity
 _atom_site_fract_x
 _atom_site_fract_y
 _atom_site_fract_z
 _atom_site_occupancy
  Ba  Ba0  1  0.932491  0.441502  0.373992  1
  Ba  Ba1  1  0.887845  0.276549  0.164393  1
  Ba  Ba2  1  0.732097  0.189164  0.921261  1
  Ba  Ba3  1  0.276549  0.112155  0.388704  1
  Ba  Ba4  1  0.267903  0.810836  0.078739  1
  Ba  Ba5  1  0.810836  0.732097  0.542933  1
  Ba  Ba6  1  0.067509  0.558498  0.626008  1
  Ba  Ba7  1  0.658234  0.649805  0.308039  1
  Ba  Ba8  1  0.441502  0.067509  0.509011  1
  Ba  Ba9  1  0.189164  0.267903  0.457067  1
  Ba  Ba10  1  0.558498  0.932491  0.490989  1
  Ba  Ba11  1  0.112155  0.723451  0.835607  1
  Ba  Ba12  1  0.341766  0.350195  0.691961  1
  Ba  Ba13  1  0.723451  0.887845  0.611296  1
  Ba  Ba14  1  0.649805  0.341766  0.991571  1
  Ba  Ba15  1  0.350195  0.658234  0.008429  1
  Ba  Ba16  1  0.000000  0.000000  0.000000  1
  Y  Y17  1  0.749649  0.506621  0.256270  1
  Y  Y18  1  0.673692  0.049487  0.723179  1
  Y  Y19  1  0.493379  0.749649  0.243027  1
  Y  Y20  1  0.511798  0.400191  0.911989  1
  Y  Y21  1  0.950513  0.673692  0.624205  1
  Y  Y22  1  0.250351  0.493379  0.743730  1
  Y  Y23  1  0.400191  0.488202  0.888393  1
  Y  Y24  1  0.172046  0.947586  0.119632  1
  Y  Y25  1  0.488202  0.599809  0.088011  1
  Y  Y26  1  0.506621  0.250351  0.756973  1
  Y  Y27  1  0.049487  0.326308  0.375795  1
  Y  Y28  1  0.052414  0.172046  0.224459  1
  Y  Y29  1  0.947586  0.827954  0.775541  1
  Y  Y30  1  0.599809  0.511798  0.111607  1
  Y  Y31  1  0.326308  0.950513  0.276821  1
  Y  Y32  1  0.827954  0.052414  0.880368  1
  Zn  Zn33  1  0.787777  0.379063  0.166841  1
  Zn  Zn34  1  0.620937  0.787777  0.408714  1
  Zn  Zn35  1  0.076025  0.866231  0.942256  1
  Zn  Zn36  1  0.133769  0.076025  0.209793  1
  Zn  Zn37  1  0.212223  0.620937  0.833159  1
  Zn  Zn38  1  0.923975  0.133769  0.057744  1
  Zn  Zn39  1  0.866231  0.923975  0.790207  1
  Zn  Zn40  1  0.379063  0.212223  0.591286  1
  Pt  Pt41  1  0.583059  0.144221  0.727281  1
  Pt  Pt42  1  0.855779  0.583059  0.438838  1
  Pt  Pt43  1  0.416941  0.855779  0.272719  1
  Pt  Pt44  1  0.144221  0.416941  0.561162  1
  O  O45  1  0.631761  0.399134  0.520671  1
  O  O46  1  0.239618  0.701011  0.940629  1
  O  O47  1  0.280600  0.925025  0.689544  1
  O  O48  1  0.591056  0.280600  0.355575  1
  O  O49  1  0.230886  0.391475  0.622361  1
  O  O50  1  0.927554  0.779680  0.204127  1
  O  O51  1  0.298989  0.239618  0.538607  1
  O  O52  1  0.111091  0.631761  0.232628  1
  O  O53  1  0.769114  0.608525  0.377639  1
  O  O54  1  0.684302  0.660012  0.844695  1
  O  O55  1  0.701011  0.760382  0.461393  1
  O  O56  1  0.496864  0.177378  0.175871  1
  O  O57  1  0.840199  0.842276  0.682476  1
  O  O58  1  0.408944  0.719400  0.644425  1
  O  O59  1  0.160393  0.315698  0.975710  1
  O  O60  1  0.822622  0.998493  0.319486  1
  O  O61  1  0.723426  0.927554  0.147873  1
  O  O62  1  0.399134  0.878463  0.767372  1
  O  O63  1  0.055081  0.435646  0.490726  1
  O  O64  1  0.121537  0.888909  0.520671  1
  O  O65  1  0.235481  0.591056  0.310456  1
  O  O66  1  0.184683  0.160393  0.844695  1
  O  O67  1  0.878463  0.111091  0.479329  1
  O  O68  1  0.276574  0.072446  0.852127  1
  O  O69  1  0.391475  0.769114  0.160588  1
  O  O70  1  0.503136  0.822622  0.824129  1
  O  O71  1  0.424447  0.276574  0.204127  1
  O  O72  1  0.998493  0.679007  0.175871  1
  O  O73  1  0.842276  0.159801  0.002077  1
  O  O74  1  0.925025  0.235481  0.644425  1
  O  O75  1  0.320993  0.496864  0.319486  1
  O  O76  1  0.944919  0.564354  0.509274  1
  O  O77  1  0.679007  0.503136  0.680514  1
  O  O78  1  0.072446  0.220320  0.795873  1
  O  O79  1  0.177378  0.001507  0.680514  1
  O  O80  1  0.660012  0.815317  0.975710  1
  O  O81  1  0.001507  0.320993  0.824129  1
  O  O82  1  0.435646  0.944919  0.380565  1
  O  O83  1  0.564354  0.055081  0.619435  1
  O  O84  1  0.764519  0.408944  0.689544  1
  O  O85  1  0.779680  0.575553  0.852127  1
  O  O86  1  0.888909  0.368239  0.767372  1
  O  O87  1  0.608525  0.230886  0.839412  1
  O  O88  1  0.074975  0.764519  0.355575  1
  O  O89  1  0.220320  0.424447  0.147873  1
  O  O90  1  0.315698  0.339988  0.155305  1
  O  O91  1  0.339988  0.184683  0.024290  1
  O  O92  1  0.500000  0.500000  0.000000  1
  O  O93  1  0.719400  0.074975  0.310456  1
  O  O94  1  0.815317  0.839607  0.155305  1
  O  O95  1  0.368239  0.600866  0.479329  1
  O  O96  1  0.760382  0.298989  0.059371  1
  O  O97  1  0.157724  0.840199  0.997923  1
  O  O98  1  0.839607  0.684302  0.024290  1
  O  O99  1  0.159801  0.157724  0.317524  1
  O  O100  1  0.600866  0.121537  0.232628  1
  O  O101  1  0.575553  0.723426  0.795873  1
