# generated using pymatgen
data_CsCdAuS2
_symmetry_space_group_name_H-M   'P 1'
_cell_length_a   7.87829066
_cell_length_b   7.87829066
_cell_length_c   6.22467716
_cell_angle_alpha   90.00000000
_cell_angle_beta   90.00000000
_cell_angle_gamma   128.54462153
_symmetry_Int_Tables_number   1
_chemical_formula_structural   CsCdAuS2
_chemical_formula_sum   'Cs2 Cd2 Au2 S4'
_cell_volume   302.17320425
_cell_formula_units_Z   2
loop_
 _symmetry_equiv_pos_site_id
 _symmetry_equiv_pos_as_xyz
  1  'x, y, z'
loop_
 _atom_site_type_symbol
 _atom_site_label
 _atom_site_symmetry_multiplicity
 _atom_site_fract_x
 _atom_site_fract_y
 _atom_site_fract_z
 _atom_site_occupancy
  Cs  Cs0  1  0.250000  0.750000  0.230512  1
  Cs  Cs1  1  0.750000  0.250000  0.769488  1
  Cd  Cd2  1  0.750000  0.750000  0.500000  1
  Cd  Cd3  1  0.250000  0.250000  0.500000  1
  Au  Au4  1  0.000000  0.000000  0.000000  1
  Au  Au5  1  0.500000  0.500000  1.000000  1
  S  S6  1  0.105249  0.894751  0.709936  1
  S  S7  1  0.394751  0.605249  0.709936  1
  S  S8  1  0.605249  0.394751  0.290064  1
  S  S9  1  0.894751  0.105249  0.290064  1
