# generated using pymatgen
data_Sr4Al6CrO16
_symmetry_space_group_name_H-M   'P 1'
_cell_length_a   9.58658337
_cell_length_b   13.44389903
_cell_length_c   13.47741120
_cell_angle_alpha   90.00000000
_cell_angle_beta   90.00000000
_cell_angle_gamma   90.00000000
_symmetry_Int_Tables_number   1
_chemical_formula_structural   Sr4Al6CrO16
_chemical_formula_sum   'Sr16 Al24 Cr4 O64'
_cell_volume   1736.98302627
_cell_formula_units_Z   4
loop_
 _symmetry_equiv_pos_site_id
 _symmetry_equiv_pos_as_xyz
  1  'x, y, z'
loop_
 _atom_site_type_symbol
 _atom_site_label
 _atom_site_symmetry_multiplicity
 _atom_site_fract_x
 _atom_site_fract_y
 _atom_site_fract_z
 _atom_site_occupancy
  Sr  Sr0  1  0.467253  0.208714  0.005095  1
  Sr  Sr1  1  0.971351  0.985715  0.267802  1
  Sr  Sr2  1  0.025711  0.754747  0.005402  1
  Sr  Sr3  1  0.032747  0.708714  0.505095  1
  Sr  Sr4  1  0.532747  0.708714  0.994905  1
  Sr  Sr5  1  0.459182  0.484532  0.286830  1
  Sr  Sr6  1  0.528649  0.485715  0.767802  1
  Sr  Sr7  1  0.967253  0.208714  0.494905  1
  Sr  Sr8  1  0.040818  0.984532  0.786830  1
  Sr  Sr9  1  0.959182  0.484532  0.213170  1
  Sr  Sr10  1  0.028649  0.485715  0.732198  1
  Sr  Sr11  1  0.540818  0.984532  0.713170  1
  Sr  Sr12  1  0.471351  0.985715  0.232198  1
  Sr  Sr13  1  0.974289  0.254747  0.994598  1
  Sr  Sr14  1  0.474289  0.254747  0.505402  1
  Sr  Sr15  1  0.525711  0.754747  0.494598  1
  Al  Al16  1  0.258141  0.613481  0.127525  1
  Al  Al17  1  0.000860  0.736072  0.254731  1
  Al  Al18  1  0.262273  0.611875  0.875409  1
  Al  Al19  1  0.261580  0.863673  0.625215  1
  Al  Al20  1  0.242451  0.860183  0.374354  1
  Al  Al21  1  0.761580  0.863673  0.874785  1
  Al  Al22  1  0.257549  0.360183  0.874354  1
  Al  Al23  1  0.488277  0.237851  0.252191  1
  Al  Al24  1  0.999140  0.236072  0.745269  1
  Al  Al25  1  0.499140  0.236072  0.754731  1
  Al  Al26  1  0.738420  0.363673  0.374785  1
  Al  Al27  1  0.237727  0.111875  0.375409  1
  Al  Al28  1  0.741859  0.113481  0.872475  1
  Al  Al29  1  0.988277  0.237851  0.247809  1
  Al  Al30  1  0.762273  0.611875  0.624591  1
  Al  Al31  1  0.011723  0.737851  0.752191  1
  Al  Al32  1  0.742451  0.860183  0.125646  1
  Al  Al33  1  0.241859  0.113481  0.627525  1
  Al  Al34  1  0.500860  0.736072  0.245269  1
  Al  Al35  1  0.757549  0.360183  0.625646  1
  Al  Al36  1  0.758141  0.613481  0.372475  1
  Al  Al37  1  0.737727  0.111875  0.124591  1
  Al  Al38  1  0.238420  0.363673  0.125215  1
  Al  Al39  1  0.511723  0.737851  0.747809  1
  Cr  Cr40  1  0.700408  0.995937  0.487426  1
  Cr  Cr41  1  0.799592  0.495937  0.987426  1
  Cr  Cr42  1  0.200408  0.995937  0.012574  1
  Cr  Cr43  1  0.299592  0.495937  0.512574  1
  O  O44  1  0.772327  0.645949  0.498586  1
  O  O45  1  0.395550  0.158029  0.330607  1
  O  O46  1  0.272327  0.645949  0.001414  1
  O  O47  1  0.921320  0.657756  0.671949  1
  O  O48  1  0.859526  0.034864  0.451379  1
  O  O49  1  0.205460  0.904447  0.928527  1
  O  O50  1  0.727673  0.145949  0.998586  1
  O  O51  1  0.885996  0.589051  0.041470  1
  O  O52  1  0.763999  0.827729  0.000118  1
  O  O53  1  0.736001  0.327729  0.500118  1
  O  O54  1  0.925841  0.637211  0.322911  1
  O  O55  1  0.263999  0.827729  0.499882  1
  O  O56  1  0.113761  0.952917  0.109503  1
  O  O57  1  0.577041  0.317500  0.333248  1
  O  O58  1  0.885503  0.181876  0.831062  1
  O  O59  1  0.294540  0.404447  0.428527  1
  O  O60  1  0.078680  0.157756  0.328051  1
  O  O61  1  0.640474  0.534864  0.951379  1
  O  O62  1  0.110521  0.312831  0.813783  1
  O  O63  1  0.235500  0.986097  0.340139  1
  O  O64  1  0.103923  0.818396  0.672752  1
  O  O65  1  0.396077  0.318396  0.172752  1
  O  O66  1  0.077041  0.317500  0.166752  1
  O  O67  1  0.385996  0.589051  0.458530  1
  O  O68  1  0.774391  0.989221  0.837780  1
  O  O69  1  0.604450  0.658029  0.669393  1
  O  O70  1  0.610521  0.312831  0.686217  1
  O  O71  1  0.386239  0.452917  0.609503  1
  O  O72  1  0.140474  0.534864  0.548621  1
  O  O73  1  0.425841  0.637211  0.177089  1
  O  O74  1  0.794540  0.404447  0.071473  1
  O  O75  1  0.764500  0.486097  0.659861  1
  O  O76  1  0.889479  0.812831  0.186217  1
  O  O77  1  0.114497  0.681876  0.168938  1
  O  O78  1  0.613761  0.952917  0.390497  1
  O  O79  1  0.614004  0.089051  0.541470  1
  O  O80  1  0.735500  0.986097  0.159861  1
  O  O81  1  0.896077  0.318396  0.327248  1
  O  O82  1  0.104450  0.658029  0.830607  1
  O  O83  1  0.574159  0.137211  0.822911  1
  O  O84  1  0.225609  0.489221  0.162220  1
  O  O85  1  0.725609  0.489221  0.337780  1
  O  O86  1  0.705460  0.904447  0.571473  1
  O  O87  1  0.614497  0.681876  0.331062  1
  O  O88  1  0.895550  0.158029  0.169393  1
  O  O89  1  0.074159  0.137211  0.677089  1
  O  O90  1  0.578680  0.157756  0.171949  1
  O  O91  1  0.074292  0.813846  0.346411  1
  O  O92  1  0.886239  0.452917  0.890497  1
  O  O93  1  0.114004  0.089051  0.958530  1
  O  O94  1  0.422959  0.817500  0.666752  1
  O  O95  1  0.389479  0.812831  0.313783  1
  O  O96  1  0.385503  0.181876  0.668938  1
  O  O97  1  0.574292  0.813846  0.153589  1
  O  O98  1  0.359526  0.034864  0.048621  1
  O  O99  1  0.603923  0.818396  0.827248  1
  O  O100  1  0.421320  0.657756  0.828051  1
  O  O101  1  0.425708  0.313846  0.846411  1
  O  O102  1  0.236001  0.327729  0.999882  1
  O  O103  1  0.925708  0.313846  0.653589  1
  O  O104  1  0.274391  0.989221  0.662220  1
  O  O105  1  0.264500  0.486097  0.840139  1
  O  O106  1  0.227673  0.145949  0.501414  1
  O  O107  1  0.922959  0.817500  0.833248  1
