# generated using pymatgen
data_Ti(PO3)4
_symmetry_space_group_name_H-M   'P 1'
_cell_length_a   7.45148080
_cell_length_b   7.45148080
_cell_length_c   9.89214123
_cell_angle_alpha   68.56129430
_cell_angle_beta   111.43870570
_cell_angle_gamma   113.06887336
_symmetry_Int_Tables_number   1
_chemical_formula_structural   Ti(PO3)4
_chemical_formula_sum   'Ti2 P8 O24'
_cell_volume   454.24877993
_cell_formula_units_Z   2
loop_
 _symmetry_equiv_pos_site_id
 _symmetry_equiv_pos_as_xyz
  1  'x, y, z'
loop_
 _atom_site_type_symbol
 _atom_site_label
 _atom_site_symmetry_multiplicity
 _atom_site_fract_x
 _atom_site_fract_y
 _atom_site_fract_z
 _atom_site_occupancy
  Ti  Ti0  1  0.000000  0.500000  0.500000  1
  Ti  Ti1  1  0.500000  0.000000  0.000000  1
  P  P2  1  0.741082  0.751688  0.966529  1
  P  P3  1  0.751688  0.741082  0.533471  1
  P  P4  1  0.341995  0.692460  0.314316  1
  P  P5  1  0.248312  0.258918  0.466529  1
  P  P6  1  0.258918  0.248312  0.033471  1
  P  P7  1  0.692460  0.341995  0.185684  1
  P  P8  1  0.307540  0.658005  0.814316  1
  P  P9  1  0.658005  0.307540  0.685684  1
  O  O10  1  0.532319  0.659237  0.843928  1
  O  O11  1  0.644888  0.193019  0.844808  1
  O  O12  1  0.355112  0.806981  0.155192  1
  O  O13  1  0.665655  0.825485  0.057072  1
  O  O14  1  0.174515  0.334345  0.557072  1
  O  O15  1  0.340763  0.467681  0.343928  1
  O  O16  1  0.838127  0.311026  0.645618  1
  O  O17  1  0.456138  0.208359  0.575336  1
  O  O18  1  0.791641  0.543862  0.075336  1
  O  O19  1  0.119367  0.096251  0.394777  1
  O  O20  1  0.467681  0.340763  0.156072  1
  O  O21  1  0.806981  0.355112  0.344808  1
  O  O22  1  0.311026  0.838127  0.854382  1
  O  O23  1  0.096251  0.119367  0.105223  1
  O  O24  1  0.903749  0.880633  0.894777  1
  O  O25  1  0.825485  0.665655  0.442928  1
  O  O26  1  0.193019  0.644888  0.655192  1
  O  O27  1  0.334345  0.174515  0.942928  1
  O  O28  1  0.880633  0.903749  0.605223  1
  O  O29  1  0.208359  0.456138  0.924664  1
  O  O30  1  0.543862  0.791641  0.424664  1
  O  O31  1  0.161873  0.688974  0.354382  1
  O  O32  1  0.659237  0.532319  0.656072  1
  O  O33  1  0.688974  0.161873  0.145618  1
