# generated using pymatgen
data_Pr2Fe14B
_symmetry_space_group_name_H-M   'P 1'
_cell_length_a   8.78314738
_cell_length_b   8.78314738
_cell_length_c   12.17150349
_cell_angle_alpha   90.00000000
_cell_angle_beta   90.00000000
_cell_angle_gamma   90.00000000
_symmetry_Int_Tables_number   1
_chemical_formula_structural   Pr2Fe14B
_chemical_formula_sum   'Pr8 Fe56 B4'
_cell_volume   938.95454478
_cell_formula_units_Z   4
loop_
 _symmetry_equiv_pos_site_id
 _symmetry_equiv_pos_as_xyz
  1  'x, y, z'
loop_
 _atom_site_type_symbol
 _atom_site_label
 _atom_site_symmetry_multiplicity
 _atom_site_fract_x
 _atom_site_fract_y
 _atom_site_fract_z
 _atom_site_occupancy
  Pr  Pr0  1  0.231104  0.768896  0.500000  1
  Pr  Pr1  1  0.857615  0.142385  0.000000  1
  Pr  Pr2  1  0.642385  0.642385  0.500000  1
  Pr  Pr3  1  0.142385  0.857615  0.000000  1
  Pr  Pr4  1  0.357615  0.357615  0.500000  1
  Pr  Pr5  1  0.731104  0.731104  0.000000  1
  Pr  Pr6  1  0.268896  0.268896  0.000000  1
  Pr  Pr7  1  0.768896  0.231104  0.500000  1
  Fe  Fe8  1  0.181942  0.818058  0.745672  1
  Fe  Fe9  1  0.139606  0.536957  0.676608  1
  Fe  Fe10  1  0.401846  0.598154  0.293769  1
  Fe  Fe11  1  0.463043  0.860394  0.676608  1
  Fe  Fe12  1  0.963043  0.639606  0.176608  1
  Fe  Fe13  1  0.500000  0.000000  0.000000  1
  Fe  Fe14  1  0.500000  0.500000  0.885698  1
  Fe  Fe15  1  0.681942  0.681942  0.245672  1
  Fe  Fe16  1  0.536957  0.139606  0.676608  1
  Fe  Fe17  1  0.775369  0.432386  0.872371  1
  Fe  Fe18  1  0.360394  0.036957  0.176608  1
  Fe  Fe19  1  0.901846  0.901846  0.206231  1
  Fe  Fe20  1  0.000000  0.000000  0.614302  1
  Fe  Fe21  1  0.963043  0.639606  0.823392  1
  Fe  Fe22  1  0.818058  0.181942  0.254328  1
  Fe  Fe23  1  0.000000  0.000000  0.385698  1
  Fe  Fe24  1  0.500000  0.500000  0.114302  1
  Fe  Fe25  1  0.139606  0.536957  0.323392  1
  Fe  Fe26  1  0.318058  0.318058  0.245672  1
  Fe  Fe27  1  0.067614  0.275369  0.372371  1
  Fe  Fe28  1  0.536957  0.139606  0.323392  1
  Fe  Fe29  1  0.036957  0.360394  0.823392  1
  Fe  Fe30  1  0.098154  0.098154  0.793769  1
  Fe  Fe31  1  0.724631  0.932386  0.627629  1
  Fe  Fe32  1  0.432386  0.775369  0.127629  1
  Fe  Fe33  1  0.932386  0.724631  0.627629  1
  Fe  Fe34  1  0.932386  0.724631  0.372371  1
  Fe  Fe35  1  0.681942  0.681942  0.754328  1
  Fe  Fe36  1  0.463043  0.860394  0.323392  1
  Fe  Fe37  1  0.639606  0.963043  0.176608  1
  Fe  Fe38  1  0.098154  0.098154  0.206231  1
  Fe  Fe39  1  0.036957  0.360394  0.176608  1
  Fe  Fe40  1  0.224631  0.567614  0.872371  1
  Fe  Fe41  1  0.567614  0.224631  0.127629  1
  Fe  Fe42  1  0.818058  0.181942  0.745672  1
  Fe  Fe43  1  0.860394  0.463043  0.323392  1
  Fe  Fe44  1  0.067614  0.275369  0.627629  1
  Fe  Fe45  1  0.860394  0.463043  0.676608  1
  Fe  Fe46  1  0.318058  0.318058  0.754328  1
  Fe  Fe47  1  0.360394  0.036957  0.823392  1
  Fe  Fe48  1  0.275369  0.067614  0.372371  1
  Fe  Fe49  1  0.901846  0.901846  0.793769  1
  Fe  Fe50  1  0.639606  0.963043  0.823392  1
  Fe  Fe51  1  0.224631  0.567614  0.127629  1
  Fe  Fe52  1  0.275369  0.067614  0.627629  1
  Fe  Fe53  1  0.775369  0.432386  0.127629  1
  Fe  Fe54  1  0.598154  0.401846  0.293769  1
  Fe  Fe55  1  0.000000  0.500000  0.000000  1
  Fe  Fe56  1  0.724631  0.932386  0.372371  1
  Fe  Fe57  1  0.181942  0.818058  0.254328  1
  Fe  Fe58  1  0.401846  0.598154  0.706231  1
  Fe  Fe59  1  0.567614  0.224631  0.872371  1
  Fe  Fe60  1  0.500000  0.000000  0.500000  1
  Fe  Fe61  1  0.598154  0.401846  0.706231  1
  Fe  Fe62  1  0.000000  0.500000  0.500000  1
  Fe  Fe63  1  0.432386  0.775369  0.872371  1
  B  B64  1  0.876677  0.876677  0.500000  1
  B  B65  1  0.123323  0.123323  0.500000  1
  B  B66  1  0.623323  0.376677  0.000000  1
  B  B67  1  0.376677  0.623323  0.000000  1
