# generated using pymatgen
data_KNaMg2Si4(O5F)2
_symmetry_space_group_name_H-M   'P 1'
_cell_length_a   5.30965812
_cell_length_b   5.30965812
_cell_length_c   10.42862997
_cell_angle_alpha   84.30754320
_cell_angle_beta   95.69245680
_cell_angle_gamma   60.50868420
_symmetry_Int_Tables_number   1
_chemical_formula_structural   KNaMg2Si4(O5F)2
_chemical_formula_sum   'K1 Na1 Mg2 Si4 O10 F2'
_cell_volume   250.90607531
_cell_formula_units_Z   1
loop_
 _symmetry_equiv_pos_site_id
 _symmetry_equiv_pos_as_xyz
  1  'x, y, z'
loop_
 _atom_site_type_symbol
 _atom_site_label
 _atom_site_symmetry_multiplicity
 _atom_site_fract_x
 _atom_site_fract_y
 _atom_site_fract_z
 _atom_site_occupancy
  K  K0  1  0.500000  0.500000  0.000000  1
  Na  Na1  1  0.000000  0.000000  0.500000  1
  Mg  Mg2  1  0.334018  0.334018  0.500000  1
  Mg  Mg3  1  0.665982  0.665982  0.500000  1
  Si  Si4  1  0.911040  0.748773  0.227395  1
  Si  Si5  1  0.748773  0.911040  0.772605  1
  Si  Si6  1  0.251227  0.088960  0.227395  1
  Si  Si7  1  0.088960  0.251227  0.772605  1
  O  O8  1  0.322397  0.041041  0.383462  1
  O  O9  1  0.051958  0.948042  0.170894  1
  O  O10  1  0.060678  0.444489  0.161258  1
  O  O11  1  0.939322  0.555511  0.838742  1
  O  O12  1  0.677603  0.958959  0.616538  1
  O  O13  1  0.948042  0.051958  0.829106  1
  O  O14  1  0.958959  0.677603  0.383462  1
  O  O15  1  0.444489  0.060678  0.838742  1
  O  O16  1  0.041041  0.322397  0.616538  1
  O  O17  1  0.555511  0.939322  0.161258  1
  F  F18  1  0.405259  0.594741  0.607405  1
  F  F19  1  0.594741  0.405259  0.392595  1
