# generated using pymatgen
data_Sr3Pr10Al12Si18(N2O)18
_symmetry_space_group_name_H-M   'P 1'
_cell_length_a   11.70973352
_cell_length_b   11.70973352
_cell_length_c   11.70921527
_cell_angle_alpha   70.56586388
_cell_angle_beta   109.43413612
_cell_angle_gamma   70.55156498
_symmetry_Int_Tables_number   1
_chemical_formula_structural   Sr3Pr10Al12Si18(N2O)18
_chemical_formula_sum   'Sr3 Pr10 Al12 Si18 N36 O18'
_cell_volume   1237.42386073
_cell_formula_units_Z   1
loop_
 _symmetry_equiv_pos_site_id
 _symmetry_equiv_pos_as_xyz
  1  'x, y, z'
loop_
 _atom_site_type_symbol
 _atom_site_label
 _atom_site_symmetry_multiplicity
 _atom_site_fract_x
 _atom_site_fract_y
 _atom_site_fract_z
 _atom_site_occupancy
  Sr  Sr0  1  0.000931  0.999069  0.000850  1
  Sr  Sr1  1  0.424649  0.000363  0.679913  1
  Sr  Sr2  1  0.999637  0.575351  0.679913  1
  Pr  Pr3  1  0.325325  0.674675  0.748077  1
  Pr  Pr4  1  0.676135  0.575645  0.998678  1
  Pr  Pr5  1  0.750469  0.675690  0.329676  1
  Pr  Pr6  1  0.573796  0.750464  0.578295  1
  Pr  Pr7  1  0.001483  0.324219  0.424928  1
  Pr  Pr8  1  0.675781  0.998517  0.424928  1
  Pr  Pr9  1  0.249536  0.426204  0.578295  1
  Pr  Pr10  1  0.424355  0.323865  0.998678  1
  Pr  Pr11  1  0.324310  0.249531  0.329676  1
  Pr  Pr12  1  0.576227  0.423773  0.251957  1
  Al  Al13  1  0.837516  0.162484  0.590732  1
  Al  Al14  1  0.245788  0.754212  0.407829  1
  Al  Al15  1  0.838176  0.408675  0.837365  1
  Al  Al16  1  0.162822  0.999546  0.754125  1
  Al  Al17  1  0.410050  0.752801  0.246829  1
  Al  Al18  1  0.999580  0.246374  0.162721  1
  Al  Al19  1  0.753516  0.837765  0.999602  1
  Al  Al20  1  0.591325  0.161824  0.837365  1
  Al  Al21  1  0.753626  0.000420  0.162721  1
  Al  Al22  1  0.162235  0.246484  0.999602  1
  Al  Al23  1  0.247199  0.589950  0.246829  1
  Al  Al24  1  0.000454  0.837178  0.754125  1
  Si  Si25  1  0.699884  0.300116  0.999855  1
  Si  Si26  1  0.839397  0.160603  0.300935  1
  Si  Si27  1  0.538810  0.461190  0.699054  1
  Si  Si28  1  0.301184  0.698816  0.000337  1
  Si  Si29  1  0.699454  0.460761  0.538846  1
  Si  Si30  1  0.160773  0.999898  0.462192  1
  Si  Si31  1  0.842037  0.698377  0.840782  1
  Si  Si32  1  0.462175  0.838803  0.001448  1
  Si  Si33  1  0.700049  0.999582  0.699870  1
  Si  Si34  1  0.000418  0.299951  0.699870  1
  Si  Si35  1  0.298458  0.000954  0.299134  1
  Si  Si36  1  0.301623  0.157963  0.840782  1
  Si  Si37  1  0.461199  0.000519  0.161024  1
  Si  Si38  1  0.999481  0.538801  0.161024  1
  Si  Si39  1  0.539239  0.300546  0.538846  1
  Si  Si40  1  0.999046  0.701542  0.299134  1
  Si  Si41  1  0.161197  0.537825  0.001448  1
  Si  Si42  1  0.000102  0.839227  0.462192  1
  N  N43  1  0.672754  0.477296  0.672563  1
  N  N44  1  0.842794  0.311097  0.999996  1
  N  N45  1  0.451395  0.694259  0.001416  1
  N  N46  1  0.302650  0.000019  0.448096  1
  N  N47  1  0.854298  0.448323  0.549790  1
  N  N48  1  0.999638  0.149801  0.327381  1
  N  N49  1  0.000244  0.305488  0.844828  1
  N  N50  1  0.850098  0.672116  0.000541  1
  N  N51  1  0.699454  0.852647  0.696169  1
  N  N52  1  0.999710  0.157025  0.688486  1
  N  N53  1  0.309256  0.847277  0.308127  1
  N  N54  1  0.479755  0.849163  0.152224  1
  N  N55  1  0.325776  0.997841  0.855920  1
  N  N56  1  0.551677  0.145702  0.549790  1
  N  N57  1  0.694512  0.999756  0.844828  1
  N  N58  1  0.846242  0.844879  0.155600  1
  N  N59  1  0.446597  0.004148  0.302343  1
  N  N60  1  0.147353  0.300546  0.696169  1
  N  N61  1  0.327884  0.149902  0.000541  1
  N  N62  1  0.155121  0.153758  0.155600  1
  N  N63  1  0.995852  0.553403  0.302343  1
  N  N64  1  0.688903  0.157206  0.999996  1
  N  N65  1  0.850199  0.000362  0.327381  1
  N  N66  1  0.522704  0.327246  0.672563  1
  N  N67  1  0.999981  0.697350  0.448096  1
  N  N68  1  0.842975  0.000290  0.688486  1
  N  N69  1  0.152723  0.690744  0.308127  1
  N  N70  1  0.695685  0.304315  0.145356  1
  N  N71  1  0.551485  0.448515  0.854876  1
  N  N72  1  0.150837  0.520245  0.152224  1
  N  N73  1  0.002159  0.674224  0.855920  1
  N  N74  1  0.305741  0.548605  0.001416  1
  N  N75  1  0.149824  0.850176  0.476647  1
  N  N76  1  0.673013  0.326987  0.523451  1
  N  N77  1  0.312593  0.687407  0.154584  1
  N  N78  1  0.157945  0.842055  0.847857  1
  O  O79  1  0.811003  0.188997  0.421282  1
  O  O80  1  0.390323  0.609677  0.576199  1
  O  O81  1  0.814119  0.576677  0.814025  1
  O  O82  1  0.750133  0.498053  0.251130  1
  O  O83  1  0.506108  0.734598  0.754958  1
  O  O84  1  0.183268  0.000725  0.608904  1
  O  O85  1  0.577455  0.608171  0.389926  1
  O  O86  1  0.610537  0.811649  0.000580  1
  O  O87  1  0.998324  0.390653  0.187238  1
  O  O88  1  0.240636  0.266066  0.487841  1
  O  O89  1  0.733934  0.759364  0.487841  1
  O  O90  1  0.609347  0.001676  0.187238  1
  O  O91  1  0.423323  0.185881  0.814025  1
  O  O92  1  0.391829  0.422545  0.389926  1
  O  O93  1  0.188351  0.389462  0.000580  1
  O  O94  1  0.501947  0.249867  0.251130  1
  O  O95  1  0.265402  0.493892  0.754958  1
  O  O96  1  0.999275  0.816732  0.608904  1
