# generated using pymatgen
data_La4Cu3MoO12
_symmetry_space_group_name_H-M   'P 1'
_cell_length_a   6.93994611
_cell_length_b   10.94717902
_cell_length_c   7.99152652
_cell_angle_alpha   90.00000000
_cell_angle_beta   90.07922351
_cell_angle_gamma   90.00000000
_symmetry_Int_Tables_number   1
_chemical_formula_structural   La4Cu3MoO12
_chemical_formula_sum   'La8 Cu6 Mo2 O24'
_cell_volume   607.13832477
_cell_formula_units_Z   2
loop_
 _symmetry_equiv_pos_site_id
 _symmetry_equiv_pos_as_xyz
  1  'x, y, z'
loop_
 _atom_site_type_symbol
 _atom_site_label
 _atom_site_symmetry_multiplicity
 _atom_site_fract_x
 _atom_site_fract_y
 _atom_site_fract_z
 _atom_site_occupancy
  La  La0  1  0.762450  0.498439  0.369945  1
  La  La1  1  0.248779  0.997859  0.120487  1
  La  La2  1  0.762450  0.001561  0.369945  1
  La  La3  1  0.237550  0.998439  0.630055  1
  La  La4  1  0.751221  0.002141  0.879513  1
  La  La5  1  0.751221  0.497859  0.879513  1
  La  La6  1  0.237550  0.501561  0.630055  1
  La  La7  1  0.248779  0.502141  0.120487  1
  Cu  Cu8  1  0.109805  0.250000  0.909229  1
  Cu  Cu9  1  0.884403  0.750000  0.656724  1
  Cu  Cu10  1  0.115597  0.250000  0.343276  1
  Cu  Cu11  1  0.544077  0.250000  0.126684  1
  Cu  Cu12  1  0.455923  0.750000  0.873316  1
  Cu  Cu13  1  0.890195  0.750000  0.090771  1
  Mo  Mo14  1  0.579196  0.250000  0.622428  1
  Mo  Mo15  1  0.420804  0.750000  0.377572  1
  O  O16  1  0.715425  0.250000  0.423821  1
  O  O17  1  0.580151  0.073621  0.623485  1
  O  O18  1  0.415694  0.584439  0.874467  1
  O  O19  1  0.916043  0.917577  0.628241  1
  O  O20  1  0.085026  0.416550  0.877547  1
  O  O21  1  0.083957  0.417577  0.371759  1
  O  O22  1  0.584306  0.084439  0.125533  1
  O  O23  1  0.688216  0.750000  0.380258  1
  O  O24  1  0.284575  0.750000  0.576179  1
  O  O25  1  0.914974  0.916550  0.122453  1
  O  O26  1  0.311784  0.250000  0.619742  1
  O  O27  1  0.914974  0.583450  0.122453  1
  O  O28  1  0.419849  0.926379  0.376515  1
  O  O29  1  0.289868  0.750000  0.175933  1
  O  O30  1  0.085026  0.083450  0.877547  1
  O  O31  1  0.262616  0.250000  0.124993  1
  O  O32  1  0.083957  0.082423  0.371759  1
  O  O33  1  0.580151  0.426379  0.623485  1
  O  O34  1  0.419849  0.573621  0.376515  1
  O  O35  1  0.584306  0.415561  0.125533  1
  O  O36  1  0.916043  0.582423  0.628241  1
  O  O37  1  0.415694  0.915561  0.874467  1
  O  O38  1  0.710132  0.250000  0.824067  1
  O  O39  1  0.737384  0.750000  0.875007  1
