# generated using pymatgen
data_K2CuP2O7
_symmetry_space_group_name_H-M   'P 1'
_cell_length_a   5.30928913
_cell_length_b   9.81976320
_cell_length_c   14.65153464
_cell_angle_alpha   90.00000000
_cell_angle_beta   90.00000000
_cell_angle_gamma   90.00000000
_symmetry_Int_Tables_number   1
_chemical_formula_structural   K2CuP2O7
_chemical_formula_sum   'K8 Cu4 P8 O28'
_cell_volume   763.87185348
_cell_formula_units_Z   4
loop_
 _symmetry_equiv_pos_site_id
 _symmetry_equiv_pos_as_xyz
  1  'x, y, z'
loop_
 _atom_site_type_symbol
 _atom_site_label
 _atom_site_symmetry_multiplicity
 _atom_site_fract_x
 _atom_site_fract_y
 _atom_site_fract_z
 _atom_site_occupancy
  K  K0  1  0.750000  0.873834  0.802603  1
  K  K1  1  0.250000  0.126166  0.197397  1
  K  K2  1  0.750000  0.128244  0.589386  1
  K  K3  1  0.750000  0.371756  0.089386  1
  K  K4  1  0.750000  0.626166  0.302603  1
  K  K5  1  0.250000  0.373834  0.697397  1
  K  K6  1  0.250000  0.871756  0.410614  1
  K  K7  1  0.250000  0.628244  0.910614  1
  Cu  Cu8  1  0.250000  0.747111  0.668812  1
  Cu  Cu9  1  0.250000  0.752889  0.168812  1
  Cu  Cu10  1  0.750000  0.252889  0.331188  1
  Cu  Cu11  1  0.750000  0.247111  0.831188  1
  P  P12  1  0.250000  0.227314  0.445422  1
  P  P13  1  0.250000  0.272686  0.945422  1
  P  P14  1  0.750000  0.571476  0.694329  1
  P  P15  1  0.250000  0.071476  0.805671  1
  P  P16  1  0.750000  0.727314  0.054578  1
  P  P17  1  0.750000  0.772686  0.554578  1
  P  P18  1  0.250000  0.428524  0.305671  1
  P  P19  1  0.750000  0.928524  0.194329  1
  O  O20  1  0.750000  0.082416  0.198598  1
  O  O21  1  0.250000  0.225009  0.548152  1
  O  O22  1  0.511481  0.660600  0.096756  1
  O  O23  1  0.250000  0.387967  0.414114  1
  O  O24  1  0.250000  0.582416  0.301402  1
  O  O25  1  0.991889  0.636432  0.735019  1
  O  O26  1  0.508111  0.636432  0.735019  1
  O  O27  1  0.008111  0.136432  0.764981  1
  O  O28  1  0.988519  0.839400  0.596756  1
  O  O29  1  0.250000  0.274991  0.048152  1
  O  O30  1  0.508111  0.863568  0.235019  1
  O  O31  1  0.750000  0.417584  0.698598  1
  O  O32  1  0.991889  0.863568  0.235019  1
  O  O33  1  0.511481  0.839400  0.596756  1
  O  O34  1  0.750000  0.725009  0.951848  1
  O  O35  1  0.488519  0.339400  0.903244  1
  O  O36  1  0.750000  0.774991  0.451848  1
  O  O37  1  0.250000  0.917584  0.801402  1
  O  O38  1  0.250000  0.112033  0.914114  1
  O  O39  1  0.011481  0.339400  0.903244  1
  O  O40  1  0.988519  0.660600  0.096756  1
  O  O41  1  0.750000  0.887967  0.085886  1
  O  O42  1  0.008111  0.363568  0.264981  1
  O  O43  1  0.488519  0.160600  0.403244  1
  O  O44  1  0.491889  0.136432  0.764981  1
  O  O45  1  0.011481  0.160600  0.403244  1
  O  O46  1  0.491889  0.363568  0.264981  1
  O  O47  1  0.750000  0.612033  0.585886  1
