# generated using pymatgen
data_CoBH18Br2(N3F2)2
_symmetry_space_group_name_H-M   'P 1'
_cell_length_a   12.43968024
_cell_length_b   7.68383415
_cell_length_c   13.97418608
_cell_angle_alpha   90.00000000
_cell_angle_beta   109.49640497
_cell_angle_gamma   90.00000000
_symmetry_Int_Tables_number   1
_chemical_formula_structural   CoBH18Br2(N3F2)2
_chemical_formula_sum   'Co4 B4 H72 Br8 N24 F16'
_cell_volume   1259.12811611
_cell_formula_units_Z   4
loop_
 _symmetry_equiv_pos_site_id
 _symmetry_equiv_pos_as_xyz
  1  'x, y, z'
loop_
 _atom_site_type_symbol
 _atom_site_label
 _atom_site_symmetry_multiplicity
 _atom_site_fract_x
 _atom_site_fract_y
 _atom_site_fract_z
 _atom_site_occupancy
  Co  Co0  1  0.000000  0.000000  0.000000  1
  Co  Co1  1  0.500000  0.000000  0.500000  1
  Co  Co2  1  0.500000  0.500000  0.000000  1
  Co  Co3  1  0.000000  0.500000  0.500000  1
  B  B4  1  0.226513  0.956906  0.695400  1
  B  B5  1  0.726513  0.543094  0.695400  1
  B  B6  1  0.273487  0.456906  0.304600  1
  B  B7  1  0.773487  0.043094  0.304600  1
  H  H8  1  0.842652  0.624116  0.344495  1
  H  H9  1  0.105076  0.151439  0.166977  1
  H  H10  1  0.025617  0.779133  0.603306  1
  H  H11  1  0.816117  0.154412  0.905128  1
  H  H12  1  0.680415  0.470091  0.952430  1
  H  H13  1  0.714225  0.930672  0.563034  1
  H  H14  1  0.431671  0.573858  0.150086  1
  H  H15  1  0.337957  0.085778  0.562262  1
  H  H16  1  0.319585  0.529909  0.047570  1
  H  H17  1  0.419764  0.797401  0.925591  1
  H  H18  1  0.313752  0.656186  0.904818  1
  H  H19  1  0.588123  0.302892  0.497920  1
  H  H20  1  0.467776  0.799756  0.345798  1
  H  H21  1  0.532224  0.200244  0.654202  1
  H  H22  1  0.894924  0.848561  0.833023  1
  H  H23  1  0.087555  0.695711  0.045505  1
  H  H24  1  0.967776  0.700244  0.345798  1
  H  H25  1  0.568329  0.426142  0.849914  1
  H  H26  1  0.359041  0.244770  0.493162  1
  H  H27  1  0.974383  0.220867  0.396694  1
  H  H28  1  0.407917  0.298564  0.847611  1
  H  H29  1  0.186248  0.156186  0.095182  1
  H  H30  1  0.405945  0.811323  0.600459  1
  H  H31  1  0.088123  0.197108  0.497920  1
  H  H32  1  0.214225  0.569328  0.563034  1
  H  H33  1  0.683883  0.654412  0.094872  1
  H  H34  1  0.398608  0.371398  0.113468  1
  H  H35  1  0.601392  0.628602  0.886532  1
  H  H36  1  0.394924  0.651439  0.833023  1
  H  H37  1  0.785775  0.430672  0.436966  1
  H  H38  1  0.573712  0.004056  0.697187  1
  H  H39  1  0.640959  0.755230  0.506838  1
  H  H40  1  0.912445  0.304289  0.954495  1
  H  H41  1  0.092083  0.798564  0.152389  1
  H  H42  1  0.926288  0.504056  0.302813  1
  H  H43  1  0.342652  0.875884  0.344495  1
  H  H44  1  0.412445  0.195711  0.954495  1
  H  H45  1  0.426288  0.995944  0.302813  1
  H  H46  1  0.919764  0.702599  0.925591  1
  H  H47  1  0.073712  0.495944  0.697187  1
  H  H48  1  0.931671  0.926142  0.150086  1
  H  H49  1  0.837957  0.414222  0.562262  1
  H  H50  1  0.180415  0.029909  0.952430  1
  H  H51  1  0.140959  0.744770  0.506838  1
  H  H52  1  0.525617  0.720867  0.603306  1
  H  H53  1  0.101392  0.871398  0.886532  1
  H  H54  1  0.592083  0.701436  0.152389  1
  H  H55  1  0.183883  0.845588  0.094872  1
  H  H56  1  0.474383  0.279133  0.396694  1
  H  H57  1  0.686248  0.343814  0.095182  1
  H  H58  1  0.911877  0.802892  0.502080  1
  H  H59  1  0.032224  0.299756  0.654202  1
  H  H60  1  0.605076  0.348561  0.166977  1
  H  H61  1  0.285775  0.069328  0.436966  1
  H  H62  1  0.594055  0.188677  0.399541  1
  H  H63  1  0.411877  0.697108  0.502080  1
  H  H64  1  0.813752  0.843814  0.904818  1
  H  H65  1  0.662043  0.914222  0.437738  1
  H  H66  1  0.316117  0.345588  0.905128  1
  H  H67  1  0.657348  0.124116  0.655505  1
  H  H68  1  0.859041  0.255230  0.493162  1
  H  H69  1  0.157348  0.375884  0.655505  1
  H  H70  1  0.094055  0.311323  0.399541  1
  H  H71  1  0.905945  0.688677  0.600459  1
  H  H72  1  0.580236  0.202599  0.074409  1
  H  H73  1  0.819585  0.970091  0.047570  1
  H  H74  1  0.898608  0.128602  0.113468  1
  H  H75  1  0.080236  0.297401  0.074409  1
  H  H76  1  0.162043  0.585778  0.437738  1
  H  H77  1  0.068329  0.073858  0.849914  1
  H  H78  1  0.587555  0.804289  0.045505  1
  H  H79  1  0.907917  0.201436  0.847611  1
  Br  Br80  1  0.129746  0.509280  0.911370  1
  Br  Br81  1  0.117774  0.927781  0.323144  1
  Br  Br82  1  0.370254  0.009280  0.088630  1
  Br  Br83  1  0.617774  0.572219  0.323144  1
  Br  Br84  1  0.882226  0.072219  0.676856  1
  Br  Br85  1  0.870254  0.490720  0.088630  1
  Br  Br86  1  0.382226  0.427781  0.676856  1
  Br  Br87  1  0.629746  0.990720  0.911370  1
  N  N88  1  0.597087  0.504518  0.912867  1
  N  N89  1  0.599473  0.685343  0.081584  1
  N  N90  1  0.044398  0.285615  0.443754  1
  N  N91  1  0.926898  0.590623  0.359187  1
  N  N92  1  0.855481  0.388446  0.496905  1
  N  N93  1  0.573102  0.090623  0.640813  1
  N  N94  1  0.896913  0.829612  0.906571  1
  N  N95  1  0.099473  0.814657  0.081584  1
  N  N96  1  0.644519  0.888446  0.503095  1
  N  N97  1  0.402913  0.495482  0.087133  1
  N  N98  1  0.902913  0.004518  0.087133  1
  N  N99  1  0.103087  0.170388  0.093429  1
  N  N100  1  0.900527  0.185343  0.918416  1
  N  N101  1  0.073102  0.409377  0.640813  1
  N  N102  1  0.603087  0.329612  0.093429  1
  N  N103  1  0.400527  0.314657  0.918416  1
  N  N104  1  0.455602  0.785615  0.556246  1
  N  N105  1  0.426898  0.909377  0.359187  1
  N  N106  1  0.955602  0.714385  0.556246  1
  N  N107  1  0.396913  0.670388  0.906571  1
  N  N108  1  0.544398  0.214385  0.443754  1
  N  N109  1  0.144519  0.611554  0.503095  1
  N  N110  1  0.355481  0.111554  0.496905  1
  N  N111  1  0.097087  0.995482  0.912867  1
  F  F112  1  0.181497  0.797848  0.717147  1
  F  F113  1  0.839365  0.570790  0.694118  1
  F  F114  1  0.157362  0.010561  0.595062  1
  F  F115  1  0.725646  0.415719  0.766520  1
  F  F116  1  0.342638  0.510561  0.404938  1
  F  F117  1  0.274354  0.584281  0.233480  1
  F  F118  1  0.774354  0.915719  0.233480  1
  F  F119  1  0.818503  0.202152  0.282853  1
  F  F120  1  0.225646  0.084281  0.766520  1
  F  F121  1  0.681497  0.702152  0.717147  1
  F  F122  1  0.160635  0.429210  0.305882  1
  F  F123  1  0.657362  0.489439  0.595062  1
  F  F124  1  0.660635  0.070790  0.305882  1
  F  F125  1  0.318503  0.297848  0.282853  1
  F  F126  1  0.842638  0.989439  0.404938  1
  F  F127  1  0.339365  0.929210  0.694118  1
