# generated using pymatgen
data_Pr8(BCl)7
_symmetry_space_group_name_H-M   'P 1'
_cell_length_a   7.79377815
_cell_length_b   9.22605225
_cell_length_c   14.39302381
_cell_angle_alpha   91.55600307
_cell_angle_beta   97.81396899
_cell_angle_gamma   114.97643135
_symmetry_Int_Tables_number   1
_chemical_formula_structural   Pr8(BCl)7
_chemical_formula_sum   'Pr16 B14 Cl14'
_cell_volume   925.31535006
_cell_formula_units_Z   2
loop_
 _symmetry_equiv_pos_site_id
 _symmetry_equiv_pos_as_xyz
  1  'x, y, z'
loop_
 _atom_site_type_symbol
 _atom_site_label
 _atom_site_symmetry_multiplicity
 _atom_site_fract_x
 _atom_site_fract_y
 _atom_site_fract_z
 _atom_site_occupancy
  Pr  Pr0  1  0.956611  0.838848  0.199542  1
  Pr  Pr1  1  0.482350  0.838899  0.199547  1
  Pr  Pr2  1  0.787913  0.283709  0.584423  1
  Pr  Pr3  1  0.720654  0.728475  0.424042  1
  Pr  Pr4  1  0.239033  0.579642  0.746029  1
  Pr  Pr5  1  0.601050  0.719135  0.965876  1
  Pr  Pr6  1  0.517650  0.161101  0.800453  1
  Pr  Pr7  1  0.279346  0.271525  0.575958  1
  Pr  Pr8  1  0.760967  0.420358  0.253971  1
  Pr  Pr9  1  0.093614  0.703595  0.967962  1
  Pr  Pr10  1  0.287624  0.420372  0.253574  1
  Pr  Pr11  1  0.043389  0.161152  0.800458  1
  Pr  Pr12  1  0.906386  0.296405  0.032038  1
  Pr  Pr13  1  0.712376  0.579628  0.746426  1
  Pr  Pr14  1  0.398950  0.280865  0.034124  1
  Pr  Pr15  1  0.212087  0.716291  0.415577  1
  B  B16  1  0.254095  0.461574  0.932937  1
  B  B17  1  0.673952  0.461364  0.932999  1
  B  B18  1  0.824872  0.422594  0.874502  1
  B  B19  1  0.175128  0.577406  0.125498  1
  B  B20  1  0.123240  0.630533  0.231276  1
  B  B21  1  0.364586  0.355646  0.748536  1
  B  B22  1  0.745905  0.538426  0.067063  1
  B  B23  1  0.876760  0.369467  0.768724  1
  B  B24  1  0.635414  0.644354  0.251464  1
  B  B25  1  0.572263  0.578302  0.132120  1
  B  B26  1  0.427737  0.421698  0.867880  1
  B  B27  1  0.034939  0.422527  0.874514  1
  B  B28  1  0.326048  0.538636  0.067001  1
  B  B29  1  0.965061  0.577473  0.125486  1
  Cl  Cl30  1  0.362760  0.119835  0.211182  1
  Cl  Cl31  1  0.869523  0.134212  0.208112  1
  Cl  Cl32  1  0.637240  0.880165  0.788818  1
  Cl  Cl33  1  0.088543  0.969824  0.396796  1
  Cl  Cl34  1  0.967005  0.637747  0.570143  1
  Cl  Cl35  1  0.130477  0.865788  0.791888  1
  Cl  Cl36  1  0.032995  0.362253  0.429857  1
  Cl  Cl37  1  0.000000  0.000000  0.000000  1
  Cl  Cl38  1  0.911457  0.030176  0.603204  1
  Cl  Cl39  1  0.453161  0.631443  0.567700  1
  Cl  Cl40  1  0.546839  0.368557  0.432300  1
  Cl  Cl41  1  0.421031  0.031691  0.603663  1
  Cl  Cl42  1  0.500000  0.000000  0.000000  1
  Cl  Cl43  1  0.578969  0.968309  0.396337  1
