# generated using pymatgen
data_Mg2BN2Cl
_symmetry_space_group_name_H-M   'P 1'
_cell_length_a   6.68485372
_cell_length_b   9.83892706
_cell_length_c   10.65497972
_cell_angle_alpha   90.00000000
_cell_angle_beta   90.00000000
_cell_angle_gamma   90.00000000
_symmetry_Int_Tables_number   1
_chemical_formula_structural   Mg2BN2Cl
_chemical_formula_sum   'Mg16 B8 N16 Cl8'
_cell_volume   700.79706897
_cell_formula_units_Z   8
loop_
 _symmetry_equiv_pos_site_id
 _symmetry_equiv_pos_as_xyz
  1  'x, y, z'
loop_
 _atom_site_type_symbol
 _atom_site_label
 _atom_site_symmetry_multiplicity
 _atom_site_fract_x
 _atom_site_fract_y
 _atom_site_fract_z
 _atom_site_occupancy
  Mg  Mg0  1  0.697080  0.951791  0.057748  1
  Mg  Mg1  1  0.941851  0.249167  0.807181  1
  Mg  Mg2  1  0.941851  0.250833  0.307181  1
  Mg  Mg3  1  0.441851  0.249167  0.692819  1
  Mg  Mg4  1  0.441851  0.250833  0.192819  1
  Mg  Mg5  1  0.197080  0.951791  0.442252  1
  Mg  Mg6  1  0.302920  0.451791  0.442252  1
  Mg  Mg7  1  0.558149  0.750833  0.307181  1
  Mg  Mg8  1  0.558149  0.749167  0.807181  1
  Mg  Mg9  1  0.302920  0.048209  0.942252  1
  Mg  Mg10  1  0.697080  0.548209  0.557748  1
  Mg  Mg11  1  0.802920  0.048209  0.557748  1
  Mg  Mg12  1  0.058149  0.749167  0.692819  1
  Mg  Mg13  1  0.058149  0.750833  0.192819  1
  Mg  Mg14  1  0.197080  0.548209  0.942252  1
  Mg  Mg15  1  0.802920  0.451791  0.057748  1
  B  B16  1  0.643408  0.039224  0.801367  1
  B  B17  1  0.643408  0.460776  0.301367  1
  B  B18  1  0.856592  0.960776  0.301367  1
  B  B19  1  0.356592  0.960776  0.198633  1
  B  B20  1  0.356592  0.539224  0.698633  1
  B  B21  1  0.143408  0.460776  0.198633  1
  B  B22  1  0.856592  0.539224  0.801367  1
  B  B23  1  0.143408  0.039224  0.698633  1
  N  N24  1  0.071031  0.943196  0.622389  1
  N  N25  1  0.928969  0.443196  0.877611  1
  N  N26  1  0.294618  0.640650  0.773700  1
  N  N27  1  0.705382  0.359350  0.226300  1
  N  N28  1  0.705382  0.140650  0.726300  1
  N  N29  1  0.571031  0.943196  0.877611  1
  N  N30  1  0.294618  0.859350  0.273700  1
  N  N31  1  0.928969  0.056804  0.377611  1
  N  N32  1  0.205382  0.140650  0.773700  1
  N  N33  1  0.428969  0.056804  0.122389  1
  N  N34  1  0.205382  0.359350  0.273700  1
  N  N35  1  0.794618  0.859350  0.226300  1
  N  N36  1  0.428969  0.443196  0.622389  1
  N  N37  1  0.794618  0.640650  0.726300  1
  N  N38  1  0.571031  0.556804  0.377611  1
  N  N39  1  0.071031  0.556804  0.122389  1
  Cl  Cl40  1  0.435756  0.157794  0.458942  1
  Cl  Cl41  1  0.064244  0.657794  0.458942  1
  Cl  Cl42  1  0.564244  0.657794  0.041058  1
  Cl  Cl43  1  0.435756  0.342206  0.958942  1
  Cl  Cl44  1  0.564244  0.842206  0.541058  1
  Cl  Cl45  1  0.064244  0.842206  0.958942  1
  Cl  Cl46  1  0.935756  0.342206  0.541058  1
  Cl  Cl47  1  0.935756  0.157794  0.041058  1
