# generated using pymatgen
data_Sr4Sn2Se9
_symmetry_space_group_name_H-M   'P 1'
_cell_length_a   8.75344170
_cell_length_b   12.12112569
_cell_length_c   16.36044042
_cell_angle_alpha   90.00000000
_cell_angle_beta   90.00000000
_cell_angle_gamma   90.00000000
_symmetry_Int_Tables_number   1
_chemical_formula_structural   Sr4Sn2Se9
_chemical_formula_sum   'Sr16 Sn8 Se36'
_cell_volume   1735.86836645
_cell_formula_units_Z   4
loop_
 _symmetry_equiv_pos_site_id
 _symmetry_equiv_pos_as_xyz
  1  'x, y, z'
loop_
 _atom_site_type_symbol
 _atom_site_label
 _atom_site_symmetry_multiplicity
 _atom_site_fract_x
 _atom_site_fract_y
 _atom_site_fract_z
 _atom_site_occupancy
  Sr  Sr0  1  0.747082  0.112284  0.673703  1
  Sr  Sr1  1  0.248929  0.254144  0.927709  1
  Sr  Sr2  1  0.747082  0.612284  0.826297  1
  Sr  Sr3  1  0.252918  0.112284  0.673703  1
  Sr  Sr4  1  0.252918  0.887716  0.326297  1
  Sr  Sr5  1  0.252918  0.612284  0.826297  1
  Sr  Sr6  1  0.248929  0.754144  0.572291  1
  Sr  Sr7  1  0.751071  0.254144  0.927709  1
  Sr  Sr8  1  0.747082  0.387716  0.173703  1
  Sr  Sr9  1  0.252918  0.387716  0.173703  1
  Sr  Sr10  1  0.248929  0.245856  0.427709  1
  Sr  Sr11  1  0.751071  0.754144  0.572291  1
  Sr  Sr12  1  0.751071  0.245856  0.427709  1
  Sr  Sr13  1  0.751071  0.745856  0.072291  1
  Sr  Sr14  1  0.248929  0.745856  0.072291  1
  Sr  Sr15  1  0.747082  0.887716  0.326297  1
  Sn  Sn16  1  0.500000  0.910035  0.821535  1
  Sn  Sn17  1  0.500000  0.089965  0.178465  1
  Sn  Sn18  1  0.500000  0.589965  0.321535  1
  Sn  Sn19  1  0.500000  0.410035  0.678465  1
  Sn  Sn20  1  0.000000  0.950769  0.895638  1
  Sn  Sn21  1  0.000000  0.450769  0.604362  1
  Sn  Sn22  1  0.000000  0.549231  0.395638  1
  Sn  Sn23  1  0.000000  0.049231  0.104362  1
  Se  Se24  1  0.500000  0.742007  0.430878  1
  Se  Se25  1  0.500000  0.757993  0.930878  1
  Se  Se26  1  0.756681  0.130434  0.249460  1
  Se  Se27  1  0.243319  0.130434  0.249460  1
  Se  Se28  1  0.000000  0.133811  0.813926  1
  Se  Se29  1  0.226118  0.000000  0.000000  1
  Se  Se30  1  0.226118  0.500000  0.500000  1
  Se  Se31  1  0.773882  0.000000  0.000000  1
  Se  Se32  1  0.000000  0.463595  0.929854  1
  Se  Se33  1  0.773882  0.500000  0.500000  1
  Se  Se34  1  0.000000  0.242432  0.573869  1
  Se  Se35  1  0.000000  0.366189  0.313926  1
  Se  Se36  1  0.000000  0.536405  0.070146  1
  Se  Se37  1  0.500000  0.540787  0.068664  1
  Se  Se38  1  0.000000  0.257568  0.073869  1
  Se  Se39  1  0.500000  0.623422  0.679724  1
  Se  Se40  1  0.243319  0.869566  0.750540  1
  Se  Se41  1  0.000000  0.866189  0.186074  1
  Se  Se42  1  0.500000  0.123422  0.820276  1
  Se  Se43  1  0.243319  0.369566  0.749460  1
  Se  Se44  1  0.756681  0.630434  0.250540  1
  Se  Se45  1  0.500000  0.257993  0.569122  1
  Se  Se46  1  0.000000  0.742432  0.926131  1
  Se  Se47  1  0.500000  0.959213  0.568664  1
  Se  Se48  1  0.500000  0.242007  0.069122  1
  Se  Se49  1  0.500000  0.876578  0.179724  1
  Se  Se50  1  0.756681  0.869566  0.750540  1
  Se  Se51  1  0.500000  0.040787  0.431336  1
  Se  Se52  1  0.500000  0.459213  0.931336  1
  Se  Se53  1  0.756681  0.369566  0.749460  1
  Se  Se54  1  0.000000  0.757568  0.426131  1
  Se  Se55  1  0.500000  0.376578  0.320276  1
  Se  Se56  1  0.000000  0.036405  0.429854  1
  Se  Se57  1  0.000000  0.633811  0.686074  1
  Se  Se58  1  0.000000  0.963595  0.570146  1
  Se  Se59  1  0.243319  0.630434  0.250540  1
