# generated using pymatgen
data_Na3ErV2O8
_symmetry_space_group_name_H-M   'P 1'
_cell_length_a   5.57486928
_cell_length_b   9.84849085
_cell_length_c   8.92308770
_cell_angle_alpha   90.00000000
_cell_angle_beta   125.39676336
_cell_angle_gamma   90.00000000
_symmetry_Int_Tables_number   1
_chemical_formula_structural   Na3ErV2O8
_chemical_formula_sum   'Na6 Er2 V4 O16'
_cell_volume   399.35826078
_cell_formula_units_Z   2
loop_
 _symmetry_equiv_pos_site_id
 _symmetry_equiv_pos_as_xyz
  1  'x, y, z'
loop_
 _atom_site_type_symbol
 _atom_site_label
 _atom_site_symmetry_multiplicity
 _atom_site_fract_x
 _atom_site_fract_y
 _atom_site_fract_z
 _atom_site_occupancy
  Na  Na0  1  0.301520  0.142909  0.291885  1
  Na  Na1  1  0.000000  0.500000  0.000000  1
  Na  Na2  1  0.698480  0.642909  0.208115  1
  Na  Na3  1  0.698480  0.857091  0.708115  1
  Na  Na4  1  0.301520  0.357091  0.791885  1
  Na  Na5  1  0.000000  0.000000  0.500000  1
  Er  Er6  1  0.500000  0.000000  0.000000  1
  Er  Er7  1  0.500000  0.500000  0.500000  1
  V  V8  1  0.205862  0.682268  0.723007  1
  V  V9  1  0.794138  0.182268  0.776993  1
  V  V10  1  0.794138  0.317732  0.276993  1
  V  V11  1  0.205862  0.817732  0.223007  1
  O  O12  1  0.860011  0.630885  0.531832  1
  O  O13  1  0.139989  0.369115  0.468168  1
  O  O14  1  0.731868  0.401739  0.091846  1
  O  O15  1  0.139989  0.130885  0.968168  1
  O  O16  1  0.485133  0.863641  0.195991  1
  O  O17  1  0.198652  0.641066  0.259425  1
  O  O18  1  0.860011  0.869115  0.031832  1
  O  O19  1  0.268132  0.901739  0.408154  1
  O  O20  1  0.268132  0.598261  0.908154  1
  O  O21  1  0.801348  0.141066  0.240575  1
  O  O22  1  0.731868  0.098261  0.591846  1
  O  O23  1  0.485133  0.636359  0.695991  1
  O  O24  1  0.514867  0.136359  0.804009  1
  O  O25  1  0.514867  0.363641  0.304009  1
  O  O26  1  0.801348  0.358934  0.740575  1
  O  O27  1  0.198652  0.858934  0.759425  1
