# generated using pymatgen
data_Rb2SbCl3F2
_symmetry_space_group_name_H-M   'P 1'
_cell_length_a   7.63721311
_cell_length_b   7.64394369
_cell_length_c   13.40636799
_cell_angle_alpha   84.55632702
_cell_angle_beta   78.91016932
_cell_angle_gamma   60.68956691
_symmetry_Int_Tables_number   1
_chemical_formula_structural   Rb2SbCl3F2
_chemical_formula_sum   'Rb6 Sb3 Cl9 F6'
_cell_volume   669.70515429
_cell_formula_units_Z   3
loop_
 _symmetry_equiv_pos_site_id
 _symmetry_equiv_pos_as_xyz
  1  'x, y, z'
loop_
 _atom_site_type_symbol
 _atom_site_label
 _atom_site_symmetry_multiplicity
 _atom_site_fract_x
 _atom_site_fract_y
 _atom_site_fract_z
 _atom_site_occupancy
  Rb  Rb0  1  0.305693  0.331652  0.089492  1
  Rb  Rb1  1  0.435223  0.337480  0.693003  1
  Rb  Rb2  1  0.101057  0.000134  0.683292  1
  Rb  Rb3  1  0.694307  0.668348  0.910508  1
  Rb  Rb4  1  0.564777  0.662520  0.306997  1
  Rb  Rb5  1  0.898943  0.999866  0.316708  1
  Sb  Sb6  1  0.200397  0.334789  0.398045  1
  Sb  Sb7  1  0.799603  0.665211  0.601955  1
  Sb  Sb8  1  0.000000  0.000000  0.000000  1
  Cl  Cl9  1  0.284715  0.785749  0.116458  1
  Cl  Cl10  1  0.185844  0.682015  0.498310  1
  Cl  Cl11  1  0.814156  0.317985  0.501690  1
  Cl  Cl12  1  0.854293  0.324837  0.115745  1
  Cl  Cl13  1  0.258398  0.105803  0.882436  1
  Cl  Cl14  1  0.715285  0.214251  0.883542  1
  Cl  Cl15  1  0.500000  0.000000  0.500000  1
  Cl  Cl16  1  0.741602  0.894197  0.117564  1
  Cl  Cl17  1  0.145707  0.675163  0.884255  1
  F  F18  1  0.562914  0.662780  0.695078  1
  F  F19  1  0.769217  0.873745  0.693333  1
  F  F20  1  0.017480  0.544651  0.308519  1
  F  F21  1  0.982520  0.455349  0.691481  1
  F  F22  1  0.230783  0.126255  0.306667  1
  F  F23  1  0.437086  0.337220  0.304922  1
