# generated using pymatgen
data_Sb2IBr2F11
_symmetry_space_group_name_H-M   'P 1'
_cell_length_a   12.86802135
_cell_length_b   14.46686661
_cell_length_c   14.77406872
_cell_angle_alpha   90.00000000
_cell_angle_beta   90.00000000
_cell_angle_gamma   90.00000000
_symmetry_Int_Tables_number   1
_chemical_formula_structural   Sb2IBr2F11
_chemical_formula_sum   'Sb16 I8 Br16 F88'
_cell_volume   2750.33987065
_cell_formula_units_Z   8
loop_
 _symmetry_equiv_pos_site_id
 _symmetry_equiv_pos_as_xyz
  1  'x, y, z'
loop_
 _atom_site_type_symbol
 _atom_site_label
 _atom_site_symmetry_multiplicity
 _atom_site_fract_x
 _atom_site_fract_y
 _atom_site_fract_z
 _atom_site_occupancy
  Sb  Sb0  1  0.712007  0.084764  0.164960  1
  Sb  Sb1  1  0.174806  0.085450  0.551220  1
  Sb  Sb2  1  0.212007  0.915236  0.335040  1
  Sb  Sb3  1  0.325194  0.085450  0.051220  1
  Sb  Sb4  1  0.674806  0.414550  0.551220  1
  Sb  Sb5  1  0.712007  0.584764  0.335040  1
  Sb  Sb6  1  0.174806  0.585450  0.948780  1
  Sb  Sb7  1  0.787993  0.084764  0.664960  1
  Sb  Sb8  1  0.674806  0.914550  0.948780  1
  Sb  Sb9  1  0.287993  0.915236  0.835040  1
  Sb  Sb10  1  0.825194  0.914550  0.448780  1
  Sb  Sb11  1  0.287993  0.415236  0.664960  1
  Sb  Sb12  1  0.212007  0.415236  0.164960  1
  Sb  Sb13  1  0.825194  0.414550  0.051220  1
  Sb  Sb14  1  0.325194  0.585450  0.448780  1
  Sb  Sb15  1  0.787993  0.584764  0.835040  1
  I  I16  1  0.597901  0.761716  0.639260  1
  I  I17  1  0.402099  0.238284  0.360740  1
  I  I18  1  0.597901  0.261716  0.860740  1
  I  I19  1  0.402099  0.738284  0.139260  1
  I  I20  1  0.097901  0.738284  0.639260  1
  I  I21  1  0.902099  0.261716  0.360740  1
  I  I22  1  0.902099  0.761716  0.139260  1
  I  I23  1  0.097901  0.238284  0.860740  1
  Br  Br24  1  0.469160  0.179721  0.767002  1
  Br  Br25  1  0.530840  0.820279  0.232998  1
  Br  Br26  1  0.982422  0.640303  0.547197  1
  Br  Br27  1  0.530840  0.320279  0.267002  1
  Br  Br28  1  0.017578  0.859697  0.047197  1
  Br  Br29  1  0.030840  0.179721  0.267002  1
  Br  Br30  1  0.017578  0.359697  0.452803  1
  Br  Br31  1  0.517578  0.640303  0.047197  1
  Br  Br32  1  0.469160  0.679721  0.732998  1
  Br  Br33  1  0.969160  0.820279  0.732998  1
  Br  Br34  1  0.030840  0.679721  0.232998  1
  Br  Br35  1  0.482422  0.359697  0.952803  1
  Br  Br36  1  0.482422  0.859697  0.547197  1
  Br  Br37  1  0.517578  0.140303  0.452803  1
  Br  Br38  1  0.969160  0.320279  0.767002  1
  Br  Br39  1  0.982422  0.140303  0.952803  1
  F  F40  1  0.310921  0.038470  0.571307  1
  F  F41  1  0.924349  0.574535  0.787256  1
  F  F42  1  0.845644  0.587503  0.390778  1
  F  F43  1  0.689079  0.961530  0.428693  1
  F  F44  1  0.329684  0.311677  0.595181  1
  F  F45  1  0.810921  0.961530  0.928693  1
  F  F46  1  0.958128  0.875075  0.488441  1
  F  F47  1  0.170316  0.311677  0.095181  1
  F  F48  1  0.741880  0.657525  0.733465  1
  F  F49  1  0.758120  0.657525  0.233465  1
  F  F50  1  0.821013  0.328281  0.147541  1
  F  F51  1  0.883205  0.012557  0.380395  1
  F  F52  1  0.458128  0.624925  0.488441  1
  F  F53  1  0.654356  0.087503  0.609222  1
  F  F54  1  0.735472  0.831856  0.037197  1
  F  F55  1  0.258120  0.342475  0.266535  1
  F  F56  1  0.253621  0.531164  0.717508  1
  F  F57  1  0.041872  0.624925  0.988441  1
  F  F58  1  0.345644  0.412497  0.109222  1
  F  F59  1  0.246379  0.031164  0.282492  1
  F  F60  1  0.753621  0.968836  0.717508  1
  F  F61  1  0.253621  0.031164  0.782492  1
  F  F62  1  0.670316  0.188323  0.095181  1
  F  F63  1  0.424349  0.425465  0.712744  1
  F  F64  1  0.741880  0.157525  0.766535  1
  F  F65  1  0.235472  0.668144  0.037197  1
  F  F66  1  0.575651  0.574535  0.287256  1
  F  F67  1  0.753621  0.468836  0.782492  1
  F  F68  1  0.616795  0.512557  0.619605  1
  F  F69  1  0.654356  0.587503  0.890778  1
  F  F70  1  0.746379  0.968836  0.217508  1
  F  F71  1  0.189079  0.038470  0.071307  1
  F  F72  1  0.241880  0.842475  0.733465  1
  F  F73  1  0.829684  0.688323  0.904819  1
  F  F74  1  0.758120  0.157525  0.266535  1
  F  F75  1  0.383205  0.487443  0.380395  1
  F  F76  1  0.178987  0.671719  0.852459  1
  F  F77  1  0.821013  0.828281  0.352459  1
  F  F78  1  0.163100  0.492340  0.055613  1
  F  F79  1  0.810921  0.461530  0.571307  1
  F  F80  1  0.041872  0.124925  0.511559  1
  F  F81  1  0.163100  0.992340  0.444387  1
  F  F82  1  0.235472  0.168144  0.462803  1
  F  F83  1  0.735472  0.331856  0.462803  1
  F  F84  1  0.829684  0.188323  0.595181  1
  F  F85  1  0.329684  0.811677  0.904819  1
  F  F86  1  0.264528  0.668144  0.537197  1
  F  F87  1  0.189079  0.538470  0.428693  1
  F  F88  1  0.170316  0.811677  0.404819  1
  F  F89  1  0.836900  0.507660  0.944387  1
  F  F90  1  0.616795  0.012557  0.880395  1
  F  F91  1  0.241880  0.342475  0.766535  1
  F  F92  1  0.178987  0.171719  0.647541  1
  F  F93  1  0.424349  0.925465  0.787256  1
  F  F94  1  0.836900  0.007660  0.555613  1
  F  F95  1  0.336900  0.492340  0.555613  1
  F  F96  1  0.075651  0.425465  0.212744  1
  F  F97  1  0.264528  0.168144  0.962803  1
  F  F98  1  0.670316  0.688323  0.404819  1
  F  F99  1  0.689079  0.461530  0.071307  1
  F  F100  1  0.663100  0.507660  0.444387  1
  F  F101  1  0.845644  0.087503  0.109222  1
  F  F102  1  0.321013  0.171719  0.147541  1
  F  F103  1  0.154356  0.412497  0.609222  1
  F  F104  1  0.321013  0.671719  0.352459  1
  F  F105  1  0.924349  0.074535  0.712744  1
  F  F106  1  0.764528  0.331856  0.962803  1
  F  F107  1  0.958128  0.375075  0.011559  1
  F  F108  1  0.764528  0.831856  0.537197  1
  F  F109  1  0.246379  0.531164  0.217508  1
  F  F110  1  0.575651  0.074535  0.212744  1
  F  F111  1  0.458128  0.124925  0.011559  1
  F  F112  1  0.336900  0.992340  0.944387  1
  F  F113  1  0.383205  0.987443  0.119605  1
  F  F114  1  0.345644  0.912497  0.390778  1
  F  F115  1  0.310921  0.538470  0.928693  1
  F  F116  1  0.678987  0.328281  0.647541  1
  F  F117  1  0.541872  0.875075  0.988441  1
  F  F118  1  0.746379  0.468836  0.282492  1
  F  F119  1  0.154356  0.912497  0.890778  1
  F  F120  1  0.116795  0.487443  0.880395  1
  F  F121  1  0.678987  0.828281  0.852459  1
  F  F122  1  0.116795  0.987443  0.619605  1
  F  F123  1  0.075651  0.925465  0.287256  1
  F  F124  1  0.663100  0.007660  0.055613  1
  F  F125  1  0.541872  0.375075  0.511559  1
  F  F126  1  0.258120  0.842475  0.233465  1
  F  F127  1  0.883205  0.512557  0.119605  1
