# generated using pymatgen
data_Cr2P4O13
_symmetry_space_group_name_H-M   'P 1'
_cell_length_a   8.25857099
_cell_length_b   8.95177590
_cell_length_c   13.32377664
_cell_angle_alpha   90.00000000
_cell_angle_beta   105.80020532
_cell_angle_gamma   90.00000000
_symmetry_Int_Tables_number   1
_chemical_formula_structural   Cr2P4O13
_chemical_formula_sum   'Cr8 P16 O52'
_cell_volume   947.79515685
_cell_formula_units_Z   4
loop_
 _symmetry_equiv_pos_site_id
 _symmetry_equiv_pos_as_xyz
  1  'x, y, z'
loop_
 _atom_site_type_symbol
 _atom_site_label
 _atom_site_symmetry_multiplicity
 _atom_site_fract_x
 _atom_site_fract_y
 _atom_site_fract_z
 _atom_site_occupancy
  Cr  Cr0  1  0.438765  0.503828  0.239468  1
  Cr  Cr1  1  0.561235  0.003828  0.260532  1
  Cr  Cr2  1  0.561235  0.496172  0.760532  1
  Cr  Cr3  1  0.438765  0.996172  0.739468  1
  Cr  Cr4  1  0.041177  0.497363  0.222535  1
  Cr  Cr5  1  0.958823  0.997363  0.277465  1
  Cr  Cr6  1  0.958823  0.502637  0.777465  1
  Cr  Cr7  1  0.041177  0.002637  0.722535  1
  P  P8  1  0.785331  0.700332  0.339313  1
  P  P9  1  0.214669  0.200332  0.160687  1
  P  P10  1  0.214669  0.299668  0.660687  1
  P  P11  1  0.785331  0.799668  0.839313  1
  P  P12  1  0.286705  0.777336  0.341906  1
  P  P13  1  0.713295  0.277336  0.158094  1
  P  P14  1  0.713295  0.222664  0.658094  1
  P  P15  1  0.286705  0.722664  0.841906  1
  P  P16  1  0.864385  0.742985  0.569161  1
  P  P17  1  0.135615  0.242985  0.930839  1
  P  P18  1  0.135615  0.257015  0.430839  1
  P  P19  1  0.864385  0.757015  0.069161  1
  P  P20  1  0.498056  0.751856  0.567106  1
  P  P21  1  0.501944  0.251856  0.932894  1
  P  P22  1  0.501944  0.248144  0.432894  1
  P  P23  1  0.498056  0.748144  0.067106  1
  O  O24  1  0.886830  0.622655  0.277112  1
  O  O25  1  0.113170  0.122655  0.222888  1
  O  O26  1  0.113170  0.377345  0.722888  1
  O  O27  1  0.886830  0.877345  0.777112  1
  O  O28  1  0.601486  0.381484  0.195979  1
  O  O29  1  0.398514  0.881484  0.304021  1
  O  O30  1  0.398514  0.618516  0.804021  1
  O  O31  1  0.601486  0.118516  0.695979  1
  O  O32  1  0.979666  0.623361  0.093814  1
  O  O33  1  0.020334  0.123361  0.406186  1
  O  O34  1  0.020334  0.376639  0.906186  1
  O  O35  1  0.979666  0.876639  0.593814  1
  O  O36  1  0.608650  0.641222  0.321395  1
  O  O37  1  0.391350  0.141222  0.178605  1
  O  O38  1  0.391350  0.358778  0.678605  1
  O  O39  1  0.608650  0.858778  0.821395  1
  O  O40  1  0.105176  0.387240  0.357688  1
  O  O41  1  0.894824  0.887240  0.142312  1
  O  O42  1  0.469409  0.390111  0.371529  1
  O  O43  1  0.894824  0.612760  0.642312  1
  O  O44  1  0.874685  0.348194  0.148726  1
  O  O45  1  0.125315  0.848194  0.351274  1
  O  O46  1  0.125315  0.651806  0.851274  1
  O  O47  1  0.874685  0.151806  0.648726  1
  O  O48  1  0.879797  0.824053  0.960823  1
  O  O49  1  0.120203  0.324053  0.539177  1
  O  O50  1  0.120203  0.175947  0.039177  1
  O  O51  1  0.879797  0.675947  0.460823  1
  O  O52  1  0.672758  0.695707  0.044469  1
  O  O53  1  0.327242  0.195707  0.455531  1
  O  O54  1  0.327242  0.304293  0.955531  1
  O  O55  1  0.672758  0.804293  0.544469  1
  O  O56  1  0.381768  0.789953  0.955003  1
  O  O57  1  0.618232  0.289953  0.544997  1
  O  O58  1  0.618232  0.210047  0.044997  1
  O  O59  1  0.381768  0.710047  0.455003  1
  O  O60  1  0.252011  0.869414  0.775010  1
  O  O61  1  0.747989  0.369414  0.724990  1
  O  O62  1  0.747989  0.130586  0.224990  1
  O  O63  1  0.252011  0.630586  0.275010  1
  O  O64  1  0.222663  0.124790  0.676513  1
  O  O65  1  0.777337  0.624790  0.823487  1
  O  O66  1  0.777337  0.875210  0.323487  1
  O  O67  1  0.222663  0.375210  0.176513  1
  O  O68  1  0.418155  0.881941  0.607077  1
  O  O69  1  0.581845  0.381941  0.892923  1
  O  O70  1  0.581845  0.118059  0.392923  1
  O  O71  1  0.418155  0.618059  0.107077  1
  O  O72  1  0.469409  0.109889  0.871529  1
  O  O73  1  0.530591  0.609889  0.628471  1
  O  O74  1  0.530591  0.890111  0.128471  1
  O  O75  1  0.105176  0.112760  0.857688  1
