# generated using pymatgen
data_VP2H4O9
_symmetry_space_group_name_H-M   'P 1'
_cell_length_a   9.16932777
_cell_length_b   9.16932777
_cell_length_c   7.88660852
_cell_angle_alpha   90.00000000
_cell_angle_beta   90.00000000
_cell_angle_gamma   90.00000000
_symmetry_Int_Tables_number   1
_chemical_formula_structural   VP2H4O9
_chemical_formula_sum   'V4 P8 H16 O36'
_cell_volume   663.07900713
_cell_formula_units_Z   4
loop_
 _symmetry_equiv_pos_site_id
 _symmetry_equiv_pos_as_xyz
  1  'x, y, z'
loop_
 _atom_site_type_symbol
 _atom_site_label
 _atom_site_symmetry_multiplicity
 _atom_site_fract_x
 _atom_site_fract_y
 _atom_site_fract_z
 _atom_site_occupancy
  V  V0  1  0.000000  0.500000  0.204378  1
  V  V1  1  0.500000  0.000000  0.295622  1
  V  V2  1  0.500000  0.000000  0.795622  1
  V  V3  1  0.000000  0.500000  0.704378  1
  P  P4  1  0.795693  0.204307  0.250000  1
  P  P5  1  0.704307  0.704307  0.250000  1
  P  P6  1  0.295693  0.295693  0.250000  1
  P  P7  1  0.204307  0.795693  0.250000  1
  P  P8  1  0.704307  0.295693  0.750000  1
  P  P9  1  0.795693  0.795693  0.750000  1
  P  P10  1  0.204307  0.204307  0.750000  1
  P  P11  1  0.295693  0.704307  0.750000  1
  H  H12  1  0.334111  0.465060  0.448123  1
  H  H13  1  0.965060  0.165889  0.448123  1
  H  H14  1  0.034940  0.834111  0.448123  1
  H  H15  1  0.665889  0.534940  0.448123  1
  H  H16  1  0.165889  0.965060  0.051877  1
  H  H17  1  0.834111  0.034940  0.051877  1
  H  H18  1  0.465060  0.334111  0.051877  1
  H  H19  1  0.534940  0.665889  0.051877  1
  H  H20  1  0.165889  0.034940  0.551877  1
  H  H21  1  0.534940  0.334111  0.551877  1
  H  H22  1  0.465060  0.665889  0.551877  1
  H  H23  1  0.834111  0.965060  0.551877  1
  H  H24  1  0.334111  0.534940  0.948123  1
  H  H25  1  0.665889  0.465060  0.948123  1
  H  H26  1  0.034940  0.165889  0.948123  1
  H  H27  1  0.965060  0.834111  0.948123  1
  O  O28  1  0.829196  0.365814  0.243319  1
  O  O29  1  0.865814  0.670804  0.243319  1
  O  O30  1  0.134186  0.329196  0.243319  1
  O  O31  1  0.170804  0.634186  0.243319  1
  O  O32  1  0.670804  0.865814  0.256681  1
  O  O33  1  0.329196  0.134186  0.256681  1
  O  O34  1  0.365814  0.829196  0.256681  1
  O  O35  1  0.634186  0.170804  0.256681  1
  O  O36  1  0.670804  0.134186  0.756681  1
  O  O37  1  0.634186  0.829196  0.756681  1
  O  O38  1  0.365814  0.170804  0.756681  1
  O  O39  1  0.329196  0.865814  0.756681  1
  O  O40  1  0.829196  0.634186  0.743319  1
  O  O41  1  0.170804  0.365814  0.743319  1
  O  O42  1  0.134186  0.670804  0.743319  1
  O  O43  1  0.865814  0.329196  0.743319  1
  O  O44  1  0.869636  0.132363  0.086941  1
  O  O45  1  0.632363  0.630364  0.086941  1
  O  O46  1  0.367637  0.369636  0.086941  1
  O  O47  1  0.130364  0.867637  0.086941  1
  O  O48  1  0.630364  0.632363  0.413059  1
  O  O49  1  0.369636  0.367637  0.413059  1
  O  O50  1  0.132363  0.869636  0.413059  1
  O  O51  1  0.867637  0.130364  0.413059  1
  O  O52  1  0.630364  0.367637  0.913059  1
  O  O53  1  0.867637  0.869636  0.913059  1
  O  O54  1  0.132363  0.130364  0.913059  1
  O  O55  1  0.369636  0.632363  0.913059  1
  O  O56  1  0.869636  0.867637  0.586941  1
  O  O57  1  0.130364  0.132363  0.586941  1
  O  O58  1  0.367637  0.630364  0.586941  1
  O  O59  1  0.632363  0.369636  0.586941  1
  O  O60  1  0.000000  0.500000  0.993599  1
  O  O61  1  0.500000  0.000000  0.506401  1
  O  O62  1  0.500000  0.000000  0.006401  1
  O  O63  1  0.000000  0.500000  0.493599  1
