# generated using pymatgen
data_PbIBr
_symmetry_space_group_name_H-M   'P 1'
_cell_length_a   4.51838908
_cell_length_b   8.95723072
_cell_length_c   10.87950155
_cell_angle_alpha   90.00000000
_cell_angle_beta   90.00000000
_cell_angle_gamma   90.00000000
_symmetry_Int_Tables_number   1
_chemical_formula_structural   PbIBr
_chemical_formula_sum   'Pb4 I4 Br4'
_cell_volume   440.31794438
_cell_formula_units_Z   4
loop_
 _symmetry_equiv_pos_site_id
 _symmetry_equiv_pos_as_xyz
  1  'x, y, z'
loop_
 _atom_site_type_symbol
 _atom_site_label
 _atom_site_symmetry_multiplicity
 _atom_site_fract_x
 _atom_site_fract_y
 _atom_site_fract_z
 _atom_site_occupancy
  Pb  Pb0  1  0.750000  0.149137  0.154132  1
  Pb  Pb1  1  0.250000  0.850863  0.845868  1
  Pb  Pb2  1  0.250000  0.350863  0.654132  1
  Pb  Pb3  1  0.750000  0.649137  0.345868  1
  I  I4  1  0.250000  0.998576  0.323838  1
  I  I5  1  0.750000  0.501424  0.823838  1
  I  I6  1  0.750000  0.001424  0.676162  1
  I  I7  1  0.250000  0.498576  0.176162  1
  Br  Br8  1  0.750000  0.343127  0.450495  1
  Br  Br9  1  0.250000  0.656873  0.549505  1
  Br  Br10  1  0.750000  0.843127  0.049505  1
  Br  Br11  1  0.250000  0.156873  0.950495  1
