# generated using pymatgen
data_RbEu(SO4)2
_symmetry_space_group_name_H-M   'P 1'
_cell_length_a   7.43238172
_cell_length_b   7.43238172
_cell_length_c   9.72335614
_cell_angle_alpha   78.41220813
_cell_angle_beta   101.58779187
_cell_angle_gamma   136.54259689
_symmetry_Int_Tables_number   1
_chemical_formula_structural   RbEu(SO4)2
_chemical_formula_sum   'Rb2 Eu2 S4 O16'
_cell_volume   360.69969482
_cell_formula_units_Z   2
loop_
 _symmetry_equiv_pos_site_id
 _symmetry_equiv_pos_as_xyz
  1  'x, y, z'
loop_
 _atom_site_type_symbol
 _atom_site_label
 _atom_site_symmetry_multiplicity
 _atom_site_fract_x
 _atom_site_fract_y
 _atom_site_fract_z
 _atom_site_occupancy
  Rb  Rb0  1  0.500000  0.000000  0.000000  1
  Rb  Rb1  1  0.000000  0.500000  0.500000  1
  Eu  Eu2  1  0.178420  0.178420  0.250000  1
  Eu  Eu3  1  0.821580  0.821580  0.750000  1
  S  S4  1  0.649558  0.824800  0.387365  1
  S  S5  1  0.175200  0.350442  0.887365  1
  S  S6  1  0.350442  0.175200  0.612635  1
  S  S7  1  0.824800  0.649558  0.112635  1
  O  O8  1  0.786239  0.824651  0.092188  1
  O  O9  1  0.609551  0.396542  0.683149  1
  O  O10  1  0.390449  0.603458  0.316851  1
  O  O11  1  0.159020  0.392798  0.026271  1
  O  O12  1  0.840980  0.607202  0.973729  1
  O  O13  1  0.922337  0.212871  0.798318  1
  O  O14  1  0.077663  0.787129  0.201682  1
  O  O15  1  0.213761  0.175349  0.907812  1
  O  O16  1  0.175349  0.213761  0.592188  1
  O  O17  1  0.787129  0.077663  0.298318  1
  O  O18  1  0.212871  0.922337  0.701682  1
  O  O19  1  0.607202  0.840980  0.526271  1
  O  O20  1  0.603458  0.390449  0.183149  1
  O  O21  1  0.396542  0.609551  0.816851  1
  O  O22  1  0.824651  0.786239  0.407812  1
  O  O23  1  0.392798  0.159020  0.473729  1
