# generated using pymatgen
data_Ba3FeO5
_symmetry_space_group_name_H-M   'P 1'
_cell_length_a   7.39739640
_cell_length_b   8.40521560
_cell_length_c   10.55791265
_cell_angle_alpha   90.00000000
_cell_angle_beta   90.00000000
_cell_angle_gamma   90.00000000
_symmetry_Int_Tables_number   1
_chemical_formula_structural   Ba3FeO5
_chemical_formula_sum   'Ba12 Fe4 O20'
_cell_volume   656.45629016
_cell_formula_units_Z   4
loop_
 _symmetry_equiv_pos_site_id
 _symmetry_equiv_pos_as_xyz
  1  'x, y, z'
loop_
 _atom_site_type_symbol
 _atom_site_label
 _atom_site_symmetry_multiplicity
 _atom_site_fract_x
 _atom_site_fract_y
 _atom_site_fract_z
 _atom_site_occupancy
  Ba  Ba0  1  0.613020  0.250000  0.971474  1
  Ba  Ba1  1  0.113020  0.750000  0.528526  1
  Ba  Ba2  1  0.386980  0.750000  0.028526  1
  Ba  Ba3  1  0.886980  0.250000  0.471474  1
  Ba  Ba4  1  0.414107  0.025194  0.320933  1
  Ba  Ba5  1  0.914107  0.974807  0.179067  1
  Ba  Ba6  1  0.585893  0.525193  0.679067  1
  Ba  Ba7  1  0.085893  0.474807  0.820933  1
  Ba  Ba8  1  0.585893  0.974807  0.679067  1
  Ba  Ba9  1  0.085893  0.025194  0.820933  1
  Ba  Ba10  1  0.414107  0.474807  0.320933  1
  Ba  Ba11  1  0.914107  0.525193  0.179067  1
  Fe  Fe12  1  0.304656  0.250000  0.594524  1
  Fe  Fe13  1  0.804656  0.750000  0.905476  1
  Fe  Fe14  1  0.695344  0.750000  0.405476  1
  Fe  Fe15  1  0.195344  0.250000  0.094524  1
  O  O16  1  0.835490  0.250000  0.722802  1
  O  O17  1  0.335490  0.750000  0.777198  1
  O  O18  1  0.164510  0.750000  0.277198  1
  O  O19  1  0.664510  0.250000  0.222802  1
  O  O20  1  0.512172  0.250000  0.498551  1
  O  O21  1  0.012172  0.750000  0.001449  1
  O  O22  1  0.487828  0.750000  0.501449  1
  O  O23  1  0.987828  0.250000  0.998551  1
  O  O24  1  0.299866  0.056268  0.062898  1
  O  O25  1  0.799866  0.943732  0.437102  1
  O  O26  1  0.700134  0.556268  0.937102  1
  O  O27  1  0.200134  0.443732  0.562898  1
  O  O28  1  0.700134  0.943732  0.937102  1
  O  O29  1  0.200134  0.056268  0.562898  1
  O  O30  1  0.299866  0.443732  0.062898  1
  O  O31  1  0.799866  0.556268  0.437102  1
  O  O32  1  0.144448  0.250000  0.268780  1
  O  O33  1  0.644448  0.750000  0.231220  1
  O  O34  1  0.855552  0.750000  0.731220  1
  O  O35  1  0.355552  0.250000  0.768780  1
