# generated using pymatgen
data_Fe3(P2O7)2
_symmetry_space_group_name_H-M   'P 1'
_cell_length_a   7.30245843
_cell_length_b   7.89603044
_cell_length_c   9.52900804
_cell_angle_alpha   90.00000000
_cell_angle_beta   111.12188667
_cell_angle_gamma   90.00000000
_symmetry_Int_Tables_number   1
_chemical_formula_structural   Fe3(P2O7)2
_chemical_formula_sum   'Fe6 P8 O28'
_cell_volume   512.53268240
_cell_formula_units_Z   2
loop_
 _symmetry_equiv_pos_site_id
 _symmetry_equiv_pos_as_xyz
  1  'x, y, z'
loop_
 _atom_site_type_symbol
 _atom_site_label
 _atom_site_symmetry_multiplicity
 _atom_site_fract_x
 _atom_site_fract_y
 _atom_site_fract_z
 _atom_site_occupancy
  Fe  Fe0  1  0.193906  0.634841  0.529322  1
  Fe  Fe1  1  0.193906  0.865159  0.029322  1
  Fe  Fe2  1  0.806094  0.134841  0.970678  1
  Fe  Fe3  1  0.000000  0.500000  0.000000  1
  Fe  Fe4  1  0.806094  0.365159  0.470678  1
  Fe  Fe5  1  0.000000  0.000000  0.500000  1
  P  P6  1  0.884400  0.710931  0.695562  1
  P  P7  1  0.596985  0.052209  0.204596  1
  P  P8  1  0.596985  0.447791  0.704596  1
  P  P9  1  0.403015  0.552209  0.295404  1
  P  P10  1  0.403015  0.947791  0.795404  1
  P  P11  1  0.115600  0.289069  0.304438  1
  P  P12  1  0.884400  0.789069  0.195562  1
  P  P13  1  0.115600  0.210931  0.804438  1
  O  O14  1  0.282358  0.629528  0.139804  1
  O  O15  1  0.005503  0.716304  0.866187  1
  O  O16  1  0.033528  0.079219  0.890336  1
  O  O17  1  0.147268  0.379299  0.882450  1
  O  O18  1  0.005503  0.783696  0.366187  1
  O  O19  1  0.033528  0.420781  0.390336  1
  O  O20  1  0.994497  0.283696  0.133813  1
  O  O21  1  0.966472  0.920781  0.109664  1
  O  O22  1  0.852732  0.620701  0.117550  1
  O  O23  1  0.994497  0.216304  0.633813  1
  O  O24  1  0.966472  0.579219  0.609664  1
  O  O25  1  0.681188  0.864365  0.195367  1
  O  O26  1  0.629673  0.156950  0.081174  1
  O  O27  1  0.852732  0.879299  0.617550  1
  O  O28  1  0.717642  0.129528  0.360196  1
  O  O29  1  0.617726  0.516002  0.321010  1
  O  O30  1  0.681188  0.635635  0.695367  1
  O  O31  1  0.370327  0.843050  0.918826  1
  O  O32  1  0.717642  0.370472  0.860196  1
  O  O33  1  0.382274  0.016002  0.178990  1
  O  O34  1  0.617726  0.983998  0.821010  1
  O  O35  1  0.318812  0.135635  0.804633  1
  O  O36  1  0.370327  0.656950  0.418826  1
  O  O37  1  0.318812  0.364365  0.304633  1
  O  O38  1  0.382274  0.483998  0.678990  1
  O  O39  1  0.282358  0.870472  0.639804  1
  O  O40  1  0.147268  0.120701  0.382450  1
  O  O41  1  0.629673  0.343050  0.581174  1
