# generated using pymatgen
data_H11C4NO10
_symmetry_space_group_name_H-M   'P 1'
_cell_length_a   6.61338617
_cell_length_b   7.28334274
_cell_length_c   10.61084191
_cell_angle_alpha   92.37605581
_cell_angle_beta   102.08228934
_cell_angle_gamma   100.01911956
_symmetry_Int_Tables_number   1
_chemical_formula_structural   H11C4NO10
_chemical_formula_sum   'H22 C8 N2 O20'
_cell_volume   490.54272569
_cell_formula_units_Z   2
loop_
 _symmetry_equiv_pos_site_id
 _symmetry_equiv_pos_as_xyz
  1  'x, y, z'
loop_
 _atom_site_type_symbol
 _atom_site_label
 _atom_site_symmetry_multiplicity
 _atom_site_fract_x
 _atom_site_fract_y
 _atom_site_fract_z
 _atom_site_occupancy
  H  H0  1  0.242334  0.195348  0.106272  1
  H  H1  1  0.172751  0.257970  0.850411  1
  H  H2  1  0.143539  0.797829  0.559026  1
  H  H3  1  0.802274  0.963310  0.189710  1
  H  H4  1  0.748204  0.787885  0.287062  1
  H  H5  1  0.739859  0.018639  0.926588  1
  H  H6  1  0.856461  0.202171  0.440974  1
  H  H7  1  0.757666  0.804652  0.893728  1
  H  H8  1  0.653223  0.435953  0.746089  1
  H  H9  1  0.372941  0.071662  0.251839  1
  H  H10  1  0.002468  0.128260  0.721156  1
  H  H11  1  0.912059  0.700831  0.569919  1
  H  H12  1  0.997532  0.871740  0.278844  1
  H  H13  1  0.087941  0.299169  0.430081  1
  H  H14  1  0.251796  0.212115  0.712938  1
  H  H15  1  0.865408  0.342009  0.274024  1
  H  H16  1  0.627059  0.928338  0.748161  1
  H  H17  1  0.346777  0.564047  0.253911  1
  H  H18  1  0.260141  0.981361  0.073412  1
  H  H19  1  0.134592  0.657991  0.725976  1
  H  H20  1  0.197726  0.036690  0.810290  1
  H  H21  1  0.827249  0.742030  0.149589  1
  C  C22  1  0.237750  0.680289  0.918780  1
  C  C23  1  0.581681  0.010025  0.565124  1
  C  C24  1  0.762250  0.319711  0.081220  1
  C  C25  1  0.418319  0.989975  0.434876  1
  C  C26  1  0.726387  0.437713  0.962031  1
  C  C27  1  0.491807  0.452939  0.563443  1
  C  C28  1  0.273613  0.562287  0.037969  1
  C  C29  1  0.508193  0.547061  0.436557  1
  N  N30  1  0.156760  0.158270  0.773981  1
  N  N31  1  0.843240  0.841730  0.226019  1
  O  O32  1  0.181243  0.579409  0.808550  1
  O  O33  1  0.656701  0.507999  0.655768  1
  O  O34  1  0.238737  0.895511  0.423570  1
  O  O35  1  0.818757  0.420591  0.191450  1
  O  O36  1  0.667609  0.663247  0.431479  1
  O  O37  1  0.332391  0.336753  0.568521  1
  O  O38  1  0.236717  0.386721  0.017108  1
  O  O39  1  0.761263  0.104489  0.576430  1
  O  O40  1  0.738838  0.146557  0.067286  1
  O  O41  1  0.664639  0.342160  0.853393  1
  O  O42  1  0.491473  0.078770  0.345836  1
  O  O43  1  0.508527  0.921230  0.654164  1
  O  O44  1  0.944446  0.247906  0.379535  1
  O  O45  1  0.762235  0.930059  0.858619  1
  O  O46  1  0.763283  0.613279  0.982892  1
  O  O47  1  0.343299  0.492001  0.344232  1
  O  O48  1  0.261162  0.853443  0.932714  1
  O  O49  1  0.237765  0.069941  0.141381  1
  O  O50  1  0.335361  0.657840  0.146607  1
  O  O51  1  0.055554  0.752094  0.620465  1
