# generated using pymatgen
data_H7ClO7
_symmetry_space_group_name_H-M   'P 1'
_cell_length_a   8.42969076
_cell_length_b   10.22557112
_cell_length_c   13.60510512
_cell_angle_alpha   90.00000000
_cell_angle_beta   90.00000000
_cell_angle_gamma   90.00000000
_symmetry_Int_Tables_number   1
_chemical_formula_structural   H7ClO7
_chemical_formula_sum   'H56 Cl8 O56'
_cell_volume   1172.73832564
_cell_formula_units_Z   8
loop_
 _symmetry_equiv_pos_site_id
 _symmetry_equiv_pos_as_xyz
  1  'x, y, z'
loop_
 _atom_site_type_symbol
 _atom_site_label
 _atom_site_symmetry_multiplicity
 _atom_site_fract_x
 _atom_site_fract_y
 _atom_site_fract_z
 _atom_site_occupancy
  H  H0  1  0.905779  0.175340  0.571658  1
  H  H1  1  0.566227  0.564450  0.762825  1
  H  H2  1  0.566227  0.064450  0.737175  1
  H  H3  1  0.690869  0.559667  0.611447  1
  H  H4  1  0.447577  0.610688  0.357997  1
  H  H5  1  0.486502  0.226233  0.656565  1
  H  H6  1  0.066227  0.935550  0.762825  1
  H  H7  1  0.933773  0.064450  0.237175  1
  H  H8  1  0.447577  0.110688  0.142003  1
  H  H9  1  0.957387  0.034792  0.123636  1
  H  H10  1  0.542613  0.534792  0.876364  1
  H  H11  1  0.784483  0.461646  0.680168  1
  H  H12  1  0.690869  0.059667  0.888553  1
  H  H13  1  0.094221  0.324660  0.071658  1
  H  H14  1  0.042613  0.965208  0.876364  1
  H  H15  1  0.094221  0.824660  0.428342  1
  H  H16  1  0.284483  0.038354  0.680168  1
  H  H17  1  0.552423  0.889312  0.857997  1
  H  H18  1  0.215517  0.538354  0.319832  1
  H  H19  1  0.957387  0.534792  0.376364  1
  H  H20  1  0.933773  0.564450  0.262825  1
  H  H21  1  0.486502  0.726233  0.843435  1
  H  H22  1  0.013498  0.226233  0.156565  1
  H  H23  1  0.309131  0.940333  0.111447  1
  H  H24  1  0.066227  0.435550  0.737175  1
  H  H25  1  0.457387  0.465208  0.123636  1
  H  H26  1  0.809131  0.559667  0.111447  1
  H  H27  1  0.513498  0.773767  0.343435  1
  H  H28  1  0.594221  0.675340  0.428342  1
  H  H29  1  0.042613  0.465208  0.623636  1
  H  H30  1  0.190869  0.440333  0.888553  1
  H  H31  1  0.013498  0.726233  0.343435  1
  H  H32  1  0.433773  0.435550  0.237175  1
  H  H33  1  0.986502  0.273767  0.656565  1
  H  H34  1  0.947577  0.389312  0.142003  1
  H  H35  1  0.809131  0.059667  0.388553  1
  H  H36  1  0.190869  0.940333  0.611447  1
  H  H37  1  0.513498  0.273767  0.156565  1
  H  H38  1  0.715517  0.961646  0.319832  1
  H  H39  1  0.215517  0.038354  0.180168  1
  H  H40  1  0.715517  0.461646  0.180168  1
  H  H41  1  0.405779  0.324660  0.571658  1
  H  H42  1  0.784483  0.961646  0.819832  1
  H  H43  1  0.309131  0.440333  0.388553  1
  H  H44  1  0.947577  0.889312  0.357997  1
  H  H45  1  0.052423  0.110688  0.642003  1
  H  H46  1  0.986502  0.773767  0.843435  1
  H  H47  1  0.405779  0.824660  0.928342  1
  H  H48  1  0.052423  0.610688  0.857997  1
  H  H49  1  0.284483  0.538354  0.819832  1
  H  H50  1  0.905779  0.675340  0.928342  1
  H  H51  1  0.542613  0.034792  0.623636  1
  H  H52  1  0.433773  0.935550  0.262825  1
  H  H53  1  0.552423  0.389312  0.642003  1
  H  H54  1  0.594221  0.175340  0.071658  1
  H  H55  1  0.457387  0.965208  0.376364  1
  Cl  Cl56  1  0.738428  0.821710  0.579556  1
  Cl  Cl57  1  0.761572  0.821710  0.079556  1
  Cl  Cl58  1  0.238428  0.178290  0.920444  1
  Cl  Cl59  1  0.261572  0.678290  0.079556  1
  Cl  Cl60  1  0.738428  0.321710  0.920444  1
  Cl  Cl61  1  0.261572  0.178290  0.420444  1
  Cl  Cl62  1  0.761572  0.321710  0.420444  1
  Cl  Cl63  1  0.238428  0.678290  0.579556  1
  O  O64  1  0.000036  0.087406  0.178857  1
  O  O65  1  0.500035  0.912594  0.321143  1
  O  O66  1  0.231573  0.304292  0.975898  1
  O  O67  1  0.731573  0.695708  0.524102  1
  O  O68  1  0.709671  0.795273  0.682613  1
  O  O69  1  0.884746  0.408228  0.460220  1
  O  O70  1  0.957867  0.675964  0.862356  1
  O  O71  1  0.209671  0.204727  0.817387  1
  O  O72  1  0.231573  0.804292  0.524102  1
  O  O73  1  0.106778  0.619823  0.065397  1
  O  O74  1  0.115254  0.591772  0.539780  1
  O  O75  1  0.176472  0.006524  0.663788  1
  O  O76  1  0.042133  0.324036  0.137644  1
  O  O77  1  0.893222  0.880177  0.565397  1
  O  O78  1  0.393222  0.119823  0.934603  1
  O  O79  1  0.823528  0.493476  0.163788  1
  O  O80  1  0.323528  0.506524  0.336212  1
  O  O81  1  0.499964  0.587406  0.821143  1
  O  O82  1  0.268427  0.304292  0.475898  1
  O  O83  1  0.893222  0.380177  0.934603  1
  O  O84  1  0.676472  0.493476  0.663788  1
  O  O85  1  0.106778  0.119823  0.434603  1
  O  O86  1  0.884746  0.908228  0.039780  1
  O  O87  1  0.268427  0.804292  0.024102  1
  O  O88  1  0.790329  0.295273  0.317387  1
  O  O89  1  0.709671  0.295273  0.817387  1
  O  O90  1  0.542133  0.675964  0.362356  1
  O  O91  1  0.323528  0.006524  0.163788  1
  O  O92  1  0.615254  0.408228  0.960220  1
  O  O93  1  0.115254  0.091772  0.960220  1
  O  O94  1  0.606778  0.380177  0.434603  1
  O  O95  1  0.999965  0.412594  0.678857  1
  O  O96  1  0.823528  0.993476  0.336212  1
  O  O97  1  0.457867  0.324036  0.637644  1
  O  O98  1  0.676472  0.993476  0.836212  1
  O  O99  1  0.384746  0.091772  0.460220  1
  O  O100  1  0.290329  0.704727  0.182613  1
  O  O101  1  0.000036  0.587406  0.321143  1
  O  O102  1  0.957867  0.175964  0.637644  1
  O  O103  1  0.999965  0.912594  0.821143  1
  O  O104  1  0.290329  0.204727  0.317387  1
  O  O105  1  0.731573  0.195708  0.975898  1
  O  O106  1  0.768427  0.695708  0.024102  1
  O  O107  1  0.393222  0.619823  0.565397  1
  O  O108  1  0.384746  0.591772  0.039780  1
  O  O109  1  0.209671  0.704727  0.682613  1
  O  O110  1  0.500035  0.412594  0.178857  1
  O  O111  1  0.790329  0.795273  0.182613  1
  O  O112  1  0.176472  0.506524  0.836212  1
  O  O113  1  0.042133  0.824036  0.362356  1
  O  O114  1  0.457867  0.824036  0.862356  1
  O  O115  1  0.499964  0.087406  0.678857  1
  O  O116  1  0.615254  0.908228  0.539780  1
  O  O117  1  0.606778  0.880177  0.065397  1
  O  O118  1  0.768427  0.195708  0.475898  1
  O  O119  1  0.542133  0.175964  0.137644  1
