# generated using pymatgen
data_Zn4P6N12O
_symmetry_space_group_name_H-M   'P 1'
_cell_length_a   7.01382910
_cell_length_b   7.01382910
_cell_length_c   7.01382910
_cell_angle_alpha   109.47122063
_cell_angle_beta   109.47122063
_cell_angle_gamma   109.47122063
_symmetry_Int_Tables_number   1
_chemical_formula_structural   Zn4P6N12O
_chemical_formula_sum   'Zn4 P6 N12 O1'
_cell_volume   265.60952652
_cell_formula_units_Z   1
loop_
 _symmetry_equiv_pos_site_id
 _symmetry_equiv_pos_as_xyz
  1  'x, y, z'
loop_
 _atom_site_type_symbol
 _atom_site_label
 _atom_site_symmetry_multiplicity
 _atom_site_fract_x
 _atom_site_fract_y
 _atom_site_fract_z
 _atom_site_occupancy
  Zn  Zn0  1  1.000000  1.000000  0.701201  1
  Zn  Zn1  1  1.000000  0.701201  0.000000  1
  Zn  Zn2  1  0.701201  0.000000  0.000000  1
  Zn  Zn3  1  0.298799  0.298799  0.298799  1
  P  P4  1  0.750000  0.500000  0.250000  1
  P  P5  1  0.250000  0.500000  0.750000  1
  P  P6  1  0.250000  0.750000  0.500000  1
  P  P7  1  0.500000  0.250000  0.750000  1
  P  P8  1  0.500000  0.750000  0.250000  1
  P  P9  1  0.750000  0.250000  0.500000  1
  N  N10  1  0.459197  1.000000  0.735124  1
  N  N11  1  0.540803  0.275926  0.540803  1
  N  N12  1  1.000000  0.735124  0.459197  1
  N  N13  1  0.264876  0.264876  0.724074  1
  N  N14  1  0.735124  0.459197  0.000000  1
  N  N15  1  0.264876  0.724074  0.264876  1
  N  N16  1  0.540803  0.540803  0.275926  1
  N  N17  1  0.459197  0.735124  0.000000  1
  N  N18  1  0.724074  0.264876  0.264876  1
  N  N19  1  1.000000  0.459197  0.735124  1
  N  N20  1  0.275926  0.540803  0.540803  1
  N  N21  1  0.735124  1.000000  0.459197  1
  O  O22  1  0.000000  0.000000  0.000000  1
