# generated using pymatgen
data_Pr6S4BrN3
_symmetry_space_group_name_H-M   'P 1'
_cell_length_a   4.06881052
_cell_length_b   11.61117262
_cell_length_c   27.60688059
_cell_angle_alpha   90.00000000
_cell_angle_beta   90.00000000
_cell_angle_gamma   90.00000000
_symmetry_Int_Tables_number   1
_chemical_formula_structural   Pr6S4BrN3
_chemical_formula_sum   'Pr24 S16 Br4 N12'
_cell_volume   1304.25011630
_cell_formula_units_Z   4
loop_
 _symmetry_equiv_pos_site_id
 _symmetry_equiv_pos_as_xyz
  1  'x, y, z'
loop_
 _atom_site_type_symbol
 _atom_site_label
 _atom_site_symmetry_multiplicity
 _atom_site_fract_x
 _atom_site_fract_y
 _atom_site_fract_z
 _atom_site_occupancy
  Pr  Pr0  1  0.750000  0.754791  0.328994  1
  Pr  Pr1  1  0.250000  0.748465  0.564021  1
  Pr  Pr2  1  0.250000  0.248465  0.935979  1
  Pr  Pr3  1  0.250000  0.874264  0.216775  1
  Pr  Pr4  1  0.250000  0.400470  0.535502  1
  Pr  Pr5  1  0.250000  0.900470  0.964498  1
  Pr  Pr6  1  0.250000  0.745209  0.828994  1
  Pr  Pr7  1  0.250000  0.941279  0.422023  1
  Pr  Pr8  1  0.250000  0.374264  0.283225  1
  Pr  Pr9  1  0.750000  0.251535  0.435979  1
  Pr  Pr10  1  0.250000  0.245209  0.671006  1
  Pr  Pr11  1  0.750000  0.561069  0.192425  1
  Pr  Pr12  1  0.750000  0.254791  0.171006  1
  Pr  Pr13  1  0.750000  0.751535  0.064021  1
  Pr  Pr14  1  0.250000  0.938931  0.692425  1
  Pr  Pr15  1  0.750000  0.099530  0.035502  1
  Pr  Pr16  1  0.250000  0.438931  0.807575  1
  Pr  Pr17  1  0.750000  0.061069  0.307575  1
  Pr  Pr18  1  0.750000  0.125736  0.783225  1
  Pr  Pr19  1  0.750000  0.058721  0.577977  1
  Pr  Pr20  1  0.750000  0.625736  0.716775  1
  Pr  Pr21  1  0.750000  0.599530  0.464498  1
  Pr  Pr22  1  0.750000  0.558721  0.922023  1
  Pr  Pr23  1  0.250000  0.441279  0.077977  1
  S  S24  1  0.750000  0.309878  0.862384  1
  S  S25  1  0.750000  0.293655  0.602512  1
  S  S26  1  0.250000  0.706345  0.397488  1
  S  S27  1  0.750000  0.356182  0.994175  1
  S  S28  1  0.250000  0.690122  0.137616  1
  S  S29  1  0.250000  0.643818  0.005825  1
  S  S30  1  0.750000  0.793655  0.897488  1
  S  S31  1  0.250000  0.206345  0.102512  1
  S  S32  1  0.750000  0.856182  0.505825  1
  S  S33  1  0.250000  0.634821  0.264124  1
  S  S34  1  0.750000  0.865179  0.764124  1
  S  S35  1  0.250000  0.143818  0.494175  1
  S  S36  1  0.250000  0.190122  0.362384  1
  S  S37  1  0.250000  0.134821  0.235876  1
  S  S38  1  0.750000  0.365179  0.735876  1
  S  S39  1  0.750000  0.809878  0.637616  1
  Br  Br40  1  0.750000  0.461123  0.362552  1
  Br  Br41  1  0.250000  0.038877  0.862552  1
  Br  Br42  1  0.250000  0.538877  0.637448  1
  Br  Br43  1  0.750000  0.961123  0.137448  1
  N  N44  1  0.250000  0.562489  0.874877  1
  N  N45  1  0.750000  0.886303  0.262360  1
  N  N46  1  0.250000  0.598362  0.513793  1
  N  N47  1  0.250000  0.113697  0.737640  1
  N  N48  1  0.750000  0.437511  0.125123  1
  N  N49  1  0.750000  0.401638  0.486207  1
  N  N50  1  0.750000  0.901638  0.013793  1
  N  N51  1  0.250000  0.613697  0.762360  1
  N  N52  1  0.750000  0.386303  0.237640  1
  N  N53  1  0.250000  0.062489  0.625123  1
  N  N54  1  0.250000  0.098362  0.986207  1
  N  N55  1  0.750000  0.937511  0.374877  1
