# generated using pymatgen
data_LaCo9Si4
_symmetry_space_group_name_H-M   'P 1'
_cell_length_a   7.96378972
_cell_length_b   7.96378972
_cell_length_c   7.96378972
_cell_angle_alpha   121.57313343
_cell_angle_beta   121.57313343
_cell_angle_gamma   87.29618678
_symmetry_Int_Tables_number   1
_chemical_formula_structural   LaCo9Si4
_chemical_formula_sum   'La2 Co18 Si8'
_cell_volume   348.23117302
_cell_formula_units_Z   2
loop_
 _symmetry_equiv_pos_site_id
 _symmetry_equiv_pos_as_xyz
  1  'x, y, z'
loop_
 _atom_site_type_symbol
 _atom_site_label
 _atom_site_symmetry_multiplicity
 _atom_site_fract_x
 _atom_site_fract_y
 _atom_site_fract_z
 _atom_site_occupancy
  La  La0  1  0.250000  0.250000  0.000000  1
  La  La1  1  0.750000  0.750000  0.000000  1
  Co  Co2  1  0.430831  0.300211  0.731042  1
  Co  Co3  1  0.308892  0.808892  0.757765  1
  Co  Co4  1  0.808892  0.051127  0.500000  1
  Co  Co5  1  0.691108  0.191108  0.242235  1
  Co  Co6  1  0.191108  0.948873  0.500000  1
  Co  Co7  1  0.448873  0.691108  0.500000  1
  Co  Co8  1  0.569169  0.699789  0.268958  1
  Co  Co9  1  0.800211  0.930831  0.731042  1
  Co  Co10  1  0.551127  0.308892  0.500000  1
  Co  Co11  1  0.069169  0.800211  0.869380  1
  Co  Co12  1  0.948873  0.448873  0.757765  1
  Co  Co13  1  0.300211  0.569169  0.869380  1
  Co  Co14  1  0.930831  0.199789  0.130620  1
  Co  Co15  1  0.199789  0.069169  0.268958  1
  Co  Co16  1  0.699789  0.430831  0.130620  1
  Co  Co17  1  0.500000  1.000000  0.500000  1
  Co  Co18  1  0.051127  0.551127  0.242235  1
  Co  Co19  1  0.000000  0.500000  0.500000  1
  Si  Si20  1  0.790023  0.290023  0.837800  1
  Si  Si21  1  0.290023  0.452223  0.500000  1
  Si  Si22  1  0.452223  0.952223  0.162200  1
  Si  Si23  1  0.952223  0.790023  0.500000  1
  Si  Si24  1  0.547777  0.047777  0.837800  1
  Si  Si25  1  0.709977  0.547777  0.500000  1
  Si  Si26  1  0.209977  0.709977  0.162200  1
  Si  Si27  1  0.047777  0.209977  0.500000  1
