# generated using pymatgen
data_La7C3I10
_symmetry_space_group_name_H-M   'P 1'
_cell_length_a   9.90160984
_cell_length_b   11.95251570
_cell_length_c   14.22147959
_cell_angle_alpha   79.34378624
_cell_angle_beta   71.16380477
_cell_angle_gamma   65.90133889
_symmetry_Int_Tables_number   1
_chemical_formula_structural   La7C3I10
_chemical_formula_sum   'La14 C6 I20'
_cell_volume   1451.37792083
_cell_formula_units_Z   2
loop_
 _symmetry_equiv_pos_site_id
 _symmetry_equiv_pos_as_xyz
  1  'x, y, z'
loop_
 _atom_site_type_symbol
 _atom_site_label
 _atom_site_symmetry_multiplicity
 _atom_site_fract_x
 _atom_site_fract_y
 _atom_site_fract_z
 _atom_site_occupancy
  La  La0  1  0.045771  0.420581  0.833989  1
  La  La1  1  0.830963  0.241732  0.100714  1
  La  La2  1  0.048916  0.884899  0.175884  1
  La  La3  1  0.377664  0.929030  0.640606  1
  La  La4  1  0.745945  0.951257  0.079220  1
  La  La5  1  0.254055  0.048743  0.920780  1
  La  La6  1  0.867267  0.723602  0.414502  1
  La  La7  1  0.132733  0.276398  0.585498  1
  La  La8  1  0.951084  0.115101  0.824116  1
  La  La9  1  0.539429  0.794133  0.308512  1
  La  La10  1  0.954229  0.579419  0.166011  1
  La  La11  1  0.460571  0.205867  0.691488  1
  La  La12  1  0.622336  0.070970  0.359394  1
  La  La13  1  0.169037  0.758268  0.899286  1
  C  C14  1  0.168625  0.226375  0.768526  1
  C  C15  1  0.961667  0.056380  0.022613  1
  C  C16  1  0.754970  0.886761  0.276403  1
  C  C17  1  0.245030  0.113239  0.723597  1
  C  C18  1  0.038333  0.943620  0.977387  1
  C  C19  1  0.831375  0.773625  0.231474  1
  I  I20  1  0.041783  0.434836  0.363780  1
  I  I21  1  0.143222  0.303826  0.041281  1
  I  I22  1  0.604073  0.078550  0.878051  1
  I  I23  1  0.646133  0.524473  0.224779  1
  I  I24  1  0.434601  0.344018  0.478615  1
  I  I25  1  0.565399  0.655982  0.521385  1
  I  I26  1  0.282572  0.046942  0.430944  1
  I  I27  1  0.395927  0.921450  0.121949  1
  I  I28  1  0.856778  0.696174  0.958719  1
  I  I29  1  0.187713  0.752785  0.373825  1
  I  I30  1  0.717596  0.391873  0.908373  1
  I  I31  1  0.353867  0.475527  0.775221  1
  I  I32  1  0.282404  0.608127  0.091627  1
  I  I33  1  0.930346  0.130644  0.303173  1
  I  I34  1  0.069654  0.869356  0.696827  1
  I  I35  1  0.500632  0.218980  0.169321  1
  I  I36  1  0.717428  0.953058  0.569056  1
  I  I37  1  0.958217  0.565164  0.636220  1
  I  I38  1  0.812287  0.247215  0.626175  1
  I  I39  1  0.499368  0.781020  0.830679  1
