# generated using pymatgen
data_Ba7MnFe6F34
_symmetry_space_group_name_H-M   'P 1'
_cell_length_a   10.42693840
_cell_length_b   10.42693840
_cell_length_c   7.84667787
_cell_angle_alpha   79.89298087
_cell_angle_beta   100.10701913
_cell_angle_gamma   112.45868046
_symmetry_Int_Tables_number   1
_chemical_formula_structural   Ba7MnFe6F34
_chemical_formula_sum   'Ba7 Mn1 Fe6 F34'
_cell_volume   770.62771672
_cell_formula_units_Z   1
loop_
 _symmetry_equiv_pos_site_id
 _symmetry_equiv_pos_as_xyz
  1  'x, y, z'
loop_
 _atom_site_type_symbol
 _atom_site_label
 _atom_site_symmetry_multiplicity
 _atom_site_fract_x
 _atom_site_fract_y
 _atom_site_fract_z
 _atom_site_occupancy
  Ba  Ba0  1  0.444893  0.159950  0.296281  1
  Ba  Ba1  1  0.159950  0.444893  0.703719  1
  Ba  Ba2  1  0.555107  0.840050  0.703719  1
  Ba  Ba3  1  0.840050  0.555107  0.296281  1
  Ba  Ba4  1  0.737636  0.262364  0.874988  1
  Ba  Ba5  1  0.262364  0.737636  0.125012  1
  Ba  Ba6  1  0.000000  0.000000  0.000000  1
  Mn  Mn7  1  0.500000  0.500000  0.500000  1
  Fe  Fe8  1  0.133857  0.352992  0.200707  1
  Fe  Fe9  1  0.647008  0.866143  0.200707  1
  Fe  Fe10  1  0.866143  0.647008  0.799293  1
  Fe  Fe11  1  0.828144  0.171856  0.459974  1
  Fe  Fe12  1  0.171856  0.828144  0.540026  1
  Fe  Fe13  1  0.352992  0.133857  0.799293  1
  F  F14  1  0.568351  0.431649  0.313812  1
  F  F15  1  0.431649  0.568351  0.686188  1
  F  F16  1  0.891570  0.108430  0.694077  1
  F  F17  1  0.108430  0.891570  0.305923  1
  F  F18  1  0.748584  0.251416  0.240165  1
  F  F19  1  0.251416  0.748584  0.759835  1
  F  F20  1  0.353482  0.882281  0.454936  1
  F  F21  1  0.882281  0.353482  0.545064  1
  F  F22  1  0.646518  0.117719  0.545064  1
  F  F23  1  0.117719  0.646518  0.454936  1
  F  F24  1  0.229538  0.014264  0.616602  1
  F  F25  1  0.014264  0.229538  0.383398  1
  F  F26  1  0.770462  0.985736  0.383398  1
  F  F27  1  0.985736  0.770462  0.616602  1
  F  F28  1  0.247484  0.489546  0.033194  1
  F  F29  1  0.489546  0.247484  0.966806  1
  F  F30  1  0.752516  0.510454  0.966806  1
  F  F31  1  0.510454  0.752516  0.033194  1
  F  F32  1  0.001935  0.736121  0.993870  1
  F  F33  1  0.736121  0.001935  0.006130  1
  F  F34  1  0.998065  0.263879  0.006130  1
  F  F35  1  0.263879  0.998065  0.993870  1
  F  F36  1  0.041395  0.483265  0.196307  1
  F  F37  1  0.483265  0.041395  0.803693  1
  F  F38  1  0.958605  0.516735  0.803693  1
  F  F39  1  0.516735  0.958605  0.196307  1
  F  F40  1  0.789722  0.789246  0.797154  1
  F  F41  1  0.789246  0.789722  0.202846  1
  F  F42  1  0.210278  0.210754  0.202846  1
  F  F43  1  0.210754  0.210278  0.797154  1
  F  F44  1  0.275562  0.447130  0.389190  1
  F  F45  1  0.447130  0.275562  0.610810  1
  F  F46  1  0.724438  0.552870  0.610810  1
  F  F47  1  0.552870  0.724438  0.389190  1
