# generated using pymatgen
data_Ba5Ta4O15
_symmetry_space_group_name_H-M   'P 1'
_cell_length_a   5.86229875
_cell_length_b   5.86229875
_cell_length_c   11.98142981
_cell_angle_alpha   90.00000000
_cell_angle_beta   90.00000000
_cell_angle_gamma   120.00000000
_symmetry_Int_Tables_number   1
_chemical_formula_structural   Ba5Ta4O15
_chemical_formula_sum   'Ba5 Ta4 O15'
_cell_volume   356.59493795
_cell_formula_units_Z   1
loop_
 _symmetry_equiv_pos_site_id
 _symmetry_equiv_pos_as_xyz
  1  'x, y, z'
loop_
 _atom_site_type_symbol
 _atom_site_label
 _atom_site_symmetry_multiplicity
 _atom_site_fract_x
 _atom_site_fract_y
 _atom_site_fract_z
 _atom_site_occupancy
  Ba  Ba0  1  0.333333  0.666667  0.788005  1
  Ba  Ba1  1  0.000000  0.000000  0.000000  1
  Ba  Ba2  1  0.666667  0.333333  0.568915  1
  Ba  Ba3  1  0.333333  0.666667  0.431085  1
  Ba  Ba4  1  0.666667  0.333333  0.211995  1
  Ta  Ta5  1  0.666667  0.333333  0.896432  1
  Ta  Ta6  1  0.333333  0.666667  0.103568  1
  Ta  Ta7  1  0.000000  0.000000  0.686392  1
  Ta  Ta8  1  0.000000  0.000000  0.313608  1
  O  O9  1  0.325759  0.162880  0.386280  1
  O  O10  1  0.830641  0.661282  0.809214  1
  O  O11  1  0.837120  0.162880  0.386280  1
  O  O12  1  0.830641  0.169359  0.809214  1
  O  O13  1  0.162880  0.325759  0.613720  1
  O  O14  1  0.500000  0.500000  0.000000  1
  O  O15  1  0.000000  0.500000  0.000000  1
  O  O16  1  0.837120  0.674241  0.386280  1
  O  O17  1  0.500000  0.000000  0.000000  1
  O  O18  1  0.661282  0.830641  0.190786  1
  O  O19  1  0.338718  0.169359  0.809214  1
  O  O20  1  0.169359  0.830641  0.190786  1
  O  O21  1  0.169359  0.338718  0.190786  1
  O  O22  1  0.162880  0.837120  0.613720  1
  O  O23  1  0.674241  0.837120  0.613720  1
