# generated using pymatgen
data_Ce5Ga3
_symmetry_space_group_name_H-M   'P 1'
_cell_length_a   8.95126350
_cell_length_b   8.95126350
_cell_length_c   8.95126350
_cell_angle_alpha   95.68164893
_cell_angle_beta   95.68164893
_cell_angle_gamma   143.32131510
_symmetry_Int_Tables_number   1
_chemical_formula_structural   Ce5Ga3
_chemical_formula_sum   'Ce10 Ga6'
_cell_volume   406.65600752
_cell_formula_units_Z   2
loop_
 _symmetry_equiv_pos_site_id
 _symmetry_equiv_pos_as_xyz
  1  'x, y, z'
loop_
 _atom_site_type_symbol
 _atom_site_label
 _atom_site_symmetry_multiplicity
 _atom_site_fract_x
 _atom_site_fract_y
 _atom_site_fract_z
 _atom_site_occupancy
  Ce  Ce0  1  0.750000  0.250000  0.500000  1
  Ce  Ce1  1  0.250000  0.750000  0.500000  1
  Ce  Ce2  1  0.775878  0.082061  0.857939  1
  Ce  Ce3  1  0.917939  0.775878  0.693817  1
  Ce  Ce4  1  0.082061  0.224122  0.306183  1
  Ce  Ce5  1  0.224122  0.917939  0.142061  1
  Ce  Ce6  1  0.582061  0.275878  0.857939  1
  Ce  Ce7  1  0.417939  0.724122  0.142061  1
  Ce  Ce8  1  0.275878  0.417939  0.693817  1
  Ce  Ce9  1  0.724122  0.582061  0.306183  1
  Ga  Ga10  1  0.250000  0.250000  0.000000  1
  Ga  Ga11  1  0.750000  0.750000  0.000000  1
  Ga  Ga12  1  0.336959  0.163041  0.500000  1
  Ga  Ga13  1  0.836959  0.336959  0.173917  1
  Ga  Ga14  1  0.163041  0.663041  0.826083  1
  Ga  Ga15  1  0.663041  0.836959  0.500000  1
