# generated using pymatgen
data_Sr(GaO2)2
_symmetry_space_group_name_H-M   'P 1'
_cell_length_a   8.21509346
_cell_length_b   10.87682601
_cell_length_c   12.13875339
_cell_angle_alpha   90.00000000
_cell_angle_beta   130.87276123
_cell_angle_gamma   90.00000000
_symmetry_Int_Tables_number   1
_chemical_formula_structural   Sr(GaO2)2
_chemical_formula_sum   'Sr8 Ga16 O32'
_cell_volume   820.17239936
_cell_formula_units_Z   8
loop_
 _symmetry_equiv_pos_site_id
 _symmetry_equiv_pos_as_xyz
  1  'x, y, z'
loop_
 _atom_site_type_symbol
 _atom_site_label
 _atom_site_symmetry_multiplicity
 _atom_site_fract_x
 _atom_site_fract_y
 _atom_site_fract_z
 _atom_site_occupancy
  Sr  Sr0  1  0.279761  0.890455  0.774830  1
  Sr  Sr1  1  0.720239  0.109545  0.225170  1
  Sr  Sr2  1  0.279761  0.609545  0.274830  1
  Sr  Sr3  1  0.296552  0.152260  0.299917  1
  Sr  Sr4  1  0.720239  0.390455  0.725170  1
  Sr  Sr5  1  0.703448  0.652260  0.200083  1
  Sr  Sr6  1  0.296552  0.347740  0.799917  1
  Sr  Sr7  1  0.703448  0.847740  0.700083  1
  Ga  Ga8  1  0.099253  0.634891  0.907457  1
  Ga  Ga9  1  0.848758  0.637765  0.567588  1
  Ga  Ga10  1  0.848758  0.862235  0.067588  1
  Ga  Ga11  1  0.099253  0.865109  0.407457  1
  Ga  Ga12  1  0.241214  0.886427  0.069378  1
  Ga  Ga13  1  0.667875  0.886632  0.405024  1
  Ga  Ga14  1  0.332125  0.386632  0.094976  1
  Ga  Ga15  1  0.151242  0.137765  0.932412  1
  Ga  Ga16  1  0.758786  0.386427  0.430622  1
  Ga  Ga17  1  0.332125  0.113368  0.594976  1
  Ga  Ga18  1  0.667875  0.613368  0.905024  1
  Ga  Ga19  1  0.900747  0.134891  0.592543  1
  Ga  Ga20  1  0.241214  0.613573  0.569378  1
  Ga  Ga21  1  0.758786  0.113573  0.930622  1
  Ga  Ga22  1  0.151242  0.362235  0.432412  1
  Ga  Ga23  1  0.900747  0.365109  0.092543  1
  O  O24  1  0.605079  0.741400  0.453369  1
  O  O25  1  0.965969  0.280999  0.252097  1
  O  O26  1  0.253305  0.519108  0.445503  1
  O  O27  1  0.034031  0.780999  0.247903  1
  O  O28  1  0.807775  0.524812  0.077882  1
  O  O29  1  0.192225  0.024812  0.422118  1
  O  O30  1  0.818159  0.886609  0.338360  1
  O  O31  1  0.746695  0.480892  0.554497  1
  O  O32  1  0.952824  0.635175  0.471926  1
  O  O33  1  0.394921  0.241400  0.046631  1
  O  O34  1  0.192225  0.475188  0.922118  1
  O  O35  1  0.418243  0.965504  0.248673  1
  O  O36  1  0.965969  0.219001  0.752097  1
  O  O37  1  0.746695  0.019108  0.054497  1
  O  O38  1  0.418243  0.534496  0.748673  1
  O  O39  1  0.047176  0.135175  0.028074  1
  O  O40  1  0.394921  0.258600  0.546631  1
  O  O41  1  0.683534  0.217184  0.416496  1
  O  O42  1  0.316466  0.717184  0.083504  1
  O  O43  1  0.253305  0.980892  0.945503  1
  O  O44  1  0.683534  0.282816  0.916496  1
  O  O45  1  0.181841  0.386609  0.161640  1
  O  O46  1  0.034031  0.719001  0.747903  1
  O  O47  1  0.581757  0.465504  0.251327  1
  O  O48  1  0.807775  0.975188  0.577882  1
  O  O49  1  0.952824  0.864825  0.971926  1
  O  O50  1  0.047176  0.364825  0.528074  1
  O  O51  1  0.605079  0.758600  0.953369  1
  O  O52  1  0.581757  0.034496  0.751327  1
  O  O53  1  0.316466  0.782816  0.583504  1
  O  O54  1  0.818159  0.613391  0.838360  1
  O  O55  1  0.181841  0.113391  0.661640  1
