# generated using pymatgen
data_K2BeH4(SeO5)2
_symmetry_space_group_name_H-M   'P 1'
_cell_length_a   7.61593130
_cell_length_b   12.03312639
_cell_length_c   11.66110310
_cell_angle_alpha   90.00000000
_cell_angle_beta   95.94783615
_cell_angle_gamma   90.00000000
_symmetry_Int_Tables_number   1
_chemical_formula_structural   K2BeH4(SeO5)2
_chemical_formula_sum   'K8 Be4 H16 Se8 O40'
_cell_volume   1062.91088865
_cell_formula_units_Z   4
loop_
 _symmetry_equiv_pos_site_id
 _symmetry_equiv_pos_as_xyz
  1  'x, y, z'
loop_
 _atom_site_type_symbol
 _atom_site_label
 _atom_site_symmetry_multiplicity
 _atom_site_fract_x
 _atom_site_fract_y
 _atom_site_fract_z
 _atom_site_occupancy
  K  K0  1  0.981247  0.759005  0.594441  1
  K  K1  1  0.518753  0.259005  0.405559  1
  K  K2  1  0.018753  0.240995  0.405559  1
  K  K3  1  0.481247  0.740995  0.594441  1
  K  K4  1  0.329392  0.902241  0.888911  1
  K  K5  1  0.170608  0.402241  0.111089  1
  K  K6  1  0.670608  0.097759  0.111089  1
  K  K7  1  0.829392  0.597759  0.888911  1
  Be  Be8  1  0.084929  0.915083  0.265296  1
  Be  Be9  1  0.415071  0.415083  0.734704  1
  Be  Be10  1  0.915071  0.084917  0.734704  1
  Be  Be11  1  0.584929  0.584917  0.265296  1
  H  H12  1  0.038455  0.811535  0.098679  1
  H  H13  1  0.461545  0.311535  0.901321  1
  H  H14  1  0.961545  0.188465  0.901321  1
  H  H15  1  0.538455  0.688465  0.098679  1
  H  H16  1  0.103532  0.730429  0.210189  1
  H  H17  1  0.396468  0.230429  0.789811  1
  H  H18  1  0.896468  0.269571  0.789811  1
  H  H19  1  0.603532  0.769571  0.210189  1
  H  H20  1  0.394325  0.916604  0.306768  1
  H  H21  1  0.105675  0.416604  0.693232  1
  H  H22  1  0.605675  0.083396  0.693232  1
  H  H23  1  0.894325  0.583396  0.306768  1
  H  H24  1  0.293470  0.987131  0.399968  1
  H  H25  1  0.206530  0.487131  0.600032  1
  H  H26  1  0.706530  0.012869  0.600032  1
  H  H27  1  0.793470  0.512869  0.399968  1
  Se  Se28  1  0.749198  0.948596  0.377422  1
  Se  Se29  1  0.750802  0.448596  0.622578  1
  Se  Se30  1  0.250802  0.051404  0.622578  1
  Se  Se31  1  0.249198  0.551404  0.377422  1
  Se  Se32  1  0.837218  0.887967  0.870275  1
  Se  Se33  1  0.662782  0.387967  0.129725  1
  Se  Se34  1  0.162782  0.112033  0.129725  1
  Se  Se35  1  0.337218  0.612033  0.870275  1
  O  O36  1  0.752376  0.085767  0.369362  1
  O  O37  1  0.747624  0.585767  0.630638  1
  O  O38  1  0.247624  0.914233  0.630638  1
  O  O39  1  0.252376  0.414233  0.369362  1
  O  O40  1  0.696228  0.905683  0.505948  1
  O  O41  1  0.803772  0.405683  0.494052  1
  O  O42  1  0.303772  0.094317  0.494052  1
  O  O43  1  0.196228  0.594317  0.505948  1
  O  O44  1  0.604666  0.899686  0.270149  1
  O  O45  1  0.895334  0.399686  0.729851  1
  O  O46  1  0.395334  0.100314  0.729851  1
  O  O47  1  0.104666  0.600314  0.270149  1
  O  O48  1  0.950814  0.891853  0.366002  1
  O  O49  1  0.549186  0.391853  0.633998  1
  O  O50  1  0.049186  0.108147  0.633998  1
  O  O51  1  0.450814  0.608147  0.366002  1
  O  O52  1  0.686767  0.959254  0.931893  1
  O  O53  1  0.813233  0.459254  0.068107  1
  O  O54  1  0.313233  0.040746  0.068107  1
  O  O55  1  0.186767  0.540746  0.931893  1
  O  O56  1  0.746880  0.805496  0.765835  1
  O  O57  1  0.753120  0.305496  0.234165  1
  O  O58  1  0.253120  0.194504  0.234165  1
  O  O59  1  0.246880  0.694504  0.765835  1
  O  O60  1  0.968886  0.810143  0.961790  1
  O  O61  1  0.531114  0.310143  0.038210  1
  O  O62  1  0.031114  0.189857  0.038210  1
  O  O63  1  0.468886  0.689857  0.961790  1
  O  O64  1  0.979248  0.977544  0.811562  1
  O  O65  1  0.520752  0.477544  0.188438  1
  O  O66  1  0.020752  0.022456  0.188438  1
  O  O67  1  0.479248  0.522456  0.811562  1
  O  O68  1  0.096235  0.808151  0.180313  1
  O  O69  1  0.403765  0.308151  0.819687  1
  O  O70  1  0.903765  0.191849  0.819687  1
  O  O71  1  0.596235  0.691849  0.180313  1
  O  O72  1  0.279556  0.926373  0.340584  1
  O  O73  1  0.220444  0.426373  0.659416  1
  O  O74  1  0.720444  0.073627  0.659416  1
  O  O75  1  0.779556  0.573627  0.340584  1
