# generated using pymatgen
data_Na11U5O16
_symmetry_space_group_name_H-M   'P 1'
_cell_length_a   9.68445138
_cell_length_b   9.68445138
_cell_length_c   9.68445138
_cell_angle_alpha   90.00000000
_cell_angle_beta   90.00000000
_cell_angle_gamma   90.00000000
_symmetry_Int_Tables_number   1
_chemical_formula_structural   Na11U5O16
_chemical_formula_sum   'Na22 U10 O32'
_cell_volume   908.29112248
_cell_formula_units_Z   2
loop_
 _symmetry_equiv_pos_site_id
 _symmetry_equiv_pos_as_xyz
  1  'x, y, z'
loop_
 _atom_site_type_symbol
 _atom_site_label
 _atom_site_symmetry_multiplicity
 _atom_site_fract_x
 _atom_site_fract_y
 _atom_site_fract_z
 _atom_site_occupancy
  Na  Na0  1  0.750000  0.750000  0.750000  1
  Na  Na1  1  0.250000  0.750000  0.250000  1
  Na  Na2  1  0.250000  0.250000  0.750000  1
  Na  Na3  1  0.750000  0.250000  0.250000  1
  Na  Na4  1  0.250000  0.000000  0.500000  1
  Na  Na5  1  0.750000  0.000000  0.500000  1
  Na  Na6  1  0.000000  0.500000  0.250000  1
  Na  Na7  1  0.000000  0.500000  0.750000  1
  Na  Na8  1  0.500000  0.750000  0.000000  1
  Na  Na9  1  0.500000  0.250000  0.000000  1
  Na  Na10  1  0.234285  0.000000  0.000000  1
  Na  Na11  1  0.734285  0.500000  0.500000  1
  Na  Na12  1  0.500000  0.500000  0.265715  1
  Na  Na13  1  0.500000  0.500000  0.734285  1
  Na  Na14  1  0.500000  0.734285  0.500000  1
  Na  Na15  1  0.500000  0.265715  0.500000  1
  Na  Na16  1  0.000000  0.234285  0.000000  1
  Na  Na17  1  0.000000  0.000000  0.234285  1
  Na  Na18  1  0.000000  0.765715  0.000000  1
  Na  Na19  1  0.000000  0.000000  0.765715  1
  Na  Na20  1  0.765715  0.000000  0.000000  1
  Na  Na21  1  0.265715  0.500000  0.500000  1
  U  U22  1  0.250000  0.250000  0.250000  1
  U  U23  1  0.750000  0.250000  0.750000  1
  U  U24  1  0.750000  0.750000  0.250000  1
  U  U25  1  0.250000  0.750000  0.750000  1
  U  U26  1  0.250000  0.500000  0.000000  1
  U  U27  1  0.750000  0.500000  0.000000  1
  U  U28  1  0.500000  0.000000  0.250000  1
  U  U29  1  0.500000  0.000000  0.750000  1
  U  U30  1  0.000000  0.750000  0.500000  1
  U  U31  1  0.000000  0.250000  0.500000  1
  O  O32  1  0.000000  0.000000  0.000000  1
  O  O33  1  0.500000  0.500000  0.500000  1
  O  O34  1  0.000000  0.500000  0.500000  1
  O  O35  1  0.500000  0.000000  0.000000  1
  O  O36  1  0.000000  0.000000  0.500000  1
  O  O37  1  0.000000  0.500000  0.000000  1
  O  O38  1  0.500000  0.000000  0.500000  1
  O  O39  1  0.500000  0.500000  0.000000  1
  O  O40  1  0.750971  0.273814  0.982793  1
  O  O41  1  0.250971  0.517207  0.773814  1
  O  O42  1  0.250971  0.482793  0.226186  1
  O  O43  1  0.482793  0.773814  0.749029  1
  O  O44  1  0.517207  0.773814  0.250971  1
  O  O45  1  0.226186  0.250971  0.482793  1
  O  O46  1  0.773814  0.749029  0.482793  1
  O  O47  1  0.982793  0.750971  0.273814  1
  O  O48  1  0.273814  0.982793  0.750971  1
  O  O49  1  0.726186  0.017207  0.750971  1
  O  O50  1  0.982793  0.249029  0.726186  1
  O  O51  1  0.726186  0.982793  0.249029  1
  O  O52  1  0.017207  0.249029  0.273814  1
  O  O53  1  0.017207  0.750971  0.726186  1
  O  O54  1  0.273814  0.017207  0.249029  1
  O  O55  1  0.750971  0.726186  0.017207  1
  O  O56  1  0.249029  0.273814  0.017207  1
  O  O57  1  0.249029  0.726186  0.982793  1
  O  O58  1  0.773814  0.250971  0.517207  1
  O  O59  1  0.226186  0.749029  0.517207  1
  O  O60  1  0.482793  0.226186  0.250971  1
  O  O61  1  0.517207  0.226186  0.749029  1
  O  O62  1  0.749029  0.482793  0.773814  1
  O  O63  1  0.749029  0.517207  0.226186  1
