# generated using pymatgen
data_V2Cu2O7
_symmetry_space_group_name_H-M   'P 1'
_cell_length_a   5.67603800
_cell_length_b   5.67603800
_cell_length_c   10.25811876
_cell_angle_alpha   76.34597952
_cell_angle_beta   103.65402048
_cell_angle_gamma   89.26034509
_symmetry_Int_Tables_number   1
_chemical_formula_structural   V2Cu2O7
_chemical_formula_sum   'V4 Cu4 O14'
_cell_volume   311.24850684
_cell_formula_units_Z   2
loop_
 _symmetry_equiv_pos_site_id
 _symmetry_equiv_pos_as_xyz
  1  'x, y, z'
loop_
 _atom_site_type_symbol
 _atom_site_label
 _atom_site_symmetry_multiplicity
 _atom_site_fract_x
 _atom_site_fract_y
 _atom_site_fract_z
 _atom_site_occupancy
  V  V0  1  0.443034  0.001637  0.286514  1
  V  V1  1  0.001637  0.443034  0.213486  1
  V  V2  1  0.556966  0.998363  0.713486  1
  V  V3  1  0.998363  0.556966  0.786514  1
  Cu  Cu4  1  0.232546  0.623910  0.512586  1
  Cu  Cu5  1  0.623910  0.232546  0.987414  1
  Cu  Cu6  1  0.767454  0.376090  0.487414  1
  Cu  Cu7  1  0.376090  0.767454  0.012586  1
  O  O8  1  0.861805  0.861805  0.750000  1
  O  O9  1  0.138195  0.138195  0.250000  1
  O  O10  1  0.362374  0.821287  0.635442  1
  O  O11  1  0.821287  0.362374  0.864558  1
  O  O12  1  0.637626  0.178713  0.364558  1
  O  O13  1  0.178713  0.637626  0.135442  1
  O  O14  1  0.457299  0.718514  0.397494  1
  O  O15  1  0.718514  0.457299  0.102506  1
  O  O16  1  0.542701  0.281486  0.602506  1
  O  O17  1  0.281486  0.542701  0.897494  1
  O  O18  1  0.487751  0.009955  0.873385  1
  O  O19  1  0.009955  0.487751  0.626615  1
  O  O20  1  0.512249  0.990045  0.126615  1
  O  O21  1  0.990045  0.512249  0.373385  1
