# generated using pymatgen
data_Zn3(PO4)2
_symmetry_space_group_name_H-M   'P 1'
_cell_length_a   8.42632765
_cell_length_b   9.24296819
_cell_length_c   8.88100502
_cell_angle_alpha   90.00000000
_cell_angle_beta   113.00266732
_cell_angle_gamma   90.00000000
_symmetry_Int_Tables_number   1
_chemical_formula_structural   Zn3(PO4)2
_chemical_formula_sum   'Zn12 P8 O32'
_cell_volume   636.69203427
_cell_formula_units_Z   4
loop_
 _symmetry_equiv_pos_site_id
 _symmetry_equiv_pos_as_xyz
  1  'x, y, z'
loop_
 _atom_site_type_symbol
 _atom_site_label
 _atom_site_symmetry_multiplicity
 _atom_site_fract_x
 _atom_site_fract_y
 _atom_site_fract_z
 _atom_site_occupancy
  Zn  Zn0  1  0.015015  0.891781  0.870991  1
  Zn  Zn1  1  0.015015  0.608219  0.370991  1
  Zn  Zn2  1  0.984985  0.391781  0.629009  1
  Zn  Zn3  1  0.416331  0.232652  0.033119  1
  Zn  Zn4  1  0.291656  0.611555  0.052004  1
  Zn  Zn5  1  0.708344  0.388445  0.947996  1
  Zn  Zn6  1  0.583669  0.732652  0.466881  1
  Zn  Zn7  1  0.416331  0.267348  0.533119  1
  Zn  Zn8  1  0.708344  0.111555  0.447996  1
  Zn  Zn9  1  0.291656  0.888445  0.552004  1
  Zn  Zn10  1  0.583669  0.767348  0.966881  1
  Zn  Zn11  1  0.984985  0.108219  0.129009  1
  P  P12  1  0.857061  0.885633  0.318700  1
  P  P13  1  0.142939  0.114367  0.681300  1
  P  P14  1  0.644765  0.438410  0.308717  1
  P  P15  1  0.644765  0.061590  0.808717  1
  P  P16  1  0.857061  0.614367  0.818700  1
  P  P17  1  0.355235  0.938410  0.191283  1
  P  P18  1  0.142939  0.385633  0.181300  1
  P  P19  1  0.355235  0.561590  0.691283  1
  O  O20  1  0.251139  0.399514  0.073789  1
  O  O21  1  0.532321  0.926539  0.801746  1
  O  O22  1  0.606460  0.115997  0.631127  1
  O  O23  1  0.224940  0.276476  0.320753  1
  O  O24  1  0.748861  0.899514  0.426211  1
  O  O25  1  0.872743  0.458374  0.765773  1
  O  O26  1  0.039713  0.682769  0.919184  1
  O  O27  1  0.839533  0.477904  0.395405  1
  O  O28  1  0.127257  0.958374  0.734227  1
  O  O29  1  0.467679  0.073461  0.198254  1
  O  O30  1  0.391485  0.685290  0.590837  1
  O  O31  1  0.839533  0.022096  0.895405  1
  O  O32  1  0.467679  0.426539  0.698254  1
  O  O33  1  0.872743  0.041626  0.265773  1
  O  O34  1  0.251139  0.100486  0.573789  1
  O  O35  1  0.160467  0.522096  0.604595  1
  O  O36  1  0.775060  0.723524  0.679247  1
  O  O37  1  0.224940  0.223524  0.820753  1
  O  O38  1  0.960287  0.317231  0.080816  1
  O  O39  1  0.606460  0.384003  0.131127  1
  O  O40  1  0.775060  0.776476  0.179247  1
  O  O41  1  0.039713  0.817231  0.419184  1
  O  O42  1  0.393540  0.615997  0.868873  1
  O  O43  1  0.160467  0.977904  0.104595  1
  O  O44  1  0.748861  0.600486  0.926211  1
  O  O45  1  0.608515  0.185290  0.909163  1
  O  O46  1  0.960287  0.182769  0.580816  1
  O  O47  1  0.127257  0.541626  0.234227  1
  O  O48  1  0.393540  0.884003  0.368873  1
  O  O49  1  0.532321  0.573461  0.301746  1
  O  O50  1  0.608515  0.314710  0.409163  1
  O  O51  1  0.391485  0.814710  0.090837  1
