# generated using pymatgen
data_Ta3Bi7O18
_symmetry_space_group_name_H-M   'P 1'
_cell_length_a   16.74533118
_cell_length_b   16.74533118
_cell_length_c   6.71401785
_cell_angle_alpha   86.37297168
_cell_angle_beta   93.62702832
_cell_angle_gamma   153.47926764
_symmetry_Int_Tables_number   1
_chemical_formula_structural   Ta3Bi7O18
_chemical_formula_sum   'Ta6 Bi14 O36'
_cell_volume   838.86723778
_cell_formula_units_Z   2
loop_
 _symmetry_equiv_pos_site_id
 _symmetry_equiv_pos_as_xyz
  1  'x, y, z'
loop_
 _atom_site_type_symbol
 _atom_site_label
 _atom_site_symmetry_multiplicity
 _atom_site_fract_x
 _atom_site_fract_y
 _atom_site_fract_z
 _atom_site_occupancy
  Ta  Ta0  1  0.306331  0.194376  0.117251  1
  Ta  Ta1  1  0.805624  0.693669  0.117251  1
  Ta  Ta2  1  0.500000  1.000000  0.500000  1
  Ta  Ta3  1  0.693669  0.805624  0.882749  1
  Ta  Ta4  1  0.000000  0.500000  0.500000  1
  Ta  Ta5  1  0.194376  0.306331  0.882749  1
  Bi  Bi6  1  0.747969  0.252031  0.026176  1
  Bi  Bi7  1  0.448491  0.551509  0.348123  1
  Bi  Bi8  1  0.604099  0.894694  0.163680  1
  Bi  Bi9  1  0.395901  0.105306  0.836320  1
  Bi  Bi10  1  0.105306  0.395901  0.163680  1
  Bi  Bi11  1  0.646654  0.353346  0.317460  1
  Bi  Bi12  1  0.252031  0.747969  0.973824  1
  Bi  Bi13  1  0.894694  0.604099  0.836320  1
  Bi  Bi14  1  0.353346  0.646654  0.682540  1
  Bi  Bi15  1  0.943678  0.056322  0.407470  1
  Bi  Bi16  1  0.838364  0.161636  0.688683  1
  Bi  Bi17  1  0.056322  0.943678  0.592530  1
  Bi  Bi18  1  0.161636  0.838364  0.311317  1
  Bi  Bi19  1  0.551509  0.448491  0.651877  1
  O  O20  1  0.879514  0.120486  0.422934  1
  O  O21  1  0.818161  0.181839  0.017692  1
  O  O22  1  0.858606  0.715716  0.814436  1
  O  O23  1  0.650234  0.750130  0.606183  1
  O  O24  1  0.047848  0.952152  0.169299  1
  O  O25  1  0.181839  0.818161  0.982308  1
  O  O26  1  0.349766  0.249870  0.393817  1
  O  O27  1  0.670365  0.907647  0.854700  1
  O  O28  1  0.431296  0.568704  0.940036  1
  O  O29  1  0.670735  0.329265  0.006197  1
  O  O30  1  0.715716  0.858606  0.185564  1
  O  O31  1  0.750130  0.650234  0.393817  1
  O  O32  1  0.102316  0.481541  0.571760  1
  O  O33  1  0.945276  0.464078  0.786426  1
  O  O34  1  0.897684  0.518459  0.428240  1
  O  O35  1  0.383385  0.616615  0.344676  1
  O  O36  1  0.764092  0.235908  0.459040  1
  O  O37  1  0.535922  0.054724  0.786426  1
  O  O38  1  0.464078  0.945276  0.213574  1
  O  O39  1  0.054724  0.535922  0.213574  1
  O  O40  1  0.616615  0.383385  0.655324  1
  O  O41  1  0.141394  0.284284  0.185564  1
  O  O42  1  0.249870  0.349766  0.606183  1
  O  O43  1  0.235908  0.764092  0.540960  1
  O  O44  1  0.329635  0.092353  0.145300  1
  O  O45  1  0.279409  0.279409  0.000000  1
  O  O46  1  0.518459  0.897684  0.571760  1
  O  O47  1  0.720591  0.720591  0.000000  1
  O  O48  1  0.092353  0.329635  0.854700  1
  O  O49  1  0.907647  0.670365  0.145300  1
  O  O50  1  0.952152  0.047848  0.830701  1
  O  O51  1  0.284284  0.141394  0.814436  1
  O  O52  1  0.120486  0.879514  0.577066  1
  O  O53  1  0.329265  0.670735  0.993803  1
  O  O54  1  0.568704  0.431296  0.059964  1
  O  O55  1  0.481541  0.102316  0.428240  1
