# generated using pymatgen
data_Sm4Sn3
_symmetry_space_group_name_H-M   'P 1'
_cell_length_a   8.22890844
_cell_length_b   8.22890844
_cell_length_c   8.22890844
_cell_angle_alpha   109.47122063
_cell_angle_beta   109.47122063
_cell_angle_gamma   109.47122063
_symmetry_Int_Tables_number   1
_chemical_formula_structural   Sm4Sn3
_chemical_formula_sum   'Sm8 Sn6'
_cell_volume   428.94815094
_cell_formula_units_Z   2
loop_
 _symmetry_equiv_pos_site_id
 _symmetry_equiv_pos_as_xyz
  1  'x, y, z'
loop_
 _atom_site_type_symbol
 _atom_site_label
 _atom_site_symmetry_multiplicity
 _atom_site_fract_x
 _atom_site_fract_y
 _atom_site_fract_z
 _atom_site_occupancy
  Sm  Sm0  1  0.358988  0.500000  1.000000  1
  Sm  Sm1  1  0.858988  0.500000  0.000000  1
  Sm  Sm2  1  0.641012  0.641012  0.641012  1
  Sm  Sm3  1  0.500000  1.000000  0.358988  1
  Sm  Sm4  1  0.141012  0.141012  0.141012  1
  Sm  Sm5  1  1.000000  0.858988  0.500000  1
  Sm  Sm6  1  0.500000  1.000000  0.858988  1
  Sm  Sm7  1  1.000000  0.358988  0.500000  1
  Sn  Sn8  1  0.875000  0.125000  0.750000  1
  Sn  Sn9  1  0.750000  0.875000  0.125000  1
  Sn  Sn10  1  0.250000  0.625000  0.375000  1
  Sn  Sn11  1  0.625000  0.375000  0.250000  1
  Sn  Sn12  1  0.125000  0.750000  0.875000  1
  Sn  Sn13  1  0.375000  0.250000  0.625000  1
