# generated using pymatgen
data_Ba2TiO4
_symmetry_space_group_name_H-M   'P 1'
_cell_length_a   6.20926669
_cell_length_b   10.69316263
_cell_length_c   23.32857651
_cell_angle_alpha   90.00000000
_cell_angle_beta   90.00000000
_cell_angle_gamma   90.00000000
_symmetry_Int_Tables_number   1
_chemical_formula_structural   Ba2TiO4
_chemical_formula_sum   'Ba24 Ti12 O48'
_cell_volume   1548.94046165
_cell_formula_units_Z   12
loop_
 _symmetry_equiv_pos_site_id
 _symmetry_equiv_pos_as_xyz
  1  'x, y, z'
loop_
 _atom_site_type_symbol
 _atom_site_label
 _atom_site_symmetry_multiplicity
 _atom_site_fract_x
 _atom_site_fract_y
 _atom_site_fract_z
 _atom_site_occupancy
  Ba  Ba0  1  0.236931  0.578282  0.110292  1
  Ba  Ba1  1  0.261851  0.201216  0.164461  1
  Ba  Ba2  1  0.761851  0.798784  0.835539  1
  Ba  Ba3  1  0.714659  0.428476  0.555139  1
  Ba  Ba4  1  0.760002  0.073484  0.720115  1
  Ba  Ba5  1  0.712570  0.799813  0.502370  1
  Ba  Ba6  1  0.236931  0.921718  0.610292  1
  Ba  Ba7  1  0.747987  0.801735  0.169737  1
  Ba  Ba8  1  0.712570  0.700187  0.002370  1
  Ba  Ba9  1  0.736931  0.078282  0.389708  1
  Ba  Ba10  1  0.747987  0.698265  0.669737  1
  Ba  Ba11  1  0.261851  0.298784  0.664461  1
  Ba  Ba12  1  0.214659  0.571524  0.444861  1
  Ba  Ba13  1  0.760002  0.426516  0.220115  1
  Ba  Ba14  1  0.761851  0.701216  0.335539  1
  Ba  Ba15  1  0.736931  0.421718  0.889708  1
  Ba  Ba16  1  0.212570  0.200187  0.497630  1
  Ba  Ba17  1  0.714659  0.071524  0.055139  1
  Ba  Ba18  1  0.247987  0.198265  0.830263  1
  Ba  Ba19  1  0.247987  0.301735  0.330263  1
  Ba  Ba20  1  0.214659  0.928476  0.944861  1
  Ba  Ba21  1  0.212570  0.299813  0.997630  1
  Ba  Ba22  1  0.260002  0.573484  0.779885  1
  Ba  Ba23  1  0.260002  0.926516  0.279885  1
  Ti  Ti24  1  0.244685  0.585592  0.927476  1
  Ti  Ti25  1  0.720011  0.085686  0.905299  1
  Ti  Ti26  1  0.251596  0.913017  0.759510  1
  Ti  Ti27  1  0.744685  0.414408  0.072524  1
  Ti  Ti28  1  0.244685  0.914408  0.427476  1
  Ti  Ti29  1  0.220011  0.914314  0.094701  1
  Ti  Ti30  1  0.220011  0.585686  0.594701  1
  Ti  Ti31  1  0.744685  0.085592  0.572524  1
  Ti  Ti32  1  0.720011  0.414314  0.405299  1
  Ti  Ti33  1  0.251596  0.586983  0.259510  1
  Ti  Ti34  1  0.751596  0.413017  0.740490  1
  Ti  Ti35  1  0.751596  0.086983  0.240490  1
  O  O36  1  0.485836  0.648432  0.575305  1
  O  O37  1  0.963297  0.204871  0.251289  1
  O  O38  1  0.463297  0.795129  0.748711  1
  O  O39  1  0.530509  0.203149  0.580676  1
  O  O40  1  0.173349  0.061054  0.390285  1
  O  O41  1  0.181205  0.436735  0.555413  1
  O  O42  1  0.191543  0.560618  0.334699  1
  O  O43  1  0.316382  0.554491  0.001722  1
  O  O44  1  0.816382  0.445509  0.998278  1
  O  O45  1  0.997599  0.639881  0.227013  1
  O  O46  1  0.320118  0.061441  0.723002  1
  O  O47  1  0.816382  0.054491  0.498278  1
  O  O48  1  0.173349  0.438946  0.890285  1
  O  O49  1  0.995237  0.140565  0.606457  1
  O  O50  1  0.011423  0.697791  0.573641  1
  O  O51  1  0.690911  0.444782  0.329395  1
  O  O52  1  0.463297  0.704871  0.248711  1
  O  O53  1  0.997599  0.860119  0.727013  1
  O  O54  1  0.681205  0.936735  0.944587  1
  O  O55  1  0.963297  0.295129  0.751289  1
  O  O56  1  0.191543  0.939382  0.834699  1
  O  O57  1  0.530509  0.296851  0.080676  1
  O  O58  1  0.820118  0.938559  0.276998  1
  O  O59  1  0.985836  0.351568  0.424695  1
  O  O60  1  0.690911  0.055218  0.829395  1
  O  O61  1  0.497599  0.360119  0.772987  1
  O  O62  1  0.190911  0.555218  0.670605  1
  O  O63  1  0.673349  0.938946  0.609715  1
  O  O64  1  0.495237  0.640565  0.893543  1
  O  O65  1  0.320118  0.438559  0.223002  1
  O  O66  1  0.030509  0.703149  0.919324  1
  O  O67  1  0.673349  0.561054  0.109715  1
  O  O68  1  0.181205  0.063265  0.055413  1
  O  O69  1  0.030509  0.796851  0.419324  1
  O  O70  1  0.190911  0.944782  0.170605  1
  O  O71  1  0.691543  0.060618  0.165301  1
  O  O72  1  0.691543  0.439382  0.665301  1
  O  O73  1  0.681205  0.563265  0.444587  1
  O  O74  1  0.985836  0.148432  0.924695  1
  O  O75  1  0.316382  0.945509  0.501722  1
  O  O76  1  0.995237  0.359435  0.106457  1
  O  O77  1  0.011423  0.802209  0.073641  1
  O  O78  1  0.820118  0.561441  0.776998  1
  O  O79  1  0.497599  0.139881  0.272987  1
  O  O80  1  0.495237  0.859435  0.393543  1
  O  O81  1  0.485836  0.851568  0.075305  1
  O  O82  1  0.511423  0.197791  0.926359  1
  O  O83  1  0.511423  0.302209  0.426359  1
