# generated using pymatgen
data_YbP5
_symmetry_space_group_name_H-M   'P 1'
_cell_length_a   5.52402429
_cell_length_b   16.65265410
_cell_length_c   5.60711384
_cell_angle_alpha   90.00000000
_cell_angle_beta   103.54071762
_cell_angle_gamma   90.00000000
_symmetry_Int_Tables_number   1
_chemical_formula_structural   YbP5
_chemical_formula_sum   'Yb4 P20'
_cell_volume   501.45933152
_cell_formula_units_Z   4
loop_
 _symmetry_equiv_pos_site_id
 _symmetry_equiv_pos_as_xyz
  1  'x, y, z'
loop_
 _atom_site_type_symbol
 _atom_site_label
 _atom_site_symmetry_multiplicity
 _atom_site_fract_x
 _atom_site_fract_y
 _atom_site_fract_z
 _atom_site_occupancy
  Yb  Yb0  1  0.119644  0.490902  0.026478  1
  Yb  Yb1  1  0.421992  0.262545  0.981428  1
  Yb  Yb2  1  0.880356  0.990902  0.973522  1
  Yb  Yb3  1  0.578008  0.762545  0.018572  1
  P  P4  1  0.833772  0.671152  0.708687  1
  P  P5  1  0.787509  0.135395  0.261968  1
  P  P6  1  0.790868  0.320602  0.427708  1
  P  P7  1  0.870273  0.258452  0.782924  1
  P  P8  1  0.773345  0.135190  0.654052  1
  P  P9  1  0.166228  0.171152  0.291313  1
  P  P10  1  0.284809  0.937199  0.414854  1
  P  P11  1  0.373105  0.127894  0.656177  1
  P  P12  1  0.671749  0.503736  0.238661  1
  P  P13  1  0.212491  0.635395  0.738032  1
  P  P14  1  0.348489  0.405943  0.658770  1
  P  P15  1  0.651511  0.905943  0.341230  1
  P  P16  1  0.715191  0.437199  0.585146  1
  P  P17  1  0.226655  0.635190  0.345948  1
  P  P18  1  0.626895  0.627894  0.343823  1
  P  P19  1  0.209132  0.820602  0.572292  1
  P  P20  1  0.163023  0.336890  0.341682  1
  P  P21  1  0.129727  0.758452  0.217076  1
  P  P22  1  0.836977  0.836890  0.658318  1
  P  P23  1  0.328251  0.003736  0.761339  1
