# generated using pymatgen
data_AsSe2S(NF3)2
_symmetry_space_group_name_H-M   'P 1'
_cell_length_a   10.12706031
_cell_length_b   16.59412882
_cell_length_c   13.56895065
_cell_angle_alpha   90.00000000
_cell_angle_beta   129.46523305
_cell_angle_gamma   90.00000000
_symmetry_Int_Tables_number   1
_chemical_formula_structural   AsSe2S(NF3)2
_chemical_formula_sum   'As8 Se16 S8 N16 F48'
_cell_volume   1760.38343891
_cell_formula_units_Z   8
loop_
 _symmetry_equiv_pos_site_id
 _symmetry_equiv_pos_as_xyz
  1  'x, y, z'
loop_
 _atom_site_type_symbol
 _atom_site_label
 _atom_site_symmetry_multiplicity
 _atom_site_fract_x
 _atom_site_fract_y
 _atom_site_fract_z
 _atom_site_occupancy
  As  As0  1  0.887575  0.154590  0.635220  1
  As  As1  1  0.887575  0.345410  0.135220  1
  As  As2  1  0.429200  0.561184  0.696237  1
  As  As3  1  0.570800  0.438816  0.303763  1
  As  As4  1  0.570800  0.061184  0.803763  1
  As  As5  1  0.429200  0.938816  0.196237  1
  As  As6  1  0.112425  0.654590  0.864780  1
  As  As7  1  0.112425  0.845410  0.364780  1
  Se  Se8  1  0.662588  0.806302  0.039613  1
  Se  Se9  1  0.168720  0.204108  0.031362  1
  Se  Se10  1  0.831280  0.795892  0.968638  1
  Se  Se11  1  0.278657  0.118880  0.396296  1
  Se  Se12  1  0.168720  0.295892  0.531362  1
  Se  Se13  1  0.831280  0.704108  0.468638  1
  Se  Se14  1  0.662588  0.693698  0.539613  1
  Se  Se15  1  0.721343  0.881120  0.603704  1
  Se  Se16  1  0.883516  0.888240  0.528068  1
  Se  Se17  1  0.278657  0.381120  0.896296  1
  Se  Se18  1  0.116484  0.388240  0.971932  1
  Se  Se19  1  0.883516  0.611760  0.028068  1
  Se  Se20  1  0.337412  0.306302  0.460387  1
  Se  Se21  1  0.337412  0.193698  0.960387  1
  Se  Se22  1  0.116484  0.111760  0.471932  1
  Se  Se23  1  0.721343  0.618880  0.103704  1
  S  S24  1  0.909773  0.102074  0.194837  1
  S  S25  1  0.462676  0.812353  0.763135  1
  S  S26  1  0.090227  0.897926  0.805163  1
  S  S27  1  0.537324  0.312353  0.736865  1
  S  S28  1  0.090227  0.602074  0.305163  1
  S  S29  1  0.537324  0.187647  0.236865  1
  S  S30  1  0.909773  0.397926  0.694837  1
  S  S31  1  0.462676  0.687647  0.263135  1
  N  N32  1  0.082603  0.601151  0.186284  1
  N  N33  1  0.645652  0.695614  0.303622  1
  N  N34  1  0.091093  0.390109  0.732411  1
  N  N35  1  0.917397  0.398849  0.813716  1
  N  N36  1  0.082603  0.898849  0.686284  1
  N  N37  1  0.533745  0.315313  0.619956  1
  N  N38  1  0.908907  0.890109  0.767589  1
  N  N39  1  0.645652  0.804386  0.803622  1
  N  N40  1  0.533745  0.184687  0.119956  1
  N  N41  1  0.908907  0.609891  0.267589  1
  N  N42  1  0.091093  0.109891  0.232411  1
  N  N43  1  0.917397  0.101151  0.313716  1
  N  N44  1  0.354348  0.304386  0.696378  1
  N  N45  1  0.354348  0.195614  0.196378  1
  N  N46  1  0.466255  0.684687  0.380044  1
  N  N47  1  0.466255  0.815313  0.880044  1
  F  F48  1  0.627242  0.983724  0.259161  1
  F  F49  1  0.031196  0.928664  0.260262  1
  F  F50  1  0.453880  0.131069  0.668938  1
  F  F51  1  0.372758  0.016276  0.740839  1
  F  F52  1  0.031196  0.571336  0.760262  1
  F  F53  1  0.546120  0.868931  0.331062  1
  F  F54  1  0.410089  0.494686  0.788498  1
  F  F55  1  0.318960  0.638511  0.915150  1
  F  F56  1  0.546120  0.631069  0.831062  1
  F  F57  1  0.763018  0.109581  0.862552  1
  F  F58  1  0.236982  0.609581  0.637448  1
  F  F59  1  0.544364  0.130349  0.890100  1
  F  F60  1  0.186478  0.759761  0.464561  1
  F  F61  1  0.097654  0.173962  0.687283  1
  F  F62  1  0.589911  0.994686  0.711502  1
  F  F63  1  0.057570  0.718141  0.735357  1
  F  F64  1  0.236982  0.890419  0.137448  1
  F  F65  1  0.372758  0.483724  0.240839  1
  F  F66  1  0.097654  0.326038  0.187283  1
  F  F67  1  0.627242  0.516276  0.759161  1
  F  F68  1  0.681017  0.992849  0.933692  1
  F  F69  1  0.942430  0.218141  0.764643  1
  F  F70  1  0.763018  0.390419  0.362552  1
  F  F71  1  0.318983  0.492849  0.566308  1
  F  F72  1  0.813522  0.259761  0.035439  1
  F  F73  1  0.318960  0.861489  0.415150  1
  F  F74  1  0.681040  0.138511  0.584850  1
  F  F75  1  0.410089  0.005314  0.288498  1
  F  F76  1  0.844861  0.407417  0.011530  1
  F  F77  1  0.155139  0.907417  0.488470  1
  F  F78  1  0.057570  0.781859  0.235357  1
  F  F79  1  0.844861  0.092583  0.511530  1
  F  F80  1  0.902346  0.826038  0.312717  1
  F  F81  1  0.455636  0.869651  0.109900  1
  F  F82  1  0.942430  0.281859  0.264643  1
  F  F83  1  0.968804  0.071336  0.739738  1
  F  F84  1  0.318983  0.007151  0.066308  1
  F  F85  1  0.902346  0.673962  0.812717  1
  F  F86  1  0.968804  0.428664  0.239738  1
  F  F87  1  0.544364  0.369651  0.390100  1
  F  F88  1  0.681040  0.361489  0.084850  1
  F  F89  1  0.186478  0.740239  0.964561  1
  F  F90  1  0.455636  0.630349  0.609900  1
  F  F91  1  0.589911  0.505314  0.211502  1
  F  F92  1  0.155139  0.592583  0.988470  1
  F  F93  1  0.453880  0.368931  0.168938  1
  F  F94  1  0.813522  0.240239  0.535439  1
  F  F95  1  0.681017  0.507151  0.433692  1
