# generated using pymatgen
data_Mg3Pt
_symmetry_space_group_name_H-M   'P 1'
_cell_length_a   4.62500836
_cell_length_b   4.62500836
_cell_length_c   8.34800801
_cell_angle_alpha   90.00000000
_cell_angle_beta   90.00000000
_cell_angle_gamma   120.00000000
_symmetry_Int_Tables_number   1
_chemical_formula_structural   Mg3Pt
_chemical_formula_sum   'Mg6 Pt2'
_cell_volume   154.64594338
_cell_formula_units_Z   2
loop_
 _symmetry_equiv_pos_site_id
 _symmetry_equiv_pos_as_xyz
  1  'x, y, z'
loop_
 _atom_site_type_symbol
 _atom_site_label
 _atom_site_symmetry_multiplicity
 _atom_site_fract_x
 _atom_site_fract_y
 _atom_site_fract_z
 _atom_site_occupancy
  Mg  Mg0  1  0.666667  0.333333  0.422859  1
  Mg  Mg1  1  0.333333  0.666667  0.922859  1
  Mg  Mg2  1  0.666667  0.333333  0.077141  1
  Mg  Mg3  1  0.000000  0.000000  0.750000  1
  Mg  Mg4  1  0.000000  0.000000  0.250000  1
  Mg  Mg5  1  0.333333  0.666667  0.577141  1
  Pt  Pt6  1  0.666667  0.333333  0.750000  1
  Pt  Pt7  1  0.333333  0.666667  0.250000  1
