# generated using pymatgen
data_VCuSe2O7
_symmetry_space_group_name_H-M   'P 1'
_cell_length_a   8.28670470
_cell_length_b   8.98988870
_cell_length_c   8.65652361
_cell_angle_alpha   90.00000000
_cell_angle_beta   100.09508121
_cell_angle_gamma   90.00000000
_symmetry_Int_Tables_number   1
_chemical_formula_structural   VCuSe2O7
_chemical_formula_sum   'V4 Cu4 Se8 O28'
_cell_volume   634.89726842
_cell_formula_units_Z   4
loop_
 _symmetry_equiv_pos_site_id
 _symmetry_equiv_pos_as_xyz
  1  'x, y, z'
loop_
 _atom_site_type_symbol
 _atom_site_label
 _atom_site_symmetry_multiplicity
 _atom_site_fract_x
 _atom_site_fract_y
 _atom_site_fract_z
 _atom_site_occupancy
  V  V0  1  0.693623  0.992626  0.446219  1
  V  V1  1  0.306377  0.492626  0.053781  1
  V  V2  1  0.693623  0.507374  0.946219  1
  V  V3  1  0.306377  0.007374  0.553781  1
  Cu  Cu4  1  0.370252  0.618989  0.513357  1
  Cu  Cu5  1  0.370252  0.881011  0.013357  1
  Cu  Cu6  1  0.629748  0.118989  0.986643  1
  Cu  Cu7  1  0.629748  0.381011  0.486643  1
  Se  Se8  1  0.867650  0.268199  0.247560  1
  Se  Se9  1  0.132350  0.768199  0.252440  1
  Se  Se10  1  0.132350  0.731801  0.752440  1
  Se  Se11  1  0.671154  0.669657  0.282167  1
  Se  Se12  1  0.328846  0.169657  0.217833  1
  Se  Se13  1  0.671154  0.830343  0.782167  1
  Se  Se14  1  0.867650  0.231801  0.747560  1
  Se  Se15  1  0.328846  0.330343  0.717833  1
  O  O16  1  0.854676  0.892267  0.522914  1
  O  O17  1  0.412218  0.155733  0.723777  1
  O  O18  1  0.579629  0.591561  0.432360  1
  O  O19  1  0.445159  0.093179  0.388965  1
  O  O20  1  0.554841  0.593179  0.111035  1
  O  O21  1  0.587782  0.655733  0.776223  1
  O  O22  1  0.420371  0.091561  0.067640  1
  O  O23  1  0.587782  0.844267  0.276223  1
  O  O24  1  0.770833  0.398401  0.770561  1
  O  O25  1  0.554841  0.906821  0.611035  1
  O  O26  1  0.229167  0.898401  0.729439  1
  O  O27  1  0.277006  0.686433  0.924156  1
  O  O28  1  0.145324  0.392267  0.977086  1
  O  O29  1  0.854676  0.607733  0.022914  1
  O  O30  1  0.445159  0.406821  0.888965  1
  O  O31  1  0.770833  0.101599  0.270561  1
  O  O32  1  0.722994  0.313567  0.075844  1
  O  O33  1  0.579629  0.908439  0.932360  1
  O  O34  1  0.820227  0.393189  0.381622  1
  O  O35  1  0.179773  0.606811  0.618378  1
  O  O36  1  0.412218  0.344267  0.223777  1
  O  O37  1  0.820227  0.106811  0.881622  1
  O  O38  1  0.179773  0.893189  0.118378  1
  O  O39  1  0.722994  0.186433  0.575844  1
  O  O40  1  0.145324  0.107733  0.477086  1
  O  O41  1  0.277006  0.813567  0.424156  1
  O  O42  1  0.420371  0.408439  0.567640  1
  O  O43  1  0.229167  0.601599  0.229439  1
