# generated using pymatgen
data_CuO
_symmetry_space_group_name_H-M   'P 1'
_cell_length_a   5.74839158
_cell_length_b   5.74839158
_cell_length_c   12.65157292
_cell_angle_alpha   90.00000000
_cell_angle_beta   90.00000000
_cell_angle_gamma   90.00000000
_symmetry_Int_Tables_number   1
_chemical_formula_structural   CuO
_chemical_formula_sum   'Cu16 O16'
_cell_volume   418.05864840
_cell_formula_units_Z   16
loop_
 _symmetry_equiv_pos_site_id
 _symmetry_equiv_pos_as_xyz
  1  'x, y, z'
loop_
 _atom_site_type_symbol
 _atom_site_label
 _atom_site_symmetry_multiplicity
 _atom_site_fract_x
 _atom_site_fract_y
 _atom_site_fract_z
 _atom_site_occupancy
  Cu  Cu0  1  0.246055  0.500000  0.753274  1
  Cu  Cu1  1  0.500000  0.246055  0.246726  1
  Cu  Cu2  1  0.500000  0.753945  0.246726  1
  Cu  Cu3  1  0.753945  0.500000  0.753274  1
  Cu  Cu4  1  0.746055  0.000000  0.746726  1
  Cu  Cu5  1  0.000000  0.746055  0.253274  1
  Cu  Cu6  1  0.000000  0.253945  0.253274  1
  Cu  Cu7  1  0.253945  0.000000  0.746726  1
  Cu  Cu8  1  0.247424  0.500000  0.098832  1
  Cu  Cu9  1  0.500000  0.247424  0.901168  1
  Cu  Cu10  1  0.500000  0.752576  0.901168  1
  Cu  Cu11  1  0.752576  0.500000  0.098832  1
  Cu  Cu12  1  0.747424  0.000000  0.401168  1
  Cu  Cu13  1  0.000000  0.747424  0.598832  1
  Cu  Cu14  1  0.000000  0.252576  0.598832  1
  Cu  Cu15  1  0.252576  0.000000  0.401168  1
  O  O16  1  0.285945  0.000000  0.890328  1
  O  O17  1  0.285758  0.500000  0.897394  1
  O  O18  1  0.500000  0.785945  0.390328  1
  O  O19  1  0.500000  0.214055  0.390328  1
  O  O20  1  0.500000  0.285758  0.102606  1
  O  O21  1  0.500000  0.714242  0.102606  1
  O  O22  1  0.714242  0.500000  0.897394  1
  O  O23  1  0.714055  0.000000  0.890328  1
  O  O24  1  0.785945  0.500000  0.609672  1
  O  O25  1  0.785758  0.000000  0.602606  1
  O  O26  1  0.000000  0.714055  0.109672  1
  O  O27  1  0.000000  0.285945  0.109672  1
  O  O28  1  0.000000  0.785758  0.397394  1
  O  O29  1  0.000000  0.214242  0.397394  1
  O  O30  1  0.214242  0.000000  0.602606  1
  O  O31  1  0.214055  0.500000  0.609672  1
