# generated using pymatgen
data_ZnS
_symmetry_space_group_name_H-M   'P 1'
_cell_length_a   25.25338360
_cell_length_b   25.25338360
_cell_length_c   25.25338360
_cell_angle_alpha   8.75481663
_cell_angle_beta   8.75481663
_cell_angle_gamma   8.75481663
_symmetry_Int_Tables_number   1
_chemical_formula_structural   ZnS
_chemical_formula_sum   'Zn8 S8'
_cell_volume   323.74253774
_cell_formula_units_Z   8
loop_
 _symmetry_equiv_pos_site_id
 _symmetry_equiv_pos_as_xyz
  1  'x, y, z'
loop_
 _atom_site_type_symbol
 _atom_site_label
 _atom_site_symmetry_multiplicity
 _atom_site_fract_x
 _atom_site_fract_y
 _atom_site_fract_z
 _atom_site_occupancy
  Zn  Zn0  1  0.708324  0.708324  0.708324  1
  Zn  Zn1  1  0.416642  0.416642  0.416642  1
  Zn  Zn2  1  0.999990  0.999990  0.999990  1
  Zn  Zn3  1  0.124992  0.124992  0.124992  1
  Zn  Zn4  1  0.249988  0.249988  0.249988  1
  Zn  Zn5  1  0.499989  0.499989  0.499989  1
  Zn  Zn6  1  0.874987  0.874987  0.874987  1
  Zn  Zn7  1  0.624974  0.624974  0.624974  1
  S  S8  1  0.843763  0.843763  0.843763  1
  S  S9  1  0.385431  0.385431  0.385431  1
  S  S10  1  0.093744  0.093744  0.093744  1
  S  S11  1  0.218765  0.218765  0.218765  1
  S  S12  1  0.468784  0.468784  0.468784  1
  S  S13  1  0.677117  0.677117  0.677117  1
  S  S14  1  0.593763  0.593763  0.593763  1
  S  S15  1  0.968741  0.968741  0.968741  1
