# generated using pymatgen
data_Bi(BO2)3
_symmetry_space_group_name_H-M   'P 1'
_cell_length_a   4.30268809
_cell_length_b   11.82212681
_cell_length_c   7.33790087
_cell_angle_alpha   90.00000000
_cell_angle_beta   91.04795856
_cell_angle_gamma   90.00000000
_symmetry_Int_Tables_number   1
_chemical_formula_structural   Bi(BO2)3
_chemical_formula_sum   'Bi4 B12 O24'
_cell_volume   373.19401591
_cell_formula_units_Z   4
loop_
 _symmetry_equiv_pos_site_id
 _symmetry_equiv_pos_as_xyz
  1  'x, y, z'
loop_
 _atom_site_type_symbol
 _atom_site_label
 _atom_site_symmetry_multiplicity
 _atom_site_fract_x
 _atom_site_fract_y
 _atom_site_fract_z
 _atom_site_occupancy
  Bi  Bi0  1  0.163512  0.613788  0.368283  1
  Bi  Bi1  1  0.836488  0.113788  0.131717  1
  Bi  Bi2  1  0.163512  0.886212  0.868283  1
  Bi  Bi3  1  0.836488  0.386212  0.631717  1
  B  B4  1  0.798823  0.093403  0.630737  1
  B  B5  1  0.317724  0.162664  0.793281  1
  B  B6  1  0.309209  0.125080  0.434529  1
  B  B7  1  0.317724  0.337336  0.293281  1
  B  B8  1  0.798823  0.406597  0.130737  1
  B  B9  1  0.690791  0.625080  0.065471  1
  B  B10  1  0.682276  0.662664  0.706719  1
  B  B11  1  0.690791  0.874920  0.565471  1
  B  B12  1  0.201177  0.906597  0.369263  1
  B  B13  1  0.201177  0.593403  0.869263  1
  B  B14  1  0.309209  0.374920  0.934529  1
  B  B15  1  0.682276  0.837336  0.206719  1
  O  O16  1  0.345439  0.841025  0.226654  1
  O  O17  1  0.357686  0.883115  0.541226  1
  O  O18  1  0.230980  0.418659  0.439140  1
  O  O19  1  0.230980  0.081341  0.939140  1
  O  O20  1  0.788449  0.779014  0.677877  1
  O  O21  1  0.642314  0.383115  0.958774  1
  O  O22  1  0.357686  0.616885  0.041226  1
  O  O23  1  0.345439  0.658975  0.726654  1
  O  O24  1  0.769020  0.581341  0.560860  1
  O  O25  1  0.193550  0.471293  0.822714  1
  O  O26  1  0.654561  0.158975  0.773346  1
  O  O27  1  0.146197  0.372323  0.116843  1
  O  O28  1  0.642314  0.116885  0.458774  1
  O  O29  1  0.806450  0.528707  0.177286  1
  O  O30  1  0.806450  0.971293  0.677286  1
  O  O31  1  0.769020  0.918659  0.060860  1
  O  O32  1  0.211551  0.279014  0.822123  1
  O  O33  1  0.853803  0.872323  0.383157  1
  O  O34  1  0.193550  0.028707  0.322714  1
  O  O35  1  0.788449  0.720986  0.177877  1
  O  O36  1  0.654561  0.341025  0.273346  1
  O  O37  1  0.211551  0.220986  0.322123  1
  O  O38  1  0.146197  0.127677  0.616843  1
  O  O39  1  0.853803  0.627677  0.883157  1
