# generated using pymatgen
data_Bi2MoO6
_symmetry_space_group_name_H-M   'P 1'
_cell_length_a   5.40286290
_cell_length_b   5.42431694
_cell_length_c   16.94906519
_cell_angle_alpha   90.00000000
_cell_angle_beta   90.00000000
_cell_angle_gamma   90.00000000
_symmetry_Int_Tables_number   1
_chemical_formula_structural   Bi2MoO6
_chemical_formula_sum   'Bi8 Mo4 O24'
_cell_volume   496.72355443
_cell_formula_units_Z   4
loop_
 _symmetry_equiv_pos_site_id
 _symmetry_equiv_pos_as_xyz
  1  'x, y, z'
loop_
 _atom_site_type_symbol
 _atom_site_label
 _atom_site_symmetry_multiplicity
 _atom_site_fract_x
 _atom_site_fract_y
 _atom_site_fract_z
 _atom_site_occupancy
  Bi  Bi0  1  0.994121  0.977634  0.673042  1
  Bi  Bi1  1  0.994121  0.477634  0.826958  1
  Bi  Bi2  1  0.005879  0.022366  0.326958  1
  Bi  Bi3  1  0.005879  0.522366  0.173042  1
  Bi  Bi4  1  0.505879  0.977634  0.173042  1
  Bi  Bi5  1  0.494121  0.022366  0.826958  1
  Bi  Bi6  1  0.494121  0.522366  0.673042  1
  Bi  Bi7  1  0.505879  0.477634  0.326958  1
  Mo  Mo8  1  0.000000  0.500000  0.500000  1
  Mo  Mo9  1  0.000000  0.000000  0.000000  1
  Mo  Mo10  1  0.500000  0.500000  0.000000  1
  Mo  Mo11  1  0.500000  0.000000  0.500000  1
  O  O12  1  0.013264  0.074362  0.890211  1
  O  O13  1  0.986736  0.425638  0.390211  1
  O  O14  1  0.752333  0.248122  0.248925  1
  O  O15  1  0.013264  0.574362  0.609789  1
  O  O16  1  0.708608  0.293161  0.518313  1
  O  O17  1  0.791392  0.793161  0.481687  1
  O  O18  1  0.486736  0.074362  0.390211  1
  O  O19  1  0.486736  0.574362  0.109789  1
  O  O20  1  0.986736  0.925638  0.109789  1
  O  O21  1  0.252333  0.251878  0.248925  1
  O  O22  1  0.752333  0.748122  0.251075  1
  O  O23  1  0.247667  0.751878  0.751075  1
  O  O24  1  0.291392  0.706839  0.481687  1
  O  O25  1  0.208608  0.706839  0.981687  1
  O  O26  1  0.252333  0.751878  0.251075  1
  O  O27  1  0.513264  0.925638  0.609789  1
  O  O28  1  0.208608  0.206839  0.518313  1
  O  O29  1  0.247667  0.251878  0.748925  1
  O  O30  1  0.747667  0.248122  0.748925  1
  O  O31  1  0.708608  0.793161  0.981687  1
  O  O32  1  0.291392  0.206839  0.018313  1
  O  O33  1  0.513264  0.425638  0.890211  1
  O  O34  1  0.747667  0.748122  0.751075  1
  O  O35  1  0.791392  0.293161  0.018313  1
