# generated using pymatgen
data_Li9Ga3P8O29
_symmetry_space_group_name_H-M   'P 1'
_cell_length_a   9.78115314
_cell_length_b   9.78115314
_cell_length_c   13.74601434
_cell_angle_alpha   90.00000000
_cell_angle_beta   90.00000000
_cell_angle_gamma   120.00000000
_symmetry_Int_Tables_number   1
_chemical_formula_structural   Li9Ga3P8O29
_chemical_formula_sum   'Li18 Ga6 P16 O58'
_cell_volume   1138.90511010
_cell_formula_units_Z   2
loop_
 _symmetry_equiv_pos_site_id
 _symmetry_equiv_pos_as_xyz
  1  'x, y, z'
loop_
 _atom_site_type_symbol
 _atom_site_label
 _atom_site_symmetry_multiplicity
 _atom_site_fract_x
 _atom_site_fract_y
 _atom_site_fract_z
 _atom_site_occupancy
  Li  Li0  1  0.235040  0.898180  0.436545  1
  Li  Li1  1  0.898180  0.663140  0.563455  1
  Li  Li2  1  0.101820  0.764960  0.936545  1
  Li  Li3  1  0.764960  0.101820  0.563455  1
  Li  Li4  1  0.333333  0.666667  0.619714  1
  Li  Li5  1  0.764960  0.663140  0.063455  1
  Li  Li6  1  0.235040  0.336860  0.936545  1
  Li  Li7  1  0.336860  0.235040  0.563455  1
  Li  Li8  1  0.666667  0.333333  0.880286  1
  Li  Li9  1  0.336860  0.101820  0.063455  1
  Li  Li10  1  0.000000  0.000000  0.500000  1
  Li  Li11  1  0.898180  0.235040  0.063455  1
  Li  Li12  1  0.666667  0.333333  0.380286  1
  Li  Li13  1  0.663140  0.764960  0.436545  1
  Li  Li14  1  0.663140  0.898180  0.936545  1
  Li  Li15  1  0.101820  0.336860  0.436545  1
  Li  Li16  1  0.333333  0.666667  0.119714  1
  Li  Li17  1  0.000000  0.000000  0.000000  1
  Ga  Ga18  1  0.000000  0.565092  0.750000  1
  Ga  Ga19  1  0.434908  0.434908  0.750000  1
  Ga  Ga20  1  0.565092  0.000000  0.750000  1
  Ga  Ga21  1  0.434908  0.000000  0.250000  1
  Ga  Ga22  1  0.000000  0.434908  0.250000  1
  Ga  Ga23  1  0.565092  0.565092  0.250000  1
  P  P24  1  0.666667  0.333333  0.125362  1
  P  P25  1  0.773515  0.681934  0.843650  1
  P  P26  1  0.681934  0.773515  0.656350  1
  P  P27  1  0.666667  0.333333  0.625362  1
  P  P28  1  0.318066  0.091581  0.843650  1
  P  P29  1  0.226485  0.908419  0.656350  1
  P  P30  1  0.773515  0.091581  0.343650  1
  P  P31  1  0.333333  0.666667  0.374638  1
  P  P32  1  0.908419  0.226485  0.843650  1
  P  P33  1  0.091581  0.318066  0.656350  1
  P  P34  1  0.333333  0.666667  0.874638  1
  P  P35  1  0.091581  0.773515  0.156350  1
  P  P36  1  0.681934  0.908419  0.156350  1
  P  P37  1  0.226485  0.318066  0.156350  1
  P  P38  1  0.908419  0.681934  0.343650  1
  P  P39  1  0.318066  0.226485  0.343650  1
  O  O40  1  0.000000  0.786628  0.250000  1
  O  O41  1  0.812642  0.324332  0.163521  1
  O  O42  1  0.511689  0.187358  0.163521  1
  O  O43  1  0.626620  0.109569  0.332851  1
  O  O44  1  0.511689  0.324332  0.663521  1
  O  O45  1  0.488311  0.812642  0.836479  1
  O  O46  1  0.226864  0.999527  0.933211  1
  O  O47  1  0.890431  0.517051  0.332851  1
  O  O48  1  0.786628  0.786628  0.750000  1
  O  O49  1  0.254740  0.331496  0.656634  1
  O  O50  1  0.109569  0.626620  0.167149  1
  O  O51  1  0.331496  0.254740  0.843366  1
  O  O52  1  0.675668  0.187358  0.663521  1
  O  O53  1  0.187358  0.675668  0.836479  1
  O  O54  1  0.187358  0.511689  0.336479  1
  O  O55  1  0.373380  0.890431  0.667149  1
  O  O56  1  0.923244  0.254740  0.343366  1
  O  O57  1  0.786628  0.000000  0.250000  1
  O  O58  1  0.227337  0.000473  0.566789  1
  O  O59  1  0.666667  0.333333  0.515101  1
  O  O60  1  0.109569  0.482949  0.667149  1
  O  O61  1  0.213372  0.000000  0.750000  1
  O  O62  1  0.675668  0.488311  0.163521  1
  O  O63  1  0.331496  0.076756  0.343366  1
  O  O64  1  0.517051  0.890431  0.167149  1
  O  O65  1  0.999527  0.226864  0.566789  1
  O  O66  1  0.000000  0.213372  0.750000  1
  O  O67  1  0.333333  0.666667  0.484899  1
  O  O68  1  0.227337  0.226864  0.066789  1
  O  O69  1  0.773136  0.000473  0.066789  1
  O  O70  1  0.488311  0.675668  0.336479  1
  O  O71  1  0.626620  0.517051  0.832851  1
  O  O72  1  0.772663  0.999527  0.433211  1
  O  O73  1  0.668504  0.745260  0.156634  1
  O  O74  1  0.999527  0.772663  0.066789  1
  O  O75  1  0.772663  0.773136  0.933211  1
  O  O76  1  0.482949  0.109569  0.832851  1
  O  O77  1  0.324332  0.511689  0.836479  1
  O  O78  1  0.517051  0.626620  0.667149  1
  O  O79  1  0.745260  0.668504  0.343366  1
  O  O80  1  0.668504  0.923244  0.656634  1
  O  O81  1  0.254740  0.923244  0.156634  1
  O  O82  1  0.000473  0.773136  0.433211  1
  O  O83  1  0.324332  0.812642  0.336479  1
  O  O84  1  0.812642  0.488311  0.663521  1
  O  O85  1  0.923244  0.668504  0.843366  1
  O  O86  1  0.373380  0.482949  0.167149  1
  O  O87  1  0.666667  0.333333  0.015101  1
  O  O88  1  0.076756  0.331496  0.156634  1
  O  O89  1  0.076756  0.745260  0.656634  1
  O  O90  1  0.482949  0.373380  0.332851  1
  O  O91  1  0.773136  0.772663  0.566789  1
  O  O92  1  0.333333  0.666667  0.984899  1
  O  O93  1  0.890431  0.373380  0.832851  1
  O  O94  1  0.226864  0.227337  0.433211  1
  O  O95  1  0.000473  0.227337  0.933211  1
  O  O96  1  0.745260  0.076756  0.843366  1
  O  O97  1  0.213372  0.213372  0.250000  1
