# generated using pymatgen
data_TiH8C4NO10
_symmetry_space_group_name_H-M   'P 1'
_cell_length_a   8.97252856
_cell_length_b   8.97252856
_cell_length_c   11.01895183
_cell_angle_alpha   90.00000000
_cell_angle_beta   90.00000000
_cell_angle_gamma   120.00000000
_symmetry_Int_Tables_number   1
_chemical_formula_structural   TiH8C4NO10
_chemical_formula_sum   'Ti3 H24 C12 N3 O30'
_cell_volume   768.24654422
_cell_formula_units_Z   3
loop_
 _symmetry_equiv_pos_site_id
 _symmetry_equiv_pos_as_xyz
  1  'x, y, z'
loop_
 _atom_site_type_symbol
 _atom_site_label
 _atom_site_symmetry_multiplicity
 _atom_site_fract_x
 _atom_site_fract_y
 _atom_site_fract_z
 _atom_site_occupancy
  Ti  Ti0  1  0.000000  0.500000  0.833333  1
  Ti  Ti1  1  0.500000  0.500000  0.166667  1
  Ti  Ti2  1  0.500000  0.000000  0.500000  1
  H  H3  1  0.895387  0.974828  0.112296  1
  H  H4  1  0.898786  0.638603  0.319860  1
  H  H5  1  0.104613  0.079441  0.554371  1
  H  H6  1  0.101214  0.739817  0.346807  1
  H  H7  1  0.361397  0.101214  0.013474  1
  H  H8  1  0.920559  0.025172  0.887704  1
  H  H9  1  0.974828  0.079441  0.445629  1
  H  H10  1  0.104613  0.025172  0.112296  1
  H  H11  1  0.895387  0.920559  0.554371  1
  H  H12  1  0.101214  0.361397  0.319860  1
  H  H13  1  0.025172  0.104613  0.221037  1
  H  H14  1  0.361397  0.260183  0.653193  1
  H  H15  1  0.638603  0.898786  0.013474  1
  H  H16  1  0.739817  0.101214  0.986526  1
  H  H17  1  0.638603  0.739817  0.653193  1
  H  H18  1  0.079441  0.104613  0.778963  1
  H  H19  1  0.025172  0.920559  0.445629  1
  H  H20  1  0.974828  0.895387  0.221037  1
  H  H21  1  0.260183  0.361397  0.680140  1
  H  H22  1  0.260183  0.898786  0.986526  1
  H  H23  1  0.920559  0.895387  0.778963  1
  H  H24  1  0.739817  0.638603  0.680140  1
  H  H25  1  0.898786  0.260183  0.346807  1
  H  H26  1  0.079441  0.974828  0.887704  1
  C  C27  1  0.428594  0.214297  0.333333  1
  C  C28  1  0.310689  0.621378  0.000000  1
  C  C29  1  0.571406  0.785703  0.333333  1
  C  C30  1  0.785703  0.214297  0.666667  1
  C  C31  1  0.378622  0.689311  0.333333  1
  C  C32  1  0.689311  0.310689  0.666667  1
  C  C33  1  0.214297  0.785703  0.666667  1
  C  C34  1  0.310689  0.689311  0.666667  1
  C  C35  1  0.621378  0.310689  0.333333  1
  C  C36  1  0.214297  0.428594  0.000000  1
  C  C37  1  0.689311  0.378622  0.000000  1
  C  C38  1  0.785703  0.571406  0.000000  1
  N  N39  1  0.000000  0.000000  0.833333  1
  N  N40  1  0.000000  0.000000  0.166667  1
  N  N41  1  0.000000  0.000000  0.500000  1
  O  O42  1  0.692286  0.239999  0.391352  1
  O  O43  1  0.547713  0.239999  0.608648  1
  O  O44  1  0.077289  0.722732  0.729339  1
  O  O45  1  0.000000  0.753388  0.333333  1
  O  O46  1  0.307714  0.547713  0.275315  1
  O  O47  1  0.760001  0.307714  0.941982  1
  O  O48  1  0.722732  0.645443  0.062672  1
  O  O49  1  0.452287  0.692286  0.058018  1
  O  O50  1  0.753388  0.000000  0.000000  1
  O  O51  1  0.922711  0.645443  0.937328  1
  O  O52  1  0.760001  0.452287  0.724685  1
  O  O53  1  0.645443  0.722732  0.270661  1
  O  O54  1  0.277268  0.922711  0.603994  1
  O  O55  1  0.277268  0.354557  0.062672  1
  O  O56  1  0.354557  0.077289  0.396006  1
  O  O57  1  0.692286  0.452287  0.275315  1
  O  O58  1  0.753388  0.753388  0.666667  1
  O  O59  1  0.452287  0.760001  0.608648  1
  O  O60  1  0.000000  0.246612  0.333333  1
  O  O61  1  0.246612  0.000000  0.000000  1
  O  O62  1  0.922711  0.277268  0.729339  1
  O  O63  1  0.354557  0.277268  0.270661  1
  O  O64  1  0.722732  0.077289  0.603994  1
  O  O65  1  0.239999  0.692286  0.941982  1
  O  O66  1  0.239999  0.547713  0.724685  1
  O  O67  1  0.246612  0.246612  0.666667  1
  O  O68  1  0.077289  0.354557  0.937328  1
  O  O69  1  0.547713  0.307714  0.058018  1
  O  O70  1  0.307714  0.760001  0.391352  1
  O  O71  1  0.645443  0.922711  0.396006  1
