# generated using pymatgen
data_In4(P2O7)3
_symmetry_space_group_name_H-M   'P 1'
_cell_length_a   13.46972317
_cell_length_b   9.90623248
_cell_length_c   13.65702945
_cell_angle_alpha   90.00000000
_cell_angle_beta   108.80759321
_cell_angle_gamma   90.00000000
_symmetry_Int_Tables_number   1
_chemical_formula_structural   In4(P2O7)3
_chemical_formula_sum   'In16 P24 O84'
_cell_volume   1725.01523171
_cell_formula_units_Z   4
loop_
 _symmetry_equiv_pos_site_id
 _symmetry_equiv_pos_as_xyz
  1  'x, y, z'
loop_
 _atom_site_type_symbol
 _atom_site_label
 _atom_site_symmetry_multiplicity
 _atom_site_fract_x
 _atom_site_fract_y
 _atom_site_fract_z
 _atom_site_occupancy
  In  In0  1  0.280013  0.227319  0.267634  1
  In  In1  1  0.721840  0.756592  0.233761  1
  In  In2  1  0.981772  0.220625  0.479986  1
  In  In3  1  0.480334  0.259526  0.977286  1
  In  In4  1  0.780013  0.272681  0.267634  1
  In  In5  1  0.519666  0.740474  0.022714  1
  In  In6  1  0.481772  0.279375  0.479986  1
  In  In7  1  0.219987  0.727318  0.732366  1
  In  In8  1  0.778160  0.256592  0.766239  1
  In  In9  1  0.278160  0.243408  0.766239  1
  In  In10  1  0.980334  0.240474  0.977286  1
  In  In11  1  0.018228  0.779375  0.520014  1
  In  In12  1  0.221840  0.743408  0.233761  1
  In  In13  1  0.019666  0.759526  0.022714  1
  In  In14  1  0.719987  0.772681  0.732366  1
  In  In15  1  0.518228  0.720625  0.520014  1
  P  P16  1  0.010971  0.173928  0.234381  1
  P  P17  1  0.510971  0.326072  0.234381  1
  P  P18  1  0.674477  0.030095  0.075435  1
  P  P19  1  0.202180  0.020082  0.566060  1
  P  P20  1  0.329528  0.968985  0.422532  1
  P  P21  1  0.825523  0.530095  0.924565  1
  P  P22  1  0.829528  0.531015  0.422532  1
  P  P23  1  0.670472  0.031015  0.577468  1
  P  P24  1  0.483318  0.641838  0.261050  1
  P  P25  1  0.702180  0.479918  0.566060  1
  P  P26  1  0.516682  0.358162  0.738950  1
  P  P27  1  0.170472  0.468985  0.577468  1
  P  P28  1  0.297820  0.520082  0.433940  1
  P  P29  1  0.695137  0.483014  0.065756  1
  P  P30  1  0.174477  0.469905  0.075435  1
  P  P31  1  0.797820  0.979918  0.433940  1
  P  P32  1  0.983318  0.858162  0.261050  1
  P  P33  1  0.489029  0.673928  0.765619  1
  P  P34  1  0.016682  0.141838  0.738950  1
  P  P35  1  0.804863  0.983014  0.934244  1
  P  P36  1  0.325523  0.969905  0.924565  1
  P  P37  1  0.195137  0.016986  0.065756  1
  P  P38  1  0.989029  0.826072  0.765619  1
  P  P39  1  0.304863  0.516986  0.934244  1
  O  O40  1  0.539142  0.661116  0.376643  1
  O  O41  1  0.747513  0.077055  0.680005  1
  O  O42  1  0.953558  0.209696  0.803549  1
  O  O43  1  0.651439  0.876360  0.584429  1
  O  O44  1  0.780698  0.415403  0.152690  1
  O  O45  1  0.225127  0.447989  0.490986  1
  O  O46  1  0.725083  0.106504  0.174195  1
  O  O47  1  0.843125  0.104120  0.392843  1
  O  O48  1  0.274917  0.893496  0.825805  1
  O  O49  1  0.348561  0.123640  0.415571  1
  O  O50  1  0.774917  0.606504  0.825805  1
  O  O51  1  0.848561  0.376360  0.415571  1
  O  O52  1  0.151439  0.623640  0.584429  1
  O  O53  1  0.628811  0.311128  0.278924  1
  O  O54  1  0.222486  0.603278  0.348881  1
  O  O55  1  0.176230  0.867381  0.090431  1
  O  O56  1  0.128811  0.188872  0.278924  1
  O  O57  1  0.277514  0.103278  0.651119  1
  O  O58  1  0.129820  0.189541  0.777104  1
  O  O59  1  0.569093  0.108917  0.542541  1
  O  O60  1  0.480334  0.483514  0.232995  1
  O  O61  1  0.019666  0.983514  0.767005  1
  O  O62  1  0.725127  0.052011  0.490986  1
  O  O63  1  0.453558  0.290304  0.803549  1
  O  O64  1  0.823770  0.132619  0.909569  1
  O  O65  1  0.135584  0.607899  0.104103  1
  O  O66  1  0.219302  0.584597  0.847310  1
  O  O67  1  0.614189  0.401404  0.489166  1
  O  O68  1  0.459008  0.272485  0.125142  1
  O  O69  1  0.546442  0.709696  0.196451  1
  O  O70  1  0.871189  0.811128  0.721076  1
  O  O71  1  0.232349  0.011075  0.966575  1
  O  O72  1  0.040992  0.772485  0.874858  1
  O  O73  1  0.430907  0.891083  0.457459  1
  O  O74  1  0.909594  0.601985  0.009656  1
  O  O75  1  0.960858  0.161116  0.623357  1
  O  O76  1  0.590691  0.411916  0.028236  1
  O  O77  1  0.225083  0.393496  0.174195  1
  O  O78  1  0.039142  0.838884  0.376643  1
  O  O79  1  0.280698  0.084597  0.152690  1
  O  O80  1  0.364416  0.107899  0.895897  1
  O  O81  1  0.090691  0.088084  0.028236  1
  O  O82  1  0.267651  0.511075  0.033425  1
  O  O83  1  0.343125  0.395880  0.392843  1
  O  O84  1  0.864416  0.392101  0.895897  1
  O  O85  1  0.870180  0.810459  0.222896  1
  O  O86  1  0.370180  0.689541  0.222896  1
  O  O87  1  0.409594  0.898015  0.009656  1
  O  O88  1  0.156875  0.895880  0.607157  1
  O  O89  1  0.090406  0.398015  0.990344  1
  O  O90  1  0.752487  0.577055  0.319995  1
  O  O91  1  0.719302  0.915403  0.847310  1
  O  O92  1  0.676230  0.632619  0.090431  1
  O  O93  1  0.409309  0.588084  0.971764  1
  O  O94  1  0.959008  0.227515  0.125142  1
  O  O95  1  0.774873  0.552011  0.509014  1
  O  O96  1  0.385811  0.598596  0.510834  1
  O  O97  1  0.767651  0.988925  0.033425  1
  O  O98  1  0.635584  0.892101  0.104103  1
  O  O99  1  0.656875  0.604120  0.607157  1
  O  O100  1  0.371189  0.688872  0.721076  1
  O  O101  1  0.114189  0.098596  0.489166  1
  O  O102  1  0.722486  0.896722  0.348881  1
  O  O103  1  0.247513  0.422945  0.680005  1
  O  O104  1  0.543539  0.743953  0.693388  1
  O  O105  1  0.777514  0.396722  0.651119  1
  O  O106  1  0.519666  0.516486  0.767005  1
  O  O107  1  0.980334  0.016486  0.232995  1
  O  O108  1  0.930907  0.608917  0.457459  1
  O  O109  1  0.540992  0.727515  0.874858  1
  O  O110  1  0.909309  0.911916  0.971764  1
  O  O111  1  0.456461  0.256047  0.306612  1
  O  O112  1  0.274873  0.947989  0.509014  1
  O  O113  1  0.732349  0.488925  0.966575  1
  O  O114  1  0.043539  0.756047  0.693388  1
  O  O115  1  0.590406  0.101985  0.990344  1
  O  O116  1  0.069093  0.391083  0.542541  1
  O  O117  1  0.252487  0.922945  0.319995  1
  O  O118  1  0.323770  0.367381  0.909569  1
  O  O119  1  0.956461  0.243953  0.306612  1
  O  O120  1  0.460858  0.338884  0.623357  1
  O  O121  1  0.046442  0.790304  0.196451  1
  O  O122  1  0.629820  0.310459  0.777104  1
  O  O123  1  0.885811  0.901404  0.510834  1
