# generated using pymatgen
data_La10Os2I15
_symmetry_space_group_name_H-M   'P 1'
_cell_length_a   10.16415469
_cell_length_b   11.17852266
_cell_length_c   11.94944895
_cell_angle_alpha   92.20148423
_cell_angle_beta   113.89226288
_cell_angle_gamma   110.16526168
_symmetry_Int_Tables_number   1
_chemical_formula_structural   La10Os2I15
_chemical_formula_sum   'La10 Os2 I15'
_cell_volume   1139.91745362
_cell_formula_units_Z   1
loop_
 _symmetry_equiv_pos_site_id
 _symmetry_equiv_pos_as_xyz
  1  'x, y, z'
loop_
 _atom_site_type_symbol
 _atom_site_label
 _atom_site_symmetry_multiplicity
 _atom_site_fract_x
 _atom_site_fract_y
 _atom_site_fract_z
 _atom_site_occupancy
  La  La0  1  0.225092  0.581341  0.053242  1
  La  La1  1  0.774908  0.418659  0.946758  1
  La  La2  1  0.299101  0.904900  0.276384  1
  La  La3  1  0.700899  0.095100  0.723616  1
  La  La4  1  0.087854  0.545681  0.330411  1
  La  La5  1  0.912146  0.454319  0.669589  1
  La  La6  1  0.835755  0.750632  0.176780  1
  La  La7  1  0.164245  0.249368  0.823220  1
  La  La8  1  0.975145  0.793696  0.903087  1
  La  La9  1  0.024855  0.206304  0.096913  1
  Os  Os10  1  0.032074  0.674831  0.120184  1
  Os  Os11  1  0.967926  0.325169  0.879816  1
  I  I12  1  0.340849  0.443592  0.302174  1
  I  I13  1  0.659151  0.556408  0.697826  1
  I  I14  1  0.214433  0.738516  0.816819  1
  I  I15  1  0.785567  0.261484  0.183181  1
  I  I16  1  0.144847  0.386557  0.582474  1
  I  I17  1  0.855153  0.613443  0.417526  1
  I  I18  1  0.388880  0.799906  0.533765  1
  I  I19  1  0.611120  0.200094  0.466235  1
  I  I20  1  0.265190  0.087905  0.055561  1
  I  I21  1  0.734810  0.912095  0.944439  1
  I  I22  1  0.566374  0.846204  0.228493  1
  I  I23  1  0.433626  0.153796  0.771507  1
  I  I24  1  0.092547  0.040684  0.340164  1
  I  I25  1  0.907453  0.959316  0.659836  1
  I  I26  1  0.500000  0.500000  0.000000  1
