# generated using pymatgen
data_Ba2GaGeN
_symmetry_space_group_name_H-M   'P 1'
_cell_length_a   7.31790089
_cell_length_b   4.25230017
_cell_length_c   9.40544346
_cell_angle_alpha   90.00000000
_cell_angle_beta   108.85920226
_cell_angle_gamma   90.00000000
_symmetry_Int_Tables_number   1
_chemical_formula_structural   Ba2GaGeN
_chemical_formula_sum   'Ba4 Ga2 Ge2 N2'
_cell_volume   276.96557341
_cell_formula_units_Z   2
loop_
 _symmetry_equiv_pos_site_id
 _symmetry_equiv_pos_as_xyz
  1  'x, y, z'
loop_
 _atom_site_type_symbol
 _atom_site_label
 _atom_site_symmetry_multiplicity
 _atom_site_fract_x
 _atom_site_fract_y
 _atom_site_fract_z
 _atom_site_occupancy
  Ba  Ba0  1  0.809685  0.750000  0.117002  1
  Ba  Ba1  1  0.795214  0.750000  0.538218  1
  Ba  Ba2  1  0.190315  0.250000  0.882998  1
  Ba  Ba3  1  0.204786  0.250000  0.461782  1
  Ga  Ga4  1  0.540389  0.250000  0.254075  1
  Ga  Ga5  1  0.459611  0.750000  0.745925  1
  Ge  Ge6  1  0.660238  0.250000  0.796843  1
  Ge  Ge7  1  0.339762  0.750000  0.203157  1
  N  N8  1  0.815284  0.250000  0.326745  1
  N  N9  1  0.184716  0.750000  0.673255  1
