# generated using pymatgen
data_B2W
_symmetry_space_group_name_H-M   'P 1'
_cell_length_a   3.01876635
_cell_length_b   3.01876635
_cell_length_c   14.08948701
_cell_angle_alpha   90.00000000
_cell_angle_beta   90.00000000
_cell_angle_gamma   120.00000000
_symmetry_Int_Tables_number   1
_chemical_formula_structural   B2W
_chemical_formula_sum   'B8 W4'
_cell_volume   111.19488578
_cell_formula_units_Z   4
loop_
 _symmetry_equiv_pos_site_id
 _symmetry_equiv_pos_as_xyz
  1  'x, y, z'
loop_
 _atom_site_type_symbol
 _atom_site_label
 _atom_site_symmetry_multiplicity
 _atom_site_fract_x
 _atom_site_fract_y
 _atom_site_fract_z
 _atom_site_occupancy
  B  B0  1  0.000000  0.000000  0.750000  1
  B  B1  1  0.000000  0.000000  0.250000  1
  B  B2  1  0.666667  0.333333  0.250000  1
  B  B3  1  0.333333  0.666667  0.750000  1
  B  B4  1  0.666667  0.333333  0.477275  1
  B  B5  1  0.333333  0.666667  0.522725  1
  B  B6  1  0.333333  0.666667  0.977275  1
  B  B7  1  0.666667  0.333333  0.022725  1
  W  W8  1  0.666667  0.333333  0.634760  1
  W  W9  1  0.333333  0.666667  0.365240  1
  W  W10  1  0.333333  0.666667  0.134760  1
  W  W11  1  0.666667  0.333333  0.865240  1
