# generated using pymatgen
data_UV2O8
_symmetry_space_group_name_H-M   'P 1'
_cell_length_a   5.84925199
_cell_length_b   10.72906813
_cell_length_c   12.15782125
_cell_angle_alpha   90.00000000
_cell_angle_beta   90.00000000
_cell_angle_gamma   90.00000000
_symmetry_Int_Tables_number   1
_chemical_formula_structural   UV2O8
_chemical_formula_sum   'U4 V8 O32'
_cell_volume   762.98866916
_cell_formula_units_Z   4
loop_
 _symmetry_equiv_pos_site_id
 _symmetry_equiv_pos_as_xyz
  1  'x, y, z'
loop_
 _atom_site_type_symbol
 _atom_site_label
 _atom_site_symmetry_multiplicity
 _atom_site_fract_x
 _atom_site_fract_y
 _atom_site_fract_z
 _atom_site_occupancy
  U  U0  1  0.929271  0.899730  0.250000  1
  U  U1  1  0.429271  0.600270  0.250000  1
  U  U2  1  0.570729  0.399730  0.750000  1
  U  U3  1  0.070729  0.100270  0.750000  1
  V  V4  1  0.684847  0.334408  0.069340  1
  V  V5  1  0.184847  0.165592  0.430660  1
  V  V6  1  0.815153  0.834408  0.930660  1
  V  V7  1  0.315153  0.665592  0.569340  1
  V  V8  1  0.315153  0.665592  0.930660  1
  V  V9  1  0.815153  0.834408  0.569340  1
  V  V10  1  0.184847  0.165592  0.069340  1
  V  V11  1  0.684847  0.334408  0.430660  1
  O  O12  1  0.455435  0.232935  0.108868  1
  O  O13  1  0.955435  0.267065  0.391132  1
  O  O14  1  0.044565  0.732935  0.891132  1
  O  O15  1  0.544565  0.767065  0.608868  1
  O  O16  1  0.544565  0.767065  0.891132  1
  O  O17  1  0.044565  0.732935  0.608868  1
  O  O18  1  0.955435  0.267065  0.108868  1
  O  O19  1  0.455435  0.232935  0.391132  1
  O  O20  1  0.647296  0.473033  0.133619  1
  O  O21  1  0.147296  0.026967  0.366381  1
  O  O22  1  0.852704  0.973033  0.866381  1
  O  O23  1  0.352704  0.526967  0.633619  1
  O  O24  1  0.352704  0.526967  0.866381  1
  O  O25  1  0.852704  0.973033  0.633619  1
  O  O26  1  0.147296  0.026967  0.133619  1
  O  O27  1  0.647296  0.473033  0.366381  1
  O  O28  1  0.823222  0.852767  0.068437  1
  O  O29  1  0.323222  0.647233  0.431563  1
  O  O30  1  0.676778  0.352767  0.931563  1
  O  O31  1  0.176778  0.147233  0.568437  1
  O  O32  1  0.176778  0.147233  0.931563  1
  O  O33  1  0.676778  0.352767  0.568437  1
  O  O34  1  0.323222  0.647233  0.068437  1
  O  O35  1  0.823222  0.852767  0.431563  1
  O  O36  1  0.704989  0.013898  0.250000  1
  O  O37  1  0.204989  0.486102  0.250000  1
  O  O38  1  0.795011  0.513898  0.750000  1
  O  O39  1  0.295011  0.986102  0.750000  1
  O  O40  1  0.154588  0.778443  0.250000  1
  O  O41  1  0.654588  0.721557  0.250000  1
  O  O42  1  0.345412  0.278443  0.750000  1
  O  O43  1  0.845412  0.221557  0.750000  1
