# generated using pymatgen
data_Rb(In3Au2)2
_symmetry_space_group_name_H-M   'P 1'
_cell_length_a   8.31356786
_cell_length_b   8.31356786
_cell_length_c   4.55275376
_cell_angle_alpha   90.00000000
_cell_angle_beta   90.00000000
_cell_angle_gamma   120.00000000
_symmetry_Int_Tables_number   1
_chemical_formula_structural   Rb(In3Au2)2
_chemical_formula_sum   'Rb1 In6 Au4'
_cell_volume   272.50826918
_cell_formula_units_Z   1
loop_
 _symmetry_equiv_pos_site_id
 _symmetry_equiv_pos_as_xyz
  1  'x, y, z'
loop_
 _atom_site_type_symbol
 _atom_site_label
 _atom_site_symmetry_multiplicity
 _atom_site_fract_x
 _atom_site_fract_y
 _atom_site_fract_z
 _atom_site_occupancy
  Rb  Rb0  1  0.000000  0.000000  0.000000  1
  In  In1  1  0.534749  0.465251  0.000000  1
  In  In2  1  0.197985  0.802015  0.500000  1
  In  In3  1  0.534749  0.069497  0.000000  1
  In  In4  1  0.197985  0.395970  0.500000  1
  In  In5  1  0.930503  0.465251  0.000000  1
  In  In6  1  0.604030  0.802015  0.500000  1
  Au  Au7  1  0.793929  0.206071  0.500000  1
  Au  Au8  1  0.333333  0.666667  0.000000  1
  Au  Au9  1  0.793929  0.587858  0.500000  1
  Au  Au10  1  0.412142  0.206071  0.500000  1
