# generated using pymatgen
data_LiSb(PO3)4
_symmetry_space_group_name_H-M   'P 1'
_cell_length_a   8.94523383
_cell_length_b   8.94523383
_cell_length_c   9.82007909
_cell_angle_alpha   57.81678941
_cell_angle_beta   122.18321059
_cell_angle_gamma   133.03534189
_symmetry_Int_Tables_number   1
_chemical_formula_structural   LiSb(PO3)4
_chemical_formula_sum   'Li2 Sb2 P8 O24'
_cell_volume   467.57867168
_cell_formula_units_Z   2
loop_
 _symmetry_equiv_pos_site_id
 _symmetry_equiv_pos_as_xyz
  1  'x, y, z'
loop_
 _atom_site_type_symbol
 _atom_site_label
 _atom_site_symmetry_multiplicity
 _atom_site_fract_x
 _atom_site_fract_y
 _atom_site_fract_z
 _atom_site_occupancy
  Li  Li0  1  0.692556  0.692556  0.250000  1
  Li  Li1  1  0.307444  0.307444  0.750000  1
  Sb  Sb2  1  0.173581  0.173581  0.250000  1
  Sb  Sb3  1  0.826419  0.826419  0.750000  1
  P  P4  1  0.005180  0.293678  0.809937  1
  P  P5  1  0.418182  0.695987  0.880423  1
  P  P6  1  0.695987  0.418182  0.619577  1
  P  P7  1  0.293678  0.005180  0.690063  1
  P  P8  1  0.706322  0.994820  0.309937  1
  P  P9  1  0.304013  0.581818  0.380423  1
  P  P10  1  0.581818  0.304013  0.119577  1
  P  P11  1  0.994820  0.706322  0.190063  1
  O  O12  1  0.596966  0.838975  0.802598  1
  O  O13  1  0.217783  0.524310  0.773915  1
  O  O14  1  0.981813  0.230737  0.976628  1
  O  O15  1  0.824714  0.325646  0.658362  1
  O  O16  1  0.980682  0.844584  0.222146  1
  O  O17  1  0.325646  0.824714  0.841638  1
  O  O18  1  0.230737  0.981813  0.523372  1
  O  O19  1  0.588238  0.450690  0.435855  1
  O  O20  1  0.450690  0.588238  0.064145  1
  O  O21  1  0.524310  0.217783  0.726085  1
  O  O22  1  0.838975  0.596966  0.697402  1
  O  O23  1  0.844584  0.980682  0.277854  1
  O  O24  1  0.155416  0.019318  0.722146  1
  O  O25  1  0.161025  0.403034  0.302598  1
  O  O26  1  0.475690  0.782217  0.273915  1
  O  O27  1  0.549310  0.411762  0.935855  1
  O  O28  1  0.411762  0.549310  0.564145  1
  O  O29  1  0.769263  0.018187  0.476628  1
  O  O30  1  0.674354  0.175286  0.158362  1
  O  O31  1  0.019318  0.155416  0.777854  1
  O  O32  1  0.175286  0.674354  0.341638  1
  O  O33  1  0.018187  0.769263  0.023372  1
  O  O34  1  0.782217  0.475690  0.226085  1
  O  O35  1  0.403034  0.161025  0.197402  1
