# generated using pymatgen
data_KMo3Br7
_symmetry_space_group_name_H-M   'P 1'
_cell_length_a   14.12848181
_cell_length_b   14.35291640
_cell_length_c   14.39333738
_cell_angle_alpha   90.00000000
_cell_angle_beta   90.00000000
_cell_angle_gamma   90.00000000
_symmetry_Int_Tables_number   1
_chemical_formula_structural   KMo3Br7
_chemical_formula_sum   'K8 Mo24 Br56'
_cell_volume   2918.75174435
_cell_formula_units_Z   8
loop_
 _symmetry_equiv_pos_site_id
 _symmetry_equiv_pos_as_xyz
  1  'x, y, z'
loop_
 _atom_site_type_symbol
 _atom_site_label
 _atom_site_symmetry_multiplicity
 _atom_site_fract_x
 _atom_site_fract_y
 _atom_site_fract_z
 _atom_site_occupancy
  K  K0  1  0.250000  0.750000  0.750000  1
  K  K1  1  0.750000  0.250000  0.750000  1
  K  K2  1  0.000000  0.500000  0.500000  1
  K  K3  1  0.500000  0.000000  0.500000  1
  K  K4  1  0.250000  0.250000  0.250000  1
  K  K5  1  0.750000  0.750000  0.250000  1
  K  K6  1  0.000000  0.500000  0.000000  1
  K  K7  1  0.500000  0.000000  0.000000  1
  Mo  Mo8  1  0.127410  0.209168  0.720037  1
  Mo  Mo9  1  0.872590  0.790832  0.720037  1
  Mo  Mo10  1  0.219420  0.370490  0.708770  1
  Mo  Mo11  1  0.780580  0.629510  0.708770  1
  Mo  Mo12  1  0.291375  0.218458  0.630049  1
  Mo  Mo13  1  0.708625  0.781542  0.630049  1
  Mo  Mo14  1  0.291375  0.781542  0.369951  1
  Mo  Mo15  1  0.708625  0.218458  0.369951  1
  Mo  Mo16  1  0.219420  0.629510  0.291230  1
  Mo  Mo17  1  0.780580  0.370490  0.291230  1
  Mo  Mo18  1  0.872590  0.209168  0.279963  1
  Mo  Mo19  1  0.127410  0.790832  0.279963  1
  Mo  Mo20  1  0.372590  0.709168  0.220037  1
  Mo  Mo21  1  0.627410  0.290832  0.220037  1
  Mo  Mo22  1  0.719420  0.129510  0.208770  1
  Mo  Mo23  1  0.280580  0.870490  0.208770  1
  Mo  Mo24  1  0.791375  0.281542  0.130049  1
  Mo  Mo25  1  0.208625  0.718458  0.130049  1
  Mo  Mo26  1  0.791375  0.718458  0.869951  1
  Mo  Mo27  1  0.208625  0.281542  0.869951  1
  Mo  Mo28  1  0.280580  0.129510  0.791230  1
  Mo  Mo29  1  0.719420  0.870490  0.791230  1
  Mo  Mo30  1  0.627410  0.709168  0.779963  1
  Mo  Mo31  1  0.372590  0.290832  0.779963  1
  Br  Br32  1  0.557418  0.860330  0.702465  1
  Br  Br33  1  0.442582  0.139670  0.702465  1
  Br  Br34  1  0.956415  0.155646  0.677024  1
  Br  Br35  1  0.043585  0.844354  0.677024  1
  Br  Br36  1  0.173070  0.540951  0.653150  1
  Br  Br37  1  0.826930  0.459049  0.653150  1
  Br  Br38  1  0.199501  0.060028  0.642552  1
  Br  Br39  1  0.800499  0.939972  0.642552  1
  Br  Br40  1  0.381382  0.378670  0.619861  1
  Br  Br41  1  0.618618  0.621330  0.619861  1
  Br  Br42  1  0.860357  0.703274  0.559920  1
  Br  Br43  1  0.139643  0.296726  0.559920  1
  Br  Br44  1  0.652671  0.172891  0.539994  1
  Br  Br45  1  0.347329  0.827109  0.539994  1
  Br  Br46  1  0.347329  0.172891  0.460006  1
  Br  Br47  1  0.652671  0.827109  0.460006  1
  Br  Br48  1  0.139643  0.703274  0.440080  1
  Br  Br49  1  0.860357  0.296726  0.440080  1
  Br  Br50  1  0.381382  0.621330  0.380139  1
  Br  Br51  1  0.618618  0.378670  0.380139  1
  Br  Br52  1  0.800499  0.060028  0.357448  1
  Br  Br53  1  0.199501  0.939972  0.357448  1
  Br  Br54  1  0.826930  0.540951  0.346850  1
  Br  Br55  1  0.173070  0.459049  0.346850  1
  Br  Br56  1  0.043585  0.155646  0.322976  1
  Br  Br57  1  0.956415  0.844354  0.322976  1
  Br  Br58  1  0.442582  0.860330  0.297535  1
  Br  Br59  1  0.557418  0.139670  0.297535  1
  Br  Br60  1  0.942582  0.360330  0.202465  1
  Br  Br61  1  0.057418  0.639670  0.202465  1
  Br  Br62  1  0.543585  0.655646  0.177024  1
  Br  Br63  1  0.456415  0.344354  0.177024  1
  Br  Br64  1  0.326930  0.040951  0.153150  1
  Br  Br65  1  0.673070  0.959049  0.153150  1
  Br  Br66  1  0.300499  0.560028  0.142552  1
  Br  Br67  1  0.699501  0.439972  0.142552  1
  Br  Br68  1  0.881382  0.121330  0.119861  1
  Br  Br69  1  0.118618  0.878670  0.119861  1
  Br  Br70  1  0.639643  0.203274  0.059920  1
  Br  Br71  1  0.360357  0.796726  0.059920  1
  Br  Br72  1  0.847329  0.672891  0.039994  1
  Br  Br73  1  0.152671  0.327109  0.039994  1
  Br  Br74  1  0.152671  0.672891  0.960006  1
  Br  Br75  1  0.847329  0.327109  0.960006  1
  Br  Br76  1  0.360357  0.203274  0.940080  1
  Br  Br77  1  0.639643  0.796726  0.940080  1
  Br  Br78  1  0.881382  0.878670  0.880139  1
  Br  Br79  1  0.118618  0.121330  0.880139  1
  Br  Br80  1  0.699501  0.560028  0.857448  1
  Br  Br81  1  0.300499  0.439972  0.857448  1
  Br  Br82  1  0.673070  0.040951  0.846850  1
  Br  Br83  1  0.326930  0.959049  0.846850  1
  Br  Br84  1  0.456415  0.655646  0.822976  1
  Br  Br85  1  0.543585  0.344354  0.822976  1
  Br  Br86  1  0.057418  0.360330  0.797535  1
  Br  Br87  1  0.942582  0.639670  0.797535  1
