# generated using pymatgen
data_Te2Ir
_symmetry_space_group_name_H-M   'P 1'
_cell_length_a   4.04980466
_cell_length_b   5.44186301
_cell_length_c   13.58747391
_cell_angle_alpha   90.00000000
_cell_angle_beta   90.00000000
_cell_angle_gamma   90.00000000
_symmetry_Int_Tables_number   1
_chemical_formula_structural   Te2Ir
_chemical_formula_sum   'Te8 Ir4'
_cell_volume   299.44730160
_cell_formula_units_Z   4
loop_
 _symmetry_equiv_pos_site_id
 _symmetry_equiv_pos_as_xyz
  1  'x, y, z'
loop_
 _atom_site_type_symbol
 _atom_site_label
 _atom_site_symmetry_multiplicity
 _atom_site_fract_x
 _atom_site_fract_y
 _atom_site_fract_z
 _atom_site_occupancy
  Te  Te0  1  0.250000  0.768068  0.449330  1
  Te  Te1  1  0.250000  0.731932  0.949330  1
  Te  Te2  1  0.250000  0.300227  0.307777  1
  Te  Te3  1  0.750000  0.268068  0.050670  1
  Te  Te4  1  0.750000  0.231932  0.550670  1
  Te  Te5  1  0.750000  0.699773  0.692223  1
  Te  Te6  1  0.250000  0.199773  0.807777  1
  Te  Te7  1  0.750000  0.800227  0.192223  1
  Ir  Ir8  1  0.750000  0.479733  0.865640  1
  Ir  Ir9  1  0.750000  0.020267  0.365640  1
  Ir  Ir10  1  0.250000  0.979733  0.634360  1
  Ir  Ir11  1  0.250000  0.520267  0.134360  1
