# generated using pymatgen
data_BaTcO3
_symmetry_space_group_name_H-M   'P 1'
_cell_length_a   5.84398267
_cell_length_b   5.84398267
_cell_length_c   14.11616325
_cell_angle_alpha   90.00000000
_cell_angle_beta   90.00000000
_cell_angle_gamma   120.00000000
_symmetry_Int_Tables_number   1
_chemical_formula_structural   BaTcO3
_chemical_formula_sum   'Ba6 Tc6 O18'
_cell_volume   417.50832847
_cell_formula_units_Z   6
loop_
 _symmetry_equiv_pos_site_id
 _symmetry_equiv_pos_as_xyz
  1  'x, y, z'
loop_
 _atom_site_type_symbol
 _atom_site_label
 _atom_site_symmetry_multiplicity
 _atom_site_fract_x
 _atom_site_fract_y
 _atom_site_fract_z
 _atom_site_occupancy
  Ba  Ba0  1  0.666667  0.333333  0.592522  1
  Ba  Ba1  1  0.333333  0.666667  0.407478  1
  Ba  Ba2  1  0.666667  0.333333  0.907478  1
  Ba  Ba3  1  0.000000  0.000000  0.250000  1
  Ba  Ba4  1  0.333333  0.666667  0.092522  1
  Ba  Ba5  1  0.000000  0.000000  0.750000  1
  Tc  Tc6  1  0.333333  0.666667  0.661291  1
  Tc  Tc7  1  0.666667  0.333333  0.161291  1
  Tc  Tc8  1  0.333333  0.666667  0.838709  1
  Tc  Tc9  1  0.666667  0.333333  0.338709  1
  Tc  Tc10  1  0.000000  0.000000  0.500000  1
  Tc  Tc11  1  0.000000  0.000000  0.000000  1
  O  O12  1  0.834426  0.165574  0.418446  1
  O  O13  1  0.834426  0.668853  0.081554  1
  O  O14  1  0.668853  0.834426  0.581554  1
  O  O15  1  0.834426  0.165574  0.081554  1
  O  O16  1  0.165574  0.331147  0.918446  1
  O  O17  1  0.834426  0.668853  0.418446  1
  O  O18  1  0.507124  0.492876  0.250000  1
  O  O19  1  0.331147  0.165574  0.418446  1
  O  O20  1  0.165574  0.834426  0.918446  1
  O  O21  1  0.507124  0.014247  0.250000  1
  O  O22  1  0.165574  0.834426  0.581554  1
  O  O23  1  0.492876  0.985753  0.750000  1
  O  O24  1  0.014247  0.507124  0.750000  1
  O  O25  1  0.492876  0.507124  0.750000  1
  O  O26  1  0.165574  0.331147  0.581554  1
  O  O27  1  0.668853  0.834426  0.918446  1
  O  O28  1  0.985753  0.492876  0.250000  1
  O  O29  1  0.331147  0.165574  0.081554  1
