# generated using pymatgen
data_K3(Mg10In7)2
_symmetry_space_group_name_H-M   'P 1'
_cell_length_a   9.86189127
_cell_length_b   9.86189127
_cell_length_c   9.86189127
_cell_angle_alpha   90.00000000
_cell_angle_beta   90.00000000
_cell_angle_gamma   90.00000000
_symmetry_Int_Tables_number   1
_chemical_formula_structural   K3(Mg10In7)2
_chemical_formula_sum   'K3 Mg20 In14'
_cell_volume   959.13696735
_cell_formula_units_Z   1
loop_
 _symmetry_equiv_pos_site_id
 _symmetry_equiv_pos_as_xyz
  1  'x, y, z'
loop_
 _atom_site_type_symbol
 _atom_site_label
 _atom_site_symmetry_multiplicity
 _atom_site_fract_x
 _atom_site_fract_y
 _atom_site_fract_z
 _atom_site_occupancy
  K  K0  1  0.000000  0.500000  0.000000  1
  K  K1  1  0.000000  0.000000  0.500000  1
  K  K2  1  0.500000  0.000000  0.000000  1
  Mg  Mg3  1  0.500000  0.734789  0.734789  1
  Mg  Mg4  1  0.265211  0.500000  0.265211  1
  Mg  Mg5  1  0.825468  0.825468  0.825468  1
  Mg  Mg6  1  0.500000  0.265211  0.265211  1
  Mg  Mg7  1  0.825468  0.174532  0.174532  1
  Mg  Mg8  1  0.174532  0.174532  0.174532  1
  Mg  Mg9  1  0.500000  0.734789  0.265211  1
  Mg  Mg10  1  0.174532  0.174532  0.825468  1
  Mg  Mg11  1  0.825468  0.174532  0.825468  1
  Mg  Mg12  1  0.734789  0.500000  0.265211  1
  Mg  Mg13  1  0.734789  0.734789  0.500000  1
  Mg  Mg14  1  0.265211  0.734789  0.500000  1
  Mg  Mg15  1  0.265211  0.265211  0.500000  1
  Mg  Mg16  1  0.174532  0.825468  0.174532  1
  Mg  Mg17  1  0.265211  0.500000  0.734789  1
  Mg  Mg18  1  0.825468  0.825468  0.174532  1
  Mg  Mg19  1  0.734789  0.500000  0.734789  1
  Mg  Mg20  1  0.500000  0.265211  0.734789  1
  Mg  Mg21  1  0.174532  0.825468  0.825468  1
  Mg  Mg22  1  0.734789  0.265211  0.500000  1
  In  In23  1  0.000000  0.000000  0.000000  1
  In  In24  1  0.349197  0.000000  0.349197  1
  In  In25  1  0.000000  0.349197  0.650803  1
  In  In26  1  0.650803  0.000000  0.349197  1
  In  In27  1  0.000000  0.650803  0.650803  1
  In  In28  1  0.000000  0.650803  0.349197  1
  In  In29  1  0.349197  0.650803  0.000000  1
  In  In30  1  0.650803  0.000000  0.650803  1
  In  In31  1  0.000000  0.349197  0.349197  1
  In  In32  1  0.650803  0.650803  0.000000  1
  In  In33  1  0.349197  0.349197  0.000000  1
  In  In34  1  0.349197  0.000000  0.650803  1
  In  In35  1  0.500000  0.500000  0.500000  1
  In  In36  1  0.650803  0.349197  0.000000  1
