# generated using pymatgen
data_CsScAs2(HO4)2
_symmetry_space_group_name_H-M   'P 1'
_cell_length_a   5.63040804
_cell_length_b   9.57495799
_cell_length_c   15.29459241
_cell_angle_alpha   90.00000000
_cell_angle_beta   95.86030706
_cell_angle_gamma   90.00000000
_symmetry_Int_Tables_number   1
_chemical_formula_structural   CsScAs2(HO4)2
_chemical_formula_sum   'Cs4 Sc4 As8 H8 O32'
_cell_volume   820.23630636
_cell_formula_units_Z   4
loop_
 _symmetry_equiv_pos_site_id
 _symmetry_equiv_pos_as_xyz
  1  'x, y, z'
loop_
 _atom_site_type_symbol
 _atom_site_label
 _atom_site_symmetry_multiplicity
 _atom_site_fract_x
 _atom_site_fract_y
 _atom_site_fract_z
 _atom_site_occupancy
  Cs  Cs0  1  0.770848  0.994160  0.608430  1
  Cs  Cs1  1  0.229152  0.494160  0.891570  1
  Cs  Cs2  1  0.229152  0.005840  0.391570  1
  Cs  Cs3  1  0.770848  0.505840  0.108430  1
  Sc  Sc4  1  0.243705  0.034644  0.847030  1
  Sc  Sc5  1  0.756295  0.534644  0.652970  1
  Sc  Sc6  1  0.756295  0.965356  0.152970  1
  Sc  Sc7  1  0.243705  0.465356  0.347030  1
  As  As8  1  0.784696  0.850973  0.940395  1
  As  As9  1  0.215304  0.350973  0.559605  1
  As  As10  1  0.215304  0.149027  0.059605  1
  As  As11  1  0.784696  0.649027  0.440395  1
  As  As12  1  0.280870  0.748973  0.691313  1
  As  As13  1  0.719130  0.248973  0.808687  1
  As  As14  1  0.719130  0.251027  0.308687  1
  As  As15  1  0.280870  0.751027  0.191313  1
  H  H16  1  0.669403  0.692261  0.828693  1
  H  H17  1  0.330597  0.192261  0.671307  1
  H  H18  1  0.330597  0.307739  0.171307  1
  H  H19  1  0.669403  0.807739  0.328693  1
  H  H20  1  0.257591  0.708914  0.540956  1
  H  H21  1  0.742409  0.208914  0.959044  1
  H  H22  1  0.742409  0.291086  0.459044  1
  H  H23  1  0.257591  0.791086  0.040956  1
  O  O24  1  0.074779  0.886345  0.923199  1
  O  O25  1  0.925221  0.386345  0.576801  1
  O  O26  1  0.925221  0.113655  0.076801  1
  O  O27  1  0.074779  0.613655  0.423199  1
  O  O28  1  0.586502  0.969287  0.893570  1
  O  O29  1  0.413498  0.469287  0.606430  1
  O  O30  1  0.413498  0.030713  0.106430  1
  O  O31  1  0.586502  0.530713  0.393570  1
  O  O32  1  0.757588  0.821910  0.048529  1
  O  O33  1  0.242412  0.321910  0.451471  1
  O  O34  1  0.242412  0.178090  0.951471  1
  O  O35  1  0.757588  0.678090  0.548529  1
  O  O36  1  0.715994  0.683398  0.894329  1
  O  O37  1  0.284006  0.183398  0.605671  1
  O  O38  1  0.284006  0.316602  0.105671  1
  O  O39  1  0.715994  0.816602  0.394329  1
  O  O40  1  0.071340  0.629488  0.712779  1
  O  O41  1  0.928660  0.129488  0.787221  1
  O  O42  1  0.928660  0.370512  0.287221  1
  O  O43  1  0.071340  0.870512  0.212779  1
  O  O44  1  0.566759  0.693653  0.722987  1
  O  O45  1  0.433241  0.193653  0.777013  1
  O  O46  1  0.433241  0.306347  0.277013  1
  O  O47  1  0.566759  0.806347  0.222987  1
  O  O48  1  0.228366  0.907611  0.734694  1
  O  O49  1  0.771634  0.407611  0.765306  1
  O  O50  1  0.771634  0.092389  0.265306  1
  O  O51  1  0.228366  0.592389  0.234694  1
  O  O52  1  0.262861  0.794333  0.577414  1
  O  O53  1  0.737139  0.294333  0.922586  1
  O  O54  1  0.737139  0.205667  0.422586  1
  O  O55  1  0.262861  0.705667  0.077414  1
