# generated using pymatgen
data_Rb2Bi(ClO4)5
_symmetry_space_group_name_H-M   'P 1'
_cell_length_a   8.29751847
_cell_length_b   10.69245842
_cell_length_c   11.83006743
_cell_angle_alpha   94.93381500
_cell_angle_beta   109.96377547
_cell_angle_gamma   105.18313330
_symmetry_Int_Tables_number   1
_chemical_formula_structural   Rb2Bi(ClO4)5
_chemical_formula_sum   'Rb4 Bi2 Cl10 O40'
_cell_volume   934.09473246
_cell_formula_units_Z   2
loop_
 _symmetry_equiv_pos_site_id
 _symmetry_equiv_pos_as_xyz
  1  'x, y, z'
loop_
 _atom_site_type_symbol
 _atom_site_label
 _atom_site_symmetry_multiplicity
 _atom_site_fract_x
 _atom_site_fract_y
 _atom_site_fract_z
 _atom_site_occupancy
  Rb  Rb0  1  0.094258  0.465931  0.236918  1
  Rb  Rb1  1  0.430541  0.112154  0.209327  1
  Rb  Rb2  1  0.905742  0.534069  0.763082  1
  Rb  Rb3  1  0.569459  0.887846  0.790673  1
  Bi  Bi4  1  0.743866  0.780901  0.279210  1
  Bi  Bi5  1  0.256134  0.219099  0.720790  1
  Cl  Cl6  1  0.708989  0.473129  0.371780  1
  Cl  Cl7  1  0.451566  0.796230  0.415251  1
  Cl  Cl8  1  0.008089  0.102814  0.359112  1
  Cl  Cl9  1  0.991911  0.897186  0.640888  1
  Cl  Cl10  1  0.373722  0.699649  0.045417  1
  Cl  Cl11  1  0.626278  0.300351  0.954583  1
  Cl  Cl12  1  0.291011  0.526871  0.628220  1
  Cl  Cl13  1  0.095108  0.195790  0.936262  1
  Cl  Cl14  1  0.904892  0.804210  0.063738  1
  Cl  Cl15  1  0.548434  0.203770  0.584749  1
  O  O16  1  0.468945  0.075685  0.607965  1
  O  O17  1  0.742405  0.243427  0.632273  1
  O  O18  1  0.917216  0.110765  0.913817  1
  O  O19  1  0.914026  0.718304  0.159101  1
  O  O20  1  0.934577  0.813555  0.718383  1
  O  O21  1  0.206045  0.623095  0.050767  1
  O  O22  1  0.194601  0.621123  0.629680  1
  O  O23  1  0.515790  0.633199  0.098562  1
  O  O24  1  0.521610  0.419571  0.291488  1
  O  O25  1  0.268321  0.472771  0.506373  1
  O  O26  1  0.257595  0.756573  0.367727  1
  O  O27  1  0.824842  0.720825  0.943495  1
  O  O28  1  0.444343  0.831862  0.123717  1
  O  O29  1  0.213286  0.118541  0.921974  1
  O  O30  1  0.086925  0.176698  0.485954  1
  O  O31  1  0.189781  0.940906  0.681406  1
  O  O32  1  0.647573  0.291739  0.079512  1
  O  O33  1  0.199748  0.413607  0.682227  1
  O  O34  1  0.731679  0.527229  0.493627  1
  O  O35  1  0.810219  0.059094  0.318594  1
  O  O36  1  0.935337  0.016297  0.646455  1
  O  O37  1  0.497584  0.304857  0.655955  1
  O  O38  1  0.352427  0.708261  0.920488  1
  O  O39  1  0.800252  0.586393  0.317773  1
  O  O40  1  0.064663  0.983703  0.353545  1
  O  O41  1  0.502416  0.695143  0.344045  1
  O  O42  1  0.085974  0.281696  0.840899  1
  O  O43  1  0.082784  0.889235  0.086183  1
  O  O44  1  0.484210  0.366801  0.901438  1
  O  O45  1  0.065423  0.186445  0.281617  1
  O  O46  1  0.793955  0.376905  0.949233  1
  O  O47  1  0.913075  0.823302  0.514046  1
  O  O48  1  0.525981  0.790024  0.542947  1
  O  O49  1  0.786714  0.881459  0.078026  1
  O  O50  1  0.175158  0.279175  0.056505  1
  O  O51  1  0.805399  0.378877  0.370320  1
  O  O52  1  0.478390  0.580429  0.708512  1
  O  O53  1  0.474019  0.209976  0.457053  1
  O  O54  1  0.555657  0.168138  0.876283  1
  O  O55  1  0.531055  0.924315  0.392035  1
