# generated using pymatgen
data_BaCrO3
_symmetry_space_group_name_H-M   'P 1'
_cell_length_a   5.72824468
_cell_length_b   5.72824468
_cell_length_c   13.95203721
_cell_angle_alpha   90.00000000
_cell_angle_beta   90.00000000
_cell_angle_gamma   120.00000000
_symmetry_Int_Tables_number   1
_chemical_formula_structural   BaCrO3
_chemical_formula_sum   'Ba6 Cr6 O18'
_cell_volume   396.47095626
_cell_formula_units_Z   6
loop_
 _symmetry_equiv_pos_site_id
 _symmetry_equiv_pos_as_xyz
  1  'x, y, z'
loop_
 _atom_site_type_symbol
 _atom_site_label
 _atom_site_symmetry_multiplicity
 _atom_site_fract_x
 _atom_site_fract_y
 _atom_site_fract_z
 _atom_site_occupancy
  Ba  Ba0  1  0.000000  0.000000  0.250000  1
  Ba  Ba1  1  0.000000  0.000000  0.750000  1
  Ba  Ba2  1  0.333333  0.666667  0.091986  1
  Ba  Ba3  1  0.666667  0.333333  0.591986  1
  Ba  Ba4  1  0.666667  0.333333  0.908014  1
  Ba  Ba5  1  0.333333  0.666667  0.408014  1
  Cr  Cr6  1  0.000000  0.000000  0.000000  1
  Cr  Cr7  1  0.000000  0.000000  0.500000  1
  Cr  Cr8  1  0.333333  0.666667  0.845681  1
  Cr  Cr9  1  0.666667  0.333333  0.345681  1
  Cr  Cr10  1  0.666667  0.333333  0.154319  1
  Cr  Cr11  1  0.333333  0.666667  0.654319  1
  O  O12  1  0.520650  0.479350  0.250000  1
  O  O13  1  0.041300  0.520650  0.750000  1
  O  O14  1  0.479350  0.958700  0.750000  1
  O  O15  1  0.520650  0.041300  0.250000  1
  O  O16  1  0.958700  0.479350  0.250000  1
  O  O17  1  0.479350  0.520650  0.750000  1
  O  O18  1  0.830244  0.169756  0.081708  1
  O  O19  1  0.660489  0.830244  0.581708  1
  O  O20  1  0.169756  0.339511  0.581708  1
  O  O21  1  0.830244  0.660489  0.081708  1
  O  O22  1  0.339511  0.169756  0.081708  1
  O  O23  1  0.660489  0.830244  0.918292  1
  O  O24  1  0.169756  0.339511  0.918292  1
  O  O25  1  0.169756  0.830244  0.581708  1
  O  O26  1  0.169756  0.830244  0.918292  1
  O  O27  1  0.830244  0.169756  0.418292  1
  O  O28  1  0.339511  0.169756  0.418292  1
  O  O29  1  0.830244  0.660489  0.418292  1
