# generated using pymatgen
data_Na2Cd3(P2O7)2
_symmetry_space_group_name_H-M   'P 1'
_cell_length_a   5.74810233
_cell_length_b   7.15398103
_cell_length_c   7.98126590
_cell_angle_alpha   77.09694631
_cell_angle_beta   82.51295347
_cell_angle_gamma   68.23070386
_symmetry_Int_Tables_number   1
_chemical_formula_structural   Na2Cd3(P2O7)2
_chemical_formula_sum   'Na2 Cd3 P4 O14'
_cell_volume   296.69274009
_cell_formula_units_Z   1
loop_
 _symmetry_equiv_pos_site_id
 _symmetry_equiv_pos_as_xyz
  1  'x, y, z'
loop_
 _atom_site_type_symbol
 _atom_site_label
 _atom_site_symmetry_multiplicity
 _atom_site_fract_x
 _atom_site_fract_y
 _atom_site_fract_z
 _atom_site_occupancy
  Na  Na0  1  0.591430  0.007941  0.682748  1
  Na  Na1  1  0.408570  0.992059  0.317252  1
  Cd  Cd2  1  0.189325  0.533919  0.307175  1
  Cd  Cd3  1  0.000000  0.000000  0.000000  1
  Cd  Cd4  1  0.810675  0.466081  0.692825  1
  P  P5  1  0.199044  0.731903  0.668331  1
  P  P6  1  0.652701  0.673262  0.077284  1
  P  P7  1  0.347299  0.326738  0.922716  1
  P  P8  1  0.800956  0.268097  0.331669  1
  O  O9  1  0.254549  0.569902  0.851289  1
  O  O10  1  0.549649  0.265665  0.423327  1
  O  O11  1  0.683456  0.699429  0.883522  1
  O  O12  1  0.962129  0.067719  0.274541  1
  O  O13  1  0.942417  0.345155  0.437497  1
  O  O14  1  0.057583  0.654845  0.562503  1
  O  O15  1  0.316544  0.300571  0.116478  1
  O  O16  1  0.450351  0.734335  0.576673  1
  O  O17  1  0.625562  0.239593  0.854842  1
  O  O18  1  0.813662  0.761963  0.155387  1
  O  O19  1  0.186338  0.238037  0.844613  1
  O  O20  1  0.374438  0.760407  0.145158  1
  O  O21  1  0.037871  0.932281  0.725459  1
  O  O22  1  0.745451  0.430098  0.148711  1
