# generated using pymatgen
data_Cu2SiPbS4
_symmetry_space_group_name_H-M   'P 1'
_cell_length_a   6.08014586
_cell_length_b   6.08014586
_cell_length_c   15.20109897
_cell_angle_alpha   90.00000000
_cell_angle_beta   90.00000000
_cell_angle_gamma   120.00000000
_symmetry_Int_Tables_number   1
_chemical_formula_structural   Cu2SiPbS4
_chemical_formula_sum   'Cu6 Si3 Pb3 S12'
_cell_volume   486.66892297
_cell_formula_units_Z   3
loop_
 _symmetry_equiv_pos_site_id
 _symmetry_equiv_pos_as_xyz
  1  'x, y, z'
loop_
 _atom_site_type_symbol
 _atom_site_label
 _atom_site_symmetry_multiplicity
 _atom_site_fract_x
 _atom_site_fract_y
 _atom_site_fract_z
 _atom_site_occupancy
  Cu  Cu0  1  0.427445  0.336309  0.242972  1
  Cu  Cu1  1  0.336309  0.427445  0.757028  1
  Cu  Cu2  1  0.572555  0.908864  0.423694  1
  Cu  Cu3  1  0.908864  0.572555  0.576306  1
  Cu  Cu4  1  0.663691  0.091136  0.909639  1
  Cu  Cu5  1  0.091136  0.663691  0.090361  1
  Si  Si6  1  0.722113  0.000000  0.166667  1
  Si  Si7  1  0.000000  0.722113  0.833333  1
  Si  Si8  1  0.277887  0.277887  0.500000  1
  Pb  Pb9  1  0.529279  0.000000  0.666667  1
  Pb  Pb10  1  0.000000  0.529279  0.333333  1
  Pb  Pb11  1  0.470721  0.470721  0.000000  1
  S  S12  1  0.494931  0.973471  0.055036  1
  S  S13  1  0.327143  0.096708  0.835544  1
  S  S14  1  0.026529  0.521461  0.721703  1
  S  S15  1  0.521461  0.026529  0.278297  1
  S  S16  1  0.096708  0.327143  0.164456  1
  S  S17  1  0.769564  0.672857  0.168878  1
  S  S18  1  0.672857  0.769564  0.831122  1
  S  S19  1  0.903292  0.230436  0.502211  1
  S  S20  1  0.478539  0.505069  0.388370  1
  S  S21  1  0.230436  0.903292  0.497789  1
  S  S22  1  0.973471  0.494931  0.944964  1
  S  S23  1  0.505069  0.478539  0.611630  1
