# generated using pymatgen
data_BaVS3
_symmetry_space_group_name_H-M   'P 1'
_cell_length_a   6.80201091
_cell_length_b   6.80201091
_cell_length_c   5.63223278
_cell_angle_alpha   90.00000000
_cell_angle_beta   90.00000000
_cell_angle_gamma   120.49463236
_symmetry_Int_Tables_number   1
_chemical_formula_structural   BaVS3
_chemical_formula_sum   'Ba2 V2 S6'
_cell_volume   224.54303918
_cell_formula_units_Z   2
loop_
 _symmetry_equiv_pos_site_id
 _symmetry_equiv_pos_as_xyz
  1  'x, y, z'
loop_
 _atom_site_type_symbol
 _atom_site_label
 _atom_site_symmetry_multiplicity
 _atom_site_fract_x
 _atom_site_fract_y
 _atom_site_fract_z
 _atom_site_occupancy
  Ba  Ba0  1  0.331291  0.668709  0.250000  1
  Ba  Ba1  1  0.668709  0.331291  0.750000  1
  V  V2  1  0.961105  0.961105  0.500000  1
  V  V3  1  0.038895  0.038895  1.000000  1
  S  S4  1  0.839032  0.160968  0.250000  1
  S  S5  1  0.166106  0.329265  0.738567  1
  S  S6  1  0.160968  0.839032  0.750000  1
  S  S7  1  0.670735  0.833894  0.761433  1
  S  S8  1  0.833894  0.670735  0.238567  1
  S  S9  1  0.329265  0.166106  0.261433  1
