# generated using pymatgen
data_Fe2Cu3(SeO3)6
_symmetry_space_group_name_H-M   'P 1'
_cell_length_a   7.73596374
_cell_length_b   8.38731301
_cell_length_c   12.64243356
_cell_angle_alpha   90.00000000
_cell_angle_beta   96.00092756
_cell_angle_gamma   90.00000000
_symmetry_Int_Tables_number   1
_chemical_formula_structural   Fe2Cu3(SeO3)6
_chemical_formula_sum   'Fe4 Cu6 Se12 O36'
_cell_volume   815.79598998
_cell_formula_units_Z   2
loop_
 _symmetry_equiv_pos_site_id
 _symmetry_equiv_pos_as_xyz
  1  'x, y, z'
loop_
 _atom_site_type_symbol
 _atom_site_label
 _atom_site_symmetry_multiplicity
 _atom_site_fract_x
 _atom_site_fract_y
 _atom_site_fract_z
 _atom_site_occupancy
  Fe  Fe0  1  0.134851  0.994824  0.824192  1
  Fe  Fe1  1  0.634851  0.505176  0.824192  1
  Fe  Fe2  1  0.365149  0.494824  0.175808  1
  Fe  Fe3  1  0.865149  0.005176  0.175808  1
  Cu  Cu4  1  0.366706  0.372953  0.618552  1
  Cu  Cu5  1  0.133294  0.872953  0.381448  1
  Cu  Cu6  1  0.866706  0.127047  0.618552  1
  Cu  Cu7  1  0.500000  0.000000  0.500000  1
  Cu  Cu8  1  0.633294  0.627047  0.381448  1
  Cu  Cu9  1  0.000000  0.500000  0.500000  1
  Se  Se10  1  0.808910  0.190915  0.393537  1
  Se  Se11  1  0.308910  0.309085  0.393537  1
  Se  Se12  1  0.864440  0.801413  0.956196  1
  Se  Se13  1  0.635560  0.301413  0.043804  1
  Se  Se14  1  0.555604  0.100186  0.783013  1
  Se  Se15  1  0.135560  0.198587  0.043804  1
  Se  Se16  1  0.691090  0.690915  0.606463  1
  Se  Se17  1  0.191090  0.809085  0.606463  1
  Se  Se18  1  0.364440  0.698587  0.956196  1
  Se  Se19  1  0.055604  0.399814  0.783013  1
  Se  Se20  1  0.944396  0.600186  0.216987  1
  Se  Se21  1  0.444396  0.899814  0.216987  1
  O  O22  1  0.549578  0.768809  0.497440  1
  O  O23  1  0.450422  0.231191  0.502560  1
  O  O24  1  0.039548  0.903036  0.673469  1
  O  O25  1  0.693461  0.730017  0.869979  1
  O  O26  1  0.749747  0.041535  0.484209  1
  O  O27  1  0.842519  0.532466  0.323274  1
  O  O28  1  0.410629  0.527832  0.887075  1
  O  O29  1  0.589371  0.472168  0.112925  1
  O  O30  1  0.950422  0.268809  0.502560  1
  O  O31  1  0.910629  0.972168  0.887075  1
  O  O32  1  0.806539  0.230017  0.130021  1
  O  O33  1  0.512524  0.302675  0.745909  1
  O  O34  1  0.987476  0.802675  0.254091  1
  O  O35  1  0.144286  0.515478  0.252584  1
  O  O36  1  0.748200  0.884090  0.054427  1
  O  O37  1  0.249747  0.458465  0.484209  1
  O  O38  1  0.193461  0.769983  0.869979  1
  O  O39  1  0.751800  0.384090  0.945573  1
  O  O40  1  0.342519  0.967534  0.323274  1
  O  O41  1  0.750253  0.541535  0.515791  1
  O  O42  1  0.251800  0.115910  0.945573  1
  O  O43  1  0.049578  0.731191  0.497440  1
  O  O44  1  0.855714  0.484522  0.747416  1
  O  O45  1  0.157481  0.467534  0.676726  1
  O  O46  1  0.657481  0.032466  0.676726  1
  O  O47  1  0.306539  0.269983  0.130021  1
  O  O48  1  0.250253  0.958465  0.515791  1
  O  O49  1  0.960452  0.096964  0.326531  1
  O  O50  1  0.248200  0.615910  0.054427  1
  O  O51  1  0.487476  0.697325  0.254091  1
  O  O52  1  0.012524  0.197325  0.745909  1
  O  O53  1  0.539548  0.596964  0.673469  1
  O  O54  1  0.089371  0.027832  0.112925  1
  O  O55  1  0.355714  0.015478  0.747416  1
  O  O56  1  0.460452  0.403036  0.326531  1
  O  O57  1  0.644286  0.984522  0.252584  1
