# generated using pymatgen
data_CrHgF6
_symmetry_space_group_name_H-M   'P 1'
_cell_length_a   5.73232334
_cell_length_b   5.73232334
_cell_length_c   5.73232334
_cell_angle_alpha   54.91485637
_cell_angle_beta   54.91485637
_cell_angle_gamma   54.91485637
_symmetry_Int_Tables_number   1
_chemical_formula_structural   CrHgF6
_chemical_formula_sum   'Cr1 Hg1 F6'
_cell_volume   117.42749067
_cell_formula_units_Z   1
loop_
 _symmetry_equiv_pos_site_id
 _symmetry_equiv_pos_as_xyz
  1  'x, y, z'
loop_
 _atom_site_type_symbol
 _atom_site_label
 _atom_site_symmetry_multiplicity
 _atom_site_fract_x
 _atom_site_fract_y
 _atom_site_fract_z
 _atom_site_occupancy
  Cr  Cr0  1  0.000000  0.000000  0.000000  1
  Hg  Hg1  1  0.500000  0.500000  0.500000  1
  F  F2  1  0.931092  0.210167  0.636036  1
  F  F3  1  0.210167  0.636036  0.931092  1
  F  F4  1  0.363964  0.068908  0.789833  1
  F  F5  1  0.789833  0.363964  0.068908  1
  F  F6  1  0.068908  0.789833  0.363964  1
  F  F7  1  0.636036  0.931092  0.210167  1
