# generated using pymatgen
data_CaAlPd
_symmetry_space_group_name_H-M   'P 1'
_cell_length_a   5.62935417
_cell_length_b   5.75869903
_cell_length_c   7.86624546
_cell_angle_alpha   90.00000000
_cell_angle_beta   90.00000000
_cell_angle_gamma   90.00000000
_symmetry_Int_Tables_number   1
_chemical_formula_structural   CaAlPd
_chemical_formula_sum   'Ca4 Al4 Pd4'
_cell_volume   255.00602909
_cell_formula_units_Z   4
loop_
 _symmetry_equiv_pos_site_id
 _symmetry_equiv_pos_as_xyz
  1  'x, y, z'
loop_
 _atom_site_type_symbol
 _atom_site_label
 _atom_site_symmetry_multiplicity
 _atom_site_fract_x
 _atom_site_fract_y
 _atom_site_fract_z
 _atom_site_occupancy
  Ca  Ca0  1  0.250000  0.364065  0.600377  1
  Ca  Ca1  1  0.750000  0.635935  0.399623  1
  Ca  Ca2  1  0.750000  0.364065  0.899623  1
  Ca  Ca3  1  0.250000  0.635935  0.100377  1
  Al  Al4  1  0.000000  0.104347  0.250000  1
  Al  Al5  1  0.500000  0.104347  0.250000  1
  Al  Al6  1  0.500000  0.895653  0.750000  1
  Al  Al7  1  0.000000  0.895653  0.750000  1
  Pd  Pd8  1  0.250000  0.128635  0.975274  1
  Pd  Pd9  1  0.250000  0.871365  0.475274  1
  Pd  Pd10  1  0.750000  0.128635  0.524726  1
  Pd  Pd11  1  0.750000  0.871365  0.024726  1
