# generated using pymatgen
data_KU2F9
_symmetry_space_group_name_H-M   'P 1'
_cell_length_a   7.05161031
_cell_length_b   8.79427400
_cell_length_c   11.62430470
_cell_angle_alpha   90.00000000
_cell_angle_beta   90.00000000
_cell_angle_gamma   90.00000000
_symmetry_Int_Tables_number   1
_chemical_formula_structural   KU2F9
_chemical_formula_sum   'K4 U8 F36'
_cell_volume   720.86722785
_cell_formula_units_Z   4
loop_
 _symmetry_equiv_pos_site_id
 _symmetry_equiv_pos_as_xyz
  1  'x, y, z'
loop_
 _atom_site_type_symbol
 _atom_site_label
 _atom_site_symmetry_multiplicity
 _atom_site_fract_x
 _atom_site_fract_y
 _atom_site_fract_z
 _atom_site_occupancy
  K  K0  1  0.861970  0.530292  0.250000  1
  K  K1  1  0.638030  0.030292  0.250000  1
  K  K2  1  0.138030  0.469708  0.750000  1
  K  K3  1  0.361970  0.969708  0.750000  1
  U  U4  1  0.349232  0.676056  0.050807  1
  U  U5  1  0.150768  0.176056  0.449192  1
  U  U6  1  0.650768  0.323944  0.550808  1
  U  U7  1  0.849232  0.823944  0.949192  1
  U  U8  1  0.650768  0.323944  0.949192  1
  U  U9  1  0.849232  0.823944  0.550808  1
  U  U10  1  0.349232  0.676056  0.449192  1
  U  U11  1  0.150768  0.176056  0.050807  1
  F  F12  1  0.338271  0.667798  0.250000  1
  F  F13  1  0.161729  0.167798  0.250000  1
  F  F14  1  0.661729  0.332202  0.750000  1
  F  F15  1  0.838271  0.832202  0.750000  1
  F  F16  1  0.575989  0.494073  0.098004  1
  F  F17  1  0.924011  0.994073  0.401996  1
  F  F18  1  0.424011  0.505927  0.598004  1
  F  F19  1  0.075989  0.005927  0.901996  1
  F  F20  1  0.424011  0.505927  0.901996  1
  F  F21  1  0.075989  0.005927  0.598004  1
  F  F22  1  0.575989  0.494073  0.401996  1
  F  F23  1  0.924011  0.994073  0.098004  1
  F  F24  1  0.026591  0.701640  0.093515  1
  F  F25  1  0.473409  0.201640  0.406485  1
  F  F26  1  0.973409  0.298360  0.593515  1
  F  F27  1  0.526591  0.798360  0.906485  1
  F  F28  1  0.973409  0.298360  0.906485  1
  F  F29  1  0.526591  0.798360  0.593515  1
  F  F30  1  0.026591  0.701640  0.406485  1
  F  F31  1  0.473409  0.201640  0.093515  1
  F  F32  1  0.648371  0.782456  0.107341  1
  F  F33  1  0.851629  0.282456  0.392659  1
  F  F34  1  0.351629  0.217544  0.607341  1
  F  F35  1  0.148371  0.717544  0.892659  1
  F  F36  1  0.351629  0.217544  0.892659  1
  F  F37  1  0.148371  0.717544  0.607341  1
  F  F38  1  0.648371  0.782456  0.392659  1
  F  F39  1  0.851629  0.282456  0.107341  1
  F  F40  1  0.297728  0.927881  0.083648  1
  F  F41  1  0.202272  0.427881  0.416352  1
  F  F42  1  0.702272  0.072119  0.583648  1
  F  F43  1  0.797728  0.572119  0.916352  1
  F  F44  1  0.702272  0.072119  0.916352  1
  F  F45  1  0.797728  0.572119  0.583648  1
  F  F46  1  0.297728  0.927881  0.416352  1
  F  F47  1  0.202272  0.427881  0.083648  1
