# generated using pymatgen
data_Rb2FeI4
_symmetry_space_group_name_H-M   'P 1'
_cell_length_a   7.67189515
_cell_length_b   8.51655335
_cell_length_c   10.73912172
_cell_angle_alpha   90.00000000
_cell_angle_beta   110.72379629
_cell_angle_gamma   90.00000000
_symmetry_Int_Tables_number   1
_chemical_formula_structural   Rb2FeI4
_chemical_formula_sum   'Rb4 Fe2 I8'
_cell_volume   656.27355294
_cell_formula_units_Z   2
loop_
 _symmetry_equiv_pos_site_id
 _symmetry_equiv_pos_as_xyz
  1  'x, y, z'
loop_
 _atom_site_type_symbol
 _atom_site_label
 _atom_site_symmetry_multiplicity
 _atom_site_fract_x
 _atom_site_fract_y
 _atom_site_fract_z
 _atom_site_occupancy
  Rb  Rb0  1  0.799069  0.260103  0.960836  1
  Rb  Rb1  1  0.713446  0.261112  0.418660  1
  Rb  Rb2  1  0.286554  0.761112  0.581340  1
  Rb  Rb3  1  0.200931  0.760103  0.039164  1
  Fe  Fe4  1  0.204157  0.254649  0.789287  1
  Fe  Fe5  1  0.795843  0.754649  0.210713  1
  I  I6  1  0.371214  0.249605  0.050920  1
  I  I7  1  0.415685  0.252094  0.642692  1
  I  I8  1  0.991236  0.506057  0.729479  1
  I  I9  1  0.628786  0.749605  0.949080  1
  I  I10  1  0.015759  0.507680  0.274626  1
  I  I11  1  0.584315  0.752094  0.357308  1
  I  I12  1  0.008764  0.006057  0.270521  1
  I  I13  1  0.984241  0.007680  0.725374  1
