# generated using pymatgen
data_Al13Os4
_symmetry_space_group_name_H-M   'P 1'
_cell_length_a   9.10575406
_cell_length_b   9.10575406
_cell_length_c   7.81811287
_cell_angle_alpha   64.93508908
_cell_angle_beta   115.06491092
_cell_angle_gamma   153.06496509
_symmetry_Int_Tables_number   1
_chemical_formula_structural   Al13Os4
_chemical_formula_sum   'Al13 Os4'
_cell_volume   264.31236442
_cell_formula_units_Z   1
loop_
 _symmetry_equiv_pos_site_id
 _symmetry_equiv_pos_as_xyz
  1  'x, y, z'
loop_
 _atom_site_type_symbol
 _atom_site_label
 _atom_site_symmetry_multiplicity
 _atom_site_fract_x
 _atom_site_fract_y
 _atom_site_fract_z
 _atom_site_occupancy
  Al  Al0  1  0.869917  0.130083  0.844244  1
  Al  Al1  1  0.791673  0.208327  0.084892  1
  Al  Al2  1  0.588354  0.411646  0.800983  1
  Al  Al3  1  0.587589  0.412411  0.366774  1
  Al  Al4  1  0.130083  0.869917  0.155756  1
  Al  Al5  1  0.740984  0.259016  0.384958  1
  Al  Al6  1  0.085210  0.914790  0.569198  1
  Al  Al7  1  0.412411  0.587589  0.633226  1
  Al  Al8  1  0.500000  0.500000  0.000000  1
  Al  Al9  1  0.411646  0.588354  0.199017  1
  Al  Al10  1  0.259016  0.740984  0.615042  1
  Al  Al11  1  0.208327  0.791673  0.915108  1
  Al  Al12  1  0.914790  0.085210  0.430802  1
  Os  Os13  1  0.008278  0.991722  0.804263  1
  Os  Os14  1  0.294199  0.705801  0.291558  1
  Os  Os15  1  0.991722  0.008278  0.195737  1
  Os  Os16  1  0.705801  0.294199  0.708442  1
