# generated using pymatgen
data_Sr3Bi(ClO)3
_symmetry_space_group_name_H-M   'P 1'
_cell_length_a   6.76145429
_cell_length_b   11.57798406
_cell_length_c   11.94254201
_cell_angle_alpha   90.00000000
_cell_angle_beta   90.00000000
_cell_angle_gamma   90.00000000
_symmetry_Int_Tables_number   1
_chemical_formula_structural   Sr3Bi(ClO)3
_chemical_formula_sum   'Sr12 Bi4 Cl12 O12'
_cell_volume   934.91007804
_cell_formula_units_Z   4
loop_
 _symmetry_equiv_pos_site_id
 _symmetry_equiv_pos_as_xyz
  1  'x, y, z'
loop_
 _atom_site_type_symbol
 _atom_site_label
 _atom_site_symmetry_multiplicity
 _atom_site_fract_x
 _atom_site_fract_y
 _atom_site_fract_z
 _atom_site_occupancy
  Sr  Sr0  1  0.333283  0.429386  0.110098  1
  Sr  Sr1  1  0.844403  0.250000  0.032575  1
  Sr  Sr2  1  0.833283  0.429386  0.389902  1
  Sr  Sr3  1  0.666717  0.570614  0.889902  1
  Sr  Sr4  1  0.833283  0.070614  0.389902  1
  Sr  Sr5  1  0.166717  0.929386  0.610098  1
  Sr  Sr6  1  0.655597  0.750000  0.532575  1
  Sr  Sr7  1  0.666717  0.929386  0.889902  1
  Sr  Sr8  1  0.333283  0.070614  0.110098  1
  Sr  Sr9  1  0.166717  0.570614  0.610098  1
  Sr  Sr10  1  0.344403  0.250000  0.467425  1
  Sr  Sr11  1  0.155597  0.750000  0.967425  1
  Bi  Bi12  1  0.599545  0.750000  0.126597  1
  Bi  Bi13  1  0.900455  0.250000  0.626597  1
  Bi  Bi14  1  0.400455  0.250000  0.873403  1
  Bi  Bi15  1  0.099545  0.750000  0.373403  1
  Cl  Cl16  1  0.093484  0.005384  0.854161  1
  Cl  Cl17  1  0.585754  0.250000  0.227725  1
  Cl  Cl18  1  0.093484  0.494616  0.854161  1
  Cl  Cl19  1  0.085754  0.250000  0.272275  1
  Cl  Cl20  1  0.906516  0.994616  0.145839  1
  Cl  Cl21  1  0.593484  0.005384  0.645839  1
  Cl  Cl22  1  0.906516  0.505384  0.145839  1
  Cl  Cl23  1  0.406516  0.994616  0.354161  1
  Cl  Cl24  1  0.593484  0.494616  0.645839  1
  Cl  Cl25  1  0.414246  0.750000  0.772275  1
  Cl  Cl26  1  0.406516  0.505384  0.354161  1
  Cl  Cl27  1  0.914246  0.750000  0.727725  1
  O  O28  1  0.578754  0.122815  0.951668  1
  O  O29  1  0.421246  0.622815  0.048332  1
  O  O30  1  0.921246  0.877185  0.451668  1
  O  O31  1  0.204304  0.250000  0.010339  1
  O  O32  1  0.795696  0.750000  0.989661  1
  O  O33  1  0.078753  0.377185  0.548332  1
  O  O34  1  0.704304  0.250000  0.489661  1
  O  O35  1  0.295696  0.750000  0.510339  1
  O  O36  1  0.921246  0.622815  0.451668  1
  O  O37  1  0.078753  0.122815  0.548332  1
  O  O38  1  0.578754  0.377185  0.951668  1
  O  O39  1  0.421246  0.877185  0.048332  1
