# generated using pymatgen
data_Na3Fe3(PO4)4
_symmetry_space_group_name_H-M   'P 1'
_cell_length_a   10.42750991
_cell_length_b   10.42750991
_cell_length_c   10.74287630
_cell_angle_alpha   88.28591383
_cell_angle_beta   91.71408617
_cell_angle_gamma   143.84722672
_symmetry_Int_Tables_number   1
_chemical_formula_structural   Na3Fe3(PO4)4
_chemical_formula_sum   'Na6 Fe6 P8 O32'
_cell_volume   688.77089287
_cell_formula_units_Z   2
loop_
 _symmetry_equiv_pos_site_id
 _symmetry_equiv_pos_as_xyz
  1  'x, y, z'
loop_
 _atom_site_type_symbol
 _atom_site_label
 _atom_site_symmetry_multiplicity
 _atom_site_fract_x
 _atom_site_fract_y
 _atom_site_fract_z
 _atom_site_occupancy
  Na  Na0  1  0.942551  0.775747  0.474130  1
  Na  Na1  1  0.629181  0.629181  0.750000  1
  Na  Na2  1  0.224253  0.057449  0.974130  1
  Na  Na3  1  0.057449  0.224253  0.525870  1
  Na  Na4  1  0.370819  0.370819  0.250000  1
  Na  Na5  1  0.775747  0.942551  0.025870  1
  Fe  Fe6  1  0.634969  0.321407  0.747290  1
  Fe  Fe7  1  0.500000  0.000000  0.500000  1
  Fe  Fe8  1  0.365031  0.678593  0.252710  1
  Fe  Fe9  1  0.678593  0.365031  0.247290  1
  Fe  Fe10  1  0.000000  0.500000  0.000000  1
  Fe  Fe11  1  0.321407  0.634969  0.752710  1
  P  P12  1  0.779747  0.182993  0.757005  1
  P  P13  1  0.428063  0.252823  0.490254  1
  P  P14  1  0.182993  0.779747  0.742995  1
  P  P15  1  0.220253  0.817007  0.242995  1
  P  P16  1  0.571937  0.747177  0.509746  1
  P  P17  1  0.817007  0.220253  0.257005  1
  P  P18  1  0.252823  0.428063  0.009746  1
  P  P19  1  0.747177  0.571937  0.990254  1
  O  O20  1  0.634158  0.949400  0.786408  1
  O  O21  1  0.585790  0.395842  0.885632  1
  O  O22  1  0.365842  0.050600  0.213592  1
  O  O23  1  0.309388  0.798141  0.353803  1
  O  O24  1  0.949886  0.645908  0.993783  1
  O  O25  1  0.050600  0.365842  0.286408  1
  O  O26  1  0.395842  0.585790  0.614368  1
  O  O27  1  0.455401  0.624891  0.383444  1
  O  O28  1  0.201859  0.690612  0.853803  1
  O  O29  1  0.414210  0.604158  0.114368  1
  O  O30  1  0.050114  0.354092  0.006217  1
  O  O31  1  0.949400  0.634158  0.713592  1
  O  O32  1  0.274925  0.767838  0.636454  1
  O  O33  1  0.324590  0.009851  0.773927  1
  O  O34  1  0.624891  0.455401  0.116556  1
  O  O35  1  0.232162  0.725075  0.136454  1
  O  O36  1  0.604158  0.414210  0.385632  1
  O  O37  1  0.765535  0.817536  0.539645  1
  O  O38  1  0.544599  0.375109  0.616556  1
  O  O39  1  0.798141  0.309388  0.146197  1
  O  O40  1  0.990149  0.675410  0.273927  1
  O  O41  1  0.690612  0.201859  0.646197  1
  O  O42  1  0.767838  0.274925  0.863546  1
  O  O43  1  0.645908  0.949886  0.506217  1
  O  O44  1  0.725075  0.232162  0.363546  1
  O  O45  1  0.675410  0.990149  0.226073  1
  O  O46  1  0.009851  0.324590  0.726073  1
  O  O47  1  0.354092  0.050114  0.493783  1
  O  O48  1  0.817536  0.765535  0.960355  1
  O  O49  1  0.375109  0.544599  0.883444  1
  O  O50  1  0.182464  0.234465  0.039645  1
  O  O51  1  0.234465  0.182464  0.460355  1
