# generated using pymatgen
data_V2Hg2O7
_symmetry_space_group_name_H-M   'P 1'
_cell_length_a   3.69435153
_cell_length_b   7.30931785
_cell_length_c   21.88872293
_cell_angle_alpha   90.00000000
_cell_angle_beta   90.00000000
_cell_angle_gamma   90.00000000
_symmetry_Int_Tables_number   1
_chemical_formula_structural   V2Hg2O7
_chemical_formula_sum   'V8 Hg8 O28'
_cell_volume   591.06533500
_cell_formula_units_Z   4
loop_
 _symmetry_equiv_pos_site_id
 _symmetry_equiv_pos_as_xyz
  1  'x, y, z'
loop_
 _atom_site_type_symbol
 _atom_site_label
 _atom_site_symmetry_multiplicity
 _atom_site_fract_x
 _atom_site_fract_y
 _atom_site_fract_z
 _atom_site_occupancy
  V  V0  1  0.250000  0.477001  0.380857  1
  V  V1  1  0.250000  0.977001  0.119143  1
  V  V2  1  0.750000  0.522999  0.619143  1
  V  V3  1  0.750000  0.022999  0.880857  1
  V  V4  1  0.750000  0.303453  0.480432  1
  V  V5  1  0.750000  0.803453  0.019568  1
  V  V6  1  0.250000  0.696547  0.519568  1
  V  V7  1  0.250000  0.196547  0.980432  1
  Hg  Hg8  1  0.750000  0.227966  0.253576  1
  Hg  Hg9  1  0.750000  0.727966  0.246424  1
  Hg  Hg10  1  0.250000  0.772034  0.746424  1
  Hg  Hg11  1  0.250000  0.272034  0.753576  1
  Hg  Hg12  1  0.750000  0.034311  0.628512  1
  Hg  Hg13  1  0.750000  0.534311  0.871488  1
  Hg  Hg14  1  0.250000  0.965689  0.371488  1
  Hg  Hg15  1  0.250000  0.465689  0.128512  1
  O  O16  1  0.750000  0.970627  0.300356  1
  O  O17  1  0.750000  0.470627  0.199644  1
  O  O18  1  0.250000  0.029373  0.699644  1
  O  O19  1  0.250000  0.529373  0.800356  1
  O  O20  1  0.250000  0.635806  0.324185  1
  O  O21  1  0.250000  0.135806  0.175815  1
  O  O22  1  0.750000  0.364194  0.675815  1
  O  O23  1  0.750000  0.864194  0.824185  1
  O  O24  1  0.250000  0.274491  0.340030  1
  O  O25  1  0.250000  0.774491  0.159970  1
  O  O26  1  0.750000  0.725509  0.659970  1
  O  O27  1  0.750000  0.225509  0.840030  1
  O  O28  1  0.250000  0.378902  0.471747  1
  O  O29  1  0.250000  0.878902  0.028253  1
  O  O30  1  0.750000  0.621098  0.528253  1
  O  O31  1  0.750000  0.121098  0.971747  1
  O  O32  1  0.750000  0.470153  0.404057  1
  O  O33  1  0.750000  0.970153  0.095943  1
  O  O34  1  0.250000  0.529847  0.595943  1
  O  O35  1  0.250000  0.029847  0.904057  1
  O  O36  1  0.750000  0.100342  0.446652  1
  O  O37  1  0.750000  0.600342  0.053348  1
  O  O38  1  0.250000  0.899658  0.553348  1
  O  O39  1  0.250000  0.399658  0.946652  1
  O  O40  1  0.750000  0.263192  0.559131  1
  O  O41  1  0.750000  0.763192  0.940869  1
  O  O42  1  0.250000  0.736808  0.440869  1
  O  O43  1  0.250000  0.236808  0.059131  1
