# generated using pymatgen
data_Ba4Fe3(S3F2)2
_symmetry_space_group_name_H-M   'P 1'
_cell_length_a   6.25158674
_cell_length_b   12.81374312
_cell_length_c   19.11516205
_cell_angle_alpha   90.00000000
_cell_angle_beta   90.00000000
_cell_angle_gamma   90.00000000
_symmetry_Int_Tables_number   1
_chemical_formula_structural   Ba4Fe3(S3F2)2
_chemical_formula_sum   'Ba16 Fe12 S24 F16'
_cell_volume   1531.24350227
_cell_formula_units_Z   4
loop_
 _symmetry_equiv_pos_site_id
 _symmetry_equiv_pos_as_xyz
  1  'x, y, z'
loop_
 _atom_site_type_symbol
 _atom_site_label
 _atom_site_symmetry_multiplicity
 _atom_site_fract_x
 _atom_site_fract_y
 _atom_site_fract_z
 _atom_site_occupancy
  Ba  Ba0  1  0.245291  0.000631  0.421271  1
  Ba  Ba1  1  0.745291  0.499369  0.578729  1
  Ba  Ba2  1  0.263669  0.750404  0.921389  1
  Ba  Ba3  1  0.254709  0.500631  0.421271  1
  Ba  Ba4  1  0.763669  0.749596  0.078611  1
  Ba  Ba5  1  0.254709  0.500631  0.078729  1
  Ba  Ba6  1  0.763669  0.749596  0.421389  1
  Ba  Ba7  1  0.236331  0.250404  0.578611  1
  Ba  Ba8  1  0.754709  0.999369  0.921271  1
  Ba  Ba9  1  0.754709  0.999369  0.578729  1
  Ba  Ba10  1  0.236331  0.250404  0.921389  1
  Ba  Ba11  1  0.245291  0.000631  0.078729  1
  Ba  Ba12  1  0.736331  0.249596  0.421389  1
  Ba  Ba13  1  0.736331  0.249596  0.078611  1
  Ba  Ba14  1  0.263669  0.750404  0.578611  1
  Ba  Ba15  1  0.745291  0.499369  0.921271  1
  Fe  Fe16  1  0.857269  0.048799  0.250000  1
  Fe  Fe17  1  0.642731  0.548798  0.250000  1
  Fe  Fe18  1  0.503310  0.875178  0.250000  1
  Fe  Fe19  1  0.146494  0.702310  0.250000  1
  Fe  Fe20  1  0.496690  0.124822  0.750000  1
  Fe  Fe21  1  0.142731  0.951202  0.750000  1
  Fe  Fe22  1  0.646494  0.797690  0.750000  1
  Fe  Fe23  1  0.853506  0.297690  0.750000  1
  Fe  Fe24  1  0.003310  0.624822  0.750000  1
  Fe  Fe25  1  0.996690  0.375178  0.250000  1
  Fe  Fe26  1  0.357269  0.451201  0.750000  1
  Fe  Fe27  1  0.353506  0.202310  0.250000  1
  S  S28  1  0.781359  0.728153  0.849153  1
  S  S29  1  0.766490  0.972652  0.750000  1
  S  S30  1  0.724654  0.978164  0.150884  1
  S  S31  1  0.224654  0.521836  0.849116  1
  S  S32  1  0.275346  0.021836  0.849116  1
  S  S33  1  0.781359  0.728153  0.650847  1
  S  S34  1  0.724654  0.978164  0.349116  1
  S  S35  1  0.718641  0.228153  0.650847  1
  S  S36  1  0.281359  0.771847  0.150847  1
  S  S37  1  0.775346  0.478164  0.349116  1
  S  S38  1  0.281359  0.771847  0.349153  1
  S  S39  1  0.233510  0.027348  0.250000  1
  S  S40  1  0.775346  0.478164  0.150884  1
  S  S41  1  0.266490  0.527348  0.250000  1
  S  S42  1  0.218641  0.271847  0.150847  1
  S  S43  1  0.718641  0.228153  0.849153  1
  S  S44  1  0.270388  0.777233  0.750000  1
  S  S45  1  0.218641  0.271847  0.349153  1
  S  S46  1  0.275346  0.021836  0.650884  1
  S  S47  1  0.229612  0.277233  0.750000  1
  S  S48  1  0.224654  0.521836  0.650884  1
  S  S49  1  0.733510  0.472652  0.750000  1
  S  S50  1  0.729612  0.222767  0.250000  1
  S  S51  1  0.770388  0.722767  0.250000  1
  F  F52  1  0.490777  0.125035  0.498724  1
  F  F53  1  0.990777  0.374965  0.501276  1
  F  F54  1  0.509162  0.625061  0.497874  1
  F  F55  1  0.009162  0.874939  0.997874  1
  F  F56  1  0.990838  0.125061  0.497874  1
  F  F57  1  0.009162  0.874939  0.502126  1
  F  F58  1  0.990838  0.125061  0.002126  1
  F  F59  1  0.490838  0.374939  0.502126  1
  F  F60  1  0.490838  0.374939  0.997874  1
  F  F61  1  0.509223  0.874965  0.501276  1
  F  F62  1  0.009223  0.625035  0.001276  1
  F  F63  1  0.509223  0.874965  0.998724  1
  F  F64  1  0.509162  0.625061  0.002126  1
  F  F65  1  0.490777  0.125035  0.001276  1
  F  F66  1  0.990777  0.374965  0.998724  1
  F  F67  1  0.009223  0.625035  0.498724  1
