# generated using pymatgen
data_K2SnCl6
_symmetry_space_group_name_H-M   'P 1'
_cell_length_a   7.23817560
_cell_length_b   7.22883297
_cell_length_c   12.54074880
_cell_angle_alpha   90.00000000
_cell_angle_beta   124.80191818
_cell_angle_gamma   90.00000000
_symmetry_Int_Tables_number   1
_chemical_formula_structural   K2SnCl6
_chemical_formula_sum   'K4 Sn2 Cl12'
_cell_volume   538.80640205
_cell_formula_units_Z   2
loop_
 _symmetry_equiv_pos_site_id
 _symmetry_equiv_pos_as_xyz
  1  'x, y, z'
loop_
 _atom_site_type_symbol
 _atom_site_label
 _atom_site_symmetry_multiplicity
 _atom_site_fract_x
 _atom_site_fract_y
 _atom_site_fract_z
 _atom_site_occupancy
  K  K0  1  0.738392  0.527428  0.744981  1
  K  K1  1  0.261608  0.472572  0.255019  1
  K  K2  1  0.738392  0.972572  0.244981  1
  K  K3  1  0.261608  0.027428  0.755019  1
  Sn  Sn4  1  0.000000  0.500000  0.500000  1
  Sn  Sn5  1  0.000000  0.000000  0.000000  1
  Cl  Cl6  1  0.773959  0.269887  0.981572  1
  Cl  Cl7  1  0.709293  0.790620  0.977529  1
  Cl  Cl8  1  0.773959  0.230113  0.481572  1
  Cl  Cl9  1  0.226041  0.769887  0.518428  1
  Cl  Cl10  1  0.709293  0.709380  0.477529  1
  Cl  Cl11  1  0.290707  0.290620  0.522471  1
  Cl  Cl12  1  0.805072  0.998714  0.761906  1
  Cl  Cl13  1  0.290707  0.209380  0.022471  1
  Cl  Cl14  1  0.194928  0.001286  0.238094  1
  Cl  Cl15  1  0.226041  0.730113  0.018428  1
  Cl  Cl16  1  0.194928  0.498714  0.738094  1
  Cl  Cl17  1  0.805072  0.501286  0.261906  1
