# generated using pymatgen
data_K3Na3(NO4)2
_symmetry_space_group_name_H-M   'P 1'
_cell_length_a   7.10411817
_cell_length_b   7.38412059
_cell_length_c   16.32032805
_cell_angle_alpha   90.00000000
_cell_angle_beta   90.00000000
_cell_angle_gamma   90.00000000
_symmetry_Int_Tables_number   1
_chemical_formula_structural   K3Na3(NO4)2
_chemical_formula_sum   'K12 Na12 N8 O32'
_cell_volume   856.12630566
_cell_formula_units_Z   4
loop_
 _symmetry_equiv_pos_site_id
 _symmetry_equiv_pos_as_xyz
  1  'x, y, z'
loop_
 _atom_site_type_symbol
 _atom_site_label
 _atom_site_symmetry_multiplicity
 _atom_site_fract_x
 _atom_site_fract_y
 _atom_site_fract_z
 _atom_site_occupancy
  K  K0  1  0.085191  0.706168  0.366996  1
  K  K1  1  0.914809  0.293832  0.633004  1
  K  K2  1  0.250000  0.000000  0.510730  1
  K  K3  1  0.750000  0.000000  0.489270  1
  K  K4  1  0.250000  0.500000  0.010730  1
  K  K5  1  0.750000  0.500000  0.989270  1
  K  K6  1  0.585191  0.793832  0.133004  1
  K  K7  1  0.585191  0.706168  0.633004  1
  K  K8  1  0.085191  0.793832  0.866996  1
  K  K9  1  0.414809  0.206168  0.866996  1
  K  K10  1  0.914809  0.206168  0.133004  1
  K  K11  1  0.414809  0.293832  0.366996  1
  Na  Na12  1  0.750000  0.000000  0.292916  1
  Na  Na13  1  0.250000  0.000000  0.030400  1
  Na  Na14  1  0.750000  0.500000  0.257882  1
  Na  Na15  1  0.750000  0.000000  0.757882  1
  Na  Na16  1  0.250000  0.000000  0.707084  1
  Na  Na17  1  0.250000  0.500000  0.742118  1
  Na  Na18  1  0.750000  0.000000  0.969600  1
  Na  Na19  1  0.750000  0.500000  0.792916  1
  Na  Na20  1  0.750000  0.500000  0.469600  1
  Na  Na21  1  0.250000  0.000000  0.242118  1
  Na  Na22  1  0.250000  0.500000  0.530400  1
  Na  Na23  1  0.250000  0.500000  0.207084  1
  N  N24  1  0.016617  0.740553  0.630166  1
  N  N25  1  0.516617  0.740553  0.369834  1
  N  N26  1  0.516617  0.759447  0.869834  1
  N  N27  1  0.016617  0.759447  0.130166  1
  N  N28  1  0.483383  0.259447  0.630166  1
  N  N29  1  0.483383  0.240553  0.130166  1
  N  N30  1  0.983383  0.259447  0.369834  1
  N  N31  1  0.983383  0.240553  0.869834  1
  O  O32  1  0.540094  0.078849  0.634904  1
  O  O33  1  0.052381  0.144810  0.802556  1
  O  O34  1  0.947619  0.644810  0.697444  1
  O  O35  1  0.540094  0.421151  0.134904  1
  O  O36  1  0.552381  0.355190  0.697444  1
  O  O37  1  0.052381  0.355190  0.302556  1
  O  O38  1  0.447619  0.644810  0.302556  1
  O  O39  1  0.785197  0.269139  0.368886  1
  O  O40  1  0.959906  0.921151  0.634904  1
  O  O41  1  0.714803  0.730861  0.368886  1
  O  O42  1  0.459906  0.921151  0.365096  1
  O  O43  1  0.951107  0.664612  0.556532  1
  O  O44  1  0.951107  0.835388  0.056532  1
  O  O45  1  0.048893  0.164612  0.943468  1
  O  O46  1  0.285197  0.230861  0.131114  1
  O  O47  1  0.548893  0.164612  0.056532  1
  O  O48  1  0.451107  0.835388  0.943468  1
  O  O49  1  0.447619  0.855190  0.802556  1
  O  O50  1  0.451107  0.664612  0.443468  1
  O  O51  1  0.947619  0.855190  0.197444  1
  O  O52  1  0.714803  0.769139  0.868886  1
  O  O53  1  0.459906  0.578849  0.865096  1
  O  O54  1  0.959906  0.578849  0.134904  1
  O  O55  1  0.785197  0.230861  0.868886  1
  O  O56  1  0.040094  0.421151  0.865096  1
  O  O57  1  0.214803  0.769139  0.131114  1
  O  O58  1  0.548893  0.335388  0.556532  1
  O  O59  1  0.552381  0.144810  0.197444  1
  O  O60  1  0.285197  0.269139  0.631114  1
  O  O61  1  0.214803  0.730861  0.631114  1
  O  O62  1  0.048893  0.335388  0.443468  1
  O  O63  1  0.040094  0.078849  0.365096  1
