# generated using pymatgen
data_LaP5Cl18O17
_symmetry_space_group_name_H-M   'P 1'
_cell_length_a   10.41995690
_cell_length_b   18.00634417
_cell_length_c   10.60773103
_cell_angle_alpha   90.00000000
_cell_angle_beta   90.07813110
_cell_angle_gamma   90.00000000
_symmetry_Int_Tables_number   1
_chemical_formula_structural   LaP5Cl18O17
_chemical_formula_sum   'La2 P10 Cl36 O34'
_cell_volume   1990.27718707
_cell_formula_units_Z   2
loop_
 _symmetry_equiv_pos_site_id
 _symmetry_equiv_pos_as_xyz
  1  'x, y, z'
loop_
 _atom_site_type_symbol
 _atom_site_label
 _atom_site_symmetry_multiplicity
 _atom_site_fract_x
 _atom_site_fract_y
 _atom_site_fract_z
 _atom_site_occupancy
  La  La0  1  0.219366  0.248219  0.710279  1
  La  La1  1  0.780634  0.748219  0.289721  1
  P  P2  1  0.884006  0.201603  0.544109  1
  P  P3  1  0.604992  0.903023  0.090427  1
  P  P4  1  0.999117  0.229125  0.016683  1
  P  P5  1  0.395008  0.403023  0.909573  1
  P  P6  1  0.830123  0.521436  0.269221  1
  P  P7  1  0.000883  0.729125  0.983317  1
  P  P8  1  0.629308  0.640519  0.591471  1
  P  P9  1  0.169877  0.021436  0.730779  1
  P  P10  1  0.115994  0.701603  0.455891  1
  P  P11  1  0.370692  0.140519  0.408529  1
  Cl  Cl12  1  0.163719  0.989231  0.909899  1
  Cl  Cl13  1  0.756742  0.570646  0.666716  1
  Cl  Cl14  1  0.096500  0.285023  0.147360  1
  Cl  Cl15  1  0.318833  0.966181  0.658234  1
  Cl  Cl16  1  0.875402  0.114447  0.429187  1
  Cl  Cl17  1  0.243258  0.070646  0.333284  1
  Cl  Cl18  1  0.124598  0.614447  0.570813  1
  Cl  Cl19  1  0.447955  0.172317  0.882098  1
  Cl  Cl20  1  0.681167  0.466181  0.341766  1
  Cl  Cl21  1  0.409344  0.406765  0.096681  1
  Cl  Cl22  1  0.438460  0.198882  0.263823  1
  Cl  Cl23  1  0.327633  0.502247  0.858758  1
  Cl  Cl24  1  0.819807  0.266986  0.024704  1
  Cl  Cl25  1  0.482380  0.576891  0.537731  1
  Cl  Cl26  1  0.574427  0.400135  0.845154  1
  Cl  Cl27  1  0.590656  0.906765  0.903319  1
  Cl  Cl28  1  0.012637  0.910968  0.230217  1
  Cl  Cl29  1  0.561540  0.698882  0.736177  1
  Cl  Cl30  1  0.517620  0.076891  0.462269  1
  Cl  Cl31  1  0.180193  0.766986  0.975296  1
  Cl  Cl32  1  0.984784  0.475774  0.348645  1
  Cl  Cl33  1  0.987363  0.410968  0.769783  1
  Cl  Cl34  1  0.425573  0.900135  0.154846  1
  Cl  Cl35  1  0.235905  0.678838  0.315497  1
  Cl  Cl36  1  0.013329  0.625903  0.915261  1
  Cl  Cl37  1  0.903500  0.785023  0.852640  1
  Cl  Cl38  1  0.312606  0.377468  0.471261  1
  Cl  Cl39  1  0.552045  0.672317  0.117902  1
  Cl  Cl40  1  0.687394  0.877468  0.528739  1
  Cl  Cl41  1  0.198714  0.784523  0.550526  1
  Cl  Cl42  1  0.836281  0.489231  0.090101  1
  Cl  Cl43  1  0.764095  0.178838  0.684503  1
  Cl  Cl44  1  0.801286  0.284523  0.449474  1
  Cl  Cl45  1  0.986671  0.125903  0.084739  1
  Cl  Cl46  1  0.672367  0.002247  0.141242  1
  Cl  Cl47  1  0.015216  0.975774  0.651355  1
  O  O48  1  0.314290  0.340322  0.866350  1
  O  O49  1  0.983412  0.718002  0.414218  1
  O  O50  1  0.529606  0.214927  0.965071  1
  O  O51  1  0.858568  0.385680  0.739837  1
  O  O52  1  0.421216  0.369704  0.386803  1
  O  O53  1  0.685710  0.840322  0.133650  1
  O  O54  1  0.823376  0.602788  0.287506  1
  O  O55  1  0.176624  0.102788  0.712494  1
  O  O56  1  0.648853  0.846603  0.402185  1
  O  O57  1  0.546393  0.703763  0.248514  1
  O  O58  1  0.684543  0.685912  0.488795  1
  O  O59  1  0.016588  0.218002  0.585782  1
  O  O60  1  0.515151  0.595225  0.120156  1
  O  O61  1  0.351147  0.346603  0.597815  1
  O  O62  1  0.578784  0.869704  0.613197  1
  O  O63  1  0.721452  0.954923  0.513341  1
  O  O64  1  0.470394  0.714927  0.034929  1
  O  O65  1  0.988132  0.906665  0.095558  1
  O  O66  1  0.797141  0.834274  0.572656  1
  O  O67  1  0.141432  0.885680  0.260163  1
  O  O68  1  0.453607  0.203763  0.751486  1
  O  O69  1  0.202859  0.334274  0.427344  1
  O  O70  1  0.688659  0.680273  0.080454  1
  O  O71  1  0.278548  0.454923  0.486659  1
  O  O72  1  0.919140  0.862009  0.297258  1
  O  O73  1  0.054649  0.231851  0.888278  1
  O  O74  1  0.484849  0.095225  0.879844  1
  O  O75  1  0.011868  0.406665  0.904442  1
  O  O76  1  0.080860  0.362009  0.702742  1
  O  O77  1  0.311341  0.180273  0.919546  1
  O  O78  1  0.945351  0.731851  0.111722  1
  O  O79  1  0.993151  0.986431  0.275152  1
  O  O80  1  0.006849  0.486431  0.724848  1
  O  O81  1  0.315457  0.185912  0.511205  1
