# generated using pymatgen
data_CsTmCoS3
_symmetry_space_group_name_H-M   'P 1'
_cell_length_a   8.03124170
_cell_length_b   8.03124170
_cell_length_c   10.40269680
_cell_angle_alpha   90.00000000
_cell_angle_beta   90.00000000
_cell_angle_gamma   151.69723482
_symmetry_Int_Tables_number   1
_chemical_formula_structural   CsTmCoS3
_chemical_formula_sum   'Cs2 Tm2 Co2 S6'
_cell_volume   318.13350548
_cell_formula_units_Z   2
loop_
 _symmetry_equiv_pos_site_id
 _symmetry_equiv_pos_as_xyz
  1  'x, y, z'
loop_
 _atom_site_type_symbol
 _atom_site_label
 _atom_site_symmetry_multiplicity
 _atom_site_fract_x
 _atom_site_fract_y
 _atom_site_fract_z
 _atom_site_occupancy
  Cs  Cs0  1  0.262240  0.737760  0.750000  1
  Cs  Cs1  1  0.737760  0.262240  0.250000  1
  Tm  Tm2  1  0.000000  0.000000  0.500000  1
  Tm  Tm3  1  0.000000  0.000000  0.000000  1
  Co  Co4  1  0.536367  0.463633  0.750000  1
  Co  Co5  1  0.463633  0.536367  0.250000  1
  S  S6  1  0.388211  0.611789  0.064341  1
  S  S7  1  0.611789  0.388211  0.564341  1
  S  S8  1  0.388211  0.611789  0.435659  1
  S  S9  1  0.611789  0.388211  0.935659  1
  S  S10  1  0.953779  0.046221  0.750000  1
  S  S11  1  0.046221  0.953779  0.250000  1
