# generated using pymatgen
data_Rb4U5O17
_symmetry_space_group_name_H-M   'P 1'
_cell_length_a   7.09497179
_cell_length_b   14.58358835
_cell_length_c   18.86611233
_cell_angle_alpha   90.00000000
_cell_angle_beta   90.00000000
_cell_angle_gamma   90.00000000
_symmetry_Int_Tables_number   1
_chemical_formula_structural   Rb4U5O17
_chemical_formula_sum   'Rb16 U20 O68'
_cell_volume   1952.07943384
_cell_formula_units_Z   4
loop_
 _symmetry_equiv_pos_site_id
 _symmetry_equiv_pos_as_xyz
  1  'x, y, z'
loop_
 _atom_site_type_symbol
 _atom_site_label
 _atom_site_symmetry_multiplicity
 _atom_site_fract_x
 _atom_site_fract_y
 _atom_site_fract_z
 _atom_site_occupancy
  Rb  Rb0  1  0.767908  0.527404  0.054758  1
  Rb  Rb1  1  0.204449  0.059762  0.310257  1
  Rb  Rb2  1  0.704449  0.440238  0.810257  1
  Rb  Rb3  1  0.767908  0.972596  0.945242  1
  Rb  Rb4  1  0.267908  0.527404  0.445242  1
  Rb  Rb5  1  0.795551  0.940238  0.689743  1
  Rb  Rb6  1  0.295551  0.559762  0.189743  1
  Rb  Rb7  1  0.704449  0.059762  0.189743  1
  Rb  Rb8  1  0.295551  0.940238  0.810257  1
  Rb  Rb9  1  0.795551  0.559762  0.310257  1
  Rb  Rb10  1  0.732092  0.027404  0.445242  1
  Rb  Rb11  1  0.732092  0.472596  0.554758  1
  Rb  Rb12  1  0.232092  0.027404  0.054758  1
  Rb  Rb13  1  0.232092  0.472596  0.945242  1
  Rb  Rb14  1  0.204449  0.440238  0.689743  1
  Rb  Rb15  1  0.267908  0.972596  0.554758  1
  U  U16  1  0.025661  0.817802  0.188653  1
  U  U17  1  0.075386  0.706456  0.602641  1
  U  U18  1  0.625488  0.750000  0.500000  1
  U  U19  1  0.525661  0.682198  0.688653  1
  U  U20  1  0.924614  0.206456  0.602641  1
  U  U21  1  0.025661  0.682198  0.811347  1
  U  U22  1  0.424614  0.293544  0.102641  1
  U  U23  1  0.974339  0.182198  0.811347  1
  U  U24  1  0.424614  0.206456  0.897359  1
  U  U25  1  0.575386  0.706456  0.897359  1
  U  U26  1  0.575386  0.793544  0.102641  1
  U  U27  1  0.374512  0.250000  0.500000  1
  U  U28  1  0.125488  0.750000  0.000000  1
  U  U29  1  0.474339  0.317802  0.311347  1
  U  U30  1  0.525661  0.817802  0.311347  1
  U  U31  1  0.874512  0.250000  0.000000  1
  U  U32  1  0.474339  0.182198  0.688653  1
  U  U33  1  0.974339  0.317802  0.188653  1
  U  U34  1  0.075386  0.793544  0.397359  1
  U  U35  1  0.924614  0.293544  0.397359  1
  O  O36  1  0.295960  0.334228  0.209756  1
  O  O37  1  0.569509  0.918198  0.078006  1
  O  O38  1  0.995039  0.305578  0.789837  1
  O  O39  1  0.495039  0.305578  0.710163  1
  O  O40  1  0.125430  0.629928  0.031998  1
  O  O41  1  0.610042  0.290542  0.420062  1
  O  O42  1  0.374570  0.129928  0.468002  1
  O  O43  1  0.456874  0.444974  0.323565  1
  O  O44  1  0.389958  0.709458  0.579938  1
  O  O45  1  0.584766  0.670520  0.128535  1
  O  O46  1  0.261056  0.795782  0.115586  1
  O  O47  1  0.430491  0.418198  0.078006  1
  O  O48  1  0.543126  0.944974  0.323565  1
  O  O49  1  0.889958  0.709458  0.920062  1
  O  O50  1  0.039962  0.250000  0.500000  1
  O  O51  1  0.915234  0.329480  0.628535  1
  O  O52  1  0.956874  0.055026  0.823565  1
  O  O53  1  0.204040  0.834228  0.290244  1
  O  O54  1  0.389958  0.790542  0.420062  1
  O  O55  1  0.610042  0.209458  0.579938  1
  O  O56  1  0.874570  0.370072  0.968002  1
  O  O57  1  0.374570  0.370072  0.531998  1
  O  O58  1  0.069509  0.581802  0.578006  1
  O  O59  1  0.539962  0.250000  0.000000  1
  O  O60  1  0.761056  0.704218  0.615586  1
  O  O61  1  0.110042  0.290542  0.079938  1
  O  O62  1  0.238944  0.204218  0.615586  1
  O  O63  1  0.204040  0.665772  0.709756  1
  O  O64  1  0.495039  0.194422  0.289837  1
  O  O65  1  0.569509  0.581802  0.921994  1
  O  O66  1  0.543126  0.555026  0.676435  1
  O  O67  1  0.238944  0.295782  0.384414  1
  O  O68  1  0.795960  0.165772  0.709756  1
  O  O69  1  0.930491  0.081802  0.578006  1
  O  O70  1  0.956874  0.444974  0.176435  1
  O  O71  1  0.084766  0.670520  0.371465  1
  O  O72  1  0.261056  0.704218  0.884414  1
  O  O73  1  0.004961  0.805578  0.789837  1
  O  O74  1  0.915234  0.170520  0.371465  1
  O  O75  1  0.043126  0.944974  0.176435  1
  O  O76  1  0.761056  0.795782  0.384414  1
  O  O77  1  0.995039  0.194422  0.210163  1
  O  O78  1  0.889958  0.790542  0.079938  1
  O  O79  1  0.084766  0.829480  0.628535  1
  O  O80  1  0.415234  0.170520  0.128535  1
  O  O81  1  0.930491  0.418198  0.421994  1
  O  O82  1  0.295960  0.165772  0.790244  1
  O  O83  1  0.110042  0.209458  0.920062  1
  O  O84  1  0.125430  0.870072  0.968002  1
  O  O85  1  0.004961  0.694422  0.210163  1
  O  O86  1  0.504961  0.694422  0.289837  1
  O  O87  1  0.415234  0.329480  0.871465  1
  O  O88  1  0.738944  0.204218  0.884414  1
  O  O89  1  0.625430  0.629928  0.468002  1
  O  O90  1  0.584766  0.829480  0.871465  1
  O  O91  1  0.504961  0.805578  0.710163  1
  O  O92  1  0.069509  0.918198  0.421994  1
  O  O93  1  0.874570  0.129928  0.031998  1
  O  O94  1  0.625430  0.870072  0.531998  1
  O  O95  1  0.960038  0.750000  0.500000  1
  O  O96  1  0.795960  0.334228  0.290244  1
  O  O97  1  0.456874  0.055026  0.676435  1
  O  O98  1  0.704040  0.834228  0.209756  1
  O  O99  1  0.738944  0.295782  0.115586  1
  O  O100  1  0.430491  0.081802  0.921994  1
  O  O101  1  0.704040  0.665772  0.790244  1
  O  O102  1  0.460038  0.750000  0.000000  1
  O  O103  1  0.043126  0.555026  0.823565  1
