# generated using pymatgen
data_La2Ti2O7
_symmetry_space_group_name_H-M   'P 1'
_cell_length_a   7.81717953
_cell_length_b   5.59752680
_cell_length_c   13.21908367
_cell_angle_alpha   90.00000000
_cell_angle_beta   98.53196610
_cell_angle_gamma   90.00000000
_symmetry_Int_Tables_number   1
_chemical_formula_structural   La2Ti2O7
_chemical_formula_sum   'La8 Ti8 O28'
_cell_volume   572.02445450
_cell_formula_units_Z   4
loop_
 _symmetry_equiv_pos_site_id
 _symmetry_equiv_pos_as_xyz
  1  'x, y, z'
loop_
 _atom_site_type_symbol
 _atom_site_label
 _atom_site_symmetry_multiplicity
 _atom_site_fract_x
 _atom_site_fract_y
 _atom_site_fract_z
 _atom_site_occupancy
  La  La0  1  0.852784  0.351360  0.420663  1
  La  La1  1  0.147216  0.851360  0.579337  1
  La  La2  1  0.351007  0.305679  0.389402  1
  La  La3  1  0.227198  0.262205  0.904308  1
  La  La4  1  0.720443  0.255141  0.883555  1
  La  La5  1  0.648993  0.805679  0.610598  1
  La  La6  1  0.279557  0.755141  0.116445  1
  La  La7  1  0.772802  0.762205  0.095692  1
  Ti  Ti8  1  0.582697  0.800751  0.325457  1
  Ti  Ti9  1  0.968130  0.767934  0.880754  1
  Ti  Ti10  1  0.527253  0.266468  0.120961  1
  Ti  Ti11  1  0.075720  0.795393  0.321804  1
  Ti  Ti12  1  0.031870  0.267934  0.119246  1
  Ti  Ti13  1  0.472747  0.766468  0.879039  1
  Ti  Ti14  1  0.417303  0.300751  0.674543  1
  Ti  Ti15  1  0.924280  0.295393  0.678196  1
  O  O16  1  0.122411  0.574862  0.430168  1
  O  O17  1  0.877589  0.074862  0.569832  1
  O  O18  1  0.826242  0.713115  0.305160  1
  O  O19  1  0.028389  0.952339  0.185226  1
  O  O20  1  0.403701  0.085794  0.560974  1
  O  O21  1  0.272871  0.184312  0.091367  1
  O  O22  1  0.107135  0.461662  0.227026  1
  O  O23  1  0.085594  0.056915  0.407327  1
  O  O24  1  0.473212  0.523126  0.021309  1
  O  O25  1  0.526788  0.023126  0.978691  1
  O  O26  1  0.617337  0.074051  0.395774  1
  O  O27  1  0.971611  0.452339  0.814774  1
  O  O28  1  0.672228  0.329829  0.691834  1
  O  O29  1  0.037239  0.522133  0.019143  1
  O  O30  1  0.562989  0.947868  0.183578  1
  O  O31  1  0.727129  0.684312  0.908633  1
  O  O32  1  0.892865  0.961662  0.772974  1
  O  O33  1  0.382663  0.574051  0.604226  1
  O  O34  1  0.223103  0.804963  0.891936  1
  O  O35  1  0.493382  0.955202  0.769832  1
  O  O36  1  0.962761  0.022133  0.980857  1
  O  O37  1  0.327772  0.829829  0.308166  1
  O  O38  1  0.437011  0.447868  0.816422  1
  O  O39  1  0.914406  0.556915  0.592673  1
  O  O40  1  0.596299  0.585794  0.439026  1
  O  O41  1  0.776897  0.304963  0.108064  1
  O  O42  1  0.173758  0.213115  0.694840  1
  O  O43  1  0.506618  0.455202  0.230168  1
