# generated using pymatgen
data_Er3(P3Pd10)2
_symmetry_space_group_name_H-M   'P 1'
_cell_length_a   8.67498148
_cell_length_b   8.67498148
_cell_length_c   8.67498148
_cell_angle_alpha   60.00000000
_cell_angle_beta   60.00000000
_cell_angle_gamma   60.00000000
_symmetry_Int_Tables_number   1
_chemical_formula_structural   Er3(P3Pd10)2
_chemical_formula_sum   'Er3 P6 Pd20'
_cell_volume   461.62643610
_cell_formula_units_Z   1
loop_
 _symmetry_equiv_pos_site_id
 _symmetry_equiv_pos_as_xyz
  1  'x, y, z'
loop_
 _atom_site_type_symbol
 _atom_site_label
 _atom_site_symmetry_multiplicity
 _atom_site_fract_x
 _atom_site_fract_y
 _atom_site_fract_z
 _atom_site_occupancy
  Er  Er0  1  0.000000  0.000000  0.000000  1
  Er  Er1  1  0.250000  0.250000  0.250000  1
  Er  Er2  1  0.750000  0.750000  0.750000  1
  P  P3  1  0.736710  0.263290  0.736710  1
  P  P4  1  0.736710  0.736710  0.263290  1
  P  P5  1  0.263290  0.736710  0.736710  1
  P  P6  1  0.736710  0.263290  0.263290  1
  P  P7  1  0.263290  0.736710  0.263290  1
  P  P8  1  0.263290  0.263290  0.736710  1
  Pd  Pd9  1  0.000000  0.345165  1.000000  1
  Pd  Pd10  1  0.654835  1.000000  0.345165  1
  Pd  Pd11  1  0.345165  0.000000  0.000000  1
  Pd  Pd12  1  0.000000  0.654835  0.345165  1
  Pd  Pd13  1  1.000000  1.000000  0.654835  1
  Pd  Pd14  1  0.847620  0.384127  0.384127  1
  Pd  Pd15  1  0.615873  0.615873  0.152380  1
  Pd  Pd16  1  0.384127  0.384127  0.384127  1
  Pd  Pd17  1  0.654835  0.000000  0.000000  1
  Pd  Pd18  1  0.345165  0.000000  0.654835  1
  Pd  Pd19  1  0.000000  0.654835  1.000000  1
  Pd  Pd20  1  0.654835  0.345165  1.000000  1
  Pd  Pd21  1  0.384127  0.384127  0.847620  1
  Pd  Pd22  1  1.000000  1.000000  0.345165  1
  Pd  Pd23  1  0.615873  0.152380  0.615873  1
  Pd  Pd24  1  0.384127  0.847620  0.384127  1
  Pd  Pd25  1  0.152380  0.615873  0.615873  1
  Pd  Pd26  1  0.345165  0.654835  1.000000  1
  Pd  Pd27  1  0.615873  0.615873  0.615873  1
  Pd  Pd28  1  0.000000  0.345165  0.654835  1
