# generated using pymatgen
data_CoP2O7
_symmetry_space_group_name_H-M   'P 1'
_cell_length_a   4.94679140
_cell_length_b   8.14247110
_cell_length_c   7.06792888
_cell_angle_alpha   90.00000000
_cell_angle_beta   108.90911615
_cell_angle_gamma   90.00000000
_symmetry_Int_Tables_number   1
_chemical_formula_structural   CoP2O7
_chemical_formula_sum   'Co2 P4 O14'
_cell_volume   269.32622974
_cell_formula_units_Z   2
loop_
 _symmetry_equiv_pos_site_id
 _symmetry_equiv_pos_as_xyz
  1  'x, y, z'
loop_
 _atom_site_type_symbol
 _atom_site_label
 _atom_site_symmetry_multiplicity
 _atom_site_fract_x
 _atom_site_fract_y
 _atom_site_fract_z
 _atom_site_occupancy
  Co  Co0  1  0.211768  0.008776  0.721459  1
  Co  Co1  1  0.788232  0.508776  0.278541  1
  P  P2  1  0.772425  0.780321  0.910665  1
  P  P3  1  0.392121  0.684217  0.519311  1
  P  P4  1  0.227575  0.280321  0.089335  1
  P  P5  1  0.607879  0.184217  0.480689  1
  O  O6  1  0.733531  0.355118  0.480950  1
  O  O7  1  0.266469  0.855118  0.519050  1
  O  O8  1  0.595029  0.647704  0.745665  1
  O  O9  1  0.026285  0.839224  0.853276  1
  O  O10  1  0.565592  0.674329  0.376854  1
  O  O11  1  0.404971  0.147704  0.254335  1
  O  O12  1  0.838140  0.049943  0.526077  1
  O  O13  1  0.161860  0.549943  0.473923  1
  O  O14  1  0.575915  0.929180  0.907930  1
  O  O15  1  0.856867  0.689126  0.107381  1
  O  O16  1  0.434408  0.174329  0.623146  1
  O  O17  1  0.973715  0.339224  0.146724  1
  O  O18  1  0.143133  0.189126  0.892619  1
  O  O19  1  0.424085  0.429180  0.092070  1
