# generated using pymatgen
data_Gd3CuGeS7
_symmetry_space_group_name_H-M   'P 1'
_cell_length_a   9.99638783
_cell_length_b   9.99638783
_cell_length_c   5.83603121
_cell_angle_alpha   90.00000000
_cell_angle_beta   90.00000000
_cell_angle_gamma   120.00000000
_symmetry_Int_Tables_number   1
_chemical_formula_structural   Gd3CuGeS7
_chemical_formula_sum   'Gd6 Cu2 Ge2 S14'
_cell_volume   505.05006520
_cell_formula_units_Z   2
loop_
 _symmetry_equiv_pos_site_id
 _symmetry_equiv_pos_as_xyz
  1  'x, y, z'
loop_
 _atom_site_type_symbol
 _atom_site_label
 _atom_site_symmetry_multiplicity
 _atom_site_fract_x
 _atom_site_fract_y
 _atom_site_fract_z
 _atom_site_occupancy
  Gd  Gd0  1  0.356806  0.129929  0.249069  1
  Gd  Gd1  1  0.226878  0.356806  0.749069  1
  Gd  Gd2  1  0.643194  0.870071  0.749069  1
  Gd  Gd3  1  0.870071  0.226878  0.249069  1
  Gd  Gd4  1  0.773122  0.643194  0.249069  1
  Gd  Gd5  1  0.129929  0.773122  0.749069  1
  Cu  Cu6  1  0.000000  0.000000  0.705786  1
  Cu  Cu7  1  0.000000  0.000000  0.205786  1
  Ge  Ge8  1  0.666667  0.333333  0.832324  1
  Ge  Ge9  1  0.333333  0.666667  0.332324  1
  S  S10  1  0.161075  0.256141  0.219024  1
  S  S11  1  0.838925  0.743859  0.719024  1
  S  S12  1  0.904935  0.161075  0.719024  1
  S  S13  1  0.256141  0.095065  0.719024  1
  S  S14  1  0.418940  0.899759  0.491438  1
  S  S15  1  0.095065  0.838925  0.219024  1
  S  S16  1  0.480819  0.581060  0.491438  1
  S  S17  1  0.333333  0.666667  0.954496  1
  S  S18  1  0.899759  0.480819  0.991438  1
  S  S19  1  0.743859  0.904935  0.219024  1
  S  S20  1  0.666667  0.333333  0.454496  1
  S  S21  1  0.100241  0.519181  0.491438  1
  S  S22  1  0.581060  0.100241  0.991438  1
  S  S23  1  0.519181  0.418940  0.991438  1
