# generated using pymatgen
data_K2Cu3(AsO3)4
_symmetry_space_group_name_H-M   'P 1'
_cell_length_a   5.97792860
_cell_length_b   5.97792860
_cell_length_c   11.64982198
_cell_angle_alpha   70.79391853
_cell_angle_beta   109.20608147
_cell_angle_gamma   125.77688964
_symmetry_Int_Tables_number   1
_chemical_formula_structural   K2Cu3(AsO3)4
_chemical_formula_sum   'K2 Cu3 As4 O12'
_cell_volume   313.84237429
_cell_formula_units_Z   1
loop_
 _symmetry_equiv_pos_site_id
 _symmetry_equiv_pos_as_xyz
  1  'x, y, z'
loop_
 _atom_site_type_symbol
 _atom_site_label
 _atom_site_symmetry_multiplicity
 _atom_site_fract_x
 _atom_site_fract_y
 _atom_site_fract_z
 _atom_site_occupancy
  K  K0  1  0.361712  0.638288  0.575712  1
  K  K1  1  0.638288  0.361712  0.424288  1
  Cu  Cu2  1  0.236355  0.763645  0.240456  1
  Cu  Cu3  1  0.000000  0.000000  0.000000  1
  Cu  Cu4  1  0.763645  0.236355  0.759544  1
  As  As5  1  0.082807  0.917193  0.693058  1
  As  As6  1  0.917193  0.082807  0.306942  1
  As  As7  1  0.328395  0.671605  0.955123  1
  As  As8  1  0.671605  0.328395  0.044877  1
  O  O9  1  0.890660  0.597365  0.646976  1
  O  O10  1  0.882419  0.638028  0.115678  1
  O  O11  1  0.402635  0.109340  0.646976  1
  O  O12  1  0.145132  0.854868  0.858914  1
  O  O13  1  0.109340  0.402635  0.353024  1
  O  O14  1  0.912192  0.087808  0.642642  1
  O  O15  1  0.597365  0.890660  0.353024  1
  O  O16  1  0.638028  0.882419  0.884322  1
  O  O17  1  0.117581  0.361972  0.884322  1
  O  O18  1  0.361972  0.117581  0.115678  1
  O  O19  1  0.087808  0.912192  0.357358  1
  O  O20  1  0.854868  0.145132  0.141086  1
