# generated using pymatgen
data_In2Ag2GeSe6
_symmetry_space_group_name_H-M   'P 1'
_cell_length_a   7.55430278
_cell_length_b   7.55430278
_cell_length_c   12.94660102
_cell_angle_alpha   73.37205032
_cell_angle_beta   106.62794968
_cell_angle_gamma   118.85482168
_symmetry_Int_Tables_number   1
_chemical_formula_structural   In2Ag2GeSe6
_chemical_formula_sum   'In4 Ag4 Ge2 Se12'
_cell_volume   610.31517898
_cell_formula_units_Z   2
loop_
 _symmetry_equiv_pos_site_id
 _symmetry_equiv_pos_as_xyz
  1  'x, y, z'
loop_
 _atom_site_type_symbol
 _atom_site_label
 _atom_site_symmetry_multiplicity
 _atom_site_fract_x
 _atom_site_fract_y
 _atom_site_fract_z
 _atom_site_occupancy
  In  In0  1  0.498409  0.316970  0.935674  1
  In  In1  1  0.683030  0.501591  0.435674  1
  In  In2  1  0.705200  0.166267  0.737878  1
  In  In3  1  0.833733  0.294800  0.237878  1
  Ag  Ag4  1  0.017073  0.798868  0.744546  1
  Ag  Ag5  1  0.201132  0.982927  0.244546  1
  Ag  Ag6  1  0.198005  0.385028  0.581201  1
  Ag  Ag7  1  0.614972  0.801995  0.081201  1
  Ge  Ge8  1  0.070629  0.397048  0.994740  1
  Ge  Ge9  1  0.602952  0.929371  0.494740  1
  Se  Se10  1  0.890095  0.600782  0.946464  1
  Se  Se11  1  0.399218  0.109905  0.446464  1
  Se  Se12  1  0.356771  0.162184  0.751775  1
  Se  Se13  1  0.837816  0.643229  0.251775  1
  Se  Se14  1  0.900181  0.074716  0.938035  1
  Se  Se15  1  0.925284  0.099819  0.438035  1
  Se  Se16  1  0.651217  0.825580  0.687479  1
  Se  Se17  1  0.174420  0.348783  0.187479  1
  Se  Se18  1  0.486924  0.052685  0.124283  1
  Se  Se19  1  0.947315  0.513076  0.624283  1
  Se  Se20  1  0.370349  0.600523  0.913024  1
  Se  Se21  1  0.399477  0.629651  0.413024  1
