# generated using pymatgen
data_Mg8BPt4
_symmetry_space_group_name_H-M   'P 1'
_cell_length_a   8.72149131
_cell_length_b   8.72149131
_cell_length_c   8.72149131
_cell_angle_alpha   60.00000000
_cell_angle_beta   60.00000000
_cell_angle_gamma   60.00000000
_symmetry_Int_Tables_number   1
_chemical_formula_structural   Mg8BPt4
_chemical_formula_sum   'Mg16 B2 Pt8'
_cell_volume   469.09117121
_cell_formula_units_Z   2
loop_
 _symmetry_equiv_pos_site_id
 _symmetry_equiv_pos_as_xyz
  1  'x, y, z'
loop_
 _atom_site_type_symbol
 _atom_site_label
 _atom_site_symmetry_multiplicity
 _atom_site_fract_x
 _atom_site_fract_y
 _atom_site_fract_z
 _atom_site_occupancy
  Mg  Mg0  1  0.949854  0.550146  0.949854  1
  Mg  Mg1  1  0.550146  0.949854  0.949854  1
  Mg  Mg2  1  0.699854  0.300146  0.699854  1
  Mg  Mg3  1  0.125000  0.625000  0.125000  1
  Mg  Mg4  1  0.300146  0.300146  0.699854  1
  Mg  Mg5  1  0.699854  0.300146  0.300146  1
  Mg  Mg6  1  0.300146  0.699854  0.300146  1
  Mg  Mg7  1  0.949854  0.949854  0.550146  1
  Mg  Mg8  1  0.125000  0.125000  0.125000  1
  Mg  Mg9  1  0.550146  0.550146  0.949854  1
  Mg  Mg10  1  0.949854  0.550146  0.550146  1
  Mg  Mg11  1  0.699854  0.699854  0.300146  1
  Mg  Mg12  1  0.625000  0.125000  0.125000  1
  Mg  Mg13  1  0.300146  0.699854  0.699854  1
  Mg  Mg14  1  0.125000  0.125000  0.625000  1
  Mg  Mg15  1  0.550146  0.949854  0.550146  1
  B  B16  1  0.250000  0.250000  0.250000  1
  B  B17  1  0.000000  0.000000  1.000000  1
  Pt  Pt18  1  0.900745  0.297765  0.900745  1
  Pt  Pt19  1  0.297765  0.900745  0.900745  1
  Pt  Pt20  1  0.900745  0.900745  0.297765  1
  Pt  Pt21  1  0.349255  0.349255  0.952235  1
  Pt  Pt22  1  0.349255  0.952235  0.349255  1
  Pt  Pt23  1  0.349255  0.349255  0.349255  1
  Pt  Pt24  1  0.952235  0.349255  0.349255  1
  Pt  Pt25  1  0.900745  0.900745  0.900745  1
