# generated using pymatgen
data_Cu2H3ClO3
_symmetry_space_group_name_H-M   'P 1'
_cell_length_a   5.74176398
_cell_length_b   6.17329967
_cell_length_c   5.80105809
_cell_angle_alpha   90.00000000
_cell_angle_beta   90.59941942
_cell_angle_gamma   90.00000000
_symmetry_Int_Tables_number   1
_chemical_formula_structural   Cu2H3ClO3
_chemical_formula_sum   'Cu4 H6 Cl2 O6'
_cell_volume   205.61090434
_cell_formula_units_Z   2
loop_
 _symmetry_equiv_pos_site_id
 _symmetry_equiv_pos_as_xyz
  1  'x, y, z'
loop_
 _atom_site_type_symbol
 _atom_site_label
 _atom_site_symmetry_multiplicity
 _atom_site_fract_x
 _atom_site_fract_y
 _atom_site_fract_z
 _atom_site_occupancy
  Cu  Cu0  1  0.527073  0.250000  0.992455  1
  Cu  Cu1  1  0.500000  0.000000  0.500000  1
  Cu  Cu2  1  0.500000  0.500000  0.500000  1
  Cu  Cu3  1  0.472927  0.750000  0.007545  1
  H  H4  1  0.802084  0.959622  0.190074  1
  H  H5  1  0.173837  0.250000  0.465951  1
  H  H6  1  0.826163  0.750000  0.534049  1
  H  H7  1  0.802084  0.540378  0.190074  1
  H  H8  1  0.197916  0.040378  0.809926  1
  H  H9  1  0.197916  0.459622  0.809926  1
  Cl  Cl10  1  0.108828  0.750000  0.279459  1
  Cl  Cl11  1  0.891172  0.250000  0.720541  1
  O  O12  1  0.367046  0.493229  0.815377  1
  O  O13  1  0.669474  0.750000  0.603319  1
  O  O14  1  0.330526  0.250000  0.396681  1
  O  O15  1  0.632954  0.506771  0.184623  1
  O  O16  1  0.632954  0.993229  0.184623  1
  O  O17  1  0.367046  0.006771  0.815377  1
