# generated using pymatgen
data_LaSeO3F
_symmetry_space_group_name_H-M   'P 1'
_cell_length_a   8.54238556
_cell_length_b   7.21812225
_cell_length_c   18.36095175
_cell_angle_alpha   90.00000000
_cell_angle_beta   96.76514007
_cell_angle_gamma   90.00000000
_symmetry_Int_Tables_number   1
_chemical_formula_structural   LaSeO3F
_chemical_formula_sum   'La12 Se12 O36 F12'
_cell_volume   1124.25332737
_cell_formula_units_Z   12
loop_
 _symmetry_equiv_pos_site_id
 _symmetry_equiv_pos_as_xyz
  1  'x, y, z'
loop_
 _atom_site_type_symbol
 _atom_site_label
 _atom_site_symmetry_multiplicity
 _atom_site_fract_x
 _atom_site_fract_y
 _atom_site_fract_z
 _atom_site_occupancy
  La  La0  1  0.382717  0.666299  0.845800  1
  La  La1  1  0.202602  0.669488  0.045786  1
  La  La2  1  0.702602  0.830512  0.045786  1
  La  La3  1  0.117283  0.166299  0.154200  1
  La  La4  1  0.882717  0.833701  0.845800  1
  La  La5  1  0.186434  0.176581  0.450652  1
  La  La6  1  0.313566  0.676581  0.549348  1
  La  La7  1  0.686434  0.323419  0.450652  1
  La  La8  1  0.297398  0.169488  0.954214  1
  La  La9  1  0.617283  0.333701  0.154200  1
  La  La10  1  0.797398  0.330512  0.954214  1
  La  La11  1  0.813566  0.823419  0.549348  1
  Se  Se12  1  0.095534  0.903925  0.697061  1
  Se  Se13  1  0.021774  0.678701  0.400067  1
  Se  Se14  1  0.476538  0.827572  0.196595  1
  Se  Se15  1  0.478226  0.178701  0.599933  1
  Se  Se16  1  0.404466  0.403925  0.302939  1
  Se  Se17  1  0.976538  0.672428  0.196595  1
  Se  Se18  1  0.978226  0.321299  0.599933  1
  Se  Se19  1  0.904466  0.096075  0.302939  1
  Se  Se20  1  0.523462  0.172428  0.803405  1
  Se  Se21  1  0.595534  0.596075  0.697061  1
  Se  Se22  1  0.521774  0.821299  0.400067  1
  Se  Se23  1  0.023462  0.327572  0.803405  1
  O  O24  1  0.588466  0.984298  0.152057  1
  O  O25  1  0.715102  0.110676  0.828330  1
  O  O26  1  0.411534  0.015702  0.847943  1
  O  O27  1  0.640069  0.093806  0.564388  1
  O  O28  1  0.284898  0.889324  0.171670  1
  O  O29  1  0.215102  0.389324  0.828330  1
  O  O30  1  0.088466  0.515702  0.152057  1
  O  O31  1  0.626919  0.745887  0.770681  1
  O  O32  1  0.470968  0.639890  0.136860  1
  O  O33  1  0.895977  0.932865  0.697593  1
  O  O34  1  0.436193  0.348922  0.532257  1
  O  O35  1  0.588567  0.735068  0.619626  1
  O  O36  1  0.324264  0.027186  0.575092  1
  O  O37  1  0.126919  0.754113  0.770681  1
  O  O38  1  0.563807  0.651078  0.467743  1
  O  O39  1  0.824264  0.472814  0.575092  1
  O  O40  1  0.873081  0.245887  0.229319  1
  O  O41  1  0.936193  0.151078  0.532257  1
  O  O42  1  0.911433  0.235068  0.380374  1
  O  O43  1  0.859931  0.593806  0.435612  1
  O  O44  1  0.175736  0.527186  0.424908  1
  O  O45  1  0.140069  0.406194  0.564388  1
  O  O46  1  0.529032  0.360110  0.863140  1
  O  O47  1  0.411433  0.264932  0.380374  1
  O  O48  1  0.373081  0.254113  0.229319  1
  O  O49  1  0.063807  0.848922  0.467743  1
  O  O50  1  0.604023  0.432865  0.302407  1
  O  O51  1  0.784898  0.610676  0.171670  1
  O  O52  1  0.029032  0.139890  0.863140  1
  O  O53  1  0.359931  0.906194  0.435612  1
  O  O54  1  0.970968  0.860110  0.136860  1
  O  O55  1  0.088567  0.764932  0.619626  1
  O  O56  1  0.675736  0.972814  0.424908  1
  O  O57  1  0.911534  0.484298  0.847943  1
  O  O58  1  0.104023  0.067135  0.302407  1
  O  O59  1  0.395977  0.567135  0.697593  1
  F  F60  1  0.343618  0.292950  0.084588  1
  F  F61  1  0.345007  0.500852  0.962179  1
  F  F62  1  0.843618  0.207050  0.084588  1
  F  F63  1  0.656382  0.707050  0.915412  1
  F  F64  1  0.154993  0.000852  0.037821  1
  F  F65  1  0.845007  0.999148  0.962179  1
  F  F66  1  0.422362  0.847566  0.998778  1
  F  F67  1  0.922362  0.652434  0.998778  1
  F  F68  1  0.156382  0.792950  0.915412  1
  F  F69  1  0.577638  0.152434  0.001222  1
  F  F70  1  0.654993  0.499148  0.037821  1
  F  F71  1  0.077638  0.347566  0.001222  1
