# generated using pymatgen
data_Rb2NaMnF6
_symmetry_space_group_name_H-M   'P 1'
_cell_length_a   6.14914593
_cell_length_b   6.14914593
_cell_length_c   6.14914593
_cell_angle_alpha   121.42135963
_cell_angle_beta   121.42135963
_cell_angle_gamma   87.55527287
_symmetry_Int_Tables_number   1
_chemical_formula_structural   Rb2NaMnF6
_chemical_formula_sum   'Rb2 Na1 Mn1 F6'
_cell_volume   160.71930454
_cell_formula_units_Z   1
loop_
 _symmetry_equiv_pos_site_id
 _symmetry_equiv_pos_as_xyz
  1  'x, y, z'
loop_
 _atom_site_type_symbol
 _atom_site_label
 _atom_site_symmetry_multiplicity
 _atom_site_fract_x
 _atom_site_fract_y
 _atom_site_fract_z
 _atom_site_occupancy
  Rb  Rb0  1  0.250000  0.750000  0.500000  1
  Rb  Rb1  1  0.750000  0.250000  0.500000  1
  Na  Na2  1  0.500000  0.500000  0.000000  1
  Mn  Mn3  1  0.000000  0.000000  0.000000  1
  F  F4  1  0.759524  0.759524  0.000000  1
  F  F5  1  0.240476  0.240476  0.000000  1
  F  F6  1  0.775836  0.775836  0.551672  1
  F  F7  1  0.775836  0.224164  1.000000  1
  F  F8  1  0.224164  0.224164  0.448328  1
  F  F9  1  0.224164  0.775836  0.000000  1
