# generated using pymatgen
data_NaAlAs2O7
_symmetry_space_group_name_H-M   'P 1'
_cell_length_a   7.03349242
_cell_length_b   8.28355622
_cell_length_c   9.70021394
_cell_angle_alpha   90.00000000
_cell_angle_beta   107.72566074
_cell_angle_gamma   90.00000000
_symmetry_Int_Tables_number   1
_chemical_formula_structural   NaAlAs2O7
_chemical_formula_sum   'Na4 Al4 As8 O28'
_cell_volume   538.32635730
_cell_formula_units_Z   4
loop_
 _symmetry_equiv_pos_site_id
 _symmetry_equiv_pos_as_xyz
  1  'x, y, z'
loop_
 _atom_site_type_symbol
 _atom_site_label
 _atom_site_symmetry_multiplicity
 _atom_site_fract_x
 _atom_site_fract_y
 _atom_site_fract_z
 _atom_site_occupancy
  Na  Na0  1  0.806295  0.138737  0.471163  1
  Na  Na1  1  0.806295  0.361263  0.971163  1
  Na  Na2  1  0.193705  0.861263  0.528837  1
  Na  Na3  1  0.193705  0.638737  0.028837  1
  Al  Al4  1  0.279549  0.275424  0.494041  1
  Al  Al5  1  0.720451  0.724576  0.505959  1
  Al  Al6  1  0.720451  0.775424  0.005959  1
  Al  Al7  1  0.279549  0.224576  0.994041  1
  As  As8  1  0.057533  0.036810  0.201727  1
  As  As9  1  0.057533  0.463190  0.701727  1
  As  As10  1  0.942467  0.963190  0.798273  1
  As  As11  1  0.513998  0.412438  0.291970  1
  As  As12  1  0.486002  0.912438  0.208030  1
  As  As13  1  0.942467  0.536810  0.298273  1
  As  As14  1  0.486002  0.587562  0.708030  1
  As  As15  1  0.513998  0.087562  0.791970  1
  O  O16  1  0.532235  0.901785  0.865392  1
  O  O17  1  0.901328  0.893568  0.625465  1
  O  O18  1  0.767688  0.374352  0.287170  1
  O  O19  1  0.626339  0.591809  0.884942  1
  O  O20  1  0.521050  0.756464  0.102463  1
  O  O21  1  0.478950  0.256464  0.397537  1
  O  O22  1  0.232312  0.874352  0.212830  1
  O  O23  1  0.072753  0.315708  0.582888  1
  O  O24  1  0.373661  0.091809  0.615058  1
  O  O25  1  0.098672  0.393568  0.874535  1
  O  O26  1  0.478950  0.243536  0.897537  1
  O  O27  1  0.232312  0.625648  0.712830  1
  O  O28  1  0.927247  0.684292  0.417112  1
  O  O29  1  0.927247  0.815708  0.917112  1
  O  O30  1  0.833638  0.558504  0.646581  1
  O  O31  1  0.072753  0.184292  0.082888  1
  O  O32  1  0.901328  0.606432  0.125465  1
  O  O33  1  0.767688  0.125648  0.787170  1
  O  O34  1  0.166362  0.441496  0.353419  1
  O  O35  1  0.626339  0.908191  0.384942  1
  O  O36  1  0.467765  0.098215  0.134608  1
  O  O37  1  0.833638  0.941496  0.146581  1
  O  O38  1  0.166362  0.058504  0.853419  1
  O  O39  1  0.098672  0.106432  0.374535  1
  O  O40  1  0.532235  0.598215  0.365392  1
  O  O41  1  0.373661  0.408191  0.115058  1
  O  O42  1  0.521050  0.743536  0.602463  1
  O  O43  1  0.467765  0.401785  0.634608  1
