# generated using pymatgen
data_P3RuO9
_symmetry_space_group_name_H-M   'P 1'
_cell_length_a   7.43394176
_cell_length_b   7.43394176
_cell_length_c   9.59282322
_cell_angle_alpha   57.85749429
_cell_angle_beta   122.14250571
_cell_angle_gamma   127.40669463
_symmetry_Int_Tables_number   1
_chemical_formula_structural   P3RuO9
_chemical_formula_sum   'P6 Ru2 O18'
_cell_volume   338.94020266
_cell_formula_units_Z   2
loop_
 _symmetry_equiv_pos_site_id
 _symmetry_equiv_pos_as_xyz
  1  'x, y, z'
loop_
 _atom_site_type_symbol
 _atom_site_label
 _atom_site_symmetry_multiplicity
 _atom_site_fract_x
 _atom_site_fract_y
 _atom_site_fract_z
 _atom_site_occupancy
  P  P0  1  0.705493  0.478793  0.178002  1
  P  P1  1  0.052905  0.052905  0.750000  1
  P  P2  1  0.521207  0.294507  0.678002  1
  P  P3  1  0.478793  0.705493  0.321998  1
  P  P4  1  0.294507  0.521207  0.821998  1
  P  P5  1  0.947095  0.947095  0.250000  1
  Ru  Ru6  1  0.000000  0.500000  0.000000  1
  Ru  Ru7  1  0.500000  0.000000  0.500000  1
  O  O8  1  0.961115  0.163514  0.092455  1
  O  O9  1  0.038885  0.836486  0.907545  1
  O  O10  1  0.605350  0.333047  0.326581  1
  O  O11  1  0.149708  0.596540  0.825371  1
  O  O12  1  0.861506  0.748261  0.178421  1
  O  O13  1  0.850292  0.403460  0.174629  1
  O  O14  1  0.403460  0.850292  0.325371  1
  O  O15  1  0.748261  0.861506  0.321579  1
  O  O16  1  0.394650  0.666953  0.673419  1
  O  O17  1  0.333047  0.605350  0.173419  1
  O  O18  1  0.836486  0.038885  0.592455  1
  O  O19  1  0.163514  0.961115  0.407545  1
  O  O20  1  0.500000  0.500000  0.500000  1
  O  O21  1  0.138494  0.251739  0.821579  1
  O  O22  1  0.251739  0.138494  0.678421  1
  O  O23  1  0.596540  0.149708  0.674629  1
  O  O24  1  0.666953  0.394650  0.826581  1
  O  O25  1  0.500000  0.500000  0.000000  1
