# generated using pymatgen
data_NaAsH4O5
_symmetry_space_group_name_H-M   'P 1'
_cell_length_a   5.31001672
_cell_length_b   8.59267295
_cell_length_c   10.53027610
_cell_angle_alpha   90.00000000
_cell_angle_beta   90.00000000
_cell_angle_gamma   90.00000000
_symmetry_Int_Tables_number   1
_chemical_formula_structural   NaAsH4O5
_chemical_formula_sum   'Na4 As4 H16 O20'
_cell_volume   480.46740380
_cell_formula_units_Z   4
loop_
 _symmetry_equiv_pos_site_id
 _symmetry_equiv_pos_as_xyz
  1  'x, y, z'
loop_
 _atom_site_type_symbol
 _atom_site_label
 _atom_site_symmetry_multiplicity
 _atom_site_fract_x
 _atom_site_fract_y
 _atom_site_fract_z
 _atom_site_occupancy
  Na  Na0  1  0.423916  0.592531  0.906779  1
  Na  Na1  1  0.576084  0.092531  0.593221  1
  Na  Na2  1  0.923916  0.907469  0.093221  1
  Na  Na3  1  0.076084  0.407469  0.406779  1
  As  As4  1  0.082184  0.194369  0.842244  1
  As  As5  1  0.917816  0.694369  0.657756  1
  As  As6  1  0.417816  0.805631  0.342244  1
  As  As7  1  0.582184  0.305631  0.157756  1
  H  H8  1  0.961829  0.489001  0.796940  1
  H  H9  1  0.461829  0.010999  0.203060  1
  H  H10  1  0.445913  0.945099  0.950727  1
  H  H11  1  0.187068  0.232700  0.105311  1
  H  H12  1  0.642005  0.881714  0.852511  1
  H  H13  1  0.357995  0.381714  0.647489  1
  H  H14  1  0.038171  0.989001  0.703060  1
  H  H15  1  0.857995  0.118286  0.352511  1
  H  H16  1  0.554087  0.445099  0.549273  1
  H  H17  1  0.142005  0.618286  0.147489  1
  H  H18  1  0.812932  0.732700  0.394689  1
  H  H19  1  0.312932  0.767300  0.605311  1
  H  H20  1  0.687068  0.267300  0.894689  1
  H  H21  1  0.054087  0.054901  0.450727  1
  H  H22  1  0.538171  0.510999  0.296940  1
  H  H23  1  0.945913  0.554901  0.049273  1
  O  O24  1  0.671117  0.424052  0.286997  1
  O  O25  1  0.172505  0.110237  0.980513  1
  O  O26  1  0.749783  0.195913  0.826502  1
  O  O27  1  0.171117  0.075948  0.713003  1
  O  O28  1  0.571966  0.862990  0.938071  1
  O  O29  1  0.428034  0.362990  0.561929  1
  O  O30  1  0.249783  0.304087  0.173498  1
  O  O31  1  0.807621  0.875930  0.690516  1
  O  O32  1  0.192379  0.375930  0.809484  1
  O  O33  1  0.750217  0.804087  0.326502  1
  O  O34  1  0.692379  0.124070  0.190516  1
  O  O35  1  0.928034  0.137010  0.438071  1
  O  O36  1  0.828883  0.575948  0.786997  1
  O  O37  1  0.827495  0.610237  0.519487  1
  O  O38  1  0.250217  0.695913  0.673498  1
  O  O39  1  0.672505  0.389763  0.019487  1
  O  O40  1  0.071966  0.637010  0.061929  1
  O  O41  1  0.328883  0.924052  0.213003  1
  O  O42  1  0.307621  0.624070  0.309484  1
  O  O43  1  0.327495  0.889763  0.480513  1
