# generated using pymatgen
data_Ce4Ru3
_symmetry_space_group_name_H-M   'P 1'
_cell_length_a   8.05205641
_cell_length_b   8.05205641
_cell_length_c   6.03041150
_cell_angle_alpha   76.05104940
_cell_angle_beta   103.94895060
_cell_angle_gamma   63.32369631
_symmetry_Int_Tables_number   1
_chemical_formula_structural   Ce4Ru3
_chemical_formula_sum   'Ce8 Ru6'
_cell_volume   310.34773483
_cell_formula_units_Z   2
loop_
 _symmetry_equiv_pos_site_id
 _symmetry_equiv_pos_as_xyz
  1  'x, y, z'
loop_
 _atom_site_type_symbol
 _atom_site_label
 _atom_site_symmetry_multiplicity
 _atom_site_fract_x
 _atom_site_fract_y
 _atom_site_fract_z
 _atom_site_occupancy
  Ce  Ce0  1  0.388537  0.878969  0.665457  1
  Ce  Ce1  1  0.651265  0.348735  0.776537  1
  Ce  Ce2  1  0.611463  0.121031  0.334543  1
  Ce  Ce3  1  0.878969  0.388537  0.334543  1
  Ce  Ce4  1  0.166274  0.166274  0.000000  1
  Ce  Ce5  1  0.348735  0.651265  0.223463  1
  Ce  Ce6  1  0.833726  0.833726  0.000000  1
  Ce  Ce7  1  0.121031  0.611463  0.665457  1
  Ru  Ru8  1  0.579690  0.818037  0.244749  1
  Ru  Ru9  1  0.006724  0.993276  0.750476  1
  Ru  Ru10  1  0.181963  0.420310  0.244749  1
  Ru  Ru11  1  0.818037  0.579690  0.755251  1
  Ru  Ru12  1  0.993276  0.006724  0.249524  1
  Ru  Ru13  1  0.420310  0.181963  0.755251  1
