# generated using pymatgen
data_UTe2PbO8
_symmetry_space_group_name_H-M   'P 1'
_cell_length_a   7.93168339
_cell_length_b   7.10091794
_cell_length_c   14.22243850
_cell_angle_alpha   90.00000000
_cell_angle_beta   95.08434913
_cell_angle_gamma   90.00000000
_symmetry_Int_Tables_number   1
_chemical_formula_structural   UTe2PbO8
_chemical_formula_sum   'U4 Te8 Pb4 O32'
_cell_volume   797.88765213
_cell_formula_units_Z   4
loop_
 _symmetry_equiv_pos_site_id
 _symmetry_equiv_pos_as_xyz
  1  'x, y, z'
loop_
 _atom_site_type_symbol
 _atom_site_label
 _atom_site_symmetry_multiplicity
 _atom_site_fract_x
 _atom_site_fract_y
 _atom_site_fract_z
 _atom_site_occupancy
  U  U0  1  0.051953  0.842711  0.308866  1
  U  U1  1  0.948047  0.342711  0.191134  1
  U  U2  1  0.948047  0.157289  0.691134  1
  U  U3  1  0.051953  0.657289  0.808866  1
  Te  Te4  1  0.647018  0.313012  0.957738  1
  Te  Te5  1  0.352982  0.686988  0.042262  1
  Te  Te6  1  0.808373  0.666014  0.581231  1
  Te  Te7  1  0.647018  0.186988  0.457738  1
  Te  Te8  1  0.808373  0.833986  0.081231  1
  Te  Te9  1  0.191627  0.333986  0.418769  1
  Te  Te10  1  0.191627  0.166014  0.918769  1
  Te  Te11  1  0.352982  0.813012  0.542262  1
  Pb  Pb12  1  0.570355  0.630555  0.328359  1
  Pb  Pb13  1  0.570355  0.869445  0.828359  1
  Pb  Pb14  1  0.429645  0.130555  0.171641  1
  Pb  Pb15  1  0.429645  0.369445  0.671641  1
  O  O16  1  0.265590  0.830189  0.261481  1
  O  O17  1  0.392931  0.344461  0.356908  1
  O  O18  1  0.734410  0.330189  0.238519  1
  O  O19  1  0.163793  0.348942  0.148029  1
  O  O20  1  0.522878  0.824154  0.456083  1
  O  O21  1  0.836207  0.651058  0.851971  1
  O  O22  1  0.072157  0.166214  0.318206  1
  O  O23  1  0.708640  0.048303  0.967784  1
  O  O24  1  0.831234  0.385178  0.047423  1
  O  O25  1  0.163793  0.151058  0.648029  1
  O  O26  1  0.522878  0.675846  0.956083  1
  O  O27  1  0.928520  0.028667  0.154197  1
  O  O28  1  0.168766  0.614822  0.952577  1
  O  O29  1  0.071480  0.971333  0.845803  1
  O  O30  1  0.392931  0.155539  0.856908  1
  O  O31  1  0.071480  0.528667  0.345803  1
  O  O32  1  0.477122  0.324154  0.043917  1
  O  O33  1  0.927843  0.833786  0.681794  1
  O  O34  1  0.831234  0.114822  0.547423  1
  O  O35  1  0.607069  0.655539  0.643092  1
  O  O36  1  0.477122  0.175846  0.543917  1
  O  O37  1  0.607069  0.844461  0.143092  1
  O  O38  1  0.168766  0.885178  0.452577  1
  O  O39  1  0.836207  0.848942  0.351971  1
  O  O40  1  0.734410  0.169811  0.738519  1
  O  O41  1  0.928520  0.471333  0.654197  1
  O  O42  1  0.927843  0.666214  0.181794  1
  O  O43  1  0.265590  0.669811  0.761481  1
  O  O44  1  0.708640  0.451697  0.467784  1
  O  O45  1  0.072157  0.333786  0.818206  1
  O  O46  1  0.291360  0.951697  0.032216  1
  O  O47  1  0.291360  0.548303  0.532216  1
