# generated using pymatgen
data_Pr5C2Cl9
_symmetry_space_group_name_H-M   'P 1'
_cell_length_a   8.61080476
_cell_length_b   8.68526887
_cell_length_c   12.16669239
_cell_angle_alpha   84.19949818
_cell_angle_beta   85.01359720
_cell_angle_gamma   61.33451785
_symmetry_Int_Tables_number   1
_chemical_formula_structural   Pr5C2Cl9
_chemical_formula_sum   'Pr10 C4 Cl18'
_cell_volume   793.53085816
_cell_formula_units_Z   2
loop_
 _symmetry_equiv_pos_site_id
 _symmetry_equiv_pos_as_xyz
  1  'x, y, z'
loop_
 _atom_site_type_symbol
 _atom_site_label
 _atom_site_symmetry_multiplicity
 _atom_site_fract_x
 _atom_site_fract_y
 _atom_site_fract_z
 _atom_site_occupancy
  Pr  Pr0  1  0.131364  0.270787  0.267752  1
  Pr  Pr1  1  0.773009  0.072596  0.257506  1
  Pr  Pr2  1  0.796882  0.314118  0.502193  1
  Pr  Pr3  1  0.203118  0.685882  0.497807  1
  Pr  Pr4  1  0.607146  0.596696  0.220963  1
  Pr  Pr5  1  0.392854  0.403304  0.779037  1
  Pr  Pr6  1  0.226991  0.927404  0.742494  1
  Pr  Pr7  1  0.897116  0.297629  0.999024  1
  Pr  Pr8  1  0.102884  0.702371  0.000976  1
  Pr  Pr9  1  0.868636  0.729213  0.732248  1
  C  C10  1  0.857918  0.302370  0.190618  1
  C  C11  1  0.829879  0.310784  0.309387  1
  C  C12  1  0.170121  0.689216  0.690613  1
  C  C13  1  0.142082  0.697630  0.809382  1
  Cl  Cl14  1  0.158303  0.870875  0.260773  1
  Cl  Cl15  1  0.400046  0.408268  0.276719  1
  Cl  Cl16  1  0.785685  0.669324  0.966780  1
  Cl  Cl17  1  0.919499  0.657769  0.228079  1
  Cl  Cl18  1  0.599954  0.591732  0.723281  1
  Cl  Cl19  1  0.214315  0.330676  0.033220  1
  Cl  Cl20  1  0.216564  0.960907  0.975369  1
  Cl  Cl21  1  0.511546  0.014891  0.768366  1
  Cl  Cl22  1  0.488454  0.985109  0.231634  1
  Cl  Cl23  1  0.841697  0.129125  0.739227  1
  Cl  Cl24  1  0.175804  0.050864  0.506825  1
  Cl  Cl25  1  0.783436  0.039093  0.024631  1
  Cl  Cl26  1  0.542045  0.671642  0.447405  1
  Cl  Cl27  1  0.080501  0.342231  0.771921  1
  Cl  Cl28  1  0.500000  0.500000  0.000000  1
  Cl  Cl29  1  0.824196  0.949136  0.493175  1
  Cl  Cl30  1  0.000000  0.500000  0.500000  1
  Cl  Cl31  1  0.457955  0.328358  0.552595  1
