# generated using pymatgen
data_ErCuS2
_symmetry_space_group_name_H-M   'P 1'
_cell_length_a   3.96151026
_cell_length_b   6.24326056
_cell_length_c   13.33350544
_cell_angle_alpha   90.00000000
_cell_angle_beta   90.00000000
_cell_angle_gamma   90.00000000
_symmetry_Int_Tables_number   1
_chemical_formula_structural   ErCuS2
_chemical_formula_sum   'Er4 Cu4 S8'
_cell_volume   329.77413353
_cell_formula_units_Z   4
loop_
 _symmetry_equiv_pos_site_id
 _symmetry_equiv_pos_as_xyz
  1  'x, y, z'
loop_
 _atom_site_type_symbol
 _atom_site_label
 _atom_site_symmetry_multiplicity
 _atom_site_fract_x
 _atom_site_fract_y
 _atom_site_fract_z
 _atom_site_occupancy
  Er  Er0  1  0.227375  0.250132  0.133688  1
  Er  Er1  1  0.772625  0.750132  0.366312  1
  Er  Er2  1  0.272625  0.749868  0.633688  1
  Er  Er3  1  0.727375  0.249868  0.866312  1
  Cu  Cu4  1  0.297674  0.851524  0.946171  1
  Cu  Cu5  1  0.797674  0.648476  0.053829  1
  Cu  Cu6  1  0.702326  0.351524  0.553829  1
  Cu  Cu7  1  0.202326  0.148476  0.446171  1
  S  S8  1  0.770363  0.512341  0.705670  1
  S  S9  1  0.729637  0.487659  0.205670  1
  S  S10  1  0.270363  0.987659  0.294330  1
  S  S11  1  0.228645  0.488029  0.959852  1
  S  S12  1  0.771355  0.988029  0.540148  1
  S  S13  1  0.728645  0.011971  0.040148  1
  S  S14  1  0.271355  0.511971  0.459852  1
  S  S15  1  0.229637  0.012341  0.794330  1
