# generated using pymatgen
data_UTe3Pb2O11
_symmetry_space_group_name_H-M   'P 1'
_cell_length_a   7.19098678
_cell_length_b   13.53832220
_cell_length_c   13.57222069
_cell_angle_alpha   90.00000000
_cell_angle_beta   120.27184429
_cell_angle_gamma   90.00000000
_symmetry_Int_Tables_number   1
_chemical_formula_structural   UTe3Pb2O11
_chemical_formula_sum   'U4 Te12 Pb8 O44'
_cell_volume   1141.13938661
_cell_formula_units_Z   4
loop_
 _symmetry_equiv_pos_site_id
 _symmetry_equiv_pos_as_xyz
  1  'x, y, z'
loop_
 _atom_site_type_symbol
 _atom_site_label
 _atom_site_symmetry_multiplicity
 _atom_site_fract_x
 _atom_site_fract_y
 _atom_site_fract_z
 _atom_site_occupancy
  U  U0  1  0.633762  0.720741  0.743288  1
  U  U1  1  0.633762  0.779259  0.243288  1
  U  U2  1  0.366238  0.279259  0.256712  1
  U  U3  1  0.366238  0.220741  0.756712  1
  Te  Te4  1  0.336324  0.741313  0.927329  1
  Te  Te5  1  0.022539  0.739142  0.086753  1
  Te  Te6  1  0.663676  0.241313  0.572671  1
  Te  Te7  1  0.977461  0.260858  0.913247  1
  Te  Te8  1  0.986499  0.481943  0.257912  1
  Te  Te9  1  0.663676  0.258687  0.072671  1
  Te  Te10  1  0.013501  0.981943  0.242088  1
  Te  Te11  1  0.013501  0.518057  0.742088  1
  Te  Te12  1  0.022539  0.760858  0.586753  1
  Te  Te13  1  0.977461  0.239142  0.413247  1
  Te  Te14  1  0.986499  0.018057  0.757912  1
  Te  Te15  1  0.336324  0.758687  0.427329  1
  Pb  Pb16  1  0.655420  0.552712  0.433331  1
  Pb  Pb17  1  0.302827  0.493100  0.061604  1
  Pb  Pb18  1  0.344580  0.447288  0.566669  1
  Pb  Pb19  1  0.697173  0.506900  0.938396  1
  Pb  Pb20  1  0.302827  0.006900  0.561603  1
  Pb  Pb21  1  0.697173  0.993100  0.438396  1
  Pb  Pb22  1  0.344580  0.052712  0.066669  1
  Pb  Pb23  1  0.655420  0.947288  0.933331  1
  O  O24  1  0.293203  0.713161  0.091734  1
  O  O25  1  0.513550  0.595682  0.730072  1
  O  O26  1  0.849581  0.679892  0.938750  1
  O  O27  1  0.293203  0.786839  0.591734  1
  O  O28  1  0.417059  0.604775  0.945606  1
  O  O29  1  0.486450  0.404318  0.269928  1
  O  O30  1  0.995339  0.373438  0.455276  1
  O  O31  1  0.753632  0.654285  0.262174  1
  O  O32  1  0.706797  0.286839  0.908266  1
  O  O33  1  0.555357  0.277201  0.675324  1
  O  O34  1  0.513550  0.904318  0.230072  1
  O  O35  1  0.933650  0.650570  0.756083  1
  O  O36  1  0.252282  0.526685  0.384033  1
  O  O37  1  0.706797  0.213161  0.408266  1
  O  O38  1  0.555357  0.222799  0.175324  1
  O  O39  1  0.444643  0.722799  0.324676  1
  O  O40  1  0.590179  0.798024  0.052107  1
  O  O41  1  0.417059  0.895225  0.445606  1
  O  O42  1  0.995557  0.036157  0.367216  1
  O  O43  1  0.582941  0.104775  0.554394  1
  O  O44  1  0.747718  0.026685  0.115967  1
  O  O45  1  0.747718  0.473315  0.615967  1
  O  O46  1  0.444643  0.777201  0.824676  1
  O  O47  1  0.753632  0.845715  0.762174  1
  O  O48  1  0.995557  0.463843  0.867216  1
  O  O49  1  0.409821  0.298024  0.447893  1
  O  O50  1  0.995339  0.126562  0.955276  1
  O  O51  1  0.849581  0.820108  0.438750  1
  O  O52  1  0.150419  0.320108  0.061250  1
  O  O53  1  0.066350  0.349430  0.243917  1
  O  O54  1  0.252282  0.973315  0.884033  1
  O  O55  1  0.590179  0.701976  0.552107  1
  O  O56  1  0.004443  0.536157  0.132784  1
  O  O57  1  0.066350  0.150570  0.743917  1
  O  O58  1  0.004443  0.963843  0.632784  1
  O  O59  1  0.004661  0.626562  0.544724  1
  O  O60  1  0.246368  0.154285  0.237826  1
  O  O61  1  0.582941  0.395225  0.054394  1
  O  O62  1  0.246368  0.345715  0.737826  1
  O  O63  1  0.486450  0.095682  0.769928  1
  O  O64  1  0.004661  0.873438  0.044724  1
  O  O65  1  0.409821  0.201976  0.947893  1
  O  O66  1  0.150419  0.179892  0.561250  1
  O  O67  1  0.933650  0.849430  0.256083  1
