# generated using pymatgen
data_Sr2VO4
_symmetry_space_group_name_H-M   'P 1'
_cell_length_a   5.90434877
_cell_length_b   10.23618586
_cell_length_c   14.25889439
_cell_angle_alpha   90.00000000
_cell_angle_beta   90.00000000
_cell_angle_gamma   90.00000000
_symmetry_Int_Tables_number   1
_chemical_formula_structural   Sr2VO4
_chemical_formula_sum   'Sr16 V8 O32'
_cell_volume   861.77922158
_cell_formula_units_Z   8
loop_
 _symmetry_equiv_pos_site_id
 _symmetry_equiv_pos_as_xyz
  1  'x, y, z'
loop_
 _atom_site_type_symbol
 _atom_site_label
 _atom_site_symmetry_multiplicity
 _atom_site_fract_x
 _atom_site_fract_y
 _atom_site_fract_z
 _atom_site_occupancy
  Sr  Sr0  1  0.806818  0.141996  0.794051  1
  Sr  Sr1  1  0.309791  0.917797  0.879668  1
  Sr  Sr2  1  0.225406  0.272631  0.450336  1
  Sr  Sr3  1  0.306818  0.641996  0.705949  1
  Sr  Sr4  1  0.774594  0.772631  0.549664  1
  Sr  Sr5  1  0.729707  0.495812  0.370047  1
  Sr  Sr6  1  0.690209  0.417797  0.120332  1
  Sr  Sr7  1  0.693182  0.141996  0.294051  1
  Sr  Sr8  1  0.725406  0.772631  0.049664  1
  Sr  Sr9  1  0.809791  0.417797  0.620332  1
  Sr  Sr10  1  0.770293  0.495812  0.870047  1
  Sr  Sr11  1  0.229707  0.995812  0.129953  1
  Sr  Sr12  1  0.190209  0.917797  0.379668  1
  Sr  Sr13  1  0.193182  0.641996  0.205949  1
  Sr  Sr14  1  0.274594  0.272631  0.950336  1
  Sr  Sr15  1  0.270293  0.995812  0.629953  1
  V  V16  1  0.222498  0.626242  0.972626  1
  V  V17  1  0.804243  0.786808  0.776790  1
  V  V18  1  0.695757  0.786808  0.276790  1
  V  V19  1  0.304243  0.286808  0.723210  1
  V  V20  1  0.277502  0.626242  0.472626  1
  V  V21  1  0.722498  0.126242  0.527374  1
  V  V22  1  0.777502  0.126242  0.027374  1
  V  V23  1  0.195757  0.286808  0.223210  1
  O  O24  1  0.964128  0.556542  0.026252  1
  O  O25  1  0.494655  0.423973  0.742853  1
  O  O26  1  0.049814  0.348124  0.791910  1
  O  O27  1  0.035872  0.056542  0.973748  1
  O  O28  1  0.564846  0.003088  0.011548  1
  O  O29  1  0.064846  0.503088  0.488452  1
  O  O30  1  0.858201  0.739421  0.378593  1
  O  O31  1  0.450186  0.348124  0.291910  1
  O  O32  1  0.866906  0.643114  0.698815  1
  O  O33  1  0.358201  0.239421  0.121407  1
  O  O34  1  0.786232  0.268618  0.452607  1
  O  O35  1  0.633094  0.643114  0.198815  1
  O  O36  1  0.935154  0.003088  0.511548  1
  O  O37  1  0.620746  0.190833  0.638751  1
  O  O38  1  0.994655  0.923973  0.757147  1
  O  O39  1  0.286232  0.768618  0.047393  1
  O  O40  1  0.505345  0.923973  0.257147  1
  O  O41  1  0.713768  0.268618  0.952607  1
  O  O42  1  0.950186  0.848124  0.208090  1
  O  O43  1  0.879254  0.190833  0.138751  1
  O  O44  1  0.549814  0.848124  0.708090  1
  O  O45  1  0.379254  0.690833  0.361249  1
  O  O46  1  0.366906  0.143114  0.801185  1
  O  O47  1  0.133094  0.143114  0.301185  1
  O  O48  1  0.641799  0.739421  0.878593  1
  O  O49  1  0.535872  0.556542  0.526252  1
  O  O50  1  0.213768  0.768618  0.547393  1
  O  O51  1  0.141799  0.239421  0.621407  1
  O  O52  1  0.435154  0.503088  0.988452  1
  O  O53  1  0.005345  0.423973  0.242853  1
  O  O54  1  0.120746  0.690833  0.861249  1
  O  O55  1  0.464128  0.056542  0.473748  1
