# generated using pymatgen
data_Y3H2
_symmetry_space_group_name_H-M   'P 1'
_cell_length_a   3.70274693
_cell_length_b   3.70274693
_cell_length_c   17.43469957
_cell_angle_alpha   90.00000000
_cell_angle_beta   90.00000000
_cell_angle_gamma   120.00000000
_symmetry_Int_Tables_number   1
_chemical_formula_structural   Y3H2
_chemical_formula_sum   'Y6 H4'
_cell_volume   207.01087486
_cell_formula_units_Z   2
loop_
 _symmetry_equiv_pos_site_id
 _symmetry_equiv_pos_as_xyz
  1  'x, y, z'
loop_
 _atom_site_type_symbol
 _atom_site_label
 _atom_site_symmetry_multiplicity
 _atom_site_fract_x
 _atom_site_fract_y
 _atom_site_fract_z
 _atom_site_occupancy
  Y  Y0  1  0.666667  0.333333  0.411760  1
  Y  Y1  1  0.333333  0.666667  0.911760  1
  Y  Y2  1  0.333333  0.666667  0.250000  1
  Y  Y3  1  0.666667  0.333333  0.088240  1
  Y  Y4  1  0.333333  0.666667  0.588240  1
  Y  Y5  1  0.666667  0.333333  0.750000  1
  H  H6  1  0.333333  0.666667  0.120208  1
  H  H7  1  0.333333  0.666667  0.379792  1
  H  H8  1  0.666667  0.333333  0.879792  1
  H  H9  1  0.666667  0.333333  0.620208  1
