# generated using pymatgen
data_CsPr(SO4)2
_symmetry_space_group_name_H-M   'P 1'
_cell_length_a   5.50700483
_cell_length_b   9.72213620
_cell_length_c   14.54146747
_cell_angle_alpha   90.00000000
_cell_angle_beta   90.00000000
_cell_angle_gamma   90.00000000
_symmetry_Int_Tables_number   1
_chemical_formula_structural   CsPr(SO4)2
_chemical_formula_sum   'Cs4 Pr4 S8 O32'
_cell_volume   778.54800183
_cell_formula_units_Z   4
loop_
 _symmetry_equiv_pos_site_id
 _symmetry_equiv_pos_as_xyz
  1  'x, y, z'
loop_
 _atom_site_type_symbol
 _atom_site_label
 _atom_site_symmetry_multiplicity
 _atom_site_fract_x
 _atom_site_fract_y
 _atom_site_fract_z
 _atom_site_occupancy
  Cs  Cs0  1  0.250000  0.077255  0.250000  1
  Cs  Cs1  1  0.250000  0.422745  0.750000  1
  Cs  Cs2  1  0.750000  0.922745  0.750000  1
  Cs  Cs3  1  0.750000  0.577255  0.250000  1
  Pr  Pr4  1  0.676560  0.250000  0.500000  1
  Pr  Pr5  1  0.823440  0.250000  0.000000  1
  Pr  Pr6  1  0.323440  0.750000  0.500000  1
  Pr  Pr7  1  0.176560  0.750000  0.000000  1
  S  S8  1  0.237978  0.413903  0.415827  1
  S  S9  1  0.237978  0.086097  0.584173  1
  S  S10  1  0.262022  0.413903  0.084173  1
  S  S11  1  0.262022  0.086097  0.915827  1
  S  S12  1  0.762022  0.586097  0.584173  1
  S  S13  1  0.762022  0.913903  0.415827  1
  S  S14  1  0.737978  0.586097  0.915827  1
  S  S15  1  0.737978  0.913903  0.084173  1
  O  O16  1  0.305098  0.402692  0.515210  1
  O  O17  1  0.305098  0.097308  0.484790  1
  O  O18  1  0.194902  0.402692  0.984790  1
  O  O19  1  0.194902  0.097308  0.015210  1
  O  O20  1  0.694902  0.597308  0.484790  1
  O  O21  1  0.694902  0.902692  0.515210  1
  O  O22  1  0.805098  0.597308  0.015210  1
  O  O23  1  0.805098  0.902692  0.984790  1
  O  O24  1  0.225938  0.561516  0.388081  1
  O  O25  1  0.225938  0.938484  0.611919  1
  O  O26  1  0.274062  0.561516  0.111919  1
  O  O27  1  0.274062  0.938484  0.888081  1
  O  O28  1  0.774062  0.438484  0.611919  1
  O  O29  1  0.774062  0.061516  0.388081  1
  O  O30  1  0.725938  0.438484  0.888081  1
  O  O31  1  0.725938  0.061516  0.111919  1
  O  O32  1  0.433494  0.341445  0.362893  1
  O  O33  1  0.433494  0.158555  0.637107  1
  O  O34  1  0.066506  0.341445  0.137107  1
  O  O35  1  0.066506  0.158555  0.862893  1
  O  O36  1  0.566506  0.658555  0.637107  1
  O  O37  1  0.566506  0.841445  0.362893  1
  O  O38  1  0.933494  0.658555  0.862893  1
  O  O39  1  0.933494  0.841445  0.137107  1
  O  O40  1  0.997730  0.348571  0.398423  1
  O  O41  1  0.997730  0.151429  0.601577  1
  O  O42  1  0.502270  0.348571  0.101577  1
  O  O43  1  0.502270  0.151429  0.898423  1
  O  O44  1  0.002270  0.651429  0.601577  1
  O  O45  1  0.002270  0.848571  0.398423  1
  O  O46  1  0.497730  0.651429  0.898423  1
  O  O47  1  0.497730  0.848571  0.101577  1
