# generated using pymatgen
data_K4Th(MoO4)4
_symmetry_space_group_name_H-M   'P 1'
_cell_length_a   10.69356480
_cell_length_b   10.69356480
_cell_length_c   10.69356480
_cell_angle_alpha   112.82624707
_cell_angle_beta   112.82624707
_cell_angle_gamma   102.95138930
_symmetry_Int_Tables_number   1
_chemical_formula_structural   K4Th(MoO4)4
_chemical_formula_sum   'K8 Th2 Mo8 O32'
_cell_volume   932.33956310
_cell_formula_units_Z   2
loop_
 _symmetry_equiv_pos_site_id
 _symmetry_equiv_pos_as_xyz
  1  'x, y, z'
loop_
 _atom_site_type_symbol
 _atom_site_label
 _atom_site_symmetry_multiplicity
 _atom_site_fract_x
 _atom_site_fract_y
 _atom_site_fract_z
 _atom_site_occupancy
  K  K0  1  0.243615  0.884824  0.165123  1
  K  K1  1  0.828492  0.493615  0.858791  1
  K  K2  1  0.719701  0.078492  0.834877  1
  K  K3  1  0.634824  0.969701  0.141209  1
  K  K4  1  0.921508  0.756385  0.641209  1
  K  K5  1  0.115176  0.280299  0.358791  1
  K  K6  1  0.506385  0.365176  0.334877  1
  K  K7  1  0.030299  0.171508  0.665123  1
  Th  Th8  1  0.500000  0.500000  0.000000  1
  Th  Th9  1  0.250000  0.750000  0.500000  1
  Mo  Mo10  1  0.186970  0.598960  0.767924  1
  Mo  Mo11  1  0.831036  0.419047  0.232076  1
  Mo  Mo12  1  0.918964  0.830953  0.267924  1
  Mo  Mo13  1  0.580953  0.813030  0.411989  1
  Mo  Mo14  1  0.563030  0.651040  0.732076  1
  Mo  Mo15  1  0.169047  0.436970  0.088011  1
  Mo  Mo16  1  0.348960  0.081036  0.911989  1
  Mo  Mo17  1  0.401040  0.168964  0.588011  1
  O  O18  1  0.253567  0.428211  0.966971  1
  O  O19  1  0.772944  0.220836  0.137169  1
  O  O20  1  0.091848  0.405047  0.618043  1
  O  O21  1  0.368677  0.602163  0.587054  1
  O  O22  1  0.571789  0.538760  0.825356  1
  O  O23  1  0.036596  0.503567  0.325356  1
  O  O24  1  0.594953  0.212996  0.686801  1
  O  O25  1  0.083667  0.635774  0.862831  1
  O  O26  1  0.779164  0.916333  0.552108  1
  O  O27  1  0.666333  0.614226  0.637169  1
  O  O28  1  0.288760  0.963404  0.466971  1
  O  O29  1  0.385774  0.022944  0.052108  1
  O  O30  1  0.734892  0.468377  0.087054  1
  O  O31  1  0.496432  0.821789  0.533029  1
  O  O32  1  0.015108  0.781623  0.412946  1
  O  O33  1  0.397837  0.984892  0.766515  1
  O  O34  1  0.658152  0.844953  0.881957  1
  O  O35  1  0.962996  0.776195  0.118043  1
  O  O36  1  0.352163  0.265108  0.733485  1
  O  O37  1  0.178211  0.711240  0.674644  1
  O  O38  1  0.787004  0.473805  0.381957  1
  O  O39  1  0.461240  0.286596  0.033029  1
  O  O40  1  0.218377  0.631323  0.233485  1
  O  O41  1  0.977056  0.029164  0.362831  1
  O  O42  1  0.223805  0.341848  0.186801  1
  O  O43  1  0.970836  0.333667  0.947892  1
  O  O44  1  0.713404  0.746432  0.174644  1
  O  O45  1  0.155047  0.037004  0.813199  1
  O  O46  1  0.381323  0.647837  0.912946  1
  O  O47  1  0.526195  0.908152  0.313199  1
  O  O48  1  0.531623  0.618677  0.266515  1
  O  O49  1  0.364226  0.227056  0.447892  1
