# generated using pymatgen
data_K2UMo(IO6)2
_symmetry_space_group_name_H-M   'P 1'
_cell_length_a   11.54673101
_cell_length_b   7.40130819
_cell_length_c   16.15014850
_cell_angle_alpha   90.00000000
_cell_angle_beta   107.37609640
_cell_angle_gamma   90.00000000
_symmetry_Int_Tables_number   1
_chemical_formula_structural   K2UMo(IO6)2
_chemical_formula_sum   'K8 U4 Mo4 I8 O48'
_cell_volume   1317.22074900
_cell_formula_units_Z   4
loop_
 _symmetry_equiv_pos_site_id
 _symmetry_equiv_pos_as_xyz
  1  'x, y, z'
loop_
 _atom_site_type_symbol
 _atom_site_label
 _atom_site_symmetry_multiplicity
 _atom_site_fract_x
 _atom_site_fract_y
 _atom_site_fract_z
 _atom_site_occupancy
  K  K0  1  0.740814  0.257711  0.857585  1
  K  K1  1  0.498546  0.245149  0.547364  1
  K  K2  1  0.259186  0.757711  0.642415  1
  K  K3  1  0.259186  0.742289  0.142415  1
  K  K4  1  0.498546  0.254851  0.047364  1
  K  K5  1  0.501454  0.754851  0.452636  1
  K  K6  1  0.501454  0.745149  0.952636  1
  K  K7  1  0.740814  0.242289  0.357585  1
  U  U8  1  0.169460  0.492542  0.859453  1
  U  U9  1  0.830540  0.992542  0.640547  1
  U  U10  1  0.169460  0.007458  0.359453  1
  U  U11  1  0.830540  0.507458  0.140547  1
  Mo  Mo12  1  0.081083  0.245977  0.553905  1
  Mo  Mo13  1  0.081083  0.254023  0.053905  1
  Mo  Mo14  1  0.918917  0.754023  0.446095  1
  Mo  Mo15  1  0.918917  0.745977  0.946095  1
  I  I16  1  0.404096  0.286378  0.771827  1
  I  I17  1  0.177907  0.512485  0.389606  1
  I  I18  1  0.177907  0.987515  0.889606  1
  I  I19  1  0.822093  0.012485  0.110394  1
  I  I20  1  0.822093  0.487515  0.610394  1
  I  I21  1  0.404096  0.213622  0.271827  1
  I  I22  1  0.595904  0.713622  0.228173  1
  I  I23  1  0.595904  0.786378  0.728173  1
  O  O24  1  0.780525  0.681731  0.668735  1
  O  O25  1  0.782705  0.200896  0.172850  1
  O  O26  1  0.915825  0.795921  0.558183  1
  O  O27  1  0.084175  0.204079  0.441817  1
  O  O28  1  0.108517  0.476160  0.576724  1
  O  O29  1  0.219475  0.181731  0.831265  1
  O  O30  1  0.489272  0.685740  0.120942  1
  O  O31  1  0.068415  0.686861  0.932259  1
  O  O32  1  0.780525  0.818269  0.168735  1
  O  O33  1  0.891483  0.523840  0.423276  1
  O  O34  1  0.490390  0.387392  0.705906  1
  O  O35  1  0.035259  0.486921  0.765033  1
  O  O36  1  0.782705  0.299104  0.672850  1
  O  O37  1  0.964741  0.513079  0.234967  1
  O  O38  1  0.489272  0.814260  0.620942  1
  O  O39  1  0.198333  0.379252  0.125375  1
  O  O40  1  0.931585  0.186861  0.567741  1
  O  O41  1  0.490390  0.112608  0.205906  1
  O  O42  1  0.303514  0.001608  0.454612  1
  O  O43  1  0.509610  0.887392  0.794094  1
  O  O44  1  0.801667  0.620748  0.874625  1
  O  O45  1  0.964741  0.986921  0.734967  1
  O  O46  1  0.217295  0.700896  0.327150  1
  O  O47  1  0.915825  0.704079  0.058183  1
  O  O48  1  0.198333  0.120748  0.625375  1
  O  O49  1  0.303514  0.498392  0.954612  1
  O  O50  1  0.219475  0.318269  0.331265  1
  O  O51  1  0.510728  0.185740  0.379058  1
  O  O52  1  0.068415  0.813139  0.432259  1
  O  O53  1  0.035259  0.013079  0.265033  1
  O  O54  1  0.300319  0.018942  0.271688  1
  O  O55  1  0.801667  0.879252  0.374625  1
  O  O56  1  0.699681  0.518942  0.228312  1
  O  O57  1  0.688397  0.018297  0.016985  1
  O  O58  1  0.510728  0.314260  0.879058  1
  O  O59  1  0.217295  0.799104  0.827150  1
  O  O60  1  0.696486  0.501608  0.045388  1
  O  O61  1  0.699681  0.981058  0.728312  1
  O  O62  1  0.891483  0.976160  0.923276  1
  O  O63  1  0.696486  0.998392  0.545388  1
  O  O64  1  0.688397  0.481703  0.516985  1
  O  O65  1  0.931585  0.313139  0.067741  1
  O  O66  1  0.108517  0.023840  0.076724  1
  O  O67  1  0.311603  0.981703  0.983015  1
  O  O68  1  0.084175  0.295921  0.941817  1
  O  O69  1  0.509610  0.612608  0.294094  1
  O  O70  1  0.311603  0.518297  0.483015  1
  O  O71  1  0.300319  0.481058  0.771688  1
