# generated using pymatgen
data_Ta3SiNi2
_symmetry_space_group_name_H-M   'P 1'
_cell_length_a   7.91227600
_cell_length_b   7.91227600
_cell_length_c   7.91227600
_cell_angle_alpha   60.00000000
_cell_angle_beta   60.00000000
_cell_angle_gamma   60.00000000
_symmetry_Int_Tables_number   1
_chemical_formula_structural   Ta3SiNi2
_chemical_formula_sum   'Ta12 Si4 Ni8'
_cell_volume   350.25898672
_cell_formula_units_Z   4
loop_
 _symmetry_equiv_pos_site_id
 _symmetry_equiv_pos_as_xyz
  1  'x, y, z'
loop_
 _atom_site_type_symbol
 _atom_site_label
 _atom_site_symmetry_multiplicity
 _atom_site_fract_x
 _atom_site_fract_y
 _atom_site_fract_z
 _atom_site_occupancy
  Ta  Ta0  1  0.548026  0.951974  0.951974  1
  Ta  Ta1  1  0.701974  0.298026  0.701974  1
  Ta  Ta2  1  0.298026  0.701974  0.298026  1
  Ta  Ta3  1  0.298026  0.701974  0.701974  1
  Ta  Ta4  1  0.298026  0.298026  0.701974  1
  Ta  Ta5  1  0.701974  0.701974  0.298026  1
  Ta  Ta6  1  0.951974  0.951974  0.548026  1
  Ta  Ta7  1  0.548026  0.951974  0.548026  1
  Ta  Ta8  1  0.951974  0.548026  0.951974  1
  Ta  Ta9  1  0.548026  0.548026  0.951974  1
  Ta  Ta10  1  0.701974  0.298026  0.298026  1
  Ta  Ta11  1  0.951974  0.548026  0.548026  1
  Si  Si12  1  0.125000  0.625000  0.125000  1
  Si  Si13  1  0.125000  0.125000  0.125000  1
  Si  Si14  1  0.125000  0.125000  0.625000  1
  Si  Si15  1  0.625000  0.125000  0.125000  1
  Ni  Ni16  1  0.917361  0.247918  0.917361  1
  Ni  Ni17  1  0.332639  0.332639  0.332639  1
  Ni  Ni18  1  0.332639  0.332639  0.002082  1
  Ni  Ni19  1  0.002082  0.332639  0.332639  1
  Ni  Ni20  1  0.917361  0.917361  0.247918  1
  Ni  Ni21  1  0.247918  0.917361  0.917361  1
  Ni  Ni22  1  0.917361  0.917361  0.917361  1
  Ni  Ni23  1  0.332639  0.002082  0.332639  1
