# generated using pymatgen
data_Hg2TeO5
_symmetry_space_group_name_H-M   'P 1'
_cell_length_a   6.05981326
_cell_length_b   7.51811499
_cell_length_c   10.13288997
_cell_angle_alpha   90.00000000
_cell_angle_beta   90.00000000
_cell_angle_gamma   90.00000000
_symmetry_Int_Tables_number   1
_chemical_formula_structural   Hg2TeO5
_chemical_formula_sum   'Hg8 Te4 O20'
_cell_volume   461.63797987
_cell_formula_units_Z   4
loop_
 _symmetry_equiv_pos_site_id
 _symmetry_equiv_pos_as_xyz
  1  'x, y, z'
loop_
 _atom_site_type_symbol
 _atom_site_label
 _atom_site_symmetry_multiplicity
 _atom_site_fract_x
 _atom_site_fract_y
 _atom_site_fract_z
 _atom_site_occupancy
  Hg  Hg0  1  0.227883  0.730651  0.172405  1
  Hg  Hg1  1  0.772117  0.269349  0.672405  1
  Hg  Hg2  1  0.272117  0.230651  0.172405  1
  Hg  Hg3  1  0.727883  0.769349  0.672405  1
  Hg  Hg4  1  0.225156  0.524592  0.835412  1
  Hg  Hg5  1  0.774844  0.475408  0.335412  1
  Hg  Hg6  1  0.274844  0.024592  0.835412  1
  Hg  Hg7  1  0.725156  0.975408  0.335412  1
  Te  Te8  1  0.241078  0.866287  0.502456  1
  Te  Te9  1  0.758922  0.133713  0.002456  1
  Te  Te10  1  0.258922  0.366287  0.502456  1
  Te  Te11  1  0.741078  0.633713  0.002456  1
  O  O12  1  0.154275  0.838148  0.686104  1
  O  O13  1  0.845725  0.161852  0.186104  1
  O  O14  1  0.345725  0.338148  0.686104  1
  O  O15  1  0.654275  0.661852  0.186104  1
  O  O16  1  0.455446  0.711171  0.943586  1
  O  O17  1  0.544554  0.288829  0.443586  1
  O  O18  1  0.044554  0.211171  0.943586  1
  O  O19  1  0.955446  0.788829  0.443586  1
  O  O20  1  0.367787  0.618535  0.502285  1
  O  O21  1  0.632213  0.381465  0.002285  1
  O  O22  1  0.132213  0.118535  0.502285  1
  O  O23  1  0.867787  0.881465  0.002285  1
  O  O24  1  0.542492  0.941979  0.551069  1
  O  O25  1  0.457508  0.058021  0.051069  1
  O  O26  1  0.957508  0.441979  0.551069  1
  O  O27  1  0.042492  0.558021  0.051069  1
  O  O28  1  0.339274  0.908818  0.317833  1
  O  O29  1  0.660726  0.091182  0.817833  1
  O  O30  1  0.160726  0.408818  0.317833  1
  O  O31  1  0.839274  0.591182  0.817833  1
