# generated using pymatgen
data_Ni2SnP
_symmetry_space_group_name_H-M   'P 1'
_cell_length_a   3.59022524
_cell_length_b   5.09371747
_cell_length_c   12.94569039
_cell_angle_alpha   90.00000000
_cell_angle_beta   90.00000000
_cell_angle_gamma   90.00000000
_symmetry_Int_Tables_number   1
_chemical_formula_structural   Ni2SnP
_chemical_formula_sum   'Ni8 Sn4 P4'
_cell_volume   236.74551730
_cell_formula_units_Z   4
loop_
 _symmetry_equiv_pos_site_id
 _symmetry_equiv_pos_as_xyz
  1  'x, y, z'
loop_
 _atom_site_type_symbol
 _atom_site_label
 _atom_site_symmetry_multiplicity
 _atom_site_fract_x
 _atom_site_fract_y
 _atom_site_fract_z
 _atom_site_occupancy
  Ni  Ni0  1  0.250000  0.499192  0.111670  1
  Ni  Ni1  1  0.750000  0.500808  0.888330  1
  Ni  Ni2  1  0.750000  0.999192  0.388330  1
  Ni  Ni3  1  0.250000  0.000808  0.611670  1
  Ni  Ni4  1  0.750000  0.513707  0.419458  1
  Ni  Ni5  1  0.250000  0.486293  0.580542  1
  Ni  Ni6  1  0.250000  0.013707  0.080542  1
  Ni  Ni7  1  0.750000  0.986293  0.919458  1
  Sn  Sn8  1  0.250000  0.282546  0.292856  1
  Sn  Sn9  1  0.750000  0.717454  0.707144  1
  Sn  Sn10  1  0.750000  0.782546  0.207144  1
  Sn  Sn11  1  0.250000  0.217454  0.792856  1
  P  P12  1  0.750000  0.283307  0.043566  1
  P  P13  1  0.250000  0.716693  0.956434  1
  P  P14  1  0.250000  0.783307  0.456434  1
  P  P15  1  0.750000  0.216693  0.543566  1
