# generated using pymatgen
data_K2Nd2IrO7
_symmetry_space_group_name_H-M   'P 1'
_cell_length_a   13.18424140
_cell_length_b   13.18424140
_cell_length_c   13.18424140
_cell_angle_alpha   25.28697494
_cell_angle_beta   25.28697494
_cell_angle_gamma   25.28697494
_symmetry_Int_Tables_number   1
_chemical_formula_structural   K2Nd2IrO7
_chemical_formula_sum   'K4 Nd4 Ir2 O14'
_cell_volume   368.00134463
_cell_formula_units_Z   2
loop_
 _symmetry_equiv_pos_site_id
 _symmetry_equiv_pos_as_xyz
  1  'x, y, z'
loop_
 _atom_site_type_symbol
 _atom_site_label
 _atom_site_symmetry_multiplicity
 _atom_site_fract_x
 _atom_site_fract_y
 _atom_site_fract_z
 _atom_site_occupancy
  K  K0  1  0.412879  0.412879  0.412879  1
  K  K1  1  0.587121  0.587121  0.587121  1
  K  K2  1  0.087121  0.087121  0.087121  1
  K  K3  1  0.912879  0.912879  0.912879  1
  Nd  Nd4  1  0.809211  0.809211  0.809211  1
  Nd  Nd5  1  0.690789  0.690789  0.690789  1
  Nd  Nd6  1  0.309211  0.309211  0.309211  1
  Nd  Nd7  1  0.190789  0.190789  0.190789  1
  Ir  Ir8  1  0.000000  0.000000  0.000000  1
  Ir  Ir9  1  0.500000  0.500000  0.500000  1
  O  O10  1  0.399252  0.228619  0.790413  1
  O  O11  1  0.271381  0.100748  0.709587  1
  O  O12  1  0.209587  0.600748  0.771381  1
  O  O13  1  0.728619  0.899252  0.290413  1
  O  O14  1  0.899252  0.290413  0.728619  1
  O  O15  1  0.771381  0.209587  0.600748  1
  O  O16  1  0.709587  0.271381  0.100748  1
  O  O17  1  0.600748  0.771381  0.209587  1
  O  O18  1  0.790413  0.399252  0.228619  1
  O  O19  1  0.228619  0.790413  0.399252  1
  O  O20  1  0.250000  0.250000  0.250000  1
  O  O21  1  0.290413  0.728619  0.899252  1
  O  O22  1  0.750000  0.750000  0.750000  1
  O  O23  1  0.100748  0.709587  0.271381  1
