# generated using pymatgen
data_Ba3LiIr2O9
_symmetry_space_group_name_H-M   'P 1'
_cell_length_a   5.85900926
_cell_length_b   5.85900926
_cell_length_c   14.45058384
_cell_angle_alpha   90.00000000
_cell_angle_beta   90.00000000
_cell_angle_gamma   120.00000000
_symmetry_Int_Tables_number   1
_chemical_formula_structural   Ba3LiIr2O9
_chemical_formula_sum   'Ba6 Li2 Ir4 O18'
_cell_volume   429.60012025
_cell_formula_units_Z   2
loop_
 _symmetry_equiv_pos_site_id
 _symmetry_equiv_pos_as_xyz
  1  'x, y, z'
loop_
 _atom_site_type_symbol
 _atom_site_label
 _atom_site_symmetry_multiplicity
 _atom_site_fract_x
 _atom_site_fract_y
 _atom_site_fract_z
 _atom_site_occupancy
  Ba  Ba0  1  0.666667  0.333333  0.416618  1
  Ba  Ba1  1  0.333333  0.666667  0.583382  1
  Ba  Ba2  1  0.333333  0.666667  0.916618  1
  Ba  Ba3  1  0.000000  0.000000  0.250000  1
  Ba  Ba4  1  0.666667  0.333333  0.083382  1
  Ba  Ba5  1  0.000000  0.000000  0.750000  1
  Li  Li6  1  0.000000  0.000000  0.500000  1
  Li  Li7  1  0.000000  0.000000  0.000000  1
  Ir  Ir8  1  0.333333  0.666667  0.155682  1
  Ir  Ir9  1  0.666667  0.333333  0.844318  1
  Ir  Ir10  1  0.333333  0.666667  0.344318  1
  Ir  Ir11  1  0.666667  0.333333  0.655682  1
  O  O12  1  0.826005  0.652011  0.583857  1
  O  O13  1  0.826005  0.173995  0.916143  1
  O  O14  1  0.652011  0.826005  0.416143  1
  O  O15  1  0.515869  0.484131  0.750000  1
  O  O16  1  0.173995  0.347989  0.416143  1
  O  O17  1  0.347989  0.173995  0.583857  1
  O  O18  1  0.515869  0.031738  0.750000  1
  O  O19  1  0.173995  0.347989  0.083857  1
  O  O20  1  0.484131  0.968262  0.250000  1
  O  O21  1  0.652011  0.826005  0.083857  1
  O  O22  1  0.173995  0.826005  0.416143  1
  O  O23  1  0.347989  0.173995  0.916143  1
  O  O24  1  0.031738  0.515869  0.250000  1
  O  O25  1  0.484131  0.515869  0.250000  1
  O  O26  1  0.968262  0.484131  0.750000  1
  O  O27  1  0.826005  0.652011  0.916143  1
  O  O28  1  0.826005  0.173995  0.583857  1
  O  O29  1  0.173995  0.826005  0.083857  1
