# generated using pymatgen
data_Ca(CoAs)2
_symmetry_space_group_name_H-M   'P 1'
_cell_length_a   5.91333672
_cell_length_b   5.91333672
_cell_length_c   5.91333672
_cell_angle_alpha   140.37126919
_cell_angle_beta   140.37126919
_cell_angle_gamma   57.29001094
_symmetry_Int_Tables_number   1
_chemical_formula_structural   Ca(CoAs)2
_chemical_formula_sum   'Ca1 Co2 As2'
_cell_volume   83.40460661
_cell_formula_units_Z   1
loop_
 _symmetry_equiv_pos_site_id
 _symmetry_equiv_pos_as_xyz
  1  'x, y, z'
loop_
 _atom_site_type_symbol
 _atom_site_label
 _atom_site_symmetry_multiplicity
 _atom_site_fract_x
 _atom_site_fract_y
 _atom_site_fract_z
 _atom_site_occupancy
  Ca  Ca0  1  0.000000  0.000000  0.000000  1
  Co  Co1  1  0.750000  0.250000  0.500000  1
  Co  Co2  1  0.250000  0.750000  0.500000  1
  As  As3  1  0.365205  0.365205  0.000000  1
  As  As4  1  0.634795  0.634795  0.000000  1
