# generated using pymatgen
data_MoS2N2Cl5
_symmetry_space_group_name_H-M   'P 1'
_cell_length_a   7.34769578
_cell_length_b   7.68337482
_cell_length_c   10.20051669
_cell_angle_alpha   75.16119602
_cell_angle_beta   81.33174410
_cell_angle_gamma   84.61792151
_symmetry_Int_Tables_number   1
_chemical_formula_structural   MoS2N2Cl5
_chemical_formula_sum   'Mo2 S4 N4 Cl10'
_cell_volume   549.38864440
_cell_formula_units_Z   2
loop_
 _symmetry_equiv_pos_site_id
 _symmetry_equiv_pos_as_xyz
  1  'x, y, z'
loop_
 _atom_site_type_symbol
 _atom_site_label
 _atom_site_symmetry_multiplicity
 _atom_site_fract_x
 _atom_site_fract_y
 _atom_site_fract_z
 _atom_site_occupancy
  Mo  Mo0  1  0.194307  0.155462  0.234317  1
  Mo  Mo1  1  0.805693  0.844538  0.765683  1
  S  S2  1  0.968610  0.588957  0.083732  1
  S  S3  1  0.031390  0.411043  0.916268  1
  S  S4  1  0.390690  0.808622  0.448884  1
  S  S5  1  0.609310  0.191378  0.551116  1
  N  N6  1  0.701677  0.027259  0.648869  1
  N  N7  1  0.062549  0.386341  0.077424  1
  N  N8  1  0.298323  0.972741  0.351131  1
  N  N9  1  0.937451  0.613659  0.922576  1
  Cl  Cl10  1  0.904686  0.637882  0.634019  1
  Cl  Cl11  1  0.511477  0.646457  0.323329  1
  Cl  Cl12  1  0.236890  0.040703  0.041064  1
  Cl  Cl13  1  0.529082  0.695252  0.843557  1
  Cl  Cl14  1  0.763110  0.959297  0.958936  1
  Cl  Cl15  1  0.095314  0.362118  0.365981  1
  Cl  Cl16  1  0.102437  0.962406  0.705656  1
  Cl  Cl17  1  0.488523  0.353543  0.676671  1
  Cl  Cl18  1  0.897563  0.037594  0.294344  1
  Cl  Cl19  1  0.470918  0.304748  0.156443  1
