# generated using pymatgen
data_U4Al18Ni5
_symmetry_space_group_name_H-M   'P 1'
_cell_length_a   8.06690654
_cell_length_b   8.06690654
_cell_length_c   16.06312376
_cell_angle_alpha   63.67294832
_cell_angle_beta   116.32705168
_cell_angle_gamma   151.01786161
_symmetry_Int_Tables_number   1
_chemical_formula_structural   U4Al18Ni5
_chemical_formula_sum   'U4 Al18 Ni5'
_cell_volume   450.22797165
_cell_formula_units_Z   1
loop_
 _symmetry_equiv_pos_site_id
 _symmetry_equiv_pos_as_xyz
  1  'x, y, z'
loop_
 _atom_site_type_symbol
 _atom_site_label
 _atom_site_symmetry_multiplicity
 _atom_site_fract_x
 _atom_site_fract_y
 _atom_site_fract_z
 _atom_site_occupancy
  U  U0  1  0.231806  0.768194  0.661132  1
  U  U1  1  0.437586  0.562414  0.108963  1
  U  U2  1  0.767860  0.232140  0.335533  1
  U  U3  1  0.557266  0.442734  0.888120  1
  Al  Al4  1  0.629744  0.370256  0.109927  1
  Al  Al5  1  0.895353  0.104647  0.774746  1
  Al  Al6  1  0.102860  0.897140  0.220463  1
  Al  Al7  1  0.569289  0.430711  0.321347  1
  Al  Al8  1  0.434800  0.565200  0.667179  1
  Al  Al9  1  0.704891  0.295109  0.787099  1
  Al  Al10  1  0.023215  0.976785  0.453047  1
  Al  Al11  1  0.287018  0.712982  0.204720  1
  Al  Al12  1  0.795145  0.204855  0.971637  1
  Al  Al13  1  0.572983  0.427017  0.600100  1
  Al  Al14  1  0.197443  0.802557  0.439258  1
  Al  Al15  1  0.064002  0.935998  0.739890  1
  Al  Al16  1  0.928323  0.071677  0.256565  1
  Al  Al17  1  0.996547  0.003453  0.997280  1
  Al  Al18  1  0.364862  0.635138  0.883458  1
  Al  Al19  1  0.388964  0.611036  0.479068  1
  Al  Al20  1  0.812916  0.187084  0.565118  1
  Al  Al21  1  0.199421  0.800579  0.020733  1
  Ni  Ni22  1  0.641247  0.358753  0.487442  1
  Ni  Ni23  1  0.780685  0.219315  0.113624  1
  Ni  Ni24  1  0.212473  0.787527  0.877346  1
  Ni  Ni25  1  0.970228  0.029772  0.573108  1
  Ni  Ni26  1  0.433832  0.566168  0.349897  1
