# generated using pymatgen
data_Rb2Ag(AsSe2)3
_symmetry_space_group_name_H-M   'P 1'
_cell_length_a   13.08547029
_cell_length_b   8.03455123
_cell_length_c   18.60393675
_cell_angle_alpha   90.00000000
_cell_angle_beta   127.61726458
_cell_angle_gamma   90.00000000
_symmetry_Int_Tables_number   1
_chemical_formula_structural   Rb2Ag(AsSe2)3
_chemical_formula_sum   'Rb8 Ag4 As12 Se24'
_cell_volume   1549.31235350
_cell_formula_units_Z   4
loop_
 _symmetry_equiv_pos_site_id
 _symmetry_equiv_pos_as_xyz
  1  'x, y, z'
loop_
 _atom_site_type_symbol
 _atom_site_label
 _atom_site_symmetry_multiplicity
 _atom_site_fract_x
 _atom_site_fract_y
 _atom_site_fract_z
 _atom_site_occupancy
  Rb  Rb0  1  0.585371  0.899080  0.236742  1
  Rb  Rb1  1  0.414629  0.399080  0.263258  1
  Rb  Rb2  1  0.414629  0.100920  0.763258  1
  Rb  Rb3  1  0.585371  0.600920  0.736742  1
  Rb  Rb4  1  0.780884  0.371858  0.610657  1
  Rb  Rb5  1  0.219116  0.871858  0.889343  1
  Rb  Rb6  1  0.219116  0.628142  0.389343  1
  Rb  Rb7  1  0.780884  0.128142  0.110657  1
  Ag  Ag8  1  0.527626  0.993213  0.426967  1
  Ag  Ag9  1  0.472374  0.493213  0.073033  1
  Ag  Ag10  1  0.472374  0.006787  0.573033  1
  Ag  Ag11  1  0.527626  0.506787  0.926967  1
  As  As12  1  0.221769  0.089815  0.348078  1
  As  As13  1  0.778231  0.589815  0.151922  1
  As  As14  1  0.778231  0.910185  0.651922  1
  As  As15  1  0.221769  0.410185  0.848078  1
  As  As16  1  0.166096  0.958419  0.137218  1
  As  As17  1  0.833904  0.458419  0.362782  1
  As  As18  1  0.833904  0.041581  0.862782  1
  As  As19  1  0.166096  0.541581  0.637218  1
  As  As20  1  0.115382  0.332485  0.993834  1
  As  As21  1  0.884618  0.832485  0.506166  1
  As  As22  1  0.884618  0.667515  0.006166  1
  As  As23  1  0.115382  0.167515  0.493834  1
  Se  Se24  1  0.052046  0.238649  0.342212  1
  Se  Se25  1  0.947954  0.738649  0.157788  1
  Se  Se26  1  0.947954  0.761351  0.657788  1
  Se  Se27  1  0.052046  0.261351  0.842212  1
  Se  Se28  1  0.587982  0.742475  0.553739  1
  Se  Se29  1  0.412018  0.242475  0.946261  1
  Se  Se30  1  0.412018  0.257525  0.446261  1
  Se  Se31  1  0.587982  0.757525  0.053739  1
  Se  Se32  1  0.119312  0.204752  0.195471  1
  Se  Se33  1  0.880688  0.704752  0.304529  1
  Se  Se34  1  0.880688  0.795248  0.804529  1
  Se  Se35  1  0.119312  0.295248  0.695471  1
  Se  Se36  1  0.344824  0.830098  0.270927  1
  Se  Se37  1  0.655176  0.330098  0.229073  1
  Se  Se38  1  0.655176  0.169902  0.729073  1
  Se  Se39  1  0.344824  0.669902  0.770927  1
  Se  Se40  1  0.275908  0.106022  0.084371  1
  Se  Se41  1  0.724092  0.606022  0.415629  1
  Se  Se42  1  0.724092  0.893978  0.915629  1
  Se  Se43  1  0.275908  0.393978  0.584371  1
  Se  Se44  1  0.750983  0.069068  0.459918  1
  Se  Se45  1  0.249017  0.569068  0.040082  1
  Se  Se46  1  0.249017  0.930932  0.540082  1
  Se  Se47  1  0.750983  0.430932  0.959918  1
