# generated using pymatgen
data_K2BiMoPO8
_symmetry_space_group_name_H-M   'P 1'
_cell_length_a   12.35450828
_cell_length_b   12.35450828
_cell_length_c   12.35450828
_cell_angle_alpha   146.36388561
_cell_angle_beta   118.75539478
_cell_angle_gamma   71.72105259
_symmetry_Int_Tables_number   1
_chemical_formula_structural   K2BiMoPO8
_chemical_formula_sum   'K8 Bi4 Mo4 P4 O32'
_cell_volume   900.94381190
_cell_formula_units_Z   4
loop_
 _symmetry_equiv_pos_site_id
 _symmetry_equiv_pos_as_xyz
  1  'x, y, z'
loop_
 _atom_site_type_symbol
 _atom_site_label
 _atom_site_symmetry_multiplicity
 _atom_site_fract_x
 _atom_site_fract_y
 _atom_site_fract_z
 _atom_site_occupancy
  K  K0  1  0.234752  0.688322  0.111940  1
  K  K1  1  0.076382  0.188322  0.453570  1
  K  K2  1  0.423618  0.377189  0.611940  1
  K  K3  1  0.765248  0.311678  0.888060  1
  K  K4  1  0.576382  0.622811  0.388060  1
  K  K5  1  0.265248  0.877189  0.953570  1
  K  K6  1  0.923618  0.811678  0.546430  1
  K  K7  1  0.734752  0.122811  0.046430  1
  Bi  Bi8  1  0.670337  0.250000  0.420337  1
  Bi  Bi9  1  0.829663  0.750000  0.079663  1
  Bi  Bi10  1  0.329663  0.750000  0.579663  1
  Bi  Bi11  1  0.170337  0.250000  0.920337  1
  Mo  Mo12  1  0.917922  0.667922  0.750000  1
  Mo  Mo13  1  0.582078  0.832078  0.250000  1
  Mo  Mo14  1  0.082078  0.332078  0.250000  1
  Mo  Mo15  1  0.417922  0.167922  0.750000  1
  P  P16  1  0.572949  0.750000  0.822949  1
  P  P17  1  0.427051  0.250000  0.177051  1
  P  P18  1  0.072949  0.750000  0.322949  1
  P  P19  1  0.927051  0.250000  0.677051  1
  O  O20  1  0.662083  0.929276  0.068893  1
  O  O21  1  0.665783  0.679760  0.079712  1
  O  O22  1  0.360383  0.429276  0.267194  1
  O  O23  1  0.337917  0.070724  0.931107  1
  O  O24  1  0.061780  0.338160  0.776778  1
  O  O25  1  0.639617  0.570724  0.732806  1
  O  O26  1  0.139617  0.906810  0.568893  1
  O  O27  1  0.061382  0.838160  0.276380  1
  O  O28  1  0.600048  0.086071  0.420288  1
  O  O29  1  0.080231  0.658438  0.802226  1
  O  O30  1  0.643788  0.841562  0.421793  1
  O  O31  1  0.356212  0.158438  0.578207  1
  O  O32  1  0.834217  0.413929  0.513977  1
  O  O33  1  0.837917  0.406810  0.767194  1
  O  O34  1  0.143788  0.221995  0.302226  1
  O  O35  1  0.561780  0.285001  0.223620  1
  O  O36  1  0.438220  0.714999  0.776380  1
  O  O37  1  0.419769  0.721995  0.078207  1
  O  O38  1  0.399952  0.913929  0.579712  1
  O  O39  1  0.100048  0.179760  0.013977  1
  O  O40  1  0.938618  0.161840  0.723620  1
  O  O41  1  0.919769  0.341562  0.197774  1
  O  O42  1  0.899952  0.820240  0.986023  1
  O  O43  1  0.938220  0.661840  0.223222  1
  O  O44  1  0.165783  0.586071  0.486023  1
  O  O45  1  0.856212  0.778005  0.697774  1
  O  O46  1  0.438618  0.214999  0.276778  1
  O  O47  1  0.580231  0.278005  0.921793  1
  O  O48  1  0.334217  0.320240  0.920288  1
  O  O49  1  0.860383  0.093190  0.431107  1
  O  O50  1  0.561382  0.785001  0.723222  1
  O  O51  1  0.162083  0.593190  0.232806  1
