# generated using pymatgen
data_La2CO5
_symmetry_space_group_name_H-M   'P 1'
_cell_length_a   7.09683564
_cell_length_b   7.09683564
_cell_length_c   16.53432051
_cell_angle_alpha   77.68009296
_cell_angle_beta   102.31990704
_cell_angle_gamma   119.87386427
_symmetry_Int_Tables_number   1
_chemical_formula_structural   La2CO5
_chemical_formula_sum   'La12 C6 O30'
_cell_volume   699.81113003
_cell_formula_units_Z   6
loop_
 _symmetry_equiv_pos_site_id
 _symmetry_equiv_pos_as_xyz
  1  'x, y, z'
loop_
 _atom_site_type_symbol
 _atom_site_label
 _atom_site_symmetry_multiplicity
 _atom_site_fract_x
 _atom_site_fract_y
 _atom_site_fract_z
 _atom_site_occupancy
  La  La0  1  0.036622  0.141060  0.594066  1
  La  La1  1  0.201020  0.634268  0.094384  1
  La  La2  1  0.141060  0.036622  0.905934  1
  La  La3  1  0.963378  0.858940  0.405934  1
  La  La4  1  0.798980  0.365732  0.905616  1
  La  La5  1  0.695194  0.468803  0.596355  1
  La  La6  1  0.531197  0.304806  0.096355  1
  La  La7  1  0.634268  0.201020  0.405616  1
  La  La8  1  0.304806  0.531197  0.403645  1
  La  La9  1  0.468803  0.695194  0.903645  1
  La  La10  1  0.365732  0.798980  0.594384  1
  La  La11  1  0.858940  0.963378  0.094066  1
  C  C12  1  0.809443  0.809443  0.750000  1
  C  C13  1  0.030345  0.415185  0.750316  1
  C  C14  1  0.190557  0.190557  0.250000  1
  C  C15  1  0.584815  0.969655  0.250316  1
  C  C16  1  0.415185  0.030345  0.749684  1
  C  C17  1  0.969655  0.584815  0.249684  1
  O  O18  1  0.978793  0.184471  0.441452  1
  O  O19  1  0.409078  0.845660  0.749172  1
  O  O20  1  0.143781  0.394378  0.821280  1
  O  O21  1  0.021207  0.815529  0.558548  1
  O  O22  1  0.815529  0.021207  0.941452  1
  O  O23  1  0.697680  0.745452  0.678895  1
  O  O24  1  0.686649  0.146329  0.558515  1
  O  O25  1  0.009085  0.009085  0.250000  1
  O  O26  1  0.184471  0.978793  0.058548  1
  O  O27  1  0.558080  0.904911  0.178994  1
  O  O28  1  0.856219  0.605622  0.178720  1
  O  O29  1  0.095089  0.441920  0.678994  1
  O  O30  1  0.516029  0.649586  0.052471  1
  O  O31  1  0.649586  0.516029  0.447529  1
  O  O32  1  0.302320  0.254548  0.321105  1
  O  O33  1  0.853671  0.313351  0.058515  1
  O  O34  1  0.350414  0.483971  0.552471  1
  O  O35  1  0.313351  0.853671  0.441485  1
  O  O36  1  0.146329  0.686649  0.941485  1
  O  O37  1  0.845660  0.409078  0.750828  1
  O  O38  1  0.990915  0.990915  0.750000  1
  O  O39  1  0.745452  0.697680  0.821105  1
  O  O40  1  0.154340  0.590922  0.249172  1
  O  O41  1  0.483971  0.350414  0.947529  1
  O  O42  1  0.590922  0.154340  0.250828  1
  O  O43  1  0.904911  0.558080  0.321006  1
  O  O44  1  0.605622  0.856219  0.321280  1
  O  O45  1  0.254548  0.302320  0.178895  1
  O  O46  1  0.394378  0.143781  0.678720  1
  O  O47  1  0.441920  0.095089  0.821006  1
