# generated using pymatgen
data_Li2Co(PO4)2
_symmetry_space_group_name_H-M   'P 1'
_cell_length_a   8.29255757
_cell_length_b   8.40761485
_cell_length_c   10.58805158
_cell_angle_alpha   90.15119622
_cell_angle_beta   90.24013949
_cell_angle_gamma   103.72633746
_symmetry_Int_Tables_number   1
_chemical_formula_structural   Li2Co(PO4)2
_chemical_formula_sum   'Li8 Co4 P8 O32'
_cell_volume   717.11127015
_cell_formula_units_Z   4
loop_
 _symmetry_equiv_pos_site_id
 _symmetry_equiv_pos_as_xyz
  1  'x, y, z'
loop_
 _atom_site_type_symbol
 _atom_site_label
 _atom_site_symmetry_multiplicity
 _atom_site_fract_x
 _atom_site_fract_y
 _atom_site_fract_z
 _atom_site_occupancy
  Li  Li0  1  0.439182  0.223107  0.565935  1
  Li  Li1  1  0.445388  0.717459  0.939242  1
  Li  Li2  1  0.385270  0.900750  0.669720  1
  Li  Li3  1  0.636367  0.171431  0.852140  1
  Li  Li4  1  0.620350  0.587229  0.171312  1
  Li  Li5  1  0.607070  0.104553  0.323030  1
  Li  Li6  1  0.551867  0.781364  0.431686  1
  Li  Li7  1  0.380008  0.403916  0.830451  1
  Co  Co8  1  0.906008  0.920376  0.832289  1
  Co  Co9  1  0.088194  0.576447  0.339204  1
  Co  Co10  1  0.904162  0.426579  0.665632  1
  Co  Co11  1  0.109937  0.077743  0.159451  1
  P  P12  1  0.715015  0.470412  0.418270  1
  P  P13  1  0.749626  0.059048  0.597884  1
  P  P14  1  0.280744  0.530719  0.584063  1
  P  P15  1  0.250529  0.944659  0.404829  1
  P  P16  1  0.751931  0.551226  0.904213  1
  P  P17  1  0.243657  0.450290  0.098033  1
  P  P18  1  0.290245  0.028723  0.909393  1
  P  P19  1  0.727367  0.963752  0.080764  1
  O  O20  1  0.180959  0.068614  0.319719  1
  O  O21  1  0.119673  0.540329  0.663847  1
  O  O22  1  0.896132  0.708340  0.876341  1
  O  O23  1  0.718972  0.997451  0.464113  1
  O  O24  1  0.402965  0.435587  0.162552  1
  O  O25  1  0.265100  0.511784  0.963051  1
  O  O26  1  0.594713  0.303101  0.423239  1
  O  O27  1  0.106955  0.781502  0.400069  1
  O  O28  1  0.894622  0.222021  0.605464  1
  O  O29  1  0.587648  0.576736  0.855038  1
  O  O30  1  0.353556  0.886412  0.856496  1
  O  O31  1  0.407232  0.914951  0.345319  1
  O  O32  1  0.214695  0.481021  0.445875  1
  O  O33  1  0.119899  0.036148  0.843382  1
  O  O34  1  0.873886  0.454084  0.341611  1
  O  O35  1  0.609048  0.795233  0.082193  1
  O  O36  1  0.397573  0.700012  0.582641  1
  O  O37  1  0.272780  0.012571  0.538426  1
  O  O38  1  0.819310  0.929558  0.675914  1
  O  O39  1  0.350902  0.396301  0.642002  1
  O  O40  1  0.410858  0.193813  0.888868  1
  O  O41  1  0.648661  0.608125  0.362225  1
  O  O42  1  0.167518  0.572142  0.179890  1
  O  O43  1  0.109472  0.281510  0.103010  1
  O  O44  1  0.669001  0.099419  0.145909  1
  O  O45  1  0.247514  0.998368  0.053389  1
  O  O46  1  0.800773  0.409363  0.821692  1
  O  O47  1  0.780992  0.519808  0.558307  1
  O  O48  1  0.599357  0.091781  0.668635  1
  O  O49  1  0.767347  0.013599  0.935532  1
  O  O50  1  0.899337  0.950220  0.140371  1
  O  O51  1  0.757894  0.507727  0.042125  1
