# generated using pymatgen
data_Cr6Si7Ni16
_symmetry_space_group_name_H-M   'P 1'
_cell_length_a   7.81529753
_cell_length_b   7.81529753
_cell_length_c   7.81529753
_cell_angle_alpha   60.00000000
_cell_angle_beta   60.00000000
_cell_angle_gamma   60.00000000
_symmetry_Int_Tables_number   1
_chemical_formula_structural   Cr6Si7Ni16
_chemical_formula_sum   'Cr6 Si7 Ni16'
_cell_volume   337.53712817
_cell_formula_units_Z   1
loop_
 _symmetry_equiv_pos_site_id
 _symmetry_equiv_pos_as_xyz
  1  'x, y, z'
loop_
 _atom_site_type_symbol
 _atom_site_label
 _atom_site_symmetry_multiplicity
 _atom_site_fract_x
 _atom_site_fract_y
 _atom_site_fract_z
 _atom_site_occupancy
  Cr  Cr0  1  0.811972  0.188028  0.188028  1
  Cr  Cr1  1  0.188028  0.811972  0.188028  1
  Cr  Cr2  1  0.811972  0.188028  0.811972  1
  Cr  Cr3  1  0.811972  0.811972  0.188028  1
  Cr  Cr4  1  0.188028  0.188028  0.811972  1
  Cr  Cr5  1  0.188028  0.811972  0.811972  1
  Si  Si6  1  0.500000  0.500000  0.500000  1
  Si  Si7  1  1.000000  0.500000  0.500000  1
  Si  Si8  1  1.000000  0.500000  1.000000  1
  Si  Si9  1  0.500000  0.000000  0.500000  1
  Si  Si10  1  0.500000  0.000000  1.000000  1
  Si  Si11  1  0.500000  0.500000  1.000000  1
  Si  Si12  1  1.000000  0.000000  0.500000  1
  Ni  Ni13  1  0.834392  0.496824  0.834392  1
  Ni  Ni14  1  0.165608  0.165608  0.165608  1
  Ni  Ni15  1  0.165608  0.165608  0.503176  1
  Ni  Ni16  1  0.503176  0.165608  0.165608  1
  Ni  Ni17  1  0.834392  0.834392  0.496824  1
  Ni  Ni18  1  0.496824  0.834392  0.834392  1
  Ni  Ni19  1  0.834392  0.834392  0.834392  1
  Ni  Ni20  1  0.165608  0.503176  0.165608  1
  Ni  Ni21  1  0.617550  0.147351  0.617550  1
  Ni  Ni22  1  0.382450  0.382450  0.382450  1
  Ni  Ni23  1  0.382450  0.382450  0.852649  1
  Ni  Ni24  1  0.852649  0.382450  0.382450  1
  Ni  Ni25  1  0.617550  0.617550  0.147351  1
  Ni  Ni26  1  0.147351  0.617550  0.617550  1
  Ni  Ni27  1  0.617550  0.617550  0.617550  1
  Ni  Ni28  1  0.382450  0.852649  0.382450  1
