# generated using pymatgen
data_RbCuSnS3
_symmetry_space_group_name_H-M   'P 1'
_cell_length_a   7.91273263
_cell_length_b   7.91273263
_cell_length_c   20.48957444
_cell_angle_alpha   84.44870013
_cell_angle_beta   95.55129987
_cell_angle_gamma   89.98900017
_symmetry_Int_Tables_number   1
_chemical_formula_structural   RbCuSnS3
_chemical_formula_sum   'Rb8 Cu8 Sn8 S24'
_cell_volume   1270.81537380
_cell_formula_units_Z   8
loop_
 _symmetry_equiv_pos_site_id
 _symmetry_equiv_pos_as_xyz
  1  'x, y, z'
loop_
 _atom_site_type_symbol
 _atom_site_label
 _atom_site_symmetry_multiplicity
 _atom_site_fract_x
 _atom_site_fract_y
 _atom_site_fract_z
 _atom_site_occupancy
  Rb  Rb0  1  0.272348  0.601988  0.089994  1
  Rb  Rb1  1  0.601988  0.272348  0.410006  1
  Rb  Rb2  1  0.727652  0.398012  0.910006  1
  Rb  Rb3  1  0.398012  0.727652  0.589994  1
  Rb  Rb4  1  0.727403  0.896874  0.910247  1
  Rb  Rb5  1  0.896874  0.727403  0.589753  1
  Rb  Rb6  1  0.272597  0.103126  0.089753  1
  Rb  Rb7  1  0.103126  0.272597  0.410247  1
  Cu  Cu8  1  0.563786  0.563786  0.250000  1
  Cu  Cu9  1  0.436214  0.436214  0.750000  1
  Cu  Cu10  1  0.059933  0.562150  0.250070  1
  Cu  Cu11  1  0.562150  0.059933  0.249930  1
  Cu  Cu12  1  0.940067  0.437850  0.749930  1
  Cu  Cu13  1  0.437850  0.940067  0.750070  1
  Cu  Cu14  1  0.062521  0.062521  0.250000  1
  Cu  Cu15  1  0.937479  0.937479  0.750000  1
  Sn  Sn16  1  0.782621  0.842847  0.128742  1
  Sn  Sn17  1  0.842847  0.782621  0.371258  1
  Sn  Sn18  1  0.217379  0.157153  0.871258  1
  Sn  Sn19  1  0.157153  0.217379  0.628742  1
  Sn  Sn20  1  0.781927  0.342668  0.129378  1
  Sn  Sn21  1  0.342668  0.781927  0.370622  1
  Sn  Sn22  1  0.218073  0.657332  0.870622  1
  Sn  Sn23  1  0.657332  0.218073  0.629378  1
  S  S24  1  0.058474  0.327657  0.189251  1
  S  S25  1  0.327657  0.058474  0.310749  1
  S  S26  1  0.941526  0.672343  0.810749  1
  S  S27  1  0.672343  0.941526  0.689251  1
  S  S28  1  0.536539  0.327258  0.189803  1
  S  S29  1  0.327258  0.536539  0.310197  1
  S  S30  1  0.463461  0.672742  0.810197  1
  S  S31  1  0.672742  0.463461  0.689803  1
  S  S32  1  0.058690  0.827957  0.187566  1
  S  S33  1  0.827957  0.058690  0.312434  1
  S  S34  1  0.941310  0.172043  0.812434  1
  S  S35  1  0.172043  0.941310  0.687566  1
  S  S36  1  0.534666  0.827836  0.186931  1
  S  S37  1  0.827836  0.534666  0.313069  1
  S  S38  1  0.465334  0.172164  0.813069  1
  S  S39  1  0.172164  0.465334  0.686931  1
  S  S40  1  0.763117  0.610789  0.051922  1
  S  S41  1  0.610789  0.763117  0.448078  1
  S  S42  1  0.236883  0.389211  0.948078  1
  S  S43  1  0.389211  0.236883  0.551922  1
  S  S44  1  0.762781  0.113410  0.051887  1
  S  S45  1  0.113410  0.762781  0.448113  1
  S  S46  1  0.237219  0.886590  0.948113  1
  S  S47  1  0.886590  0.237219  0.551887  1
