# generated using pymatgen
data_Ce6P17Pd6
_symmetry_space_group_name_H-M   'P 1'
_cell_length_a   8.93858454
_cell_length_b   8.93858454
_cell_length_c   8.93858454
_cell_angle_alpha   109.47122063
_cell_angle_beta   109.47122063
_cell_angle_gamma   109.47122063
_symmetry_Int_Tables_number   1
_chemical_formula_structural   Ce6P17Pd6
_chemical_formula_sum   'Ce6 P17 Pd6'
_cell_volume   549.77421307
_cell_formula_units_Z   1
loop_
 _symmetry_equiv_pos_site_id
 _symmetry_equiv_pos_as_xyz
  1  'x, y, z'
loop_
 _atom_site_type_symbol
 _atom_site_label
 _atom_site_symmetry_multiplicity
 _atom_site_fract_x
 _atom_site_fract_y
 _atom_site_fract_z
 _atom_site_occupancy
  Ce  Ce0  1  1.000000  0.283157  0.283157  1
  Ce  Ce1  1  0.716843  1.000000  0.716843  1
  Ce  Ce2  1  0.283157  1.000000  0.283157  1
  Ce  Ce3  1  0.283157  0.283157  0.000000  1
  Ce  Ce4  1  0.716843  0.716843  0.000000  1
  Ce  Ce5  1  1.000000  0.716843  0.716843  1
  P  P6  1  0.639397  0.639397  0.425635  1
  P  P7  1  0.360603  0.786238  0.000000  1
  P  P8  1  0.786238  0.360603  0.000000  1
  P  P9  1  1.000000  0.786238  0.360603  1
  P  P10  1  0.574365  0.213762  0.213762  1
  P  P11  1  0.213762  0.574365  0.213762  1
  P  P12  1  0.786238  1.000000  0.360603  1
  P  P13  1  0.360603  1.000000  0.786238  1
  P  P14  1  1.000000  0.360603  0.786238  1
  P  P15  1  0.425635  0.639397  0.639397  1
  P  P16  1  0.639397  0.425635  0.639397  1
  P  P17  1  0.213762  0.213762  0.574365  1
  P  P18  1  0.422397  0.422397  0.422397  1
  P  P19  1  0.577603  1.000000  0.000000  1
  P  P20  1  1.000000  0.577603  0.000000  1
  P  P21  1  1.000000  0.000000  0.577603  1
  P  P22  1  1.000000  1.000000  0.000000  1
  Pd  Pd23  1  0.500000  0.250000  0.750000  1
  Pd  Pd24  1  0.750000  0.500000  0.250000  1
  Pd  Pd25  1  0.250000  0.500000  0.750000  1
  Pd  Pd26  1  0.750000  0.250000  0.500000  1
  Pd  Pd27  1  0.250000  0.750000  0.500000  1
  Pd  Pd28  1  0.500000  0.750000  0.250000  1
