# generated using pymatgen
data_YbTaO4
_symmetry_space_group_name_H-M   'P 1'
_cell_length_a   6.53750555
_cell_length_b   6.53750555
_cell_length_c   5.10378957
_cell_angle_alpha   68.98218984
_cell_angle_beta   111.01781016
_cell_angle_gamma   66.75421668
_symmetry_Int_Tables_number   1
_chemical_formula_structural   YbTaO4
_chemical_formula_sum   'Yb2 Ta2 O8'
_cell_volume   151.97632932
_cell_formula_units_Z   2
loop_
 _symmetry_equiv_pos_site_id
 _symmetry_equiv_pos_as_xyz
  1  'x, y, z'
loop_
 _atom_site_type_symbol
 _atom_site_label
 _atom_site_symmetry_multiplicity
 _atom_site_fract_x
 _atom_site_fract_y
 _atom_site_fract_z
 _atom_site_occupancy
  Yb  Yb0  1  0.869930  0.869930  0.750000  1
  Yb  Yb1  1  0.130070  0.130070  0.250000  1
  Ta  Ta2  1  0.397299  0.397299  0.750000  1
  Ta  Ta3  1  0.602701  0.602701  0.250000  1
  O  O4  1  0.762353  0.294222  0.703177  1
  O  O5  1  0.449621  0.124156  0.674253  1
  O  O6  1  0.237647  0.705778  0.296823  1
  O  O7  1  0.124156  0.449621  0.825747  1
  O  O8  1  0.875844  0.550379  0.174253  1
  O  O9  1  0.705778  0.237647  0.203177  1
  O  O10  1  0.550379  0.875844  0.325747  1
  O  O11  1  0.294222  0.762353  0.796823  1
