# generated using pymatgen
data_Tb4Mg3Co2
_symmetry_space_group_name_H-M   'P 1'
_cell_length_a   7.47375753
_cell_length_b   3.74624235
_cell_length_c   8.17571580
_cell_angle_alpha   90.00000000
_cell_angle_beta   109.76610180
_cell_angle_gamma   90.00000000
_symmetry_Int_Tables_number   1
_chemical_formula_structural   Tb4Mg3Co2
_chemical_formula_sum   'Tb4 Mg3 Co2'
_cell_volume   215.42081801
_cell_formula_units_Z   1
loop_
 _symmetry_equiv_pos_site_id
 _symmetry_equiv_pos_as_xyz
  1  'x, y, z'
loop_
 _atom_site_type_symbol
 _atom_site_label
 _atom_site_symmetry_multiplicity
 _atom_site_fract_x
 _atom_site_fract_y
 _atom_site_fract_z
 _atom_site_occupancy
  Tb  Tb0  1  0.601509  0.500000  0.821268  1
  Tb  Tb1  1  0.398491  0.500000  0.178732  1
  Tb  Tb2  1  0.097191  0.500000  0.727717  1
  Tb  Tb3  1  0.902809  0.500000  0.272283  1
  Mg  Mg4  1  0.708412  0.000000  0.498003  1
  Mg  Mg5  1  0.000000  0.000000  0.000000  1
  Mg  Mg6  1  0.291588  0.000000  0.501997  1
  Co  Co7  1  0.649012  0.000000  0.106709  1
  Co  Co8  1  0.350988  0.000000  0.893291  1
