# generated using pymatgen
data_Rb3PO4
_symmetry_space_group_name_H-M   'P 1'
_cell_length_a   6.26599967
_cell_length_b   8.57574029
_cell_length_c   11.88276347
_cell_angle_alpha   90.00000000
_cell_angle_beta   90.00000000
_cell_angle_gamma   90.00000000
_symmetry_Int_Tables_number   1
_chemical_formula_structural   Rb3PO4
_chemical_formula_sum   'Rb12 P4 O16'
_cell_volume   638.52725631
_cell_formula_units_Z   4
loop_
 _symmetry_equiv_pos_site_id
 _symmetry_equiv_pos_as_xyz
  1  'x, y, z'
loop_
 _atom_site_type_symbol
 _atom_site_label
 _atom_site_symmetry_multiplicity
 _atom_site_fract_x
 _atom_site_fract_y
 _atom_site_fract_z
 _atom_site_occupancy
  Rb  Rb0  1  0.139796  0.250000  0.073369  1
  Rb  Rb1  1  0.691121  0.492338  0.143854  1
  Rb  Rb2  1  0.860204  0.750000  0.926631  1
  Rb  Rb3  1  0.191121  0.507662  0.356146  1
  Rb  Rb4  1  0.691121  0.007662  0.143854  1
  Rb  Rb5  1  0.191121  0.992338  0.356146  1
  Rb  Rb6  1  0.639796  0.750000  0.426631  1
  Rb  Rb7  1  0.308879  0.992338  0.856146  1
  Rb  Rb8  1  0.308879  0.507662  0.856146  1
  Rb  Rb9  1  0.808879  0.007662  0.643854  1
  Rb  Rb10  1  0.808879  0.492338  0.643854  1
  Rb  Rb11  1  0.360204  0.250000  0.573369  1
  P  P12  1  0.778332  0.250000  0.385023  1
  P  P13  1  0.278332  0.750000  0.114977  1
  P  P14  1  0.221668  0.750000  0.614977  1
  P  P15  1  0.721668  0.250000  0.885023  1
  O  O16  1  0.363579  0.599954  0.609307  1
  O  O17  1  0.410151  0.750000  0.227430  1
  O  O18  1  0.863579  0.400046  0.890693  1
  O  O19  1  0.136421  0.900046  0.109307  1
  O  O20  1  0.863579  0.099954  0.890693  1
  O  O21  1  0.560007  0.250000  0.986373  1
  O  O22  1  0.060007  0.750000  0.513627  1
  O  O23  1  0.939993  0.250000  0.486373  1
  O  O24  1  0.636421  0.099954  0.390693  1
  O  O25  1  0.363579  0.900046  0.609307  1
  O  O26  1  0.439993  0.750000  0.013627  1
  O  O27  1  0.636421  0.400046  0.390693  1
  O  O28  1  0.089849  0.750000  0.727430  1
  O  O29  1  0.910151  0.250000  0.272570  1
  O  O30  1  0.589849  0.250000  0.772570  1
  O  O31  1  0.136421  0.599954  0.109307  1
