# generated using pymatgen
data_BaTeO3
_symmetry_space_group_name_H-M   'P 1'
_cell_length_a   6.23690478
_cell_length_b   12.51636027
_cell_length_c   15.19278196
_cell_angle_alpha   90.00000000
_cell_angle_beta   90.00000000
_cell_angle_gamma   90.00000000
_symmetry_Int_Tables_number   1
_chemical_formula_structural   BaTeO3
_chemical_formula_sum   'Ba12 Te12 O36'
_cell_volume   1185.99941302
_cell_formula_units_Z   12
loop_
 _symmetry_equiv_pos_site_id
 _symmetry_equiv_pos_as_xyz
  1  'x, y, z'
loop_
 _atom_site_type_symbol
 _atom_site_label
 _atom_site_symmetry_multiplicity
 _atom_site_fract_x
 _atom_site_fract_y
 _atom_site_fract_z
 _atom_site_occupancy
  Ba  Ba0  1  0.250000  0.857947  0.193748  1
  Ba  Ba1  1  0.250000  0.872431  0.484357  1
  Ba  Ba2  1  0.750000  0.142053  0.806252  1
  Ba  Ba3  1  0.750000  0.127569  0.515643  1
  Ba  Ba4  1  0.750000  0.357947  0.306252  1
  Ba  Ba5  1  0.750000  0.372431  0.015643  1
  Ba  Ba6  1  0.250000  0.136383  0.004957  1
  Ba  Ba7  1  0.750000  0.636383  0.495043  1
  Ba  Ba8  1  0.250000  0.363617  0.504957  1
  Ba  Ba9  1  0.250000  0.642053  0.693748  1
  Ba  Ba10  1  0.250000  0.627569  0.984357  1
  Ba  Ba11  1  0.750000  0.863617  0.995043  1
  Te  Te12  1  0.250000  0.385269  0.161587  1
  Te  Te13  1  0.250000  0.347600  0.815485  1
  Te  Te14  1  0.750000  0.402787  0.637861  1
  Te  Te15  1  0.750000  0.614731  0.838413  1
  Te  Te16  1  0.250000  0.597213  0.362139  1
  Te  Te17  1  0.250000  0.902787  0.862139  1
  Te  Te18  1  0.250000  0.114731  0.661587  1
  Te  Te19  1  0.750000  0.885269  0.338413  1
  Te  Te20  1  0.750000  0.097213  0.137861  1
  Te  Te21  1  0.750000  0.652400  0.184515  1
  Te  Te22  1  0.250000  0.152400  0.315485  1
  Te  Te23  1  0.750000  0.847600  0.684515  1
  O  O24  1  0.250000  0.845464  0.976978  1
  O  O25  1  0.523123  0.712277  0.116403  1
  O  O26  1  0.020188  0.500213  0.382889  1
  O  O27  1  0.023123  0.212277  0.383597  1
  O  O28  1  0.250000  0.426304  0.043363  1
  O  O29  1  0.250000  0.073696  0.543363  1
  O  O30  1  0.750000  0.345464  0.523022  1
  O  O31  1  0.479812  0.500213  0.382889  1
  O  O32  1  0.750000  0.154536  0.023022  1
  O  O33  1  0.976877  0.712277  0.116403  1
  O  O34  1  0.250000  0.494967  0.842095  1
  O  O35  1  0.750000  0.994967  0.657905  1
  O  O36  1  0.482222  0.287598  0.156912  1
  O  O37  1  0.520188  0.000213  0.117111  1
  O  O38  1  0.982222  0.787598  0.343088  1
  O  O39  1  0.523123  0.787723  0.616403  1
  O  O40  1  0.979812  0.499787  0.617111  1
  O  O41  1  0.750000  0.573696  0.956637  1
  O  O42  1  0.476877  0.287723  0.883597  1
  O  O43  1  0.250000  0.654536  0.476978  1
  O  O44  1  0.982222  0.712402  0.843088  1
  O  O45  1  0.020188  0.999787  0.882889  1
  O  O46  1  0.520188  0.499787  0.617111  1
  O  O47  1  0.482222  0.212402  0.656912  1
  O  O48  1  0.476877  0.212277  0.383597  1
  O  O49  1  0.023123  0.287723  0.883597  1
  O  O50  1  0.750000  0.926304  0.456637  1
  O  O51  1  0.017778  0.212402  0.656912  1
  O  O52  1  0.750000  0.505033  0.157905  1
  O  O53  1  0.250000  0.005033  0.342095  1
  O  O54  1  0.517778  0.712402  0.843088  1
  O  O55  1  0.017778  0.287598  0.156912  1
  O  O56  1  0.479812  0.999787  0.882889  1
  O  O57  1  0.517778  0.787598  0.343088  1
  O  O58  1  0.976877  0.787723  0.616403  1
  O  O59  1  0.979812  0.000213  0.117111  1
