# generated using pymatgen
data_Sr2LiCBr3N2
_symmetry_space_group_name_H-M   'P 1'
_cell_length_a   10.43850992
_cell_length_b   10.43850992
_cell_length_c   10.43850992
_cell_angle_alpha   60.00000000
_cell_angle_beta   60.00000000
_cell_angle_gamma   60.00000000
_symmetry_Int_Tables_number   1
_chemical_formula_structural   Sr2LiCBr3N2
_chemical_formula_sum   'Sr8 Li4 C4 Br12 N8'
_cell_volume   804.26751505
_cell_formula_units_Z   4
loop_
 _symmetry_equiv_pos_site_id
 _symmetry_equiv_pos_as_xyz
  1  'x, y, z'
loop_
 _atom_site_type_symbol
 _atom_site_label
 _atom_site_symmetry_multiplicity
 _atom_site_fract_x
 _atom_site_fract_y
 _atom_site_fract_z
 _atom_site_occupancy
  Sr  Sr0  1  0.403614  0.403614  0.789159  1
  Sr  Sr1  1  0.846386  0.846386  0.460841  1
  Sr  Sr2  1  0.460841  0.846386  0.846386  1
  Sr  Sr3  1  0.403614  0.403614  0.403614  1
  Sr  Sr4  1  0.846386  0.846386  0.846386  1
  Sr  Sr5  1  0.846386  0.460841  0.846386  1
  Sr  Sr6  1  0.789159  0.403614  0.403614  1
  Sr  Sr7  1  0.403614  0.789159  0.403614  1
  Li  Li8  1  0.625000  0.125000  0.125000  1
  Li  Li9  1  0.125000  0.125000  0.125000  1
  Li  Li10  1  0.125000  0.125000  0.625000  1
  Li  Li11  1  0.125000  0.625000  0.125000  1
  C  C12  1  0.625000  0.625000  0.125000  1
  C  C13  1  0.625000  0.125000  0.625000  1
  C  C14  1  0.625000  0.625000  0.625000  1
  C  C15  1  0.125000  0.625000  0.625000  1
  Br  Br16  1  0.054055  0.445945  0.054055  1
  Br  Br17  1  0.804055  0.195945  0.804055  1
  Br  Br18  1  0.445945  0.054055  0.445945  1
  Br  Br19  1  0.195945  0.804055  0.804055  1
  Br  Br20  1  0.445945  0.445945  0.054055  1
  Br  Br21  1  0.054055  0.054055  0.445945  1
  Br  Br22  1  0.195945  0.804055  0.195945  1
  Br  Br23  1  0.804055  0.195945  0.195945  1
  Br  Br24  1  0.195945  0.195945  0.804055  1
  Br  Br25  1  0.054055  0.445945  0.445945  1
  Br  Br26  1  0.804055  0.804055  0.195945  1
  Br  Br27  1  0.445945  0.054055  0.054055  1
  N  N28  1  0.576720  0.576720  0.269840  1
  N  N29  1  0.673280  0.673280  0.673280  1
  N  N30  1  0.673280  0.980160  0.673280  1
  N  N31  1  0.269840  0.576720  0.576720  1
  N  N32  1  0.576720  0.269840  0.576720  1
  N  N33  1  0.673280  0.673280  0.980160  1
  N  N34  1  0.576720  0.576720  0.576720  1
  N  N35  1  0.980160  0.673280  0.673280  1
