# generated using pymatgen
data_YbCu2
_symmetry_space_group_name_H-M   'P 1'
_cell_length_a   5.40212695
_cell_length_b   5.40212695
_cell_length_c   5.40212695
_cell_angle_alpha   133.84217476
_cell_angle_beta   102.18332910
_cell_angle_gamma   95.52530341
_symmetry_Int_Tables_number   1
_chemical_formula_structural   YbCu2
_chemical_formula_sum   'Yb2 Cu4'
_cell_volume   104.36427683
_cell_formula_units_Z   2
loop_
 _symmetry_equiv_pos_site_id
 _symmetry_equiv_pos_as_xyz
  1  'x, y, z'
loop_
 _atom_site_type_symbol
 _atom_site_label
 _atom_site_symmetry_multiplicity
 _atom_site_fract_x
 _atom_site_fract_y
 _atom_site_fract_z
 _atom_site_occupancy
  Yb  Yb0  1  0.793123  0.543123  0.750000  1
  Yb  Yb1  1  0.206877  0.456877  0.250000  1
  Cu  Cu2  1  0.218143  0.162798  0.555345  1
  Cu  Cu3  1  0.781857  0.837202  0.444655  1
  Cu  Cu4  1  0.392547  0.837202  0.055345  1
  Cu  Cu5  1  0.607453  0.162798  0.944655  1
