# generated using pymatgen
data_K3Nb3Ge2O13
_symmetry_space_group_name_H-M   'P 1'
_cell_length_a   9.43365914
_cell_length_b   9.43365914
_cell_length_c   7.93414425
_cell_angle_alpha   90.00000000
_cell_angle_beta   90.00000000
_cell_angle_gamma   120.00000000
_symmetry_Int_Tables_number   1
_chemical_formula_structural   K3Nb3Ge2O13
_chemical_formula_sum   'K6 Nb6 Ge4 O26'
_cell_volume   611.49242865
_cell_formula_units_Z   2
loop_
 _symmetry_equiv_pos_site_id
 _symmetry_equiv_pos_as_xyz
  1  'x, y, z'
loop_
 _atom_site_type_symbol
 _atom_site_label
 _atom_site_symmetry_multiplicity
 _atom_site_fract_x
 _atom_site_fract_y
 _atom_site_fract_z
 _atom_site_occupancy
  K  K0  1  0.600205  0.000000  0.500000  1
  K  K1  1  0.399795  0.399795  0.500000  1
  K  K2  1  0.000000  0.600205  0.500000  1
  K  K3  1  0.614903  0.000000  0.000000  1
  K  K4  1  0.385097  0.385097  0.000000  1
  K  K5  1  0.000000  0.614903  0.000000  1
  Nb  Nb6  1  0.232285  0.000000  0.251293  1
  Nb  Nb7  1  0.767715  0.767715  0.748707  1
  Nb  Nb8  1  0.000000  0.232285  0.748707  1
  Nb  Nb9  1  0.000000  0.232285  0.251293  1
  Nb  Nb10  1  0.767715  0.767715  0.251293  1
  Nb  Nb11  1  0.232285  0.000000  0.748707  1
  Ge  Ge12  1  0.333333  0.666667  0.222822  1
  Ge  Ge13  1  0.333333  0.666667  0.777178  1
  Ge  Ge14  1  0.666667  0.333333  0.777178  1
  Ge  Ge15  1  0.666667  0.333333  0.222822  1
  O  O16  1  0.333333  0.666667  0.000000  1
  O  O17  1  0.666667  0.333333  0.000000  1
  O  O18  1  0.270634  0.000000  0.000000  1
  O  O19  1  0.729366  0.729366  0.000000  1
  O  O20  1  0.000000  0.270634  0.000000  1
  O  O21  1  0.828196  0.000000  0.227816  1
  O  O22  1  0.171804  0.171804  0.772184  1
  O  O23  1  0.000000  0.828196  0.772184  1
  O  O24  1  0.000000  0.828196  0.227816  1
  O  O25  1  0.171804  0.171804  0.227816  1
  O  O26  1  0.828196  0.000000  0.772184  1
  O  O27  1  0.474869  0.177541  0.287463  1
  O  O28  1  0.702672  0.525131  0.712537  1
  O  O29  1  0.822459  0.297328  0.712537  1
  O  O30  1  0.822459  0.297328  0.287463  1
  O  O31  1  0.702672  0.525131  0.287463  1
  O  O32  1  0.297328  0.822459  0.712537  1
  O  O33  1  0.525131  0.702672  0.712537  1
  O  O34  1  0.177541  0.474869  0.712537  1
  O  O35  1  0.474869  0.177541  0.712537  1
  O  O36  1  0.177541  0.474869  0.287463  1
  O  O37  1  0.297328  0.822459  0.287463  1
  O  O38  1  0.525131  0.702672  0.287463  1
  O  O39  1  0.213000  0.000000  0.500000  1
  O  O40  1  0.787000  0.787000  0.500000  1
  O  O41  1  0.000000  0.213000  0.500000  1
