# generated using pymatgen
data_Rb4CuSi2O7
_symmetry_space_group_name_H-M   'P 1'
_cell_length_a   6.38620376
_cell_length_b   7.18218378
_cell_length_c   7.25643073
_cell_angle_alpha   114.31674078
_cell_angle_beta   100.45158030
_cell_angle_gamma   107.80647677
_symmetry_Int_Tables_number   1
_chemical_formula_structural   Rb4CuSi2O7
_chemical_formula_sum   'Rb4 Cu1 Si2 O7'
_cell_volume   270.04945493
_cell_formula_units_Z   1
loop_
 _symmetry_equiv_pos_site_id
 _symmetry_equiv_pos_as_xyz
  1  'x, y, z'
loop_
 _atom_site_type_symbol
 _atom_site_label
 _atom_site_symmetry_multiplicity
 _atom_site_fract_x
 _atom_site_fract_y
 _atom_site_fract_z
 _atom_site_occupancy
  Rb  Rb0  1  0.602065  0.359051  0.719482  1
  Rb  Rb1  1  0.397935  0.640949  0.280518  1
  Rb  Rb2  1  0.708726  0.235930  0.221579  1
  Rb  Rb3  1  0.291274  0.764070  0.778421  1
  Cu  Cu4  1  0.000000  0.000000  0.500000  1
  Si  Si5  1  0.992904  0.856762  0.223691  1
  Si  Si6  1  0.007096  0.143238  0.776309  1
  O  O7  1  0.242001  0.010998  0.229730  1
  O  O8  1  0.248860  0.163728  0.566363  1
  O  O9  1  0.751140  0.836272  0.433637  1
  O  O10  1  0.030241  0.377464  0.763738  1
  O  O11  1  0.969759  0.622536  0.236262  1
  O  O12  1  0.757999  0.989002  0.770270  1
  O  O13  1  0.000000  0.000000  0.000000  1
