# generated using pymatgen
data_Nd4Se3O4
_symmetry_space_group_name_H-M   'P 1'
_cell_length_a   6.82543793
_cell_length_b   6.82543793
_cell_length_c   8.50241797
_cell_angle_alpha   90.00000000
_cell_angle_beta   90.00000000
_cell_angle_gamma   145.63490241
_symmetry_Int_Tables_number   1
_chemical_formula_structural   Nd4Se3O4
_chemical_formula_sum   'Nd4 Se3 O4'
_cell_volume   223.58360328
_cell_formula_units_Z   1
loop_
 _symmetry_equiv_pos_site_id
 _symmetry_equiv_pos_as_xyz
  1  'x, y, z'
loop_
 _atom_site_type_symbol
 _atom_site_label
 _atom_site_symmetry_multiplicity
 _atom_site_fract_x
 _atom_site_fract_y
 _atom_site_fract_z
 _atom_site_occupancy
  Nd  Nd0  1  0.316911  0.683089  0.237014  1
  Nd  Nd1  1  0.316911  0.683089  0.762986  1
  Nd  Nd2  1  0.999116  0.000884  1.000000  1
  Nd  Nd3  1  0.982197  0.017803  0.500000  1
  Se  Se4  1  0.643935  0.356065  0.351129  1
  Se  Se5  1  0.687110  0.312890  0.000000  1
  Se  Se6  1  0.643935  0.356065  0.648871  1
  O  O7  1  0.911967  0.088033  0.756119  1
  O  O8  1  0.412253  0.587747  1.000000  1
  O  O9  1  0.383882  0.616118  0.500000  1
  O  O10  1  0.911967  0.088033  0.243881  1
