# generated using pymatgen
data_KSbF4
_symmetry_space_group_name_H-M   'P 1'
_cell_length_a   4.64598001
_cell_length_b   11.82006484
_cell_length_c   16.69220355
_cell_angle_alpha   90.00000000
_cell_angle_beta   90.00000000
_cell_angle_gamma   90.00000000
_symmetry_Int_Tables_number   1
_chemical_formula_structural   KSbF4
_chemical_formula_sum   'K8 Sb8 F32'
_cell_volume   916.66546072
_cell_formula_units_Z   8
loop_
 _symmetry_equiv_pos_site_id
 _symmetry_equiv_pos_as_xyz
  1  'x, y, z'
loop_
 _atom_site_type_symbol
 _atom_site_label
 _atom_site_symmetry_multiplicity
 _atom_site_fract_x
 _atom_site_fract_y
 _atom_site_fract_z
 _atom_site_occupancy
  K  K0  1  0.565960  0.000000  0.615947  1
  K  K1  1  0.565960  0.000000  0.384053  1
  K  K2  1  0.434040  0.500000  0.884053  1
  K  K3  1  0.434040  0.500000  0.115947  1
  K  K4  1  0.000000  0.250000  0.750000  1
  K  K5  1  0.000000  0.750000  0.250000  1
  K  K6  1  0.000000  0.750000  0.750000  1
  K  K7  1  0.000000  0.250000  0.250000  1
  Sb  Sb8  1  0.429799  0.000000  0.843017  1
  Sb  Sb9  1  0.429799  0.000000  0.156983  1
  Sb  Sb10  1  0.570201  0.500000  0.656983  1
  Sb  Sb11  1  0.570201  0.500000  0.343017  1
  Sb  Sb12  1  0.987010  0.252495  0.000000  1
  Sb  Sb13  1  0.987010  0.747505  0.000000  1
  Sb  Sb14  1  0.012990  0.752495  0.500000  1
  Sb  Sb15  1  0.012990  0.247505  0.500000  1
  F  F16  1  0.373148  0.325649  0.000000  1
  F  F17  1  0.373148  0.674351  0.000000  1
  F  F18  1  0.626852  0.825649  0.500000  1
  F  F19  1  0.626852  0.174351  0.500000  1
  F  F20  1  0.046710  0.000000  0.791479  1
  F  F21  1  0.046710  0.000000  0.208521  1
  F  F22  1  0.953290  0.500000  0.708521  1
  F  F23  1  0.953290  0.500000  0.291479  1
  F  F24  1  0.793335  0.351310  0.596517  1
  F  F25  1  0.793335  0.648690  0.403483  1
  F  F26  1  0.206665  0.851310  0.903483  1
  F  F27  1  0.206665  0.148690  0.096517  1
  F  F28  1  0.206665  0.148690  0.903483  1
  F  F29  1  0.206665  0.851310  0.096517  1
  F  F30  1  0.793335  0.648690  0.596517  1
  F  F31  1  0.793335  0.351310  0.403483  1
  F  F32  1  0.486410  0.382090  0.256465  1
  F  F33  1  0.486410  0.617910  0.743535  1
  F  F34  1  0.513590  0.882090  0.243535  1
  F  F35  1  0.513590  0.117910  0.756465  1
  F  F36  1  0.513590  0.117910  0.243535  1
  F  F37  1  0.513590  0.882090  0.756465  1
  F  F38  1  0.486410  0.617910  0.256465  1
  F  F39  1  0.486410  0.382090  0.743535  1
  F  F40  1  0.077073  0.132602  0.409484  1
  F  F41  1  0.077073  0.867398  0.590516  1
  F  F42  1  0.922927  0.632602  0.090516  1
  F  F43  1  0.922927  0.367398  0.909484  1
  F  F44  1  0.922927  0.367398  0.090516  1
  F  F45  1  0.922927  0.632602  0.909484  1
  F  F46  1  0.077073  0.867398  0.409484  1
  F  F47  1  0.077073  0.132602  0.590516  1
