# generated using pymatgen
data_Bi2Mo2O9
_symmetry_space_group_name_H-M   'P 1'
_cell_length_a   12.02915904
_cell_length_b   10.98605436
_cell_length_c   17.07636684
_cell_angle_alpha   90.00000000
_cell_angle_beta   134.51919122
_cell_angle_gamma   90.00000000
_symmetry_Int_Tables_number   1
_chemical_formula_structural   Bi2Mo2O9
_chemical_formula_sum   'Bi16 Mo16 O72'
_cell_volume   1609.05741954
_cell_formula_units_Z   8
loop_
 _symmetry_equiv_pos_site_id
 _symmetry_equiv_pos_as_xyz
  1  'x, y, z'
loop_
 _atom_site_type_symbol
 _atom_site_label
 _atom_site_symmetry_multiplicity
 _atom_site_fract_x
 _atom_site_fract_y
 _atom_site_fract_z
 _atom_site_occupancy
  Bi  Bi0  1  0.847067  0.876250  0.604530  1
  Bi  Bi1  1  0.839412  0.622531  0.752320  1
  Bi  Bi2  1  0.160588  0.377469  0.247680  1
  Bi  Bi3  1  0.501458  0.375998  0.243156  1
  Bi  Bi4  1  0.142343  0.879558  0.899902  1
  Bi  Bi5  1  0.498542  0.624002  0.756844  1
  Bi  Bi6  1  0.839412  0.877469  0.252320  1
  Bi  Bi7  1  0.501458  0.124002  0.743156  1
  Bi  Bi8  1  0.847067  0.623750  0.104530  1
  Bi  Bi9  1  0.857657  0.120442  0.100098  1
  Bi  Bi10  1  0.857657  0.379558  0.600098  1
  Bi  Bi11  1  0.160588  0.122531  0.747680  1
  Bi  Bi12  1  0.152933  0.123750  0.395470  1
  Bi  Bi13  1  0.142343  0.620442  0.399902  1
  Bi  Bi14  1  0.152933  0.376250  0.895470  1
  Bi  Bi15  1  0.498542  0.875998  0.256844  1
  Mo  Mo16  1  0.836073  0.130118  0.420495  1
  Mo  Mo17  1  0.827612  0.622437  0.416542  1
  Mo  Mo18  1  0.494243  0.375328  0.577851  1
  Mo  Mo19  1  0.505757  0.624672  0.422149  1
  Mo  Mo20  1  0.172388  0.377563  0.583458  1
  Mo  Mo21  1  0.508018  0.627767  0.090218  1
  Mo  Mo22  1  0.163927  0.630118  0.079505  1
  Mo  Mo23  1  0.491982  0.127767  0.409782  1
  Mo  Mo24  1  0.508018  0.872233  0.590218  1
  Mo  Mo25  1  0.505757  0.875328  0.922149  1
  Mo  Mo26  1  0.827612  0.877563  0.916542  1
  Mo  Mo27  1  0.494243  0.124672  0.077851  1
  Mo  Mo28  1  0.836073  0.369882  0.920495  1
  Mo  Mo29  1  0.491982  0.372233  0.909782  1
  Mo  Mo30  1  0.163927  0.869882  0.579505  1
  Mo  Mo31  1  0.172388  0.122437  0.083458  1
  O  O32  1  0.026543  0.992113  0.752296  1
  O  O33  1  0.401458  0.244779  0.304529  1
  O  O34  1  0.362641  0.795845  0.464275  1
  O  O35  1  0.041172  0.815437  0.594917  1
  O  O36  1  0.928523  0.544853  0.543216  1
  O  O37  1  0.275130  0.508023  0.177906  1
  O  O38  1  0.958828  0.315437  0.905083  1
  O  O39  1  0.071477  0.455147  0.456784  1
  O  O40  1  0.598542  0.755221  0.695471  1
  O  O41  1  0.030493  0.262674  0.746829  1
  O  O42  1  0.349910  0.944331  0.901305  1
  O  O43  1  0.418766  0.004614  0.101212  1
  O  O44  1  0.658889  0.933992  0.602198  1
  O  O45  1  0.421349  0.741719  0.321451  1
  O  O46  1  0.362641  0.704155  0.964275  1
  O  O47  1  0.591467  0.494804  0.905833  1
  O  O48  1  0.718764  0.744748  0.408324  1
  O  O49  1  0.650090  0.444331  0.598695  1
  O  O50  1  0.408533  0.505196  0.094167  1
  O  O51  1  0.942368  0.066896  0.556857  1
  O  O52  1  0.285726  0.747530  0.602759  1
  O  O53  1  0.969507  0.762674  0.753171  1
  O  O54  1  0.637359  0.295845  0.035725  1
  O  O55  1  0.281236  0.255252  0.591676  1
  O  O56  1  0.041172  0.684563  0.094917  1
  O  O57  1  0.953902  0.809248  0.904509  1
  O  O58  1  0.295124  0.012624  0.191843  1
  O  O59  1  0.327496  0.313719  0.440801  1
  O  O60  1  0.401458  0.255221  0.804529  1
  O  O61  1  0.295124  0.487376  0.691843  1
  O  O62  1  0.285726  0.752470  0.102759  1
  O  O63  1  0.637359  0.204155  0.535725  1
  O  O64  1  0.275130  0.991977  0.677906  1
  O  O65  1  0.958828  0.184563  0.405083  1
  O  O66  1  0.418766  0.495386  0.601212  1
  O  O67  1  0.071477  0.044853  0.956784  1
  O  O68  1  0.581234  0.995386  0.898788  1
  O  O69  1  0.026543  0.507887  0.252296  1
  O  O70  1  0.046098  0.309248  0.595491  1
  O  O71  1  0.349910  0.555669  0.401305  1
  O  O72  1  0.408533  0.994804  0.594167  1
  O  O73  1  0.704876  0.987376  0.808157  1
  O  O74  1  0.421349  0.758281  0.821451  1
  O  O75  1  0.714274  0.247530  0.897241  1
  O  O76  1  0.953902  0.690752  0.404509  1
  O  O77  1  0.327496  0.186281  0.940801  1
  O  O78  1  0.578651  0.241719  0.178549  1
  O  O79  1  0.969507  0.737326  0.253171  1
  O  O80  1  0.718764  0.755252  0.908324  1
  O  O81  1  0.672504  0.686281  0.559199  1
  O  O82  1  0.578651  0.258281  0.678549  1
  O  O83  1  0.341111  0.433992  0.897802  1
  O  O84  1  0.591467  0.005196  0.405833  1
  O  O85  1  0.942368  0.433104  0.056857  1
  O  O86  1  0.658889  0.566008  0.102198  1
  O  O87  1  0.030493  0.237326  0.246829  1
  O  O88  1  0.341111  0.066008  0.397802  1
  O  O89  1  0.928523  0.955147  0.043216  1
  O  O90  1  0.650090  0.055669  0.098695  1
  O  O91  1  0.581234  0.504614  0.398788  1
  O  O92  1  0.973457  0.007887  0.247704  1
  O  O93  1  0.704876  0.512624  0.308157  1
  O  O94  1  0.714274  0.252470  0.397241  1
  O  O95  1  0.281236  0.244748  0.091676  1
  O  O96  1  0.973457  0.492113  0.747704  1
  O  O97  1  0.057632  0.566896  0.943143  1
  O  O98  1  0.057632  0.933104  0.443143  1
  O  O99  1  0.724870  0.491977  0.822094  1
  O  O100  1  0.046098  0.190752  0.095491  1
  O  O101  1  0.672504  0.813719  0.059199  1
  O  O102  1  0.598542  0.744779  0.195471  1
  O  O103  1  0.724870  0.008023  0.322094  1
