# generated using pymatgen
data_TlS
_symmetry_space_group_name_H-M   'P 1'
_cell_length_a   8.02724353
_cell_length_b   8.02724353
_cell_length_c   29.99186892
_cell_angle_alpha   90.00000000
_cell_angle_beta   90.00000000
_cell_angle_gamma   90.00000000
_symmetry_Int_Tables_number   1
_chemical_formula_structural   TlS
_chemical_formula_sum   'Tl32 S32'
_cell_volume   1932.57522123
_cell_formula_units_Z   32
loop_
 _symmetry_equiv_pos_site_id
 _symmetry_equiv_pos_as_xyz
  1  'x, y, z'
loop_
 _atom_site_type_symbol
 _atom_site_label
 _atom_site_symmetry_multiplicity
 _atom_site_fract_x
 _atom_site_fract_y
 _atom_site_fract_z
 _atom_site_occupancy
  Tl  Tl0  1  0.418819  0.628092  0.817443  1
  Tl  Tl1  1  0.878155  0.870745  0.202799  1
  Tl  Tl2  1  0.129255  0.121845  0.297201  1
  Tl  Tl3  1  0.910173  0.373946  0.936245  1
  Tl  Tl4  1  0.626745  0.125439  0.697403  1
  Tl  Tl5  1  0.126745  0.374561  0.052597  1
  Tl  Tl6  1  0.629255  0.378155  0.452799  1
  Tl  Tl7  1  0.621845  0.370745  0.047201  1
  Tl  Tl8  1  0.410173  0.126054  0.813755  1
  Tl  Tl9  1  0.378155  0.629255  0.547201  1
  Tl  Tl10  1  0.870745  0.878155  0.797201  1
  Tl  Tl11  1  0.125439  0.626745  0.302597  1
  Tl  Tl12  1  0.626054  0.089827  0.563755  1
  Tl  Tl13  1  0.918819  0.871908  0.932557  1
  Tl  Tl14  1  0.128092  0.081181  0.567443  1
  Tl  Tl15  1  0.089827  0.626054  0.436245  1
  Tl  Tl16  1  0.873946  0.589827  0.686245  1
  Tl  Tl17  1  0.589827  0.873946  0.313755  1
  Tl  Tl18  1  0.625439  0.873255  0.447403  1
  Tl  Tl19  1  0.628092  0.418819  0.182557  1
  Tl  Tl20  1  0.126054  0.410173  0.186245  1
  Tl  Tl21  1  0.874561  0.373255  0.802597  1
  Tl  Tl22  1  0.374561  0.126745  0.947403  1
  Tl  Tl23  1  0.371908  0.581181  0.682557  1
  Tl  Tl24  1  0.373946  0.910173  0.063755  1
  Tl  Tl25  1  0.081181  0.128092  0.432557  1
  Tl  Tl26  1  0.370745  0.621845  0.952799  1
  Tl  Tl27  1  0.373255  0.874561  0.197403  1
  Tl  Tl28  1  0.871908  0.918819  0.067443  1
  Tl  Tl29  1  0.581181  0.371908  0.317443  1
  Tl  Tl30  1  0.121845  0.129255  0.702799  1
  Tl  Tl31  1  0.873255  0.625439  0.552597  1
  S  S32  1  0.884874  0.884874  0.500000  1
  S  S33  1  0.687068  0.131837  0.399641  1
  S  S34  1  0.616176  0.857969  0.742506  1
  S  S35  1  0.864545  0.135455  0.250000  1
  S  S36  1  0.312932  0.868163  0.899641  1
  S  S37  1  0.642031  0.116176  0.992506  1
  S  S38  1  0.131837  0.687068  0.600359  1
  S  S39  1  0.619265  0.683840  0.601879  1
  S  S40  1  0.883824  0.357969  0.507494  1
  S  S41  1  0.857969  0.616176  0.257494  1
  S  S42  1  0.383824  0.142031  0.242506  1
  S  S43  1  0.357969  0.883824  0.492506  1
  S  S44  1  0.135455  0.864545  0.750000  1
  S  S45  1  0.384874  0.615126  0.250000  1
  S  S46  1  0.631837  0.812932  0.149641  1
  S  S47  1  0.615126  0.384874  0.750000  1
  S  S48  1  0.316160  0.380735  0.898121  1
  S  S49  1  0.115126  0.115126  0.000000  1
  S  S50  1  0.812932  0.631837  0.850359  1
  S  S51  1  0.816160  0.119265  0.851879  1
  S  S52  1  0.187068  0.368163  0.350359  1
  S  S53  1  0.368163  0.187068  0.649641  1
  S  S54  1  0.380735  0.316160  0.101879  1
  S  S55  1  0.364545  0.364545  0.500000  1
  S  S56  1  0.635455  0.635455  0.000000  1
  S  S57  1  0.880735  0.183840  0.648121  1
  S  S58  1  0.116176  0.642031  0.007494  1
  S  S59  1  0.183840  0.880735  0.351879  1
  S  S60  1  0.142031  0.383824  0.757494  1
  S  S61  1  0.868163  0.312932  0.100359  1
  S  S62  1  0.119265  0.816160  0.148121  1
  S  S63  1  0.683840  0.619265  0.398121  1
