# generated using pymatgen
data_Cu2P8Se3I2
_symmetry_space_group_name_H-M   'P 1'
_cell_length_a   9.43779131
_cell_length_b   12.84300663
_cell_length_c   13.91783306
_cell_angle_alpha   90.00000000
_cell_angle_beta   90.00000000
_cell_angle_gamma   90.00000000
_symmetry_Int_Tables_number   1
_chemical_formula_structural   Cu2P8Se3I2
_chemical_formula_sum   'Cu8 P32 Se12 I8'
_cell_volume   1686.97520586
_cell_formula_units_Z   4
loop_
 _symmetry_equiv_pos_site_id
 _symmetry_equiv_pos_as_xyz
  1  'x, y, z'
loop_
 _atom_site_type_symbol
 _atom_site_label
 _atom_site_symmetry_multiplicity
 _atom_site_fract_x
 _atom_site_fract_y
 _atom_site_fract_z
 _atom_site_occupancy
  Cu  Cu0  1  0.002155  0.871864  0.250000  1
  Cu  Cu1  1  0.997845  0.371864  0.250000  1
  Cu  Cu2  1  0.807183  0.082174  0.250000  1
  Cu  Cu3  1  0.997845  0.128136  0.750000  1
  Cu  Cu4  1  0.002155  0.628136  0.750000  1
  Cu  Cu5  1  0.807183  0.417826  0.750000  1
  Cu  Cu6  1  0.192817  0.917826  0.750000  1
  Cu  Cu7  1  0.192817  0.582174  0.250000  1
  P  P8  1  0.232493  0.830608  0.612668  1
  P  P9  1  0.076825  0.695839  0.608736  1
  P  P10  1  0.442025  0.745129  0.079197  1
  P  P11  1  0.076825  0.804161  0.108736  1
  P  P12  1  0.182542  0.924344  0.480309  1
  P  P13  1  0.442025  0.754871  0.920803  1
  P  P14  1  0.076825  0.695839  0.891264  1
  P  P15  1  0.557975  0.254871  0.920803  1
  P  P16  1  0.557975  0.254871  0.579197  1
  P  P17  1  0.767507  0.169392  0.387332  1
  P  P18  1  0.817458  0.424344  0.480309  1
  P  P19  1  0.232493  0.669392  0.387332  1
  P  P20  1  0.232493  0.669392  0.112668  1
  P  P21  1  0.767507  0.330608  0.887332  1
  P  P22  1  0.923175  0.195839  0.608736  1
  P  P23  1  0.182542  0.575656  0.980309  1
  P  P24  1  0.817458  0.075656  0.980309  1
  P  P25  1  0.076825  0.804161  0.391264  1
  P  P26  1  0.557975  0.245129  0.079197  1
  P  P27  1  0.557975  0.245129  0.420803  1
  P  P28  1  0.767507  0.330608  0.612668  1
  P  P29  1  0.923175  0.304161  0.391264  1
  P  P30  1  0.817458  0.075656  0.519691  1
  P  P31  1  0.182542  0.575656  0.519691  1
  P  P32  1  0.182542  0.924344  0.019691  1
  P  P33  1  0.767507  0.169392  0.112668  1
  P  P34  1  0.923175  0.195839  0.891264  1
  P  P35  1  0.442025  0.754871  0.579197  1
  P  P36  1  0.817458  0.424344  0.019691  1
  P  P37  1  0.923175  0.304161  0.108736  1
  P  P38  1  0.442025  0.745129  0.420803  1
  P  P39  1  0.232493  0.830608  0.887332  1
  Se  Se40  1  0.911078  0.750000  0.000000  1
  Se  Se41  1  0.391360  0.583371  0.895439  1
  Se  Se42  1  0.608640  0.416629  0.104561  1
  Se  Se43  1  0.608640  0.083371  0.604561  1
  Se  Se44  1  0.608640  0.083371  0.895439  1
  Se  Se45  1  0.608640  0.416629  0.395439  1
  Se  Se46  1  0.088922  0.250000  0.000000  1
  Se  Se47  1  0.391360  0.583371  0.604561  1
  Se  Se48  1  0.391360  0.916629  0.104561  1
  Se  Se49  1  0.911078  0.750000  0.500000  1
  Se  Se50  1  0.391360  0.916629  0.395439  1
  Se  Se51  1  0.088922  0.250000  0.500000  1
  I  I52  1  0.277942  0.387823  0.250000  1
  I  I53  1  0.907989  0.930148  0.750000  1
  I  I54  1  0.092011  0.430148  0.750000  1
  I  I55  1  0.907989  0.569852  0.250000  1
  I  I56  1  0.722058  0.887823  0.250000  1
  I  I57  1  0.277942  0.112177  0.750000  1
  I  I58  1  0.092011  0.069852  0.250000  1
  I  I59  1  0.722058  0.612177  0.750000  1
