# generated using pymatgen
data_SiO2
_symmetry_space_group_name_H-M   'P 1'
_cell_length_a   6.92249944
_cell_length_b   6.92249944
_cell_length_c   7.13624292
_cell_angle_alpha   90.00000000
_cell_angle_beta   90.00000000
_cell_angle_gamma   90.00000000
_symmetry_Int_Tables_number   1
_chemical_formula_structural   SiO2
_chemical_formula_sum   'Si8 O16'
_cell_volume   341.97588624
_cell_formula_units_Z   8
loop_
 _symmetry_equiv_pos_site_id
 _symmetry_equiv_pos_as_xyz
  1  'x, y, z'
loop_
 _atom_site_type_symbol
 _atom_site_label
 _atom_site_symmetry_multiplicity
 _atom_site_fract_x
 _atom_site_fract_y
 _atom_site_fract_z
 _atom_site_occupancy
  Si  Si0  1  0.204927  0.451940  0.948680  1
  Si  Si1  1  0.048060  0.295073  0.551320  1
  Si  Si2  1  0.951940  0.704927  0.551320  1
  Si  Si3  1  0.451940  0.795073  0.051320  1
  Si  Si4  1  0.795073  0.548060  0.948680  1
  Si  Si5  1  0.704927  0.048060  0.448680  1
  Si  Si6  1  0.295073  0.951940  0.448680  1
  Si  Si7  1  0.548060  0.204927  0.051320  1
  O  O8  1  0.158511  0.816906  0.580775  1
  O  O9  1  0.341489  0.316906  0.080775  1
  O  O10  1  0.658511  0.683094  0.080775  1
  O  O11  1  0.000000  0.500000  0.051247  1
  O  O12  1  0.157992  0.342008  0.750000  1
  O  O13  1  0.500000  0.000000  0.948754  1
  O  O14  1  0.683094  0.341489  0.919225  1
  O  O15  1  0.316906  0.658511  0.919225  1
  O  O16  1  0.000000  0.500000  0.448754  1
  O  O17  1  0.841489  0.183094  0.580775  1
  O  O18  1  0.500000  0.000000  0.551246  1
  O  O19  1  0.183094  0.158511  0.419225  1
  O  O20  1  0.816906  0.841489  0.419225  1
  O  O21  1  0.657992  0.157992  0.250000  1
  O  O22  1  0.342008  0.842008  0.250000  1
  O  O23  1  0.842008  0.657992  0.750000  1
