# generated using pymatgen
data_Cs2Si3SnO9
_symmetry_space_group_name_H-M   'P 1'
_cell_length_a   8.08209157
_cell_length_b   10.52082823
_cell_length_c   11.94143033
_cell_angle_alpha   90.00000000
_cell_angle_beta   90.00000000
_cell_angle_gamma   90.00000000
_symmetry_Int_Tables_number   1
_chemical_formula_structural   Cs2Si3SnO9
_chemical_formula_sum   'Cs8 Si12 Sn4 O36'
_cell_volume   1015.38336932
_cell_formula_units_Z   4
loop_
 _symmetry_equiv_pos_site_id
 _symmetry_equiv_pos_as_xyz
  1  'x, y, z'
loop_
 _atom_site_type_symbol
 _atom_site_label
 _atom_site_symmetry_multiplicity
 _atom_site_fract_x
 _atom_site_fract_y
 _atom_site_fract_z
 _atom_site_occupancy
  Cs  Cs0  1  0.766592  0.787536  0.896974  1
  Cs  Cs1  1  0.266592  0.712464  0.103026  1
  Cs  Cs2  1  0.925547  0.892307  0.521219  1
  Cs  Cs3  1  0.425547  0.607693  0.478781  1
  Cs  Cs4  1  0.074453  0.392307  0.978781  1
  Cs  Cs5  1  0.574453  0.107693  0.021219  1
  Cs  Cs6  1  0.733408  0.212464  0.396974  1
  Cs  Cs7  1  0.233408  0.287536  0.603026  1
  Si  Si8  1  0.079140  0.389739  0.291733  1
  Si  Si9  1  0.920860  0.889739  0.208267  1
  Si  Si10  1  0.584364  0.475039  0.992837  1
  Si  Si11  1  0.559828  0.873323  0.286090  1
  Si  Si12  1  0.059828  0.626677  0.713910  1
  Si  Si13  1  0.420860  0.610261  0.791733  1
  Si  Si14  1  0.579140  0.110261  0.708267  1
  Si  Si15  1  0.084364  0.024961  0.007163  1
  Si  Si16  1  0.915636  0.524961  0.492837  1
  Si  Si17  1  0.415636  0.975039  0.507163  1
  Si  Si18  1  0.440172  0.373323  0.213910  1
  Si  Si19  1  0.940172  0.126677  0.786090  1
  Sn  Sn20  1  0.244992  0.090233  0.263583  1
  Sn  Sn21  1  0.744992  0.409767  0.736417  1
  Sn  Sn22  1  0.755008  0.590233  0.236417  1
  Sn  Sn23  1  0.255008  0.909767  0.763583  1
  O  O24  1  0.559581  0.055305  0.578347  1
  O  O25  1  0.416216  0.949084  0.218539  1
  O  O26  1  0.578969  0.264611  0.700335  1
  O  O27  1  0.029717  0.616002  0.576490  1
  O  O28  1  0.192131  0.111981  0.092419  1
  O  O29  1  0.583784  0.449084  0.281461  1
  O  O30  1  0.970283  0.116002  0.923510  1
  O  O31  1  0.567541  0.551064  0.714823  1
  O  O32  1  0.064244  0.776325  0.746874  1
  O  O33  1  0.692131  0.388019  0.907581  1
  O  O34  1  0.432459  0.051064  0.785177  1
  O  O35  1  0.940419  0.944695  0.078347  1
  O  O36  1  0.435756  0.223675  0.246874  1
  O  O37  1  0.059581  0.444695  0.421653  1
  O  O38  1  0.741182  0.941666  0.258645  1
  O  O39  1  0.932459  0.448936  0.214823  1
  O  O40  1  0.067541  0.948936  0.285177  1
  O  O41  1  0.078969  0.235389  0.299665  1
  O  O42  1  0.241182  0.558334  0.741355  1
  O  O43  1  0.529717  0.883998  0.423510  1
  O  O44  1  0.758818  0.058334  0.758645  1
  O  O45  1  0.194768  0.927114  0.932766  1
  O  O46  1  0.440419  0.555305  0.921653  1
  O  O47  1  0.307869  0.888019  0.592419  1
  O  O48  1  0.694768  0.572886  0.067234  1
  O  O49  1  0.421031  0.764611  0.799665  1
  O  O50  1  0.305232  0.072886  0.432766  1
  O  O51  1  0.564244  0.723675  0.253126  1
  O  O52  1  0.807869  0.611981  0.407581  1
  O  O53  1  0.805232  0.427114  0.567234  1
  O  O54  1  0.921031  0.735389  0.200335  1
  O  O55  1  0.935756  0.276325  0.753126  1
  O  O56  1  0.258818  0.441666  0.241355  1
  O  O57  1  0.083784  0.050916  0.718539  1
  O  O58  1  0.916216  0.550916  0.781461  1
  O  O59  1  0.470283  0.383998  0.076490  1
