# generated using pymatgen
data_La3InS6
_symmetry_space_group_name_H-M   'P 1'
_cell_length_a   4.10100516
_cell_length_b   14.02911404
_cell_length_c   17.02189496
_cell_angle_alpha   90.00000000
_cell_angle_beta   90.00000000
_cell_angle_gamma   90.00000000
_symmetry_Int_Tables_number   1
_chemical_formula_structural   La3InS6
_chemical_formula_sum   'La12 In4 S24'
_cell_volume   979.32866716
_cell_formula_units_Z   4
loop_
 _symmetry_equiv_pos_site_id
 _symmetry_equiv_pos_as_xyz
  1  'x, y, z'
loop_
 _atom_site_type_symbol
 _atom_site_label
 _atom_site_symmetry_multiplicity
 _atom_site_fract_x
 _atom_site_fract_y
 _atom_site_fract_z
 _atom_site_occupancy
  La  La0  1  0.255065  0.036863  0.780188  1
  La  La1  1  0.255065  0.963137  0.219812  1
  La  La2  1  0.744935  0.463137  0.280188  1
  La  La3  1  0.744935  0.536863  0.719812  1
  La  La4  1  0.258984  0.249342  0.609510  1
  La  La5  1  0.258984  0.750658  0.390490  1
  La  La6  1  0.741016  0.250658  0.109510  1
  La  La7  1  0.741016  0.749342  0.890490  1
  La  La8  1  0.758866  0.310112  0.857120  1
  La  La9  1  0.758866  0.689888  0.142880  1
  La  La10  1  0.241134  0.189888  0.357120  1
  La  La11  1  0.241134  0.810112  0.642880  1
  In  In12  1  0.753599  0.000000  0.500000  1
  In  In13  1  0.246401  0.500000  0.000000  1
  In  In14  1  0.413195  0.500000  0.500000  1
  In  In15  1  0.586804  0.000000  0.000000  1
  S  S16  1  0.765821  0.397997  0.587770  1
  S  S17  1  0.765821  0.602003  0.412230  1
  S  S18  1  0.234179  0.102003  0.087770  1
  S  S19  1  0.234179  0.897997  0.912230  1
  S  S20  1  0.248856  0.313545  0.982748  1
  S  S21  1  0.248856  0.686455  0.017252  1
  S  S22  1  0.751144  0.186455  0.482748  1
  S  S23  1  0.751144  0.813545  0.517252  1
  S  S24  1  0.754653  0.108070  0.892649  1
  S  S25  1  0.754653  0.891930  0.107351  1
  S  S26  1  0.245347  0.391930  0.392649  1
  S  S27  1  0.245347  0.608070  0.607351  1
  S  S28  1  0.758556  0.177206  0.717088  1
  S  S29  1  0.758556  0.822794  0.282912  1
  S  S30  1  0.241444  0.322794  0.217088  1
  S  S31  1  0.241444  0.677206  0.782912  1
  S  S32  1  0.250727  0.386967  0.755462  1
  S  S33  1  0.250727  0.613033  0.244538  1
  S  S34  1  0.749273  0.113033  0.255462  1
  S  S35  1  0.749273  0.886967  0.744538  1
  S  S36  1  0.253278  0.019991  0.602547  1
  S  S37  1  0.253278  0.980009  0.397453  1
  S  S38  1  0.746722  0.480009  0.102547  1
  S  S39  1  0.746722  0.519991  0.897453  1
