# generated using pymatgen
data_HgSb4C2(OF11)2
_symmetry_space_group_name_H-M   'P 1'
_cell_length_a   7.77514438
_cell_length_b   14.31770245
_cell_length_c   10.22101081
_cell_angle_alpha   90.00000000
_cell_angle_beta   114.12221679
_cell_angle_gamma   90.00000000
_symmetry_Int_Tables_number   1
_chemical_formula_structural   HgSb4C2(OF11)2
_chemical_formula_sum   'Hg2 Sb8 C4 O4 F44'
_cell_volume   1038.46572321
_cell_formula_units_Z   2
loop_
 _symmetry_equiv_pos_site_id
 _symmetry_equiv_pos_as_xyz
  1  'x, y, z'
loop_
 _atom_site_type_symbol
 _atom_site_label
 _atom_site_symmetry_multiplicity
 _atom_site_fract_x
 _atom_site_fract_y
 _atom_site_fract_z
 _atom_site_occupancy
  Hg  Hg0  1  0.500000  0.000000  0.000000  1
  Hg  Hg1  1  0.500000  0.500000  0.500000  1
  Sb  Sb2  1  0.782187  0.582695  0.251369  1
  Sb  Sb3  1  0.693560  0.273447  0.867073  1
  Sb  Sb4  1  0.782187  0.917305  0.751369  1
  Sb  Sb5  1  0.693560  0.226553  0.367073  1
  Sb  Sb6  1  0.306440  0.726553  0.132927  1
  Sb  Sb7  1  0.217813  0.082695  0.248631  1
  Sb  Sb8  1  0.217813  0.417305  0.748631  1
  Sb  Sb9  1  0.306440  0.773447  0.632927  1
  C  C10  1  0.304653  0.060760  0.808724  1
  C  C11  1  0.304653  0.439240  0.308724  1
  C  C12  1  0.695347  0.939240  0.191276  1
  C  C13  1  0.695347  0.560760  0.691276  1
  O  O14  1  0.205784  0.097907  0.708893  1
  O  O15  1  0.794216  0.597907  0.791107  1
  O  O16  1  0.794216  0.902093  0.291107  1
  O  O17  1  0.205784  0.402093  0.208893  1
  F  F18  1  0.806410  0.565826  0.076149  1
  F  F19  1  0.820416  0.335063  0.043689  1
  F  F20  1  0.280974  0.397605  0.585742  1
  F  F21  1  0.806410  0.934174  0.576149  1
  F  F22  1  0.719026  0.602395  0.414258  1
  F  F23  1  0.461358  0.154937  0.369575  1
  F  F24  1  0.719026  0.897605  0.914258  1
  F  F25  1  0.624432  0.475457  0.217220  1
  F  F26  1  0.520035  0.223963  0.690550  1
  F  F27  1  0.538642  0.845063  0.630425  1
  F  F28  1  0.094098  0.792356  0.128037  1
  F  F29  1  0.102560  0.298537  0.716515  1
  F  F30  1  0.905902  0.292356  0.371963  1
  F  F31  1  0.820416  0.164937  0.543689  1
  F  F32  1  0.274367  0.881128  0.733259  1
  F  F33  1  0.375568  0.975457  0.282780  1
  F  F34  1  0.274367  0.618872  0.233259  1
  F  F35  1  0.375568  0.524543  0.782780  1
  F  F36  1  0.193590  0.434174  0.923851  1
  F  F37  1  0.179584  0.835063  0.456311  1
  F  F38  1  0.479965  0.723963  0.809450  1
  F  F39  1  0.461358  0.345063  0.869575  1
  F  F40  1  0.618227  0.325796  0.460917  1
  F  F41  1  0.102560  0.201463  0.216515  1
  F  F42  1  0.725633  0.381128  0.766741  1
  F  F43  1  0.280974  0.102395  0.085742  1
  F  F44  1  0.010885  0.981258  0.860437  1
  F  F45  1  0.479965  0.776037  0.309450  1
  F  F46  1  0.989115  0.481258  0.639563  1
  F  F47  1  0.725633  0.118872  0.266741  1
  F  F48  1  0.381773  0.674204  0.539083  1
  F  F49  1  0.897440  0.701463  0.283485  1
  F  F50  1  0.179584  0.664937  0.956311  1
  F  F51  1  0.905902  0.207644  0.871963  1
  F  F52  1  0.381773  0.825796  0.039083  1
  F  F53  1  0.897440  0.798537  0.783485  1
  F  F54  1  0.193590  0.065826  0.423851  1
  F  F55  1  0.538642  0.654937  0.130425  1
  F  F56  1  0.624432  0.024543  0.717220  1
  F  F57  1  0.989115  0.018742  0.139563  1
  F  F58  1  0.094098  0.707644  0.628037  1
  F  F59  1  0.520035  0.276037  0.190550  1
  F  F60  1  0.010885  0.518742  0.360437  1
  F  F61  1  0.618227  0.174204  0.960917  1
