# generated using pymatgen
data_Gd2SnS5
_symmetry_space_group_name_H-M   'P 1'
_cell_length_a   3.85894700
_cell_length_b   7.79802948
_cell_length_c   11.37985094
_cell_angle_alpha   90.00000000
_cell_angle_beta   90.00000000
_cell_angle_gamma   90.00000000
_symmetry_Int_Tables_number   1
_chemical_formula_structural   Gd2SnS5
_chemical_formula_sum   'Gd4 Sn2 S10'
_cell_volume   342.44455094
_cell_formula_units_Z   2
loop_
 _symmetry_equiv_pos_site_id
 _symmetry_equiv_pos_as_xyz
  1  'x, y, z'
loop_
 _atom_site_type_symbol
 _atom_site_label
 _atom_site_symmetry_multiplicity
 _atom_site_fract_x
 _atom_site_fract_y
 _atom_site_fract_z
 _atom_site_occupancy
  Gd  Gd0  1  0.500000  0.536117  0.827430  1
  Gd  Gd1  1  0.500000  0.963883  0.327430  1
  Gd  Gd2  1  0.500000  0.463883  0.172570  1
  Gd  Gd3  1  0.500000  0.036117  0.672570  1
  Sn  Sn4  1  0.000000  0.000000  0.000000  1
  Sn  Sn5  1  0.000000  0.500000  0.500000  1
  S  S6  1  0.000000  0.828573  0.803505  1
  S  S7  1  0.000000  0.000000  0.500000  1
  S  S8  1  0.000000  0.171427  0.196495  1
  S  S9  1  0.000000  0.328573  0.696495  1
  S  S10  1  0.500000  0.826258  0.093203  1
  S  S11  1  0.500000  0.326258  0.406797  1
  S  S12  1  0.000000  0.671427  0.303505  1
  S  S13  1  0.500000  0.173742  0.906797  1
  S  S14  1  0.000000  0.500000  0.000000  1
  S  S15  1  0.500000  0.673742  0.593203  1
