# generated using pymatgen
data_Co3(PO4)4
_symmetry_space_group_name_H-M   'P 1'
_cell_length_a   5.11824818
_cell_length_b   7.76350830
_cell_length_c   7.83170734
_cell_angle_alpha   85.03907289
_cell_angle_beta   85.79919343
_cell_angle_gamma   87.87753826
_symmetry_Int_Tables_number   1
_chemical_formula_structural   Co3(PO4)4
_chemical_formula_sum   'Co3 P4 O16'
_cell_volume   309.05096070
_cell_formula_units_Z   1
loop_
 _symmetry_equiv_pos_site_id
 _symmetry_equiv_pos_as_xyz
  1  'x, y, z'
loop_
 _atom_site_type_symbol
 _atom_site_label
 _atom_site_symmetry_multiplicity
 _atom_site_fract_x
 _atom_site_fract_y
 _atom_site_fract_z
 _atom_site_occupancy
  Co  Co0  1  0.010349  0.478057  0.470651  1
  Co  Co1  1  0.603006  0.640969  0.912458  1
  Co  Co2  1  0.502627  0.030146  0.017252  1
  P  P3  1  0.535560  0.685489  0.297912  1
  P  P4  1  0.970322  0.186882  0.202716  1
  P  P5  1  0.032283  0.814815  0.805183  1
  P  P6  1  0.481714  0.321919  0.689832  1
  O  O7  1  0.053704  0.359841  0.256374  1
  O  O8  1  0.789142  0.854083  0.939917  1
  O  O9  1  0.066604  0.946673  0.655554  1
  O  O10  1  0.566506  0.569838  0.141153  1
  O  O11  1  0.211795  0.324230  0.607791  1
  O  O12  1  0.306517  0.627366  0.423828  1
  O  O13  1  0.798056  0.664377  0.387972  1
  O  O14  1  0.702094  0.351635  0.548191  1
  O  O15  1  0.182001  0.125723  0.065801  1
  O  O16  1  0.526012  0.142496  0.782419  1
  O  O17  1  0.445083  0.464580  0.818692  1
  O  O18  1  0.918732  0.635858  0.763487  1
  O  O19  1  0.909449  0.046328  0.350457  1
  O  O20  1  0.710293  0.196896  0.110751  1
  O  O21  1  0.288475  0.792357  0.902934  1
  O  O22  1  0.496313  0.876720  0.236715  1
