# generated using pymatgen
data_CsYZnSe3
_symmetry_space_group_name_H-M   'P 1'
_cell_length_a   8.37413640
_cell_length_b   8.37413640
_cell_length_c   11.03437789
_cell_angle_alpha   90.00000000
_cell_angle_beta   90.00000000
_cell_angle_gamma   151.08714689
_symmetry_Int_Tables_number   1
_chemical_formula_structural   CsYZnSe3
_chemical_formula_sum   'Cs2 Y2 Zn2 Se6'
_cell_volume   374.11516762
_cell_formula_units_Z   2
loop_
 _symmetry_equiv_pos_site_id
 _symmetry_equiv_pos_as_xyz
  1  'x, y, z'
loop_
 _atom_site_type_symbol
 _atom_site_label
 _atom_site_symmetry_multiplicity
 _atom_site_fract_x
 _atom_site_fract_y
 _atom_site_fract_z
 _atom_site_occupancy
  Cs  Cs0  1  0.741772  0.258228  0.250000  1
  Cs  Cs1  1  0.258228  0.741772  0.750000  1
  Y  Y2  1  0.000000  0.000000  0.000000  1
  Y  Y3  1  0.000000  0.000000  0.500000  1
  Zn  Zn4  1  0.460154  0.539846  0.250000  1
  Zn  Zn5  1  0.539846  0.460154  0.750000  1
  Se  Se6  1  0.383178  0.616822  0.058606  1
  Se  Se7  1  0.945921  0.054079  0.750000  1
  Se  Se8  1  0.383178  0.616822  0.441394  1
  Se  Se9  1  0.054079  0.945921  0.250000  1
  Se  Se10  1  0.616822  0.383178  0.941394  1
  Se  Se11  1  0.616822  0.383178  0.558606  1
