# generated using pymatgen
data_K2CdSiO4
_symmetry_space_group_name_H-M   'P 1'
_cell_length_a   5.69295103
_cell_length_b   11.44653458
_cell_length_c   16.23032470
_cell_angle_alpha   90.00000000
_cell_angle_beta   90.00000000
_cell_angle_gamma   90.00000000
_symmetry_Int_Tables_number   1
_chemical_formula_structural   K2CdSiO4
_chemical_formula_sum   'K16 Cd8 Si8 O32'
_cell_volume   1057.64198116
_cell_formula_units_Z   8
loop_
 _symmetry_equiv_pos_site_id
 _symmetry_equiv_pos_as_xyz
  1  'x, y, z'
loop_
 _atom_site_type_symbol
 _atom_site_label
 _atom_site_symmetry_multiplicity
 _atom_site_fract_x
 _atom_site_fract_y
 _atom_site_fract_z
 _atom_site_occupancy
  K  K0  1  0.489518  0.991282  0.940232  1
  K  K1  1  0.510482  0.008718  0.440232  1
  K  K2  1  0.510482  0.491282  0.940232  1
  K  K3  1  0.489518  0.508718  0.440232  1
  K  K4  1  0.461120  0.739171  0.820253  1
  K  K5  1  0.538880  0.260829  0.320253  1
  K  K6  1  0.538880  0.239171  0.820253  1
  K  K7  1  0.461120  0.760829  0.320253  1
  K  K8  1  0.005219  0.014529  0.059963  1
  K  K9  1  0.994781  0.985471  0.559963  1
  K  K10  1  0.994781  0.514529  0.059963  1
  K  K11  1  0.005219  0.485471  0.559963  1
  K  K12  1  0.047471  0.272000  0.187088  1
  K  K13  1  0.952529  0.728000  0.687088  1
  K  K14  1  0.952529  0.772000  0.187088  1
  K  K15  1  0.047471  0.228000  0.687088  1
  Cd  Cd16  1  0.990052  0.988626  0.811799  1
  Cd  Cd17  1  0.009948  0.011374  0.311799  1
  Cd  Cd18  1  0.009948  0.488626  0.811799  1
  Cd  Cd19  1  0.990052  0.511374  0.311799  1
  Cd  Cd20  1  0.535128  0.258188  0.064437  1
  Cd  Cd21  1  0.464872  0.741812  0.564437  1
  Cd  Cd22  1  0.464872  0.758188  0.064437  1
  Cd  Cd23  1  0.535128  0.241812  0.564437  1
  Si  Si24  1  0.514635  0.007887  0.190013  1
  Si  Si25  1  0.485365  0.992113  0.690013  1
  Si  Si26  1  0.485365  0.507887  0.190013  1
  Si  Si27  1  0.514635  0.492113  0.690013  1
  Si  Si28  1  0.977200  0.732263  0.933409  1
  Si  Si29  1  0.022800  0.267737  0.433409  1
  Si  Si30  1  0.022800  0.232263  0.933409  1
  Si  Si31  1  0.977200  0.767737  0.433409  1
  O  O32  1  0.723073  0.693260  0.974911  1
  O  O33  1  0.276927  0.306740  0.474911  1
  O  O34  1  0.276927  0.193260  0.974911  1
  O  O35  1  0.723073  0.806740  0.474911  1
  O  O36  1  0.122612  0.610465  0.910307  1
  O  O37  1  0.877388  0.389535  0.410307  1
  O  O38  1  0.877388  0.110465  0.910307  1
  O  O39  1  0.122612  0.889535  0.410307  1
  O  O40  1  0.929228  0.806115  0.847366  1
  O  O41  1  0.070772  0.193885  0.347366  1
  O  O42  1  0.070772  0.306115  0.847366  1
  O  O43  1  0.929228  0.693885  0.347366  1
  O  O44  1  0.355559  0.030646  0.777683  1
  O  O45  1  0.644441  0.969354  0.277683  1
  O  O46  1  0.644441  0.530646  0.777683  1
  O  O47  1  0.355559  0.469354  0.277683  1
  O  O48  1  0.860378  0.309089  0.998705  1
  O  O49  1  0.139622  0.690911  0.498705  1
  O  O50  1  0.139622  0.809089  0.998705  1
  O  O51  1  0.860378  0.190911  0.498705  1
  O  O52  1  0.395040  0.426639  0.111370  1
  O  O53  1  0.604960  0.573361  0.611370  1
  O  O54  1  0.604960  0.926639  0.111370  1
  O  O55  1  0.395040  0.073361  0.611370  1
  O  O56  1  0.588395  0.146422  0.171882  1
  O  O57  1  0.411605  0.853578  0.671882  1
  O  O58  1  0.411605  0.646422  0.171882  1
  O  O59  1  0.588395  0.353578  0.671882  1
  O  O60  1  0.227736  0.988553  0.200587  1
  O  O61  1  0.772264  0.011447  0.700587  1
  O  O62  1  0.772264  0.488553  0.200587  1
  O  O63  1  0.227736  0.511447  0.700587  1
