# generated using pymatgen
data_Cs2TlVF6
_symmetry_space_group_name_H-M   'P 1'
_cell_length_a   6.65509776
_cell_length_b   6.65509776
_cell_length_c   6.65509776
_cell_angle_alpha   60.00000000
_cell_angle_beta   60.00000000
_cell_angle_gamma   60.00000000
_symmetry_Int_Tables_number   1
_chemical_formula_structural   Cs2TlVF6
_chemical_formula_sum   'Cs2 Tl1 V1 F6'
_cell_volume   208.42428495
_cell_formula_units_Z   1
loop_
 _symmetry_equiv_pos_site_id
 _symmetry_equiv_pos_as_xyz
  1  'x, y, z'
loop_
 _atom_site_type_symbol
 _atom_site_label
 _atom_site_symmetry_multiplicity
 _atom_site_fract_x
 _atom_site_fract_y
 _atom_site_fract_z
 _atom_site_occupancy
  Cs  Cs0  1  0.250000  0.250000  0.250000  1
  Cs  Cs1  1  0.750000  0.750000  0.750000  1
  Tl  Tl2  1  0.500000  0.500000  0.500000  1
  V  V3  1  0.000000  0.000000  0.000000  1
  F  F4  1  0.211191  0.788809  0.788810  1
  F  F5  1  0.211191  0.211191  0.788809  1
  F  F6  1  0.788810  0.788810  0.211191  1
  F  F7  1  0.788809  0.211190  0.788809  1
  F  F8  1  0.788809  0.211191  0.211191  1
  F  F9  1  0.211191  0.788809  0.211191  1
