# generated using pymatgen
data_Na2Ca3Ta2O9
_symmetry_space_group_name_H-M   'P 1'
_cell_length_a   8.82211968
_cell_length_b   8.82211968
_cell_length_c   8.82211968
_cell_angle_alpha   37.61431345
_cell_angle_beta   37.61431345
_cell_angle_gamma   37.61431345
_symmetry_Int_Tables_number   1
_chemical_formula_structural   Na2Ca3Ta2O9
_chemical_formula_sum   'Na2 Ca3 Ta2 O9'
_cell_volume   229.43778014
_cell_formula_units_Z   1
loop_
 _symmetry_equiv_pos_site_id
 _symmetry_equiv_pos_as_xyz
  1  'x, y, z'
loop_
 _atom_site_type_symbol
 _atom_site_label
 _atom_site_symmetry_multiplicity
 _atom_site_fract_x
 _atom_site_fract_y
 _atom_site_fract_z
 _atom_site_occupancy
  Na  Na0  1  0.800486  0.800486  0.800486  1
  Na  Na1  1  0.199514  0.199514  0.199514  1
  Ca  Ca2  1  0.628549  0.628549  0.628549  1
  Ca  Ca3  1  0.500000  0.500000  0.500000  1
  Ca  Ca4  1  0.371451  0.371451  0.371451  1
  Ta  Ta5  1  0.935914  0.935914  0.935914  1
  Ta  Ta6  1  0.064086  0.064086  0.064086  1
  O  O7  1  0.657148  0.213257  0.813466  1
  O  O8  1  0.186534  0.786743  0.342852  1
  O  O9  1  0.213257  0.813466  0.657148  1
  O  O10  1  0.786743  0.342852  0.186534  1
  O  O11  1  0.813466  0.657148  0.213257  1
  O  O12  1  0.741569  0.258431  0.000000  1
  O  O13  1  0.258431  0.000000  0.741569  1
  O  O14  1  0.000000  0.741569  0.258431  1
  O  O15  1  0.342852  0.186534  0.786743  1
