# generated using pymatgen
data_GaH20C2S2NO14
_symmetry_space_group_name_H-M   'P 1'
_cell_length_a   6.31477117
_cell_length_b   10.97395786
_cell_length_c   11.45068328
_cell_angle_alpha   90.00000000
_cell_angle_beta   103.58419819
_cell_angle_gamma   90.00000000
_symmetry_Int_Tables_number   1
_chemical_formula_structural   GaH20C2S2NO14
_chemical_formula_sum   'Ga2 H40 C4 S4 N2 O28'
_cell_volume   771.31203294
_cell_formula_units_Z   2
loop_
 _symmetry_equiv_pos_site_id
 _symmetry_equiv_pos_as_xyz
  1  'x, y, z'
loop_
 _atom_site_type_symbol
 _atom_site_label
 _atom_site_symmetry_multiplicity
 _atom_site_fract_x
 _atom_site_fract_y
 _atom_site_fract_z
 _atom_site_occupancy
  Ga  Ga0  1  0.256244  0.495673  0.743769  1
  Ga  Ga1  1  0.743756  0.995673  0.256231  1
  H  H2  1  0.483283  0.991355  0.703375  1
  H  H3  1  0.012925  0.644126  0.837925  1
  H  H4  1  0.505661  0.844438  0.342978  1
  H  H5  1  0.399430  0.312822  0.889863  1
  H  H6  1  0.890694  0.178702  0.395718  1
  H  H7  1  0.054431  0.043194  0.696644  1
  H  H8  1  0.047054  0.006608  0.131508  1
  H  H9  1  0.900679  0.903350  0.669210  1
  H  H10  1  0.444343  0.640704  0.930967  1
  H  H11  1  0.600570  0.812822  0.110137  1
  H  H12  1  0.899324  0.467399  0.568336  1
  H  H13  1  0.516717  0.491355  0.296625  1
  H  H14  1  0.380400  0.686026  0.637278  1
  H  H15  1  0.533142  0.996681  0.864632  1
  H  H16  1  0.987075  0.144126  0.162075  1
  H  H17  1  0.100676  0.967399  0.431664  1
  H  H18  1  0.561309  0.481387  0.622261  1
  H  H19  1  0.099321  0.403350  0.330790  1
  H  H20  1  0.945569  0.543194  0.303356  1
  H  H21  1  0.063541  0.347590  0.564226  1
  H  H22  1  0.780085  0.044728  0.608092  1
  H  H23  1  0.076967  0.487964  0.132679  1
  H  H24  1  0.466858  0.496681  0.135368  1
  H  H25  1  0.195461  0.615687  0.190006  1
  H  H26  1  0.494339  0.344438  0.657022  1
  H  H27  1  0.615943  0.865959  0.791823  1
  H  H28  1  0.869141  0.806317  0.146964  1
  H  H29  1  0.130859  0.306317  0.853036  1
  H  H30  1  0.387028  0.025265  0.073877  1
  H  H31  1  0.804539  0.115687  0.809994  1
  H  H32  1  0.923033  0.987964  0.867321  1
  H  H33  1  0.612972  0.525265  0.926123  1
  H  H34  1  0.619600  0.186026  0.362722  1
  H  H35  1  0.384057  0.365959  0.208177  1
  H  H36  1  0.936459  0.847590  0.435774  1
  H  H37  1  0.438691  0.981387  0.377739  1
  H  H38  1  0.109306  0.678702  0.604282  1
  H  H39  1  0.219915  0.544728  0.391908  1
  H  H40  1  0.952946  0.506608  0.868492  1
  H  H41  1  0.555657  0.140704  0.069033  1
  C  C42  1  0.106987  0.501558  0.316148  1
  C  C43  1  0.405859  0.464768  0.211955  1
  C  C44  1  0.594141  0.964768  0.788045  1
  C  C45  1  0.893013  0.001558  0.683852  1
  S  S46  1  0.666265  0.677915  0.502677  1
  S  S47  1  0.842033  0.310269  0.992844  1
  S  S48  1  0.333735  0.177915  0.497323  1
  S  S49  1  0.157967  0.810269  0.007156  1
  N  N50  1  0.189736  0.522445  0.206176  1
  N  N51  1  0.810264  0.022445  0.793824  1
  O  O52  1  0.326177  0.041357  0.482947  1
  O  O53  1  0.522057  0.707974  0.384035  1
  O  O54  1  0.735335  0.836241  0.172103  1
  O  O55  1  0.036562  0.422941  0.608580  1
  O  O56  1  0.844365  0.447766  0.982549  1
  O  O57  1  0.413168  0.233999  0.397782  1
  O  O58  1  0.893365  0.722993  0.506899  1
  O  O59  1  0.526106  0.067091  0.113508  1
  O  O60  1  0.384017  0.767537  0.009361  1
  O  O61  1  0.007172  0.776824  0.892105  1
  O  O62  1  0.246968  0.655670  0.665126  1
  O  O63  1  0.586832  0.733999  0.602218  1
  O  O64  1  0.473894  0.567091  0.886492  1
  O  O65  1  0.673823  0.541357  0.517053  1
  O  O66  1  0.010574  0.556272  0.809907  1
  O  O67  1  0.155635  0.947766  0.017451  1
  O  O68  1  0.086890  0.757077  0.111765  1
  O  O69  1  0.913110  0.257077  0.888235  1
  O  O70  1  0.963438  0.922941  0.391420  1
  O  O71  1  0.477943  0.207974  0.615965  1
  O  O72  1  0.106635  0.222993  0.493101  1
  O  O73  1  0.495884  0.933727  0.316596  1
  O  O74  1  0.615983  0.267537  0.990639  1
  O  O75  1  0.992828  0.276824  0.107895  1
  O  O76  1  0.264665  0.336241  0.827897  1
  O  O77  1  0.989426  0.056272  0.190093  1
  O  O78  1  0.753032  0.155670  0.334874  1
  O  O79  1  0.504116  0.433727  0.683404  1
