# generated using pymatgen
data_As3Pb5ClO9
_symmetry_space_group_name_H-M   'P 1'
_cell_length_a   10.59666460
_cell_length_b   10.59666460
_cell_length_c   7.10499798
_cell_angle_alpha   90.00000000
_cell_angle_beta   90.00000000
_cell_angle_gamma   120.00000000
_symmetry_Int_Tables_number   1
_chemical_formula_structural   As3Pb5ClO9
_chemical_formula_sum   'As6 Pb10 Cl2 O18'
_cell_volume   690.92827729
_cell_formula_units_Z   2
loop_
 _symmetry_equiv_pos_site_id
 _symmetry_equiv_pos_as_xyz
  1  'x, y, z'
loop_
 _atom_site_type_symbol
 _atom_site_label
 _atom_site_symmetry_multiplicity
 _atom_site_fract_x
 _atom_site_fract_y
 _atom_site_fract_z
 _atom_site_occupancy
  As  As0  1  0.414689  0.399674  0.250000  1
  As  As1  1  0.015016  0.414689  0.750000  1
  As  As2  1  0.399674  0.984984  0.750000  1
  As  As3  1  0.600326  0.015016  0.250000  1
  As  As4  1  0.984984  0.585311  0.250000  1
  As  As5  1  0.585311  0.600326  0.750000  1
  Pb  Pb6  1  0.333333  0.666667  0.988394  1
  Pb  Pb7  1  0.666667  0.333333  0.488394  1
  Pb  Pb8  1  0.666667  0.333333  0.011606  1
  Pb  Pb9  1  0.333333  0.666667  0.511606  1
  Pb  Pb10  1  0.267686  0.042264  0.250000  1
  Pb  Pb11  1  0.225423  0.267686  0.750000  1
  Pb  Pb12  1  0.042264  0.774577  0.750000  1
  Pb  Pb13  1  0.957736  0.225423  0.250000  1
  Pb  Pb14  1  0.774577  0.732314  0.250000  1
  Pb  Pb15  1  0.732314  0.957736  0.750000  1
  Cl  Cl16  1  0.000000  0.000000  0.000000  1
  Cl  Cl17  1  0.000000  0.000000  0.500000  1
  O  O18  1  0.612592  0.463276  0.250000  1
  O  O19  1  0.149315  0.612592  0.750000  1
  O  O20  1  0.463276  0.850685  0.750000  1
  O  O21  1  0.536724  0.149315  0.250000  1
  O  O22  1  0.850685  0.387408  0.250000  1
  O  O23  1  0.387408  0.536724  0.750000  1
  O  O24  1  0.370350  0.276050  0.057896  1
  O  O25  1  0.094300  0.370350  0.557896  1
  O  O26  1  0.276050  0.905700  0.557896  1
  O  O27  1  0.723950  0.094300  0.057896  1
  O  O28  1  0.905700  0.629650  0.057896  1
  O  O29  1  0.629650  0.723950  0.557896  1
  O  O30  1  0.629650  0.723950  0.942104  1
  O  O31  1  0.905700  0.629650  0.442104  1
  O  O32  1  0.723950  0.094300  0.442104  1
  O  O33  1  0.276050  0.905700  0.942104  1
  O  O34  1  0.094300  0.370350  0.942104  1
  O  O35  1  0.370350  0.276050  0.442104  1
