# generated using pymatgen
data_HoCoSn
_symmetry_space_group_name_H-M   'P 1'
_cell_length_a   4.57928980
_cell_length_b   7.23886457
_cell_length_c   7.30340651
_cell_angle_alpha   90.00000000
_cell_angle_beta   90.00000000
_cell_angle_gamma   90.00000000
_symmetry_Int_Tables_number   1
_chemical_formula_structural   HoCoSn
_chemical_formula_sum   'Ho4 Co4 Sn4'
_cell_volume   242.09959035
_cell_formula_units_Z   4
loop_
 _symmetry_equiv_pos_site_id
 _symmetry_equiv_pos_as_xyz
  1  'x, y, z'
loop_
 _atom_site_type_symbol
 _atom_site_label
 _atom_site_symmetry_multiplicity
 _atom_site_fract_x
 _atom_site_fract_y
 _atom_site_fract_z
 _atom_site_occupancy
  Ho  Ho0  1  0.250000  0.476683  0.700480  1
  Ho  Ho1  1  0.250000  0.976683  0.799520  1
  Ho  Ho2  1  0.750000  0.023317  0.200480  1
  Ho  Ho3  1  0.750000  0.523317  0.299520  1
  Co  Co4  1  0.750000  0.841952  0.558739  1
  Co  Co5  1  0.250000  0.158048  0.441261  1
  Co  Co6  1  0.750000  0.341952  0.941261  1
  Co  Co7  1  0.250000  0.658048  0.058739  1
  Sn  Sn8  1  0.750000  0.702104  0.891824  1
  Sn  Sn9  1  0.250000  0.797896  0.391824  1
  Sn  Sn10  1  0.250000  0.297896  0.108176  1
  Sn  Sn11  1  0.750000  0.202104  0.608176  1
