# generated using pymatgen
data_Dy5Ga3
_symmetry_space_group_name_H-M   'P 1'
_cell_length_a   8.92186229
_cell_length_b   8.92186229
_cell_length_c   8.92186229
_cell_angle_alpha   129.33388183
_cell_angle_beta   129.33388183
_cell_angle_gamma   74.47393378
_symmetry_Int_Tables_number   1
_chemical_formula_structural   Dy5Ga3
_chemical_formula_sum   'Dy10 Ga6'
_cell_volume   414.05557501
_cell_formula_units_Z   2
loop_
 _symmetry_equiv_pos_site_id
 _symmetry_equiv_pos_as_xyz
  1  'x, y, z'
loop_
 _atom_site_type_symbol
 _atom_site_label
 _atom_site_symmetry_multiplicity
 _atom_site_fract_x
 _atom_site_fract_y
 _atom_site_fract_z
 _atom_site_occupancy
  Dy  Dy0  1  0.000000  0.000000  0.000000  1
  Dy  Dy1  1  0.500000  0.500000  0.000000  1
  Dy  Dy2  1  0.817317  0.317317  0.840158  1
  Dy  Dy3  1  0.317317  0.477160  0.500000  1
  Dy  Dy4  1  0.977160  0.817317  0.500000  1
  Dy  Dy5  1  0.682683  0.522840  0.500000  1
  Dy  Dy6  1  0.022840  0.182683  0.500000  1
  Dy  Dy7  1  0.522840  0.022840  0.840158  1
  Dy  Dy8  1  0.182683  0.682683  0.159842  1
  Dy  Dy9  1  0.477160  0.977160  0.159842  1
  Ga  Ga10  1  0.250000  0.250000  0.000000  1
  Ga  Ga11  1  0.750000  0.750000  0.000000  1
  Ga  Ga12  1  0.877829  0.377829  0.255658  1
  Ga  Ga13  1  0.377829  0.122171  0.500000  1
  Ga  Ga14  1  0.622171  0.877829  0.500000  1
  Ga  Ga15  1  0.122171  0.622171  0.744342  1
