# generated using pymatgen
data_Ba6Na2Nb2P2O17
_symmetry_space_group_name_H-M   'P 1'
_cell_length_a   5.91000625
_cell_length_b   5.91000625
_cell_length_c   14.75961795
_cell_angle_alpha   90.00000000
_cell_angle_beta   90.00000000
_cell_angle_gamma   120.00000000
_symmetry_Int_Tables_number   1
_chemical_formula_structural   Ba6Na2Nb2P2O17
_chemical_formula_sum   'Ba6 Na2 Nb2 P2 O17'
_cell_volume   446.45904737
_cell_formula_units_Z   1
loop_
 _symmetry_equiv_pos_site_id
 _symmetry_equiv_pos_as_xyz
  1  'x, y, z'
loop_
 _atom_site_type_symbol
 _atom_site_label
 _atom_site_symmetry_multiplicity
 _atom_site_fract_x
 _atom_site_fract_y
 _atom_site_fract_z
 _atom_site_occupancy
  Ba  Ba0  1  0.666667  0.333333  0.656193  1
  Ba  Ba1  1  0.333333  0.666667  0.343807  1
  Ba  Ba2  1  0.666667  0.333333  0.180313  1
  Ba  Ba3  1  0.333333  0.666667  0.819687  1
  Ba  Ba4  1  0.000000  0.000000  0.000000  1
  Ba  Ba5  1  0.000000  0.000000  0.500000  1
  Na  Na6  1  0.000000  0.000000  0.753003  1
  Na  Na7  1  0.000000  0.000000  0.246997  1
  Nb  Nb8  1  0.333333  0.666667  0.588115  1
  Nb  Nb9  1  0.666667  0.333333  0.411885  1
  P  P10  1  0.333333  0.666667  0.104731  1
  P  P11  1  0.666667  0.333333  0.895269  1
  O  O12  1  0.176480  0.352960  0.660986  1
  O  O13  1  0.810184  0.189816  0.857153  1
  O  O14  1  0.500000  0.000000  0.500000  1
  O  O15  1  0.647040  0.823520  0.660986  1
  O  O16  1  0.189816  0.379632  0.142847  1
  O  O17  1  0.333333  0.666667  0.000405  1
  O  O18  1  0.823520  0.647040  0.339014  1
  O  O19  1  0.823520  0.176480  0.339014  1
  O  O20  1  0.620368  0.810184  0.142847  1
  O  O21  1  0.666667  0.333333  0.999595  1
  O  O22  1  0.810184  0.620368  0.857153  1
  O  O23  1  0.379632  0.189816  0.857153  1
  O  O24  1  0.189816  0.810184  0.142847  1
  O  O25  1  0.000000  0.500000  0.500000  1
  O  O26  1  0.176480  0.823520  0.660986  1
  O  O27  1  0.352960  0.176480  0.339014  1
  O  O28  1  0.500000  0.500000  0.500000  1
