# generated using pymatgen
data_MnBiSe2I
_symmetry_space_group_name_H-M   'P 1'
_cell_length_a   7.07683103
_cell_length_b   7.07683103
_cell_length_c   10.15846758
_cell_angle_alpha   88.21848351
_cell_angle_beta   91.78151649
_cell_angle_gamma   146.03871759
_symmetry_Int_Tables_number   1
_chemical_formula_structural   MnBiSe2I
_chemical_formula_sum   'Mn2 Bi2 Se4 I2'
_cell_volume   284.05506133
_cell_formula_units_Z   2
loop_
 _symmetry_equiv_pos_site_id
 _symmetry_equiv_pos_as_xyz
  1  'x, y, z'
loop_
 _atom_site_type_symbol
 _atom_site_label
 _atom_site_symmetry_multiplicity
 _atom_site_fract_x
 _atom_site_fract_y
 _atom_site_fract_z
 _atom_site_occupancy
  Mn  Mn0  1  0.500000  0.500000  0.000000  1
  Mn  Mn1  1  0.500000  0.500000  0.500000  1
  Bi  Bi2  1  0.210976  0.789024  0.810946  1
  Bi  Bi3  1  0.789024  0.210976  0.189054  1
  Se  Se4  1  0.429543  0.570457  0.243337  1
  Se  Se5  1  0.134602  0.865398  0.057902  1
  Se  Se6  1  0.570457  0.429543  0.756663  1
  Se  Se7  1  0.865398  0.134602  0.942098  1
  I  I8  1  0.134608  0.865392  0.429490  1
  I  I9  1  0.865392  0.134608  0.570510  1
