# generated using pymatgen
data_Y2Si2O7
_symmetry_space_group_name_H-M   'P 1'
_cell_length_a   5.11541877
_cell_length_b   8.14022843
_cell_length_c   7.44895194
_cell_angle_alpha   90.00000000
_cell_angle_beta   107.10450586
_cell_angle_gamma   90.00000000
_symmetry_Int_Tables_number   1
_chemical_formula_structural   Y2Si2O7
_chemical_formula_sum   'Y4 Si4 O14'
_cell_volume   296.46013407
_cell_formula_units_Z   2
loop_
 _symmetry_equiv_pos_site_id
 _symmetry_equiv_pos_as_xyz
  1  'x, y, z'
loop_
 _atom_site_type_symbol
 _atom_site_label
 _atom_site_symmetry_multiplicity
 _atom_site_fract_x
 _atom_site_fract_y
 _atom_site_fract_z
 _atom_site_occupancy
  Y  Y0  1  0.000000  0.500000  0.000000  1
  Y  Y1  1  0.000000  0.000000  0.000000  1
  Y  Y2  1  0.500000  0.000000  0.500000  1
  Y  Y3  1  0.500000  0.500000  0.500000  1
  Si  Si4  1  0.473713  0.250000  0.893393  1
  Si  Si5  1  0.100586  0.750000  0.683646  1
  Si  Si6  1  0.526287  0.750000  0.106607  1
  Si  Si7  1  0.899414  0.250000  0.316354  1
  O  O8  1  0.740566  0.250000  0.085441  1
  O  O9  1  0.183176  0.250000  0.942025  1
  O  O10  1  0.079224  0.417242  0.328156  1
  O  O11  1  0.684693  0.250000  0.440038  1
  O  O12  1  0.465246  0.919555  0.203014  1
  O  O13  1  0.259434  0.750000  0.914559  1
  O  O14  1  0.920776  0.917242  0.671844  1
  O  O15  1  0.315307  0.750000  0.559962  1
  O  O16  1  0.816824  0.750000  0.057975  1
  O  O17  1  0.534754  0.080445  0.796986  1
  O  O18  1  0.920776  0.582758  0.671844  1
  O  O19  1  0.465246  0.580445  0.203014  1
  O  O20  1  0.079224  0.082758  0.328156  1
  O  O21  1  0.534754  0.419555  0.796986  1
