# generated using pymatgen
data_LaPS4
_symmetry_space_group_name_H-M   'P 1'
_cell_length_a   12.58954363
_cell_length_b   12.58954363
_cell_length_c   12.58954363
_cell_angle_alpha   127.24321475
_cell_angle_beta   127.24321475
_cell_angle_gamma   77.85423885
_symmetry_Int_Tables_number   1
_chemical_formula_structural   LaPS4
_chemical_formula_sum   'La8 P8 S32'
_cell_volume   1225.70729301
_cell_formula_units_Z   8
loop_
 _symmetry_equiv_pos_site_id
 _symmetry_equiv_pos_as_xyz
  1  'x, y, z'
loop_
 _atom_site_type_symbol
 _atom_site_label
 _atom_site_symmetry_multiplicity
 _atom_site_fract_x
 _atom_site_fract_y
 _atom_site_fract_z
 _atom_site_occupancy
  La  La0  1  0.750000  0.750000  0.000000  1
  La  La1  1  0.250000  0.250000  0.000000  1
  La  La2  1  0.250000  0.750000  0.500000  1
  La  La3  1  0.750000  0.250000  0.500000  1
  La  La4  1  0.500000  0.500000  0.000000  1
  La  La5  1  0.000000  0.000000  0.000000  1
  La  La6  1  0.500000  0.000000  0.500000  1
  La  La7  1  0.000000  0.500000  0.500000  1
  P  P8  1  0.589027  0.375000  0.714027  1
  P  P9  1  0.660973  0.875000  0.285973  1
  P  P10  1  0.089027  0.375000  0.214027  1
  P  P11  1  0.160973  0.875000  0.785973  1
  P  P12  1  0.625000  0.339027  0.214027  1
  P  P13  1  0.625000  0.839027  0.714027  1
  P  P14  1  0.125000  0.410973  0.785973  1
  P  P15  1  0.125000  0.910973  0.285973  1
  S  S16  1  0.991724  0.221634  0.960685  1
  S  S17  1  0.471634  0.741724  0.460685  1
  S  S18  1  0.971531  0.789805  0.684507  1
  S  S19  1  0.281039  0.010950  0.539315  1
  S  S20  1  0.491724  0.531039  0.770089  1
  S  S21  1  0.778366  0.739050  0.770089  1
  S  S22  1  0.144702  0.960195  0.681726  1
  S  S23  1  0.039805  0.721531  0.184507  1
  S  S24  1  0.468961  0.239050  0.960685  1
  S  S25  1  0.968961  0.008276  0.229911  1
  S  S26  1  0.539805  0.355298  0.318274  1
  S  S27  1  0.778469  0.460195  0.815493  1
  S  S28  1  0.605298  0.289805  0.818274  1
  S  S29  1  0.760950  0.721634  0.229911  1
  S  S30  1  0.989050  0.528366  0.270089  1
  S  S31  1  0.489050  0.218961  0.460685  1
  S  S32  1  0.644702  0.962977  0.184507  1
  S  S33  1  0.710195  0.528469  0.315493  1
  S  S34  1  0.212977  0.394702  0.684507  1
  S  S35  1  0.278366  0.508276  0.039315  1
  S  S36  1  0.781039  0.241724  0.270089  1
  S  S37  1  0.105298  0.287023  0.315493  1
  S  S38  1  0.971634  0.510950  0.729911  1
  S  S39  1  0.537023  0.855298  0.815493  1
  S  S40  1  0.471531  0.787023  0.181726  1
  S  S41  1  0.278469  0.462977  0.318274  1
  S  S42  1  0.260950  0.031039  0.039315  1
  S  S43  1  0.258276  0.718961  0.729911  1
  S  S44  1  0.037023  0.221531  0.681726  1
  S  S45  1  0.712977  0.028469  0.818274  1
  S  S46  1  0.210195  0.894702  0.181726  1
  S  S47  1  0.758276  0.028366  0.539315  1
