# generated using pymatgen
data_TlMo2Cl7O2
_symmetry_space_group_name_H-M   'P 1'
_cell_length_a   7.26701929
_cell_length_b   9.62580323
_cell_length_c   10.28145445
_cell_angle_alpha   103.51288627
_cell_angle_beta   90.43926309
_cell_angle_gamma   109.13855518
_symmetry_Int_Tables_number   1
_chemical_formula_structural   TlMo2Cl7O2
_chemical_formula_sum   'Tl2 Mo4 Cl14 O4'
_cell_volume   657.85087196
_cell_formula_units_Z   2
loop_
 _symmetry_equiv_pos_site_id
 _symmetry_equiv_pos_as_xyz
  1  'x, y, z'
loop_
 _atom_site_type_symbol
 _atom_site_label
 _atom_site_symmetry_multiplicity
 _atom_site_fract_x
 _atom_site_fract_y
 _atom_site_fract_z
 _atom_site_occupancy
  Tl  Tl0  1  0.228325  0.756115  0.935096  1
  Tl  Tl1  1  0.771675  0.243885  0.064904  1
  Mo  Mo2  1  0.776058  0.854425  0.209904  1
  Mo  Mo3  1  0.634490  0.373537  0.595796  1
  Mo  Mo4  1  0.365510  0.626463  0.404204  1
  Mo  Mo5  1  0.223942  0.145575  0.790096  1
  Cl  Cl6  1  0.895450  0.603773  0.655541  1
  Cl  Cl7  1  0.423868  0.597252  0.169202  1
  Cl  Cl8  1  0.749046  0.842187  0.977511  1
  Cl  Cl9  1  0.250954  0.157813  0.022489  1
  Cl  Cl10  1  0.576132  0.402748  0.830798  1
  Cl  Cl11  1  0.104550  0.396227  0.344459  1
  Cl  Cl12  1  0.709448  0.801853  0.437826  1
  Cl  Cl13  1  0.412169  0.597402  0.626616  1
  Cl  Cl14  1  0.086931  0.345348  0.843697  1
  Cl  Cl15  1  0.290552  0.198147  0.562174  1
  Cl  Cl16  1  0.539633  0.981427  0.232125  1
  Cl  Cl17  1  0.913069  0.654652  0.156303  1
  Cl  Cl18  1  0.587831  0.402598  0.373384  1
  Cl  Cl19  1  0.460367  0.018573  0.767875  1
  O  O20  1  0.250386  0.755339  0.434079  1
  O  O21  1  0.017837  0.995655  0.729966  1
  O  O22  1  0.749614  0.244661  0.565921  1
  O  O23  1  0.982163  0.004345  0.270034  1
