# generated using pymatgen
data_K4In2Si8O21
_symmetry_space_group_name_H-M   'P 1'
_cell_length_a   8.54030186
_cell_length_b   11.66705062
_cell_length_c   13.60743553
_cell_angle_alpha   90.00000000
_cell_angle_beta   128.61959284
_cell_angle_gamma   90.00000000
_symmetry_Int_Tables_number   1
_chemical_formula_structural   K4In2Si8O21
_chemical_formula_sum   'K8 In4 Si16 O42'
_cell_volume   1059.33263418
_cell_formula_units_Z   2
loop_
 _symmetry_equiv_pos_site_id
 _symmetry_equiv_pos_as_xyz
  1  'x, y, z'
loop_
 _atom_site_type_symbol
 _atom_site_label
 _atom_site_symmetry_multiplicity
 _atom_site_fract_x
 _atom_site_fract_y
 _atom_site_fract_z
 _atom_site_occupancy
  K  K0  1  0.720521  0.357801  0.204633  1
  K  K1  1  0.302109  0.467525  0.308277  1
  K  K2  1  0.279479  0.642199  0.795367  1
  K  K3  1  0.279479  0.857801  0.295367  1
  K  K4  1  0.302109  0.032475  0.808277  1
  K  K5  1  0.697891  0.967525  0.191723  1
  K  K6  1  0.697891  0.532475  0.691723  1
  K  K7  1  0.720521  0.142199  0.704633  1
  In  In8  1  0.762199  0.666179  0.460070  1
  In  In9  1  0.762199  0.833821  0.960070  1
  In  In10  1  0.237801  0.166179  0.039930  1
  In  In11  1  0.237801  0.333821  0.539930  1
  Si  Si12  1  0.186330  0.457119  0.004435  1
  Si  Si13  1  0.813670  0.542881  0.995565  1
  Si  Si14  1  0.115651  0.326546  0.788656  1
  Si  Si15  1  0.813670  0.957119  0.495565  1
  Si  Si16  1  0.796188  0.368036  0.502837  1
  Si  Si17  1  0.524698  0.337035  0.835756  1
  Si  Si18  1  0.475302  0.662965  0.164244  1
  Si  Si19  1  0.475302  0.837035  0.664244  1
  Si  Si20  1  0.796188  0.131964  0.002837  1
  Si  Si21  1  0.115651  0.173454  0.288656  1
  Si  Si22  1  0.884349  0.826546  0.711344  1
  Si  Si23  1  0.203812  0.631964  0.497163  1
  Si  Si24  1  0.884349  0.673454  0.211344  1
  Si  Si25  1  0.203812  0.868036  0.997163  1
  Si  Si26  1  0.186330  0.042881  0.504435  1
  Si  Si27  1  0.524698  0.162965  0.335756  1
  O  O28  1  0.654505  0.063963  0.444867  1
  O  O29  1  0.061305  0.850465  0.035649  1
  O  O30  1  0.712903  0.860058  0.726733  1
  O  O31  1  0.097861  0.438327  0.856948  1
  O  O32  1  0.465271  0.847312  0.778379  1
  O  O33  1  0.407794  0.713357  0.591516  1
  O  O34  1  0.938695  0.350465  0.464351  1
  O  O35  1  0.286052  0.995807  0.008252  1
  O  O36  1  0.902139  0.938327  0.643052  1
  O  O37  1  0.097861  0.061673  0.356948  1
  O  O38  1  0.938695  0.149535  0.964351  1
  O  O39  1  0.287097  0.360058  0.773267  1
  O  O40  1  0.840343  0.791739  0.138799  1
  O  O41  1  0.902139  0.561673  0.143052  1
  O  O42  1  0.295447  0.153962  0.590881  1
  O  O43  1  0.465271  0.652688  0.278379  1
  O  O44  1  0.286052  0.504193  0.508252  1
  O  O45  1  0.713948  0.495807  0.491748  1
  O  O46  1  0.159657  0.208261  0.861201  1
  O  O47  1  0.704553  0.846038  0.409119  1
  O  O48  1  0.592206  0.213357  0.908484  1
  O  O49  1  0.287097  0.139942  0.273267  1
  O  O50  1  0.100256  0.818160  0.853163  1
  O  O51  1  0.345495  0.563963  0.055133  1
  O  O52  1  0.295447  0.346038  0.090881  1
  O  O53  1  0.159657  0.291739  0.361201  1
  O  O54  1  0.840343  0.708261  0.638799  1
  O  O55  1  0.713948  0.004193  0.991748  1
  O  O56  1  0.534729  0.152688  0.221621  1
  O  O57  1  0.592206  0.286643  0.408484  1
  O  O58  1  0.000000  0.500000  0.000000  1
  O  O59  1  0.345495  0.936037  0.555133  1
  O  O60  1  0.899744  0.318160  0.646837  1
  O  O61  1  0.100256  0.681840  0.353163  1
  O  O62  1  0.407794  0.786643  0.091516  1
  O  O63  1  0.534729  0.347312  0.721621  1
  O  O64  1  0.899744  0.181840  0.146837  1
  O  O65  1  0.712903  0.639942  0.226733  1
  O  O66  1  0.704553  0.653962  0.909119  1
  O  O67  1  0.061305  0.649535  0.535649  1
  O  O68  1  0.654505  0.436037  0.944867  1
  O  O69  1  0.000000  0.000000  0.500000  1
