# generated using pymatgen
data_Sr2PrGaCu2O7
_symmetry_space_group_name_H-M   'P 1'
_cell_length_a   12.30200225
_cell_length_b   12.30200225
_cell_length_c   12.30200225
_cell_angle_alpha   154.26239991
_cell_angle_beta   153.64929532
_cell_angle_gamma   37.16622155
_symmetry_Int_Tables_number   1
_chemical_formula_structural   Sr2PrGaCu2O7
_chemical_formula_sum   'Sr4 Pr2 Ga2 Cu4 O14'
_cell_volume   358.34048259
_cell_formula_units_Z   2
loop_
 _symmetry_equiv_pos_site_id
 _symmetry_equiv_pos_as_xyz
  1  'x, y, z'
loop_
 _atom_site_type_symbol
 _atom_site_label
 _atom_site_symmetry_multiplicity
 _atom_site_fract_x
 _atom_site_fract_y
 _atom_site_fract_z
 _atom_site_occupancy
  Sr  Sr0  1  0.172441  0.650937  0.517475  1
  Sr  Sr1  1  0.827559  0.345034  0.478496  1
  Sr  Sr2  1  0.633462  0.150937  0.478496  1
  Sr  Sr3  1  0.366538  0.845034  0.517475  1
  Pr  Pr4  1  0.000000  0.500810  0.500810  1
  Pr  Pr5  1  0.500000  0.000810  0.500810  1
  Ga  Ga6  1  0.179172  0.214870  0.894043  1
  Ga  Ga7  1  0.820828  0.714870  0.035698  1
  Cu  Cu8  1  0.074691  0.077601  0.999999  1
  Cu  Cu9  1  0.925309  0.925307  0.002910  1
  Cu  Cu10  1  0.577603  0.577601  0.002910  1
  Cu  Cu11  1  0.422397  0.425307  0.999999  1
  O  O12  1  0.871233  0.366899  0.738132  1
  O  O13  1  0.128767  0.866899  0.495666  1
  O  O14  1  0.818144  0.320064  0.000226  1
  O  O15  1  0.181856  0.182082  0.501920  1
  O  O16  1  0.819839  0.820064  0.501920  1
  O  O17  1  0.180161  0.682082  0.000226  1
  O  O18  1  0.314460  0.816473  0.999206  1
  O  O19  1  0.685540  0.684747  0.502013  1
  O  O20  1  0.317266  0.316473  0.502013  1
  O  O21  1  0.682734  0.184747  0.999206  1
  O  O22  1  0.629369  0.708696  0.982644  1
  O  O23  1  0.370631  0.353276  0.079327  1
  O  O24  1  0.226052  0.208696  0.079327  1
  O  O25  1  0.773948  0.853276  0.982644  1
