# generated using pymatgen
data_Li2TeO3
_symmetry_space_group_name_H-M   'P 1'
_cell_length_a   5.47640983
_cell_length_b   5.47640983
_cell_length_c   13.68186760
_cell_angle_alpha   87.85946522
_cell_angle_beta   92.14053478
_cell_angle_gamma   56.51149826
_symmetry_Int_Tables_number   1
_chemical_formula_structural   Li2TeO3
_chemical_formula_sum   'Li4 Te2 O6'
_cell_volume   341.15018093
_cell_formula_units_Z   2
loop_
 _symmetry_equiv_pos_site_id
 _symmetry_equiv_pos_as_xyz
  1  'x, y, z'
loop_
 _atom_site_type_symbol
 _atom_site_label
 _atom_site_symmetry_multiplicity
 _atom_site_fract_x
 _atom_site_fract_y
 _atom_site_fract_z
 _atom_site_occupancy
  Li  Li0  1  0.360952  0.953360  0.567959  1
  Li  Li1  1  0.046640  0.639048  0.567959  1
  Li  Li2  1  0.953360  0.360952  0.432041  1
  Li  Li3  1  0.639048  0.046640  0.432041  1
  Te  Te4  1  0.729990  0.270010  0.660520  1
  Te  Te5  1  0.270010  0.729990  0.339480  1
  O  O6  1  0.631450  0.368550  0.363490  1
  O  O7  1  0.368550  0.631450  0.636510  1
  O  O8  1  0.970940  0.327828  0.580844  1
  O  O9  1  0.327828  0.970940  0.419156  1
  O  O10  1  0.672172  0.029060  0.580844  1
  O  O11  1  0.029060  0.672172  0.419156  1
