# generated using pymatgen
data_V4O9
_symmetry_space_group_name_H-M   'P 1'
_cell_length_a   3.70357055
_cell_length_b   9.55549105
_cell_length_c   18.19565130
_cell_angle_alpha   90.00000000
_cell_angle_beta   90.00000000
_cell_angle_gamma   90.00000000
_symmetry_Int_Tables_number   1
_chemical_formula_structural   V4O9
_chemical_formula_sum   'V16 O36'
_cell_volume   643.93382340
_cell_formula_units_Z   4
loop_
 _symmetry_equiv_pos_site_id
 _symmetry_equiv_pos_as_xyz
  1  'x, y, z'
loop_
 _atom_site_type_symbol
 _atom_site_label
 _atom_site_symmetry_multiplicity
 _atom_site_fract_x
 _atom_site_fract_y
 _atom_site_fract_z
 _atom_site_occupancy
  V  V0  1  0.750000  0.036046  0.422010  1
  V  V1  1  0.250000  0.963954  0.577990  1
  V  V2  1  0.750000  0.463954  0.922010  1
  V  V3  1  0.250000  0.536046  0.077990  1
  V  V4  1  0.250000  0.270385  0.490240  1
  V  V5  1  0.750000  0.770385  0.009760  1
  V  V6  1  0.250000  0.229615  0.990240  1
  V  V7  1  0.750000  0.729615  0.509760  1
  V  V8  1  0.250000  0.453902  0.317101  1
  V  V9  1  0.250000  0.046098  0.817101  1
  V  V10  1  0.750000  0.953902  0.182899  1
  V  V11  1  0.750000  0.546098  0.682899  1
  V  V12  1  0.250000  0.203399  0.167664  1
  V  V13  1  0.250000  0.296601  0.667664  1
  V  V14  1  0.750000  0.796601  0.832336  1
  V  V15  1  0.750000  0.703399  0.332336  1
  O  O16  1  0.250000  0.447543  0.950739  1
  O  O17  1  0.250000  0.052457  0.450739  1
  O  O18  1  0.750000  0.552457  0.049261  1
  O  O19  1  0.750000  0.947543  0.549261  1
  O  O20  1  0.250000  0.649199  0.344764  1
  O  O21  1  0.750000  0.350801  0.655236  1
  O  O22  1  0.250000  0.850801  0.844764  1
  O  O23  1  0.750000  0.149199  0.155236  1
  O  O24  1  0.250000  0.156106  0.584822  1
  O  O25  1  0.250000  0.343894  0.084822  1
  O  O26  1  0.750000  0.843894  0.415178  1
  O  O27  1  0.750000  0.656106  0.915178  1
  O  O28  1  0.750000  0.816839  0.260085  1
  O  O29  1  0.250000  0.316839  0.239915  1
  O  O30  1  0.250000  0.183161  0.739915  1
  O  O31  1  0.750000  0.683161  0.760085  1
  O  O32  1  0.250000  0.583070  0.163257  1
  O  O33  1  0.750000  0.416930  0.836743  1
  O  O34  1  0.250000  0.916930  0.663257  1
  O  O35  1  0.750000  0.083070  0.336743  1
  O  O36  1  0.250000  0.353016  0.396430  1
  O  O37  1  0.750000  0.853016  0.103570  1
  O  O38  1  0.250000  0.146984  0.896430  1
  O  O39  1  0.750000  0.646984  0.603570  1
  O  O40  1  0.250000  0.722491  0.022894  1
  O  O41  1  0.750000  0.277509  0.977106  1
  O  O42  1  0.250000  0.777509  0.522894  1
  O  O43  1  0.750000  0.222491  0.477106  1
  O  O44  1  0.750000  0.906541  0.955254  1
  O  O45  1  0.750000  0.593459  0.455254  1
  O  O46  1  0.250000  0.406541  0.544746  1
  O  O47  1  0.250000  0.093459  0.044746  1
  O  O48  1  0.750000  0.508682  0.297941  1
  O  O49  1  0.750000  0.991318  0.797941  1
  O  O50  1  0.250000  0.008682  0.202059  1
  O  O51  1  0.250000  0.491318  0.702059  1
