# generated using pymatgen
data_Cr2S3
_symmetry_space_group_name_H-M   'P 1'
_cell_length_a   6.59963919
_cell_length_b   6.59963919
_cell_length_c   6.59963919
_cell_angle_alpha   54.28492640
_cell_angle_beta   54.28492640
_cell_angle_gamma   54.28492640
_symmetry_Int_Tables_number   1
_chemical_formula_structural   Cr2S3
_chemical_formula_sum   'Cr4 S6'
_cell_volume   176.15310429
_cell_formula_units_Z   2
loop_
 _symmetry_equiv_pos_site_id
 _symmetry_equiv_pos_as_xyz
  1  'x, y, z'
loop_
 _atom_site_type_symbol
 _atom_site_label
 _atom_site_symmetry_multiplicity
 _atom_site_fract_x
 _atom_site_fract_y
 _atom_site_fract_z
 _atom_site_occupancy
  Cr  Cr0  1  0.677471  0.677471  0.677471  1
  Cr  Cr1  1  0.500000  0.500000  0.500000  1
  Cr  Cr2  1  0.000000  0.000000  0.000000  1
  Cr  Cr3  1  0.322529  0.322529  0.322529  1
  S  S4  1  0.596507  0.902191  0.265784  1
  S  S5  1  0.734216  0.403493  0.097809  1
  S  S6  1  0.265784  0.596507  0.902191  1
  S  S7  1  0.403493  0.097809  0.734216  1
  S  S8  1  0.097809  0.734216  0.403493  1
  S  S9  1  0.902191  0.265784  0.596507  1
