# generated using pymatgen
data_La4CdCo
_symmetry_space_group_name_H-M   'P 1'
_cell_length_a   9.98337513
_cell_length_b   9.98337513
_cell_length_c   9.98337513
_cell_angle_alpha   60.00000000
_cell_angle_beta   60.00000000
_cell_angle_gamma   60.00000000
_symmetry_Int_Tables_number   1
_chemical_formula_structural   La4CdCo
_chemical_formula_sum   'La16 Cd4 Co4'
_cell_volume   703.58597351
_cell_formula_units_Z   4
loop_
 _symmetry_equiv_pos_site_id
 _symmetry_equiv_pos_as_xyz
  1  'x, y, z'
loop_
 _atom_site_type_symbol
 _atom_site_label
 _atom_site_symmetry_multiplicity
 _atom_site_fract_x
 _atom_site_fract_y
 _atom_site_fract_z
 _atom_site_occupancy
  La  La0  1  0.059371  0.440629  0.440629  1
  La  La1  1  0.440629  0.440629  0.059371  1
  La  La2  1  0.059371  0.440629  0.059371  1
  La  La3  1  0.810412  0.189588  0.189588  1
  La  La4  1  0.654456  0.654456  0.654456  1
  La  La5  1  0.810412  0.189588  0.810412  1
  La  La6  1  0.036631  0.654456  0.654456  1
  La  La7  1  0.654456  0.654456  0.036631  1
  La  La8  1  0.189588  0.189588  0.810412  1
  La  La9  1  0.189588  0.810412  0.810412  1
  La  La10  1  0.810412  0.810412  0.189588  1
  La  La11  1  0.440629  0.059371  0.440629  1
  La  La12  1  0.440629  0.059371  0.059371  1
  La  La13  1  0.654456  0.036631  0.654456  1
  La  La14  1  0.189588  0.810412  0.189588  1
  La  La15  1  0.059371  0.059371  0.440629  1
  Cd  Cd16  1  0.421279  0.421279  0.736162  1
  Cd  Cd17  1  0.736162  0.421279  0.421279  1
  Cd  Cd18  1  0.421279  0.421279  0.421279  1
  Cd  Cd19  1  0.421279  0.736162  0.421279  1
  Co  Co20  1  0.859813  0.859813  0.420560  1
  Co  Co21  1  0.859813  0.859813  0.859813  1
  Co  Co22  1  0.859813  0.420560  0.859813  1
  Co  Co23  1  0.420560  0.859813  0.859813  1
