# generated using pymatgen
data_NiP2O7
_symmetry_space_group_name_H-M   'P 1'
_cell_length_a   4.93909037
_cell_length_b   8.12440879
_cell_length_c   7.07749926
_cell_angle_alpha   90.00000000
_cell_angle_beta   106.93925820
_cell_angle_gamma   90.00000000
_symmetry_Int_Tables_number   1
_chemical_formula_structural   NiP2O7
_chemical_formula_sum   'Ni2 P4 O14'
_cell_volume   271.67857081
_cell_formula_units_Z   2
loop_
 _symmetry_equiv_pos_site_id
 _symmetry_equiv_pos_as_xyz
  1  'x, y, z'
loop_
 _atom_site_type_symbol
 _atom_site_label
 _atom_site_symmetry_multiplicity
 _atom_site_fract_x
 _atom_site_fract_y
 _atom_site_fract_z
 _atom_site_occupancy
  Ni  Ni0  1  0.784705  0.505664  0.274685  1
  Ni  Ni1  1  0.215295  0.005664  0.725315  1
  P  P2  1  0.391327  0.683835  0.515849  1
  P  P3  1  0.608673  0.183835  0.484151  1
  P  P4  1  0.773484  0.774922  0.900482  1
  P  P5  1  0.226516  0.274922  0.099518  1
  O  O6  1  0.728543  0.358473  0.492327  1
  O  O7  1  0.966585  0.321008  0.163410  1
  O  O8  1  0.033415  0.821008  0.836590  1
  O  O9  1  0.133419  0.179819  0.906998  1
  O  O10  1  0.594310  0.926058  0.913818  1
  O  O11  1  0.586110  0.648040  0.737994  1
  O  O12  1  0.422991  0.180373  0.623546  1
  O  O13  1  0.271457  0.858473  0.507673  1
  O  O14  1  0.405690  0.426058  0.086182  1
  O  O15  1  0.835083  0.051408  0.525203  1
  O  O16  1  0.866581  0.679819  0.093002  1
  O  O17  1  0.577009  0.680373  0.376454  1
  O  O18  1  0.413890  0.148040  0.262006  1
  O  O19  1  0.164917  0.551408  0.474797  1
