# generated using pymatgen
data_CaGaAu3
_symmetry_space_group_name_H-M   'P 1'
_cell_length_a   9.27188281
_cell_length_b   9.27188281
_cell_length_c   9.27188281
_cell_angle_alpha   90.00000000
_cell_angle_beta   90.00000000
_cell_angle_gamma   90.00000000
_symmetry_Int_Tables_number   1
_chemical_formula_structural   CaGaAu3
_chemical_formula_sum   'Ca8 Ga8 Au24'
_cell_volume   797.08346756
_cell_formula_units_Z   8
loop_
 _symmetry_equiv_pos_site_id
 _symmetry_equiv_pos_as_xyz
  1  'x, y, z'
loop_
 _atom_site_type_symbol
 _atom_site_label
 _atom_site_symmetry_multiplicity
 _atom_site_fract_x
 _atom_site_fract_y
 _atom_site_fract_z
 _atom_site_occupancy
  Ca  Ca0  1  0.392741  0.392741  0.392741  1
  Ca  Ca1  1  0.607259  0.892741  0.107259  1
  Ca  Ca2  1  0.107259  0.892741  0.392741  1
  Ca  Ca3  1  0.607259  0.607259  0.607259  1
  Ca  Ca4  1  0.892741  0.392741  0.107259  1
  Ca  Ca5  1  0.392741  0.107259  0.892741  1
  Ca  Ca6  1  0.107259  0.607259  0.892741  1
  Ca  Ca7  1  0.892741  0.107259  0.607259  1
  Ga  Ga8  1  0.895852  0.604148  0.395852  1
  Ga  Ga9  1  0.604148  0.395852  0.895852  1
  Ga  Ga10  1  0.895852  0.895852  0.895852  1
  Ga  Ga11  1  0.395852  0.604148  0.104148  1
  Ga  Ga12  1  0.104148  0.104148  0.104148  1
  Ga  Ga13  1  0.395852  0.895852  0.604148  1
  Ga  Ga14  1  0.604148  0.104148  0.395852  1
  Ga  Ga15  1  0.104148  0.395852  0.604148  1
  Au  Au16  1  0.579315  0.261197  0.141874  1
  Au  Au17  1  0.079315  0.238803  0.858126  1
  Au  Au18  1  0.261197  0.141874  0.579315  1
  Au  Au19  1  0.641874  0.579315  0.238803  1
  Au  Au20  1  0.579315  0.238803  0.641874  1
  Au  Au21  1  0.261197  0.358126  0.079315  1
  Au  Au22  1  0.358126  0.420685  0.761197  1
  Au  Au23  1  0.238803  0.858126  0.079315  1
  Au  Au24  1  0.238803  0.641874  0.579315  1
  Au  Au25  1  0.761197  0.141874  0.920685  1
  Au  Au26  1  0.738803  0.641874  0.920685  1
  Au  Au27  1  0.738803  0.858126  0.420685  1
  Au  Au28  1  0.358126  0.079315  0.261197  1
  Au  Au29  1  0.420685  0.738803  0.858126  1
  Au  Au30  1  0.920685  0.738803  0.641874  1
  Au  Au31  1  0.641874  0.920685  0.738803  1
  Au  Au32  1  0.858126  0.420685  0.738803  1
  Au  Au33  1  0.420685  0.761197  0.358126  1
  Au  Au34  1  0.920685  0.761197  0.141874  1
  Au  Au35  1  0.079315  0.261197  0.358126  1
  Au  Au36  1  0.761197  0.358126  0.420685  1
  Au  Au37  1  0.141874  0.579315  0.261197  1
  Au  Au38  1  0.858126  0.079315  0.238803  1
  Au  Au39  1  0.141874  0.920685  0.761197  1
