# generated using pymatgen
data_As2Se2S(NF6)2
_symmetry_space_group_name_H-M   'P 1'
_cell_length_a   7.79320856
_cell_length_b   7.79320856
_cell_length_c   10.94276936
_cell_angle_alpha   87.08508026
_cell_angle_beta   92.91491974
_cell_angle_gamma   111.25086267
_symmetry_Int_Tables_number   1
_chemical_formula_structural   As2Se2S(NF6)2
_chemical_formula_sum   'As4 Se4 S2 N4 F24'
_cell_volume   618.23130125
_cell_formula_units_Z   2
loop_
 _symmetry_equiv_pos_site_id
 _symmetry_equiv_pos_as_xyz
  1  'x, y, z'
loop_
 _atom_site_type_symbol
 _atom_site_label
 _atom_site_symmetry_multiplicity
 _atom_site_fract_x
 _atom_site_fract_y
 _atom_site_fract_z
 _atom_site_occupancy
  As  As0  1  0.616008  0.343993  0.747861  1
  As  As1  1  0.343993  0.616008  0.252139  1
  As  As2  1  0.997873  0.997873  0.500000  1
  As  As3  1  0.004937  0.004937  0.000000  1
  Se  Se4  1  0.154606  0.568211  0.857358  1
  Se  Se5  1  0.568211  0.154606  0.142642  1
  Se  Se6  1  0.138042  0.575905  0.638663  1
  Se  Se7  1  0.575905  0.138042  0.361337  1
  S  S8  1  0.498095  0.795021  0.743810  1
  S  S9  1  0.795021  0.498095  0.256190  1
  N  N10  1  0.384372  0.715237  0.863421  1
  N  N11  1  0.715237  0.384372  0.136579  1
  N  N12  1  0.366347  0.723798  0.627068  1
  N  N13  1  0.723798  0.366347  0.372932  1
  F  F14  1  0.552730  0.165620  0.863098  1
  F  F15  1  0.165620  0.552730  0.136902  1
  F  F16  1  0.687822  0.519933  0.632987  1
  F  F17  1  0.519933  0.687822  0.367013  1
  F  F18  1  0.395182  0.358040  0.743635  1
  F  F19  1  0.358040  0.395182  0.256365  1
  F  F20  1  0.547421  0.174254  0.634925  1
  F  F21  1  0.174254  0.547421  0.365075  1
  F  F22  1  0.845281  0.334206  0.751203  1
  F  F23  1  0.334206  0.845281  0.248797  1
  F  F24  1  0.693574  0.509499  0.862366  1
  F  F25  1  0.509499  0.693574  0.137634  1
  F  F26  1  0.774227  0.940006  0.557256  1
  F  F27  1  0.940006  0.774227  0.442744  1
  F  F28  1  0.060964  0.221553  0.559383  1
  F  F29  1  0.221553  0.060964  0.440617  1
  F  F30  1  0.075230  0.917581  0.639844  1
  F  F31  1  0.917581  0.075230  0.360156  1
  F  F32  1  0.810187  0.920649  0.900954  1
  F  F33  1  0.920649  0.810187  0.099046  1
  F  F34  1  0.123305  0.892306  0.917066  1
  F  F35  1  0.892306  0.123305  0.082934  1
  F  F36  1  0.096129  0.204435  0.901796  1
  F  F37  1  0.204435  0.096129  0.098204  1
