# generated using pymatgen
data_Li13In3
_symmetry_space_group_name_H-M   'P 1'
_cell_length_a   9.38342230
_cell_length_b   9.38342230
_cell_length_c   9.38342230
_cell_angle_alpha   60.00000000
_cell_angle_beta   60.00000000
_cell_angle_gamma   60.00000000
_symmetry_Int_Tables_number   1
_chemical_formula_structural   Li13In3
_chemical_formula_sum   'Li26 In6'
_cell_volume   584.20973283
_cell_formula_units_Z   2
loop_
 _symmetry_equiv_pos_site_id
 _symmetry_equiv_pos_as_xyz
  1  'x, y, z'
loop_
 _atom_site_type_symbol
 _atom_site_label
 _atom_site_symmetry_multiplicity
 _atom_site_fract_x
 _atom_site_fract_y
 _atom_site_fract_z
 _atom_site_occupancy
  Li  Li0  1  0.750000  0.750000  0.750000  1
  Li  Li1  1  0.500000  0.500000  0.500000  1
  Li  Li2  1  0.125000  0.625000  0.125000  1
  Li  Li3  1  0.125000  0.125000  0.125000  1
  Li  Li4  1  0.125000  0.125000  0.625000  1
  Li  Li5  1  0.625000  0.125000  0.125000  1
  Li  Li6  1  0.381160  0.856520  0.381160  1
  Li  Li7  1  0.868840  0.868840  0.868840  1
  Li  Li8  1  0.868840  0.868840  0.393480  1
  Li  Li9  1  0.393480  0.868840  0.868840  1
  Li  Li10  1  0.381160  0.381160  0.856520  1
  Li  Li11  1  0.856520  0.381160  0.381160  1
  Li  Li12  1  0.381160  0.381160  0.381160  1
  Li  Li13  1  0.868840  0.393480  0.868840  1
  Li  Li14  1  0.496799  0.003201  0.003201  1
  Li  Li15  1  0.753201  0.246799  0.753201  1
  Li  Li16  1  0.246799  0.753201  0.246799  1
  Li  Li17  1  0.246799  0.753201  0.753201  1
  Li  Li18  1  0.246799  0.246799  0.753201  1
  Li  Li19  1  0.753201  0.753201  0.246799  1
  Li  Li20  1  0.003201  0.003201  0.496799  1
  Li  Li21  1  0.496799  0.003201  0.496799  1
  Li  Li22  1  0.003201  0.496799  0.003201  1
  Li  Li23  1  0.496799  0.496799  0.003201  1
  Li  Li24  1  0.753201  0.246799  0.246799  1
  Li  Li25  1  0.003201  0.496799  0.496799  1
  In  In26  1  0.250000  0.250000  0.250000  1
  In  In27  1  0.000000  0.000000  1.000000  1
  In  In28  1  0.625000  0.125000  0.625000  1
  In  In29  1  0.625000  0.625000  0.625000  1
  In  In30  1  0.625000  0.625000  0.125000  1
  In  In31  1  0.125000  0.625000  0.625000  1
