# generated using pymatgen
data_Li5Mo2P5O18
_symmetry_space_group_name_H-M   'P 1'
_cell_length_a   6.62626703
_cell_length_b   9.33687746
_cell_length_c   10.91265124
_cell_angle_alpha   96.14779082
_cell_angle_beta   92.33660418
_cell_angle_gamma   91.01212094
_symmetry_Int_Tables_number   1
_chemical_formula_structural   Li5Mo2P5O18
_chemical_formula_sum   'Li10 Mo4 P10 O36'
_cell_volume   670.54504409
_cell_formula_units_Z   2
loop_
 _symmetry_equiv_pos_site_id
 _symmetry_equiv_pos_as_xyz
  1  'x, y, z'
loop_
 _atom_site_type_symbol
 _atom_site_label
 _atom_site_symmetry_multiplicity
 _atom_site_fract_x
 _atom_site_fract_y
 _atom_site_fract_z
 _atom_site_occupancy
  Li  Li0  1  0.347542  0.377836  0.860040  1
  Li  Li1  1  0.555001  0.277147  0.590954  1
  Li  Li2  1  0.126363  0.220730  0.662007  1
  Li  Li3  1  0.821505  0.124030  0.359965  1
  Li  Li4  1  0.178495  0.875970  0.640035  1
  Li  Li5  1  0.012158  0.943365  0.133878  1
  Li  Li6  1  0.444999  0.722853  0.409046  1
  Li  Li7  1  0.987842  0.056635  0.866122  1
  Li  Li8  1  0.873637  0.779270  0.337993  1
  Li  Li9  1  0.652458  0.622164  0.139960  1
  Mo  Mo10  1  0.229700  0.356793  0.399964  1
  Mo  Mo11  1  0.667057  0.231618  0.053097  1
  Mo  Mo12  1  0.770300  0.643207  0.600036  1
  Mo  Mo13  1  0.332943  0.768382  0.946903  1
  P  P14  1  0.778096  0.992002  0.597154  1
  P  P15  1  0.278823  0.582176  0.653569  1
  P  P16  1  0.830744  0.729729  0.900760  1
  P  P17  1  0.487826  0.054600  0.793799  1
  P  P18  1  0.221904  0.007998  0.402846  1
  P  P19  1  0.721177  0.417824  0.346431  1
  P  P20  1  0.512174  0.945400  0.206201  1
  P  P21  1  0.836039  0.419233  0.826318  1
  P  P22  1  0.163961  0.580767  0.173682  1
  P  P23  1  0.169256  0.270271  0.099240  1
  O  O24  1  0.009871  0.831245  0.951618  1
  O  O25  1  0.677079  0.052761  0.172123  1
  O  O26  1  0.667331  0.410094  0.205579  1
  O  O27  1  0.763147  0.577526  0.399522  1
  O  O28  1  0.752492  0.757961  0.774534  1
  O  O29  1  0.550779  0.355083  0.419971  1
  O  O30  1  0.908984  0.326205  0.368781  1
  O  O31  1  0.781172  0.845116  0.515378  1
  O  O32  1  0.736524  0.119299  0.526124  1
  O  O33  1  0.449221  0.644917  0.580029  1
  O  O34  1  0.091016  0.673795  0.631219  1
  O  O35  1  0.988574  0.682635  0.181753  1
  O  O36  1  0.218828  0.154884  0.484622  1
  O  O37  1  0.661681  0.076610  0.893361  1
  O  O38  1  0.741736  0.446886  0.698916  1
  O  O39  1  0.671512  0.383540  0.915748  1
  O  O40  1  0.345479  0.264390  0.011367  1
  O  O41  1  0.930887  0.573478  0.892045  1
  O  O42  1  0.419035  0.031358  0.324044  1
  O  O43  1  0.967206  0.016054  0.683304  1
  O  O44  1  0.258264  0.553114  0.301084  1
  O  O45  1  0.580965  0.968642  0.675956  1
  O  O46  1  0.332669  0.589906  0.794421  1
  O  O47  1  0.328488  0.616460  0.084252  1
  O  O48  1  0.236853  0.422474  0.600478  1
  O  O49  1  0.990129  0.168755  0.048382  1
  O  O50  1  0.598173  0.808419  0.250227  1
  O  O51  1  0.247508  0.242039  0.225466  1
  O  O52  1  0.011426  0.317365  0.818247  1
  O  O53  1  0.032794  0.983946  0.316696  1
  O  O54  1  0.654521  0.735610  0.988633  1
  O  O55  1  0.263476  0.880701  0.473876  1
  O  O56  1  0.069113  0.426522  0.107955  1
  O  O57  1  0.322921  0.947239  0.827877  1
  O  O58  1  0.338319  0.923390  0.106639  1
  O  O59  1  0.401827  0.191581  0.749773  1
