# generated using pymatgen
data_Mn2V2O7
_symmetry_space_group_name_H-M   'P 1'
_cell_length_a   7.00732112
_cell_length_b   8.11020885
_cell_length_c   11.05142370
_cell_angle_alpha   86.94325369
_cell_angle_beta   71.52455519
_cell_angle_gamma   83.68363850
_symmetry_Int_Tables_number   1
_chemical_formula_structural   Mn2V2O7
_chemical_formula_sum   'Mn8 V8 O28'
_cell_volume   591.96146049
_cell_formula_units_Z   4
loop_
 _symmetry_equiv_pos_site_id
 _symmetry_equiv_pos_as_xyz
  1  'x, y, z'
loop_
 _atom_site_type_symbol
 _atom_site_label
 _atom_site_symmetry_multiplicity
 _atom_site_fract_x
 _atom_site_fract_y
 _atom_site_fract_z
 _atom_site_occupancy
  Mn  Mn0  1  0.081540  0.139476  0.078412  1
  Mn  Mn1  1  0.583950  0.595214  0.096228  1
  Mn  Mn2  1  0.404113  0.405903  0.405862  1
  Mn  Mn3  1  0.918460  0.860524  0.921588  1
  Mn  Mn4  1  0.595887  0.594097  0.594138  1
  Mn  Mn5  1  0.898695  0.884737  0.415383  1
  Mn  Mn6  1  0.101305  0.115263  0.584617  1
  Mn  Mn7  1  0.416050  0.404786  0.903772  1
  V  V8  1  0.075338  0.717581  0.635608  1
  V  V9  1  0.053483  0.596092  0.150169  1
  V  V10  1  0.568020  0.171642  0.631104  1
  V  V11  1  0.924662  0.282419  0.364392  1
  V  V12  1  0.946517  0.403908  0.849831  1
  V  V13  1  0.431980  0.828358  0.368896  1
  V  V14  1  0.564903  0.148904  0.129356  1
  V  V15  1  0.435097  0.851096  0.870644  1
  O  O16  1  0.604162  0.819082  0.957258  1
  O  O17  1  0.877806  0.693986  0.577439  1
  O  O18  1  0.511826  0.016648  0.752846  1
  O  O19  1  0.600200  0.817007  0.455209  1
  O  O20  1  0.120604  0.330858  0.929170  1
  O  O21  1  0.122194  0.306014  0.422561  1
  O  O22  1  0.180475  0.889242  0.467026  1
  O  O23  1  0.447729  0.676220  0.786284  1
  O  O24  1  0.188133  0.914328  0.963602  1
  O  O25  1  0.302399  0.594340  0.559568  1
  O  O26  1  0.697601  0.405660  0.440432  1
  O  O27  1  0.819525  0.110758  0.532974  1
  O  O28  1  0.545905  0.356607  0.707349  1
  O  O29  1  0.001523  0.387959  0.206171  1
  O  O30  1  0.307033  0.579036  0.054313  1
  O  O31  1  0.054325  0.906719  0.715138  1
  O  O32  1  0.026590  0.714481  0.275673  1
  O  O33  1  0.811867  0.085672  0.036398  1
  O  O34  1  0.395838  0.180918  0.042742  1
  O  O35  1  0.552271  0.323780  0.213716  1
  O  O36  1  0.945675  0.093281  0.284862  1
  O  O37  1  0.454095  0.643393  0.292651  1
  O  O38  1  0.399800  0.182993  0.544791  1
  O  O39  1  0.488174  0.983352  0.247154  1
  O  O40  1  0.973410  0.285519  0.724327  1
  O  O41  1  0.998477  0.612041  0.793829  1
  O  O42  1  0.692967  0.420964  0.945687  1
  O  O43  1  0.879396  0.669142  0.070830  1
