# generated using pymatgen
data_MnSb2F12
_symmetry_space_group_name_H-M   'P 1'
_cell_length_a   5.35394446
_cell_length_b   5.65621087
_cell_length_c   9.25184144
_cell_angle_alpha   106.18227066
_cell_angle_beta   88.75038226
_cell_angle_gamma   117.76549755
_symmetry_Int_Tables_number   1
_chemical_formula_structural   MnSb2F12
_chemical_formula_sum   'Mn1 Sb2 F12'
_cell_volume   236.16131563
_cell_formula_units_Z   1
loop_
 _symmetry_equiv_pos_site_id
 _symmetry_equiv_pos_as_xyz
  1  'x, y, z'
loop_
 _atom_site_type_symbol
 _atom_site_label
 _atom_site_symmetry_multiplicity
 _atom_site_fract_x
 _atom_site_fract_y
 _atom_site_fract_z
 _atom_site_occupancy
  Mn  Mn0  1  0.500000  0.000000  0.500000  1
  Sb  Sb1  1  0.225916  0.245353  0.759255  1
  Sb  Sb2  1  0.774084  0.754647  0.240745  1
  F  F3  1  0.051039  0.441922  0.792699  1
  F  F4  1  0.948961  0.558078  0.207301  1
  F  F5  1  0.978884  0.895527  0.860532  1
  F  F6  1  0.539728  0.406284  0.372873  1
  F  F7  1  0.460272  0.593716  0.627127  1
  F  F8  1  0.051882  0.813289  0.426211  1
  F  F9  1  0.948118  0.186711  0.573789  1
  F  F10  1  0.598556  0.919053  0.317686  1
  F  F11  1  0.401444  0.080947  0.682314  1
  F  F12  1  0.481518  0.697579  0.077455  1
  F  F13  1  0.518482  0.302421  0.922545  1
  F  F14  1  0.021116  0.104473  0.139468  1
