# generated using pymatgen
data_ErCuTe2BrO6
_symmetry_space_group_name_H-M   'P 1'
_cell_length_a   5.42640207
_cell_length_b   14.98411043
_cell_length_c   9.46809362
_cell_angle_alpha   90.00000000
_cell_angle_beta   98.55440257
_cell_angle_gamma   90.00000000
_symmetry_Int_Tables_number   1
_chemical_formula_structural   ErCuTe2BrO6
_chemical_formula_sum   'Er4 Cu4 Te8 Br4 O24'
_cell_volume   761.28435945
_cell_formula_units_Z   4
loop_
 _symmetry_equiv_pos_site_id
 _symmetry_equiv_pos_as_xyz
  1  'x, y, z'
loop_
 _atom_site_type_symbol
 _atom_site_label
 _atom_site_symmetry_multiplicity
 _atom_site_fract_x
 _atom_site_fract_y
 _atom_site_fract_z
 _atom_site_occupancy
  Er  Er0  1  0.252661  0.587523  0.018594  1
  Er  Er1  1  0.747339  0.412477  0.981406  1
  Er  Er2  1  0.747339  0.087523  0.481406  1
  Er  Er3  1  0.252661  0.912477  0.518594  1
  Cu  Cu4  1  0.735193  0.231527  0.196070  1
  Cu  Cu5  1  0.264807  0.731527  0.303930  1
  Cu  Cu6  1  0.264807  0.768473  0.803930  1
  Cu  Cu7  1  0.735193  0.268473  0.696070  1
  Te  Te8  1  0.769112  0.903800  0.780728  1
  Te  Te9  1  0.747773  0.644169  0.774223  1
  Te  Te10  1  0.769112  0.596200  0.280728  1
  Te  Te11  1  0.230888  0.096200  0.219272  1
  Te  Te12  1  0.230888  0.403800  0.719272  1
  Te  Te13  1  0.252227  0.355831  0.225777  1
  Te  Te14  1  0.747773  0.855831  0.274223  1
  Te  Te15  1  0.252227  0.144169  0.725777  1
  Br  Br16  1  0.256951  0.900146  0.045932  1
  Br  Br17  1  0.256951  0.599854  0.545932  1
  Br  Br18  1  0.743049  0.400146  0.454068  1
  Br  Br19  1  0.743049  0.099854  0.954068  1
  O  O20  1  0.523168  0.684744  0.204949  1
  O  O21  1  0.376731  0.478617  0.870632  1
  O  O22  1  0.032604  0.855243  0.690180  1
  O  O23  1  0.623269  0.978617  0.629368  1
  O  O24  1  0.967396  0.144757  0.309820  1
  O  O25  1  0.967396  0.355243  0.809820  1
  O  O26  1  0.880355  0.959884  0.374951  1
  O  O27  1  0.010451  0.709329  0.890956  1
  O  O28  1  0.989549  0.290671  0.109044  1
  O  O29  1  0.376731  0.021383  0.370632  1
  O  O30  1  0.476832  0.184744  0.295051  1
  O  O31  1  0.010451  0.790671  0.390956  1
  O  O32  1  0.505821  0.171520  0.611678  1
  O  O33  1  0.523168  0.815256  0.704949  1
  O  O34  1  0.476832  0.315256  0.795051  1
  O  O35  1  0.880355  0.540116  0.874951  1
  O  O36  1  0.989549  0.209329  0.609044  1
  O  O37  1  0.119645  0.459884  0.125049  1
  O  O38  1  0.623269  0.521383  0.129368  1
  O  O39  1  0.494179  0.671520  0.888322  1
  O  O40  1  0.032604  0.644757  0.190180  1
  O  O41  1  0.505821  0.328480  0.111678  1
  O  O42  1  0.494179  0.828480  0.388322  1
  O  O43  1  0.119645  0.040116  0.625049  1
