# generated using pymatgen
data_ZnS
_symmetry_space_group_name_H-M   'P 1'
_cell_length_a   3.85300144
_cell_length_b   3.85300144
_cell_length_c   63.02499402
_cell_angle_alpha   90.00000000
_cell_angle_beta   90.00000000
_cell_angle_gamma   120.00000000
_symmetry_Int_Tables_number   1
_chemical_formula_structural   ZnS
_chemical_formula_sum   'Zn20 S20'
_cell_volume   810.29244296
_cell_formula_units_Z   20
loop_
 _symmetry_equiv_pos_site_id
 _symmetry_equiv_pos_as_xyz
  1  'x, y, z'
loop_
 _atom_site_type_symbol
 _atom_site_label
 _atom_site_symmetry_multiplicity
 _atom_site_fract_x
 _atom_site_fract_y
 _atom_site_fract_z
 _atom_site_occupancy
  Zn  Zn0  1  0.000000  0.000000  0.450009  1
  Zn  Zn1  1  0.666667  0.333333  0.700012  1
  Zn  Zn2  1  0.666667  0.333333  0.200008  1
  Zn  Zn3  1  0.333333  0.666667  0.150013  1
  Zn  Zn4  1  0.000000  0.000000  0.900009  1
  Zn  Zn5  1  0.666667  0.333333  0.950019  1
  Zn  Zn6  1  0.333333  0.666667  0.550008  1
  Zn  Zn7  1  0.333333  0.666667  0.800013  1
  Zn  Zn8  1  0.000000  0.000000  0.750013  1
  Zn  Zn9  1  0.000000  0.000000  0.100012  1
  Zn  Zn10  1  0.333333  0.666667  0.650023  1
  Zn  Zn11  1  0.666667  0.333333  0.400019  1
  Zn  Zn12  1  0.000000  0.000000  0.600009  1
  Zn  Zn13  1  0.333333  0.666667  0.000009  1
  Zn  Zn14  1  0.666667  0.333333  0.050024  1
  Zn  Zn15  1  0.666667  0.333333  0.300019  1
  Zn  Zn16  1  0.333333  0.666667  0.350009  1
  Zn  Zn17  1  0.000000  0.000000  0.250009  1
  Zn  Zn18  1  0.666667  0.333333  0.850008  1
  Zn  Zn19  1  0.666667  0.333333  0.500023  1
  S  S20  1  0.666667  0.333333  0.337457  1
  S  S21  1  0.666667  0.333333  0.887459  1
  S  S22  1  0.333333  0.666667  0.587458  1
  S  S23  1  0.000000  0.000000  0.137486  1
  S  S24  1  0.666667  0.333333  0.737486  1
  S  S25  1  0.666667  0.333333  0.087485  1
  S  S26  1  0.333333  0.666667  0.037517  1
  S  S27  1  0.000000  0.000000  0.287517  1
  S  S28  1  0.000000  0.000000  0.787486  1
  S  S29  1  0.666667  0.333333  0.987457  1
  S  S30  1  0.000000  0.000000  0.637518  1
  S  S31  1  0.666667  0.333333  0.237459  1
  S  S32  1  0.000000  0.000000  0.937517  1
  S  S33  1  0.333333  0.666667  0.387517  1
  S  S34  1  0.000000  0.000000  0.487517  1
  S  S35  1  0.666667  0.333333  0.437457  1
  S  S36  1  0.333333  0.666667  0.187486  1
  S  S37  1  0.333333  0.666667  0.837486  1
  S  S38  1  0.666667  0.333333  0.537484  1
  S  S39  1  0.333333  0.666667  0.687485  1
