# generated using pymatgen
data_LiPr2C2N4F3
_symmetry_space_group_name_H-M   'P 1'
_cell_length_a   6.72721004
_cell_length_b   6.72721004
_cell_length_c   8.59916254
_cell_angle_alpha   68.06105599
_cell_angle_beta   111.93894401
_cell_angle_gamma   120.86647596
_symmetry_Int_Tables_number   1
_chemical_formula_structural   LiPr2C2N4F3
_chemical_formula_sum   'Li2 Pr4 C4 N8 F6'
_cell_volume   301.65166452
_cell_formula_units_Z   2
loop_
 _symmetry_equiv_pos_site_id
 _symmetry_equiv_pos_as_xyz
  1  'x, y, z'
loop_
 _atom_site_type_symbol
 _atom_site_label
 _atom_site_symmetry_multiplicity
 _atom_site_fract_x
 _atom_site_fract_y
 _atom_site_fract_z
 _atom_site_occupancy
  Li  Li0  1  0.906916  0.906916  0.750000  1
  Li  Li1  1  0.093084  0.093084  0.250000  1
  Pr  Pr2  1  0.290614  0.717383  0.667860  1
  Pr  Pr3  1  0.709386  0.282617  0.332140  1
  Pr  Pr4  1  0.717383  0.290614  0.832140  1
  Pr  Pr5  1  0.282617  0.709386  0.167860  1
  C  C6  1  0.273977  0.225422  0.953611  1
  C  C7  1  0.774578  0.726023  0.453611  1
  C  C8  1  0.225422  0.273977  0.546389  1
  C  C9  1  0.726023  0.774578  0.046389  1
  N  N10  1  0.435248  0.160931  0.037328  1
  N  N11  1  0.288679  0.115696  0.632501  1
  N  N12  1  0.564752  0.839069  0.962672  1
  N  N13  1  0.115696  0.288679  0.867499  1
  N  N14  1  0.839069  0.564752  0.537328  1
  N  N15  1  0.884304  0.711321  0.132501  1
  N  N16  1  0.160931  0.435248  0.462672  1
  N  N17  1  0.711321  0.884304  0.367499  1
  F  F18  1  0.397303  0.397303  0.250000  1
  F  F19  1  0.691076  0.064246  0.634046  1
  F  F20  1  0.602697  0.602697  0.750000  1
  F  F21  1  0.935754  0.308924  0.134046  1
  F  F22  1  0.308924  0.935754  0.365954  1
  F  F23  1  0.064246  0.691076  0.865954  1
