# generated using pymatgen
data_MnBiS2Br
_symmetry_space_group_name_H-M   'P 1'
_cell_length_a   6.68177597
_cell_length_b   6.68177597
_cell_length_c   9.52838970
_cell_angle_alpha   88.57179872
_cell_angle_beta   91.42820128
_cell_angle_gamma   145.67403408
_symmetry_Int_Tables_number   1
_chemical_formula_structural   MnBiS2Br
_chemical_formula_sum   'Mn2 Bi2 S4 Br2'
_cell_volume   239.80481526
_cell_formula_units_Z   2
loop_
 _symmetry_equiv_pos_site_id
 _symmetry_equiv_pos_as_xyz
  1  'x, y, z'
loop_
 _atom_site_type_symbol
 _atom_site_label
 _atom_site_symmetry_multiplicity
 _atom_site_fract_x
 _atom_site_fract_y
 _atom_site_fract_z
 _atom_site_occupancy
  Mn  Mn0  1  0.500000  0.500000  0.000000  1
  Mn  Mn1  1  0.500000  0.500000  0.500000  1
  Bi  Bi2  1  0.785470  0.214530  0.196852  1
  Bi  Bi3  1  0.214530  0.785470  0.803148  1
  S  S4  1  0.863956  0.136044  0.946475  1
  S  S5  1  0.428681  0.571319  0.245335  1
  S  S6  1  0.136044  0.863956  0.053525  1
  S  S7  1  0.571319  0.428681  0.754665  1
  Br  Br8  1  0.865738  0.134262  0.566044  1
  Br  Br9  1  0.134262  0.865738  0.433956  1
