# generated using pymatgen
data_Lu(IO3)3
_symmetry_space_group_name_H-M   'P 1'
_cell_length_a   8.71055183
_cell_length_b   6.19462009
_cell_length_c   16.60889395
_cell_angle_alpha   90.00000000
_cell_angle_beta   114.85963325
_cell_angle_gamma   90.00000000
_symmetry_Int_Tables_number   1
_chemical_formula_structural   Lu(IO3)3
_chemical_formula_sum   'Lu4 I12 O36'
_cell_volume   813.15121907
_cell_formula_units_Z   4
loop_
 _symmetry_equiv_pos_site_id
 _symmetry_equiv_pos_as_xyz
  1  'x, y, z'
loop_
 _atom_site_type_symbol
 _atom_site_label
 _atom_site_symmetry_multiplicity
 _atom_site_fract_x
 _atom_site_fract_y
 _atom_site_fract_z
 _atom_site_occupancy
  Lu  Lu0  1  0.349298  0.281471  0.890420  1
  Lu  Lu1  1  0.349298  0.218529  0.390420  1
  Lu  Lu2  1  0.650702  0.781471  0.609580  1
  Lu  Lu3  1  0.650702  0.718529  0.109580  1
  I  I4  1  0.150105  0.851794  0.481823  1
  I  I5  1  0.083592  0.906929  0.198540  1
  I  I6  1  0.849895  0.148206  0.518177  1
  I  I7  1  0.425596  0.195986  0.138105  1
  I  I8  1  0.849895  0.351794  0.018177  1
  I  I9  1  0.916408  0.093071  0.801460  1
  I  I10  1  0.574404  0.695986  0.361895  1
  I  I11  1  0.574404  0.804014  0.861895  1
  I  I12  1  0.150105  0.648206  0.981823  1
  I  I13  1  0.083592  0.593071  0.698540  1
  I  I14  1  0.425596  0.304014  0.638105  1
  I  I15  1  0.916408  0.406929  0.301460  1
  O  O16  1  0.849405  0.561215  0.937668  1
  O  O17  1  0.595464  0.402738  0.169019  1
  O  O18  1  0.843409  0.821893  0.756447  1
  O  O19  1  0.618495  0.149746  0.478114  1
  O  O20  1  0.849405  0.938785  0.437668  1
  O  O21  1  0.156903  0.579894  0.609884  1
  O  O22  1  0.595464  0.097262  0.669019  1
  O  O23  1  0.623140  0.851471  0.977927  1
  O  O24  1  0.843097  0.420106  0.390116  1
  O  O25  1  0.122942  0.473458  0.886551  1
  O  O26  1  0.156903  0.920106  0.109884  1
  O  O27  1  0.404536  0.597262  0.830981  1
  O  O28  1  0.404536  0.902738  0.330981  1
  O  O29  1  0.877058  0.973458  0.613449  1
  O  O30  1  0.150595  0.438785  0.062332  1
  O  O31  1  0.860394  0.985063  0.136798  1
  O  O32  1  0.376860  0.351471  0.522073  1
  O  O33  1  0.561419  0.956636  0.181574  1
  O  O34  1  0.381505  0.850254  0.521886  1
  O  O35  1  0.561419  0.543364  0.681574  1
  O  O36  1  0.877058  0.526542  0.113449  1
  O  O37  1  0.150595  0.061215  0.562332  1
  O  O38  1  0.438581  0.043364  0.818426  1
  O  O39  1  0.618495  0.350254  0.978114  1
  O  O40  1  0.156591  0.321893  0.743553  1
  O  O41  1  0.381505  0.649746  0.021886  1
  O  O42  1  0.376860  0.148529  0.022073  1
  O  O43  1  0.139606  0.014937  0.863202  1
  O  O44  1  0.623140  0.648529  0.477927  1
  O  O45  1  0.122942  0.026542  0.386551  1
  O  O46  1  0.843097  0.079894  0.890116  1
  O  O47  1  0.843409  0.678107  0.256447  1
  O  O48  1  0.860394  0.514937  0.636798  1
  O  O49  1  0.156591  0.178107  0.243553  1
  O  O50  1  0.139606  0.485063  0.363202  1
  O  O51  1  0.438581  0.456636  0.318426  1
