# generated using pymatgen
data_Te2Au
_symmetry_space_group_name_H-M   'P 1'
_cell_length_a   8.96597498
_cell_length_b   4.43184202
_cell_length_c   10.29713945
_cell_angle_alpha   90.00000000
_cell_angle_beta   124.96805468
_cell_angle_gamma   90.00000000
_symmetry_Int_Tables_number   1
_chemical_formula_structural   Te2Au
_chemical_formula_sum   'Te8 Au4'
_cell_volume   335.29907523
_cell_formula_units_Z   4
loop_
 _symmetry_equiv_pos_site_id
 _symmetry_equiv_pos_as_xyz
  1  'x, y, z'
loop_
 _atom_site_type_symbol
 _atom_site_label
 _atom_site_symmetry_multiplicity
 _atom_site_fract_x
 _atom_site_fract_y
 _atom_site_fract_z
 _atom_site_occupancy
  Te  Te0  1  0.058015  0.443420  0.636174  1
  Te  Te1  1  0.935653  0.014090  0.862301  1
  Te  Te2  1  0.935653  0.985910  0.362301  1
  Te  Te3  1  0.436027  0.435473  0.612408  1
  Te  Te4  1  0.436027  0.564527  0.112408  1
  Te  Te5  1  0.058015  0.556580  0.136174  1
  Te  Te6  1  0.557393  0.050920  0.883258  1
  Te  Te7  1  0.557393  0.949080  0.383258  1
  Au  Au8  1  0.747460  0.489027  0.624621  1
  Au  Au9  1  0.247152  0.995870  0.373638  1
  Au  Au10  1  0.247152  0.004130  0.873638  1
  Au  Au11  1  0.747460  0.510973  0.124621  1
