# generated using pymatgen
data_YCu3Se2ClO8
_symmetry_space_group_name_H-M   'P 1'
_cell_length_a   6.37011635
_cell_length_b   7.06369664
_cell_length_c   9.56992157
_cell_angle_alpha   90.00000000
_cell_angle_beta   90.00000000
_cell_angle_gamma   90.00000000
_symmetry_Int_Tables_number   1
_chemical_formula_structural   YCu3Se2ClO8
_chemical_formula_sum   'Y2 Cu6 Se4 Cl2 O16'
_cell_volume   430.61364063
_cell_formula_units_Z   2
loop_
 _symmetry_equiv_pos_site_id
 _symmetry_equiv_pos_as_xyz
  1  'x, y, z'
loop_
 _atom_site_type_symbol
 _atom_site_label
 _atom_site_symmetry_multiplicity
 _atom_site_fract_x
 _atom_site_fract_y
 _atom_site_fract_z
 _atom_site_occupancy
  Y  Y0  1  0.000000  0.734113  0.000000  1
  Y  Y1  1  0.500000  0.265887  0.500000  1
  Cu  Cu2  1  0.250000  0.000000  0.750000  1
  Cu  Cu3  1  0.250000  0.000000  0.250000  1
  Cu  Cu4  1  0.750000  0.000000  0.750000  1
  Cu  Cu5  1  0.500000  0.794812  0.500000  1
  Cu  Cu6  1  0.000000  0.205188  0.000000  1
  Cu  Cu7  1  0.750000  0.000000  0.250000  1
  Se  Se8  1  0.500000  0.590061  0.810373  1
  Se  Se9  1  0.000000  0.409939  0.689627  1
  Se  Se10  1  0.500000  0.590061  0.189627  1
  Se  Se11  1  0.000000  0.409939  0.310373  1
  Cl  Cl12  1  0.000000  0.851508  0.500000  1
  Cl  Cl13  1  0.500000  0.148492  0.000000  1
  O  O14  1  0.000000  0.003003  0.861871  1
  O  O15  1  0.000000  0.425995  0.870525  1
  O  O16  1  0.500000  0.574005  0.370525  1
  O  O17  1  0.287319  0.739341  0.838006  1
  O  O18  1  0.212681  0.260659  0.338006  1
  O  O19  1  0.787319  0.260659  0.338006  1
  O  O20  1  0.500000  0.996997  0.638129  1
  O  O21  1  0.712681  0.739341  0.838006  1
  O  O22  1  0.712681  0.739341  0.161994  1
  O  O23  1  0.787319  0.260659  0.661994  1
  O  O24  1  0.000000  0.003003  0.138129  1
  O  O25  1  0.500000  0.996997  0.361871  1
  O  O26  1  0.212681  0.260659  0.661994  1
  O  O27  1  0.287319  0.739341  0.161994  1
  O  O28  1  0.500000  0.574005  0.629475  1
  O  O29  1  0.000000  0.425995  0.129475  1
