# generated using pymatgen
data_Er14(InPd)3
_symmetry_space_group_name_H-M   'P 1'
_cell_length_a   9.63643329
_cell_length_b   9.63643329
_cell_length_c   23.39381931
_cell_angle_alpha   90.00000000
_cell_angle_beta   90.00000000
_cell_angle_gamma   90.00000000
_symmetry_Int_Tables_number   1
_chemical_formula_structural   Er14(InPd)3
_chemical_formula_sum   'Er56 In12 Pd12'
_cell_volume   2172.36986523
_cell_formula_units_Z   4
loop_
 _symmetry_equiv_pos_site_id
 _symmetry_equiv_pos_as_xyz
  1  'x, y, z'
loop_
 _atom_site_type_symbol
 _atom_site_label
 _atom_site_symmetry_multiplicity
 _atom_site_fract_x
 _atom_site_fract_y
 _atom_site_fract_z
 _atom_site_occupancy
  Er  Er0  1  0.500000  0.193100  0.216205  1
  Er  Er1  1  0.500000  0.312050  0.733181  1
  Er  Er2  1  0.500000  0.687950  0.733181  1
  Er  Er3  1  0.686065  0.191947  0.354257  1
  Er  Er4  1  0.808053  0.686065  0.645743  1
  Er  Er5  1  0.184239  0.184239  0.000000  1
  Er  Er6  1  0.691947  0.186065  0.854257  1
  Er  Er7  1  0.186065  0.691947  0.145743  1
  Er  Er8  1  0.000000  0.187950  0.766819  1
  Er  Er9  1  0.806900  0.500000  0.783795  1
  Er  Er10  1  0.000000  0.000000  0.895649  1
  Er  Er11  1  0.313935  0.808053  0.354257  1
  Er  Er12  1  0.000000  0.306900  0.283795  1
  Er  Er13  1  0.684239  0.684239  0.500000  1
  Er  Er14  1  0.000000  0.693100  0.283795  1
  Er  Er15  1  0.315761  0.684239  0.500000  1
  Er  Er16  1  0.193100  0.500000  0.783795  1
  Er  Er17  1  0.693100  0.000000  0.716205  1
  Er  Er18  1  0.287621  0.500000  0.942456  1
  Er  Er19  1  0.000000  0.500000  0.536890  1
  Er  Er20  1  0.187950  0.000000  0.233181  1
  Er  Er21  1  0.191947  0.313935  0.645743  1
  Er  Er22  1  0.684239  0.315761  0.500000  1
  Er  Er23  1  0.312050  0.500000  0.266819  1
  Er  Er24  1  0.787621  0.000000  0.557544  1
  Er  Er25  1  0.500000  0.500000  0.395649  1
  Er  Er26  1  0.212379  0.000000  0.557544  1
  Er  Er27  1  0.500000  0.500000  0.604351  1
  Er  Er28  1  0.313935  0.191947  0.354257  1
  Er  Er29  1  0.686065  0.808053  0.354257  1
  Er  Er30  1  0.813935  0.691947  0.145743  1
  Er  Er31  1  0.815761  0.815761  0.000000  1
  Er  Er32  1  0.000000  0.812050  0.766819  1
  Er  Er33  1  0.500000  0.000000  0.463110  1
  Er  Er34  1  0.687950  0.500000  0.266819  1
  Er  Er35  1  0.000000  0.787621  0.442456  1
  Er  Er36  1  0.308053  0.813935  0.854257  1
  Er  Er37  1  0.306900  0.000000  0.716205  1
  Er  Er38  1  0.184239  0.815761  0.000000  1
  Er  Er39  1  0.000000  0.000000  0.104351  1
  Er  Er40  1  0.812050  0.000000  0.233181  1
  Er  Er41  1  0.691947  0.813935  0.854257  1
  Er  Er42  1  0.500000  0.806900  0.216205  1
  Er  Er43  1  0.712379  0.500000  0.942456  1
  Er  Er44  1  0.808053  0.313935  0.645743  1
  Er  Er45  1  0.500000  0.000000  0.963110  1
  Er  Er46  1  0.815761  0.184239  0.000000  1
  Er  Er47  1  0.500000  0.287621  0.057544  1
  Er  Er48  1  0.500000  0.712379  0.057544  1
  Er  Er49  1  0.308053  0.186065  0.854257  1
  Er  Er50  1  0.315761  0.315761  0.500000  1
  Er  Er51  1  0.813935  0.308053  0.145743  1
  Er  Er52  1  0.191947  0.686065  0.645743  1
  Er  Er53  1  0.000000  0.212379  0.442456  1
  Er  Er54  1  0.000000  0.500000  0.036890  1
  Er  Er55  1  0.186065  0.308053  0.145743  1
  In  In56  1  0.500000  0.838590  0.605121  1
  In  In57  1  0.000000  0.000000  0.341763  1
  In  In58  1  0.000000  0.661410  0.894879  1
  In  In59  1  0.838590  0.500000  0.394879  1
  In  In60  1  0.500000  0.500000  0.841763  1
  In  In61  1  0.661410  0.000000  0.105121  1
  In  In62  1  0.500000  0.500000  0.158237  1
  In  In63  1  0.161410  0.500000  0.394879  1
  In  In64  1  0.500000  0.161410  0.605121  1
  In  In65  1  0.000000  0.338590  0.894879  1
  In  In66  1  0.000000  0.000000  0.658237  1
  In  In67  1  0.338590  0.000000  0.105121  1
  Pd  Pd68  1  0.500000  0.000000  0.303739  1
  Pd  Pd69  1  0.500000  0.000000  0.803739  1
  Pd  Pd70  1  0.500000  0.287031  0.939349  1
  Pd  Pd71  1  0.712969  0.500000  0.060651  1
  Pd  Pd72  1  0.000000  0.787031  0.560651  1
  Pd  Pd73  1  0.212969  0.000000  0.439349  1
  Pd  Pd74  1  0.787031  0.000000  0.439349  1
  Pd  Pd75  1  0.500000  0.712969  0.939349  1
  Pd  Pd76  1  0.000000  0.500000  0.196261  1
  Pd  Pd77  1  0.000000  0.212969  0.560651  1
  Pd  Pd78  1  0.287031  0.500000  0.060651  1
  Pd  Pd79  1  0.000000  0.500000  0.696261  1
