# generated using pymatgen
data_Li4WO5
_symmetry_space_group_name_H-M   'P 1'
_cell_length_a   5.15752604
_cell_length_b   5.18879485
_cell_length_c   7.86323212
_cell_angle_alpha   108.54567600
_cell_angle_beta   101.63803166
_cell_angle_gamma   101.34153113
_symmetry_Int_Tables_number   1
_chemical_formula_structural   Li4WO5
_chemical_formula_sum   'Li8 W2 O10'
_cell_volume   187.53535673
_cell_formula_units_Z   2
loop_
 _symmetry_equiv_pos_site_id
 _symmetry_equiv_pos_as_xyz
  1  'x, y, z'
loop_
 _atom_site_type_symbol
 _atom_site_label
 _atom_site_symmetry_multiplicity
 _atom_site_fract_x
 _atom_site_fract_y
 _atom_site_fract_z
 _atom_site_occupancy
  Li  Li0  1  0.306139  0.996622  0.390649  1
  Li  Li1  1  0.679778  0.495737  0.098681  1
  Li  Li2  1  0.873673  0.497883  0.696116  1
  Li  Li3  1  0.500000  0.000000  0.000000  1
  Li  Li4  1  0.320222  0.504263  0.901319  1
  Li  Li5  1  0.126327  0.502117  0.303884  1
  Li  Li6  1  0.693861  0.003378  0.609351  1
  Li  Li7  1  0.500000  0.500000  0.500000  1
  W  W8  1  0.107407  0.000285  0.783717  1
  W  W9  1  0.892593  0.999715  0.216283  1
  O  O10  1  0.716498  0.232137  0.334941  1
  O  O11  1  0.529066  0.760685  0.249318  1
  O  O12  1  0.470934  0.239315  0.750682  1
  O  O13  1  0.272028  0.235819  0.154629  1
  O  O14  1  0.283502  0.767863  0.665059  1
  O  O15  1  0.089585  0.784109  0.041559  1
  O  O16  1  0.905960  0.759933  0.427990  1
  O  O17  1  0.910415  0.215891  0.958441  1
  O  O18  1  0.727972  0.764181  0.845371  1
  O  O19  1  0.094040  0.240067  0.572010  1
