# generated using pymatgen
data_Zr2Si4Ru3
_symmetry_space_group_name_H-M   'P 1'
_cell_length_a   9.91847073
_cell_length_b   9.91847073
_cell_length_c   13.38500643
_cell_angle_alpha   53.87320521
_cell_angle_beta   126.12679479
_cell_angle_gamma   148.46242541
_symmetry_Int_Tables_number   1
_chemical_formula_structural   Zr2Si4Ru3
_chemical_formula_sum   'Zr8 Si16 Ru12'
_cell_volume   544.36226028
_cell_formula_units_Z   4
loop_
 _symmetry_equiv_pos_site_id
 _symmetry_equiv_pos_as_xyz
  1  'x, y, z'
loop_
 _atom_site_type_symbol
 _atom_site_label
 _atom_site_symmetry_multiplicity
 _atom_site_fract_x
 _atom_site_fract_y
 _atom_site_fract_z
 _atom_site_occupancy
  Zr  Zr0  1  0.039372  0.706431  0.362821  1
  Zr  Zr1  1  0.706431  0.039372  0.137179  1
  Zr  Zr2  1  0.960628  0.293569  0.637179  1
  Zr  Zr3  1  0.293569  0.960628  0.862821  1
  Zr  Zr4  1  0.299888  0.446569  0.351647  1
  Zr  Zr5  1  0.446569  0.299888  0.148353  1
  Zr  Zr6  1  0.700112  0.553431  0.648353  1
  Zr  Zr7  1  0.553431  0.700112  0.851647  1
  Si  Si8  1  0.971622  0.746202  0.105109  1
  Si  Si9  1  0.746202  0.971622  0.394891  1
  Si  Si10  1  0.028378  0.253798  0.894891  1
  Si  Si11  1  0.253798  0.028378  0.605109  1
  Si  Si12  1  0.141521  0.611536  0.104478  1
  Si  Si13  1  0.611536  0.141521  0.395522  1
  Si  Si14  1  0.858479  0.388464  0.895522  1
  Si  Si15  1  0.388464  0.858479  0.604478  1
  Si  Si16  1  0.086968  0.427328  0.435018  1
  Si  Si17  1  0.427328  0.086968  0.064982  1
  Si  Si18  1  0.913032  0.572672  0.564982  1
  Si  Si19  1  0.572672  0.913032  0.935018  1
  Si  Si20  1  0.619872  0.619872  0.250000  1
  Si  Si21  1  0.380128  0.380128  0.750000  1
  Si  Si22  1  0.130108  0.130108  0.250000  1
  Si  Si23  1  0.869892  0.869892  0.750000  1
  Ru  Ru24  1  0.911340  0.868408  0.414948  1
  Ru  Ru25  1  0.868408  0.911340  0.085052  1
  Ru  Ru26  1  0.088660  0.131592  0.585052  1
  Ru  Ru27  1  0.131592  0.088660  0.914948  1
  Ru  Ru28  1  0.828748  0.352917  0.220509  1
  Ru  Ru29  1  0.352917  0.828748  0.279491  1
  Ru  Ru30  1  0.171252  0.647083  0.779491  1
  Ru  Ru31  1  0.647083  0.171252  0.720509  1
  Ru  Ru32  1  0.235787  0.482999  0.065812  1
  Ru  Ru33  1  0.482999  0.235787  0.434188  1
  Ru  Ru34  1  0.764213  0.517001  0.934188  1
  Ru  Ru35  1  0.517001  0.764213  0.565812  1
