# generated using pymatgen
data_Li10Si2PbO10
_symmetry_space_group_name_H-M   'P 1'
_cell_length_a   15.34136357
_cell_length_b   15.34136357
_cell_length_c   5.17544202
_cell_angle_alpha   80.51242725
_cell_angle_beta   99.48757275
_cell_angle_gamma   157.01294871
_symmetry_Int_Tables_number   1
_chemical_formula_structural   Li10Si2PbO10
_chemical_formula_sum   'Li20 Si4 Pb2 O20'
_cell_volume   468.91015852
_cell_formula_units_Z   2
loop_
 _symmetry_equiv_pos_site_id
 _symmetry_equiv_pos_as_xyz
  1  'x, y, z'
loop_
 _atom_site_type_symbol
 _atom_site_label
 _atom_site_symmetry_multiplicity
 _atom_site_fract_x
 _atom_site_fract_y
 _atom_site_fract_z
 _atom_site_occupancy
  Li  Li0  1  0.086635  0.350272  0.966287  1
  Li  Li1  1  0.951890  0.562209  0.789093  1
  Li  Li2  1  0.649728  0.913365  0.966287  1
  Li  Li3  1  0.730618  0.269382  0.136385  1
  Li  Li4  1  0.778483  0.649170  0.229827  1
  Li  Li5  1  0.269382  0.730618  0.863615  1
  Li  Li6  1  0.913365  0.649728  0.033713  1
  Li  Li7  1  0.867844  0.132156  0.513999  1
  Li  Li8  1  0.437791  0.048110  0.789093  1
  Li  Li9  1  0.132156  0.867844  0.486001  1
  Li  Li10  1  0.675697  0.324303  0.423062  1
  Li  Li11  1  0.350830  0.221517  0.229827  1
  Li  Li12  1  0.507770  0.492230  0.759744  1
  Li  Li13  1  0.048110  0.437791  0.210907  1
  Li  Li14  1  0.324303  0.675697  0.576938  1
  Li  Li15  1  0.221517  0.350830  0.770173  1
  Li  Li16  1  0.649170  0.778483  0.770173  1
  Li  Li17  1  0.492230  0.507770  0.240256  1
  Li  Li18  1  0.350272  0.086635  0.033713  1
  Li  Li19  1  0.562209  0.951890  0.210907  1
  Si  Si20  1  0.399534  0.600466  0.305358  1
  Si  Si21  1  0.600466  0.399534  0.694642  1
  Si  Si22  1  0.219105  0.780895  0.309302  1
  Si  Si23  1  0.780895  0.219105  0.690698  1
  Pb  Pb24  1  0.961406  0.038594  0.211112  1
  Pb  Pb25  1  0.038594  0.961406  0.788888  1
  O  O26  1  0.449529  0.550471  0.497160  1
  O  O27  1  0.419761  0.031971  0.171335  1
  O  O28  1  0.727723  0.272277  0.736200  1
  O  O29  1  0.404760  0.595240  0.990494  1
  O  O30  1  0.748171  0.748171  0.000000  1
  O  O31  1  0.968029  0.580239  0.171335  1
  O  O32  1  0.251829  0.251829  0.000000  1
  O  O33  1  0.550471  0.449529  0.502840  1
  O  O34  1  0.786496  0.213504  0.380104  1
  O  O35  1  0.588603  0.847703  0.359228  1
  O  O36  1  0.847703  0.588603  0.640772  1
  O  O37  1  0.031971  0.419761  0.828665  1
  O  O38  1  0.152297  0.411397  0.359228  1
  O  O39  1  0.213504  0.786496  0.619896  1
  O  O40  1  0.411397  0.152297  0.640772  1
  O  O41  1  0.272277  0.727723  0.263800  1
  O  O42  1  0.907887  0.092113  0.856950  1
  O  O43  1  0.580239  0.968029  0.828665  1
  O  O44  1  0.595240  0.404760  0.009506  1
  O  O45  1  0.092113  0.907887  0.143050  1
