# generated using pymatgen
data_Sr2Cu(BiO3)2
_symmetry_space_group_name_H-M   'P 1'
_cell_length_a   13.01880115
_cell_length_b   13.01880115
_cell_length_c   5.13305182
_cell_angle_alpha   90.00000000
_cell_angle_beta   90.00000000
_cell_angle_gamma   155.49730370
_symmetry_Int_Tables_number   1
_chemical_formula_structural   Sr2Cu(BiO3)2
_chemical_formula_sum   'Sr4 Cu2 Bi4 O12'
_cell_volume   360.81903290
_cell_formula_units_Z   2
loop_
 _symmetry_equiv_pos_site_id
 _symmetry_equiv_pos_as_xyz
  1  'x, y, z'
loop_
 _atom_site_type_symbol
 _atom_site_label
 _atom_site_symmetry_multiplicity
 _atom_site_fract_x
 _atom_site_fract_y
 _atom_site_fract_z
 _atom_site_occupancy
  Sr  Sr0  1  0.574651  0.933536  0.500000  1
  Sr  Sr1  1  0.933536  0.574651  0.000000  1
  Sr  Sr2  1  0.066464  0.425349  0.000000  1
  Sr  Sr3  1  0.425349  0.066464  0.500000  1
  Cu  Cu4  1  0.500000  0.000000  1.000000  1
  Cu  Cu5  1  1.000000  0.500000  0.500000  1
  Bi  Bi6  1  0.662704  0.790424  0.000000  1
  Bi  Bi7  1  0.209576  0.337296  0.500000  1
  Bi  Bi8  1  0.790424  0.662704  0.500000  1
  Bi  Bi9  1  0.337296  0.209576  0.000000  1
  O  O10  1  0.748164  0.251836  0.250000  1
  O  O11  1  0.748164  0.251836  0.750000  1
  O  O12  1  0.599271  0.730278  0.500000  1
  O  O13  1  0.624276  0.913209  0.000000  1
  O  O14  1  0.086791  0.375724  0.500000  1
  O  O15  1  0.269722  0.400729  0.000000  1
  O  O16  1  0.375724  0.086791  0.000000  1
  O  O17  1  0.251836  0.748164  0.250000  1
  O  O18  1  0.251836  0.748164  0.750000  1
  O  O19  1  0.730278  0.599271  1.000000  1
  O  O20  1  0.913209  0.624276  0.500000  1
  O  O21  1  0.400729  0.269722  0.500000  1
