# generated using pymatgen
data_Nd6Mo10O39
_symmetry_space_group_name_H-M   'P 1'
_cell_length_a   11.91670177
_cell_length_b   11.91670177
_cell_length_c   14.16416733
_cell_angle_alpha   84.15847599
_cell_angle_beta   95.84152401
_cell_angle_gamma   64.11459774
_symmetry_Int_Tables_number   1
_chemical_formula_structural   Nd6Mo10O39
_chemical_formula_sum   'Nd12 Mo20 O78'
_cell_volume   1776.03271695
_cell_formula_units_Z   2
loop_
 _symmetry_equiv_pos_site_id
 _symmetry_equiv_pos_as_xyz
  1  'x, y, z'
loop_
 _atom_site_type_symbol
 _atom_site_label
 _atom_site_symmetry_multiplicity
 _atom_site_fract_x
 _atom_site_fract_y
 _atom_site_fract_z
 _atom_site_occupancy
  Nd  Nd0  1  0.528251  0.782472  0.352858  1
  Nd  Nd1  1  0.146532  0.969783  0.584223  1
  Nd  Nd2  1  0.853468  0.030217  0.415777  1
  Nd  Nd3  1  0.217528  0.471749  0.852858  1
  Nd  Nd4  1  0.561031  0.735744  0.914541  1
  Nd  Nd5  1  0.969783  0.146532  0.915777  1
  Nd  Nd6  1  0.471749  0.217528  0.647142  1
  Nd  Nd7  1  0.735744  0.561031  0.585459  1
  Nd  Nd8  1  0.030217  0.853468  0.084223  1
  Nd  Nd9  1  0.438969  0.264256  0.085459  1
  Nd  Nd10  1  0.264256  0.438969  0.414541  1
  Nd  Nd11  1  0.782472  0.528251  0.147142  1
  Mo  Mo12  1  0.115537  0.501113  0.118382  1
  Mo  Mo13  1  0.816015  0.184726  0.638930  1
  Mo  Mo14  1  0.574141  0.384125  0.861623  1
  Mo  Mo15  1  0.886150  0.679440  0.362414  1
  Mo  Mo16  1  0.320560  0.113850  0.862414  1
  Mo  Mo17  1  0.113850  0.320560  0.637586  1
  Mo  Mo18  1  0.183985  0.815274  0.361070  1
  Mo  Mo19  1  0.760020  0.930567  0.839608  1
  Mo  Mo20  1  0.930567  0.760020  0.660392  1
  Mo  Mo21  1  0.679440  0.886150  0.137586  1
  Mo  Mo22  1  0.615875  0.425859  0.361623  1
  Mo  Mo23  1  0.498886  0.884463  0.618382  1
  Mo  Mo24  1  0.384125  0.574141  0.638377  1
  Mo  Mo25  1  0.239980  0.069433  0.160392  1
  Mo  Mo26  1  0.425859  0.615875  0.138377  1
  Mo  Mo27  1  0.069433  0.239980  0.339608  1
  Mo  Mo28  1  0.501113  0.115537  0.381618  1
  Mo  Mo29  1  0.815274  0.183985  0.138930  1
  Mo  Mo30  1  0.884463  0.498887  0.881618  1
  Mo  Mo31  1  0.184726  0.816015  0.861070  1
  O  O32  1  0.477933  0.201426  0.265148  1
  O  O33  1  0.655735  0.214215  0.112205  1
  O  O34  1  0.993987  0.563674  0.875817  1
  O  O35  1  0.922411  0.081764  0.565093  1
  O  O36  1  0.130056  0.881111  0.735745  1
  O  O37  1  0.370836  0.920918  0.201651  1
  O  O38  1  0.706085  0.816435  0.866213  1
  O  O39  1  0.776769  0.563819  0.967824  1
  O  O40  1  0.265630  0.724586  0.086715  1
  O  O41  1  0.874164  0.874164  0.750000  1
  O  O42  1  0.629049  0.540239  0.434837  1
  O  O43  1  0.344265  0.785785  0.887795  1
  O  O44  1  0.172841  0.106639  0.855412  1
  O  O45  1  0.152886  0.062671  0.054516  1
  O  O46  1  0.293915  0.183565  0.133787  1
  O  O47  1  0.325919  0.827840  0.388706  1
  O  O48  1  0.559791  0.038239  0.081640  1
  O  O49  1  0.798574  0.522067  0.765148  1
  O  O50  1  0.827840  0.325919  0.111294  1
  O  O51  1  0.275414  0.734370  0.586715  1
  O  O52  1  0.340114  0.546706  0.754880  1
  O  O53  1  0.977740  0.333431  0.922287  1
  O  O54  1  0.077589  0.918236  0.434907  1
  O  O55  1  0.785785  0.344265  0.612205  1
  O  O56  1  0.081764  0.922411  0.934907  1
  O  O57  1  0.869944  0.118889  0.264255  1
  O  O58  1  0.918236  0.077589  0.065093  1
  O  O59  1  0.563674  0.993987  0.624183  1
  O  O60  1  0.214215  0.655735  0.387795  1
  O  O61  1  0.765485  0.674428  0.430157  1
  O  O62  1  0.358957  0.141914  0.744085  1
  O  O63  1  0.006013  0.436326  0.124183  1
  O  O64  1  0.022260  0.666569  0.077713  1
  O  O65  1  0.333431  0.977740  0.577713  1
  O  O66  1  0.436326  0.006013  0.375817  1
  O  O67  1  0.724586  0.265630  0.413285  1
  O  O68  1  0.734370  0.275414  0.913285  1
  O  O69  1  0.659886  0.453294  0.245120  1
  O  O70  1  0.641043  0.858086  0.255915  1
  O  O71  1  0.920918  0.370836  0.298349  1
  O  O72  1  0.463535  0.432386  0.359966  1
  O  O73  1  0.522067  0.798574  0.734852  1
  O  O74  1  0.118889  0.869944  0.235745  1
  O  O75  1  0.436181  0.223231  0.467824  1
  O  O76  1  0.567614  0.536465  0.859966  1
  O  O77  1  0.106639  0.172841  0.644588  1
  O  O78  1  0.079082  0.629164  0.701651  1
  O  O79  1  0.062671  0.152887  0.445484  1
  O  O80  1  0.141914  0.358957  0.755915  1
  O  O81  1  0.234515  0.325572  0.569843  1
  O  O82  1  0.674428  0.765485  0.069843  1
  O  O83  1  0.325572  0.234515  0.930157  1
  O  O84  1  0.432386  0.463535  0.140034  1
  O  O85  1  0.172160  0.674081  0.888706  1
  O  O86  1  0.961761  0.440209  0.581640  1
  O  O87  1  0.937329  0.847113  0.554516  1
  O  O88  1  0.847113  0.937329  0.945484  1
  O  O89  1  0.893361  0.827159  0.355412  1
  O  O90  1  0.536465  0.567614  0.640034  1
  O  O91  1  0.881111  0.130056  0.764255  1
  O  O92  1  0.440209  0.961761  0.918360  1
  O  O93  1  0.546706  0.340114  0.745120  1
  O  O94  1  0.666569  0.022260  0.422287  1
  O  O95  1  0.563819  0.776769  0.532176  1
  O  O96  1  0.223231  0.436181  0.032176  1
  O  O97  1  0.816435  0.706085  0.633787  1
  O  O98  1  0.201426  0.477933  0.234852  1
  O  O99  1  0.674081  0.172160  0.611294  1
  O  O100  1  0.540239  0.629049  0.065163  1
  O  O101  1  0.858086  0.641043  0.244085  1
  O  O102  1  0.629164  0.079082  0.798349  1
  O  O103  1  0.453294  0.659886  0.254880  1
  O  O104  1  0.827159  0.893361  0.144588  1
  O  O105  1  0.038239  0.559791  0.418360  1
  O  O106  1  0.125836  0.125836  0.250000  1
  O  O107  1  0.459761  0.370951  0.934837  1
  O  O108  1  0.183565  0.293915  0.366213  1
  O  O109  1  0.370951  0.459761  0.565163  1
