# generated using pymatgen
data_BaCa(CO3)2
_symmetry_space_group_name_H-M   'P 1'
_cell_length_a   8.78836136
_cell_length_b   8.78836136
_cell_length_c   6.24329034
_cell_angle_alpha   90.00000000
_cell_angle_beta   90.00000000
_cell_angle_gamma   120.00000000
_symmetry_Int_Tables_number   1
_chemical_formula_structural   BaCa(CO3)2
_chemical_formula_sum   'Ba3 Ca3 C6 O18'
_cell_volume   417.59950571
_cell_formula_units_Z   3
loop_
 _symmetry_equiv_pos_site_id
 _symmetry_equiv_pos_as_xyz
  1  'x, y, z'
loop_
 _atom_site_type_symbol
 _atom_site_label
 _atom_site_symmetry_multiplicity
 _atom_site_fract_x
 _atom_site_fract_y
 _atom_site_fract_z
 _atom_site_occupancy
  Ba  Ba0  1  0.000000  0.686842  0.000000  1
  Ba  Ba1  1  0.686842  0.000000  0.000000  1
  Ba  Ba2  1  0.313158  0.313158  0.000000  1
  Ca  Ca3  1  0.359868  0.000000  0.500000  1
  Ca  Ca4  1  0.640132  0.640132  0.500000  1
  Ca  Ca5  1  0.000000  0.359868  0.500000  1
  C  C6  1  0.666667  0.333333  0.645527  1
  C  C7  1  0.000000  0.000000  0.264962  1
  C  C8  1  0.000000  0.000000  0.735038  1
  C  C9  1  0.666667  0.333333  0.183816  1
  C  C10  1  0.333333  0.666667  0.816184  1
  C  C11  1  0.333333  0.666667  0.354473  1
  O  O12  1  0.002245  0.148901  0.741589  1
  O  O13  1  0.997755  0.146657  0.258411  1
  O  O14  1  0.820282  0.344912  0.180888  1
  O  O15  1  0.190187  0.675995  0.358286  1
  O  O16  1  0.851099  0.853343  0.741589  1
  O  O17  1  0.148901  0.002245  0.258411  1
  O  O18  1  0.809813  0.485808  0.641714  1
  O  O19  1  0.475371  0.655088  0.819112  1
  O  O20  1  0.853343  0.851099  0.258411  1
  O  O21  1  0.655088  0.475371  0.180888  1
  O  O22  1  0.324005  0.514192  0.358286  1
  O  O23  1  0.675995  0.190187  0.641714  1
  O  O24  1  0.344912  0.820282  0.819112  1
  O  O25  1  0.179718  0.524629  0.819112  1
  O  O26  1  0.146657  0.997755  0.741589  1
  O  O27  1  0.514192  0.324005  0.641714  1
  O  O28  1  0.524629  0.179718  0.180888  1
  O  O29  1  0.485808  0.809813  0.358286  1
