# generated using pymatgen
data_MnAlF5
_symmetry_space_group_name_H-M   'P 1'
_cell_length_a   5.33933988
_cell_length_b   5.33933988
_cell_length_c   9.70182619
_cell_angle_alpha   90.00000000
_cell_angle_beta   90.00000000
_cell_angle_gamma   140.20483599
_symmetry_Int_Tables_number   1
_chemical_formula_structural   MnAlF5
_chemical_formula_sum   'Mn2 Al2 F10'
_cell_volume   177.02680553
_cell_formula_units_Z   2
loop_
 _symmetry_equiv_pos_site_id
 _symmetry_equiv_pos_as_xyz
  1  'x, y, z'
loop_
 _atom_site_type_symbol
 _atom_site_label
 _atom_site_symmetry_multiplicity
 _atom_site_fract_x
 _atom_site_fract_y
 _atom_site_fract_z
 _atom_site_occupancy
  Mn  Mn0  1  0.500000  0.500000  0.500000  1
  Mn  Mn1  1  0.500000  0.500000  1.000000  1
  Al  Al2  1  0.206733  0.793267  0.250000  1
  Al  Al3  1  0.793267  0.206733  0.750000  1
  F  F4  1  0.694276  0.305724  0.250000  1
  F  F5  1  0.305724  0.694276  0.750000  1
  F  F6  1  0.925721  0.074279  0.615407  1
  F  F7  1  0.074279  0.925721  0.384593  1
  F  F8  1  0.669320  0.330680  0.881997  1
  F  F9  1  0.330680  0.669320  0.118003  1
  F  F10  1  0.330680  0.669320  0.381997  1
  F  F11  1  0.669320  0.330680  0.618003  1
  F  F12  1  0.925721  0.074279  0.884593  1
  F  F13  1  0.074279  0.925721  0.115407  1
