# generated using pymatgen
data_Ce2Br3N
_symmetry_space_group_name_H-M   'P 1'
_cell_length_a   12.05536035
_cell_length_b   12.05536035
_cell_length_c   12.05536035
_cell_angle_alpha   104.42908421
_cell_angle_beta   104.42908421
_cell_angle_gamma   120.10835928
_symmetry_Int_Tables_number   1
_chemical_formula_structural   Ce2Br3N
_chemical_formula_sum   'Ce16 Br24 N8'
_cell_volume   1313.29851822
_cell_formula_units_Z   8
loop_
 _symmetry_equiv_pos_site_id
 _symmetry_equiv_pos_as_xyz
  1  'x, y, z'
loop_
 _atom_site_type_symbol
 _atom_site_label
 _atom_site_symmetry_multiplicity
 _atom_site_fract_x
 _atom_site_fract_y
 _atom_site_fract_z
 _atom_site_occupancy
  Ce  Ce0  1  0.403860  0.257009  0.404955  1
  Ce  Ce1  1  0.233878  0.404916  0.491315  1
  Ce  Ce2  1  0.913601  0.742562  0.508685  1
  Ce  Ce3  1  0.846140  0.492991  0.095045  1
  Ce  Ce4  1  0.595084  0.086399  0.828962  1
  Ce  Ce5  1  0.507009  0.602054  0.353149  1
  Ce  Ce6  1  0.852054  0.998905  0.595045  1
  Ce  Ce7  1  0.001095  0.596140  0.853149  1
  Ce  Ce8  1  0.248905  0.153860  0.646851  1
  Ce  Ce9  1  0.336399  0.007438  0.991315  1
  Ce  Ce10  1  0.654916  0.663601  0.671038  1
  Ce  Ce11  1  0.397946  0.751095  0.904955  1
  Ce  Ce12  1  0.992562  0.983878  0.328962  1
  Ce  Ce13  1  0.257438  0.766122  0.171038  1
  Ce  Ce14  1  0.742991  0.147946  0.146851  1
  Ce  Ce15  1  0.016122  0.345084  0.008685  1
  Br  Br16  1  0.692987  0.863476  0.085802  1
  Br  Br17  1  0.777673  0.607184  0.914198  1
  Br  Br18  1  0.511761  0.276980  0.926053  1
  Br  Br19  1  0.094713  0.785659  0.341498  1
  Br  Br20  1  0.136524  0.222327  0.829511  1
  Br  Br21  1  0.444161  0.753215  0.658502  1
  Br  Br22  1  0.350927  0.585708  0.073947  1
  Br  Br23  1  0.214341  0.555839  0.309054  1
  Br  Br24  1  0.246785  0.905287  0.690946  1
  Br  Br25  1  0.155287  0.964341  0.158502  1
  Br  Br26  1  0.723020  0.649073  0.234781  1
  Br  Br27  1  0.557013  0.886524  0.414198  1
  Br  Br28  1  0.472327  0.142816  0.585802  1
  Br  Br29  1  0.526980  0.100927  0.265219  1
  Br  Br30  1  0.392816  0.307013  0.170489  1
  Br  Br31  1  0.113476  0.527673  0.670489  1
  Br  Br32  1  0.738239  0.473020  0.573947  1
  Br  Br33  1  0.857184  0.442987  0.329511  1
  Br  Br34  1  0.805839  0.996785  0.841498  1
  Br  Br35  1  0.835708  0.261761  0.734781  1
  Br  Br36  1  0.035659  0.194161  0.190946  1
  Br  Br37  1  0.414292  0.488239  0.765219  1
  Br  Br38  1  0.899073  0.164292  0.426053  1
  Br  Br39  1  0.003215  0.844713  0.809054  1
  N  N40  1  0.730015  0.752991  0.534569  1
  N  N41  1  0.247009  0.781579  0.977024  1
  N  N42  1  0.445446  0.480015  0.477024  1
  N  N43  1  0.002991  0.968421  0.522976  1
  N  N44  1  0.218421  0.195446  0.465431  1
  N  N45  1  0.519985  0.997009  0.965431  1
  N  N46  1  0.031579  0.554554  0.034569  1
  N  N47  1  0.804554  0.269985  0.022976  1
