# generated using pymatgen
data_Ag4GeO4
_symmetry_space_group_name_H-M   'P 1'
_cell_length_a   6.57933833
_cell_length_b   8.60177909
_cell_length_c   10.26374520
_cell_angle_alpha   106.76990146
_cell_angle_beta   93.07084912
_cell_angle_gamma   94.64785115
_symmetry_Int_Tables_number   1
_chemical_formula_structural   Ag4GeO4
_chemical_formula_sum   'Ag16 Ge4 O16'
_cell_volume   552.52905116
_cell_formula_units_Z   4
loop_
 _symmetry_equiv_pos_site_id
 _symmetry_equiv_pos_as_xyz
  1  'x, y, z'
loop_
 _atom_site_type_symbol
 _atom_site_label
 _atom_site_symmetry_multiplicity
 _atom_site_fract_x
 _atom_site_fract_y
 _atom_site_fract_z
 _atom_site_occupancy
  Ag  Ag0  1  0.016448  0.015771  0.247336  1
  Ag  Ag1  1  0.522869  0.036501  0.256926  1
  Ag  Ag2  1  0.441572  0.652599  0.162270  1
  Ag  Ag3  1  0.321752  0.181789  0.525890  1
  Ag  Ag4  1  0.952631  0.580049  0.140310  1
  Ag  Ag5  1  0.084143  0.362572  0.368080  1
  Ag  Ag6  1  0.770751  0.176045  0.077572  1
  Ag  Ag7  1  0.420692  0.606457  0.669497  1
  Ag  Ag8  1  0.477131  0.963499  0.743074  1
  Ag  Ag9  1  0.579308  0.393543  0.330503  1
  Ag  Ag10  1  0.558428  0.347401  0.837730  1
  Ag  Ag11  1  0.229249  0.823955  0.922428  1
  Ag  Ag12  1  0.678248  0.818211  0.474110  1
  Ag  Ag13  1  0.047369  0.419951  0.859690  1
  Ag  Ag14  1  0.983552  0.984229  0.752664  1
  Ag  Ag15  1  0.915857  0.637428  0.631920  1
  Ge  Ge16  1  0.798772  0.228357  0.556764  1
  Ge  Ge17  1  0.724899  0.751498  0.938630  1
  Ge  Ge18  1  0.275101  0.248502  0.061370  1
  Ge  Ge19  1  0.201228  0.771643  0.443236  1
  O  O20  1  0.957348  0.655853  0.425482  1
  O  O21  1  0.224243  0.221068  0.884379  1
  O  O22  1  0.718902  0.941182  0.899261  1
  O  O23  1  0.758491  0.174874  0.708991  1
  O  O24  1  0.925542  0.647837  0.847469  1
  O  O25  1  0.514020  0.375484  0.113685  1
  O  O26  1  0.220833  0.953149  0.586753  1
  O  O27  1  0.775757  0.778932  0.115621  1
  O  O28  1  0.391933  0.641568  0.468057  1
  O  O29  1  0.608067  0.358432  0.531943  1
  O  O30  1  0.074458  0.352163  0.152531  1
  O  O31  1  0.779167  0.046851  0.413247  1
  O  O32  1  0.042652  0.344147  0.574518  1
  O  O33  1  0.241509  0.825126  0.291009  1
  O  O34  1  0.281098  0.058818  0.100739  1
  O  O35  1  0.485980  0.624516  0.886315  1
