# generated using pymatgen
data_RbFeS2
_symmetry_space_group_name_H-M   'P 1'
_cell_length_a   6.89876076
_cell_length_b   6.89876076
_cell_length_c   5.44141399
_cell_angle_alpha   78.85364839
_cell_angle_beta   101.14635161
_cell_angle_gamma   63.69088050
_symmetry_Int_Tables_number   1
_chemical_formula_structural   RbFeS2
_chemical_formula_sum   'Rb2 Fe2 S4'
_cell_volume   216.00445028
_cell_formula_units_Z   2
loop_
 _symmetry_equiv_pos_site_id
 _symmetry_equiv_pos_as_xyz
  1  'x, y, z'
loop_
 _atom_site_type_symbol
 _atom_site_label
 _atom_site_symmetry_multiplicity
 _atom_site_fract_x
 _atom_site_fract_y
 _atom_site_fract_z
 _atom_site_occupancy
  Rb  Rb0  1  0.645966  0.645966  0.250000  1
  Rb  Rb1  1  0.354034  0.354034  0.750000  1
  Fe  Fe2  1  0.997505  0.997505  0.750000  1
  Fe  Fe3  1  0.002495  0.002495  0.250000  1
  S  S4  1  0.284748  0.912008  0.595201  1
  S  S5  1  0.912008  0.284748  0.904799  1
  S  S6  1  0.087992  0.715252  0.095201  1
  S  S7  1  0.715252  0.087992  0.404799  1
