# generated using pymatgen
data_H13S2N3O8
_symmetry_space_group_name_H-M   'P 1'
_cell_length_a   10.32146565
_cell_length_b   5.89898147
_cell_length_c   17.33305153
_cell_angle_alpha   90.00000000
_cell_angle_beta   114.49905594
_cell_angle_gamma   90.00000000
_symmetry_Int_Tables_number   1
_chemical_formula_structural   H13S2N3O8
_chemical_formula_sum   'H52 S8 N12 O32'
_cell_volume   960.32802106
_cell_formula_units_Z   4
loop_
 _symmetry_equiv_pos_site_id
 _symmetry_equiv_pos_as_xyz
  1  'x, y, z'
loop_
 _atom_site_type_symbol
 _atom_site_label
 _atom_site_symmetry_multiplicity
 _atom_site_fract_x
 _atom_site_fract_y
 _atom_site_fract_z
 _atom_site_occupancy
  H  H0  1  0.733359  0.289444  0.746212  1
  H  H1  1  0.266641  0.289444  0.753788  1
  H  H2  1  0.266641  0.710556  0.253788  1
  H  H3  1  0.733359  0.710556  0.246212  1
  H  H4  1  0.141911  0.424192  0.987418  1
  H  H5  1  0.858089  0.424192  0.512582  1
  H  H6  1  0.858089  0.575808  0.012582  1
  H  H7  1  0.141911  0.575808  0.487418  1
  H  H8  1  0.149774  0.363190  0.083983  1
  H  H9  1  0.850226  0.363190  0.416017  1
  H  H10  1  0.850226  0.636810  0.916017  1
  H  H11  1  0.149774  0.636810  0.583983  1
  H  H12  1  0.190269  0.632613  0.063971  1
  H  H13  1  0.809731  0.632613  0.436029  1
  H  H14  1  0.809731  0.367387  0.936029  1
  H  H15  1  0.190269  0.367387  0.563971  1
  H  H16  1  0.302618  0.416442  0.071633  1
  H  H17  1  0.697382  0.416442  0.428367  1
  H  H18  1  0.697382  0.583558  0.928367  1
  H  H19  1  0.302618  0.583558  0.571633  1
  H  H20  1  0.641703  0.077835  0.565890  1
  H  H21  1  0.358297  0.077835  0.934110  1
  H  H22  1  0.358297  0.922165  0.434110  1
  H  H23  1  0.641703  0.922165  0.065890  1
  H  H24  1  0.673828  0.961224  0.486418  1
  H  H25  1  0.326172  0.961224  0.013582  1
  H  H26  1  0.326172  0.038776  0.513582  1
  H  H27  1  0.673828  0.038776  0.986418  1
  H  H28  1  0.713069  0.813686  0.575735  1
  H  H29  1  0.286931  0.813686  0.924265  1
  H  H30  1  0.286931  0.186314  0.424265  1
  H  H31  1  0.713069  0.186314  0.075735  1
  H  H32  1  0.812883  0.047438  0.575546  1
  H  H33  1  0.187117  0.047438  0.924454  1
  H  H34  1  0.187117  0.952562  0.424454  1
  H  H35  1  0.812883  0.952562  0.075546  1
  H  H36  1  0.081068  0.555392  0.290672  1
  H  H37  1  0.918932  0.555392  0.209328  1
  H  H38  1  0.918932  0.444608  0.709328  1
  H  H39  1  0.081068  0.444608  0.790672  1
  H  H40  1  0.964200  0.354280  0.286801  1
  H  H41  1  0.035800  0.354280  0.213199  1
  H  H42  1  0.035800  0.645720  0.713199  1
  H  H43  1  0.964200  0.645720  0.786801  1
  H  H44  1  0.522730  0.857189  0.708323  1
  H  H45  1  0.477270  0.857189  0.791677  1
  H  H46  1  0.477270  0.142811  0.291677  1
  H  H47  1  0.522730  0.142811  0.208323  1
  H  H48  1  0.586587  0.058530  0.785874  1
  H  H49  1  0.413413  0.058530  0.714126  1
  H  H50  1  0.413413  0.941470  0.214126  1
  H  H51  1  0.586587  0.941470  0.285874  1
  S  S52  1  0.593684  0.469187  0.632766  1
  S  S53  1  0.406316  0.469187  0.867234  1
  S  S54  1  0.406316  0.530813  0.367234  1
  S  S55  1  0.593684  0.530813  0.132766  1
  S  S56  1  0.104404  0.958325  0.142846  1
  S  S57  1  0.895596  0.958325  0.357154  1
  S  S58  1  0.895596  0.041675  0.857154  1
  S  S59  1  0.104404  0.041675  0.642846  1
  N  N60  1  0.195797  0.460111  0.050995  1
  N  N61  1  0.804203  0.460111  0.449005  1
  N  N62  1  0.804203  0.539889  0.949005  1
  N  N63  1  0.195797  0.539889  0.550995  1
  N  N64  1  0.710680  0.975936  0.551063  1
  N  N65  1  0.289320  0.975936  0.948937  1
  N  N66  1  0.289320  0.024064  0.448937  1
  N  N67  1  0.710680  0.024064  0.051063  1
  N  N68  1  0.000000  0.455595  0.250000  1
  N  N69  1  0.000000  0.544405  0.750000  1
  N  N70  1  0.500000  0.959936  0.750000  1
  N  N71  1  0.500000  0.040064  0.250000  1
  O  O72  1  0.663407  0.432479  0.731522  1
  O  O73  1  0.336593  0.432479  0.768478  1
  O  O74  1  0.336593  0.567521  0.268478  1
  O  O75  1  0.663407  0.567521  0.231522  1
  O  O76  1  0.521373  0.257058  0.593420  1
  O  O77  1  0.478627  0.257058  0.906580  1
  O  O78  1  0.478627  0.742942  0.406580  1
  O  O79  1  0.521373  0.742942  0.093420  1
  O  O80  1  0.494193  0.659882  0.619864  1
  O  O81  1  0.505807  0.659882  0.880136  1
  O  O82  1  0.505807  0.340118  0.380136  1
  O  O83  1  0.494193  0.340118  0.119864  1
  O  O84  1  0.709788  0.525525  0.607226  1
  O  O85  1  0.290212  0.525525  0.892774  1
  O  O86  1  0.290212  0.474475  0.392774  1
  O  O87  1  0.709788  0.474475  0.107226  1
  O  O88  1  0.177449  0.907059  0.236568  1
  O  O89  1  0.822551  0.907059  0.263432  1
  O  O90  1  0.822551  0.092941  0.763432  1
  O  O91  1  0.177449  0.092941  0.736568  1
  O  O92  1  0.207703  0.912630  0.104623  1
  O  O93  1  0.792297  0.912630  0.395377  1
  O  O94  1  0.792297  0.087370  0.895377  1
  O  O95  1  0.207703  0.087370  0.604623  1
  O  O96  1  0.977009  0.809245  0.104035  1
  O  O97  1  0.022991  0.809245  0.395965  1
  O  O98  1  0.022991  0.190755  0.895965  1
  O  O99  1  0.977009  0.190755  0.604035  1
  O  O100  1  0.061180  0.201444  0.131839  1
  O  O101  1  0.938820  0.201444  0.368161  1
  O  O102  1  0.938820  0.798556  0.868161  1
  O  O103  1  0.061180  0.798556  0.631839  1
