# generated using pymatgen
data_Sm2Se5O13
_symmetry_space_group_name_H-M   'P 1'
_cell_length_a   10.35826415
_cell_length_b   10.48036558
_cell_length_c   13.11416798
_cell_angle_alpha   90.00000000
_cell_angle_beta   111.89914248
_cell_angle_gamma   90.00000000
_symmetry_Int_Tables_number   1
_chemical_formula_structural   Sm2Se5O13
_chemical_formula_sum   'Sm8 Se20 O52'
_cell_volume   1320.92483989
_cell_formula_units_Z   4
loop_
 _symmetry_equiv_pos_site_id
 _symmetry_equiv_pos_as_xyz
  1  'x, y, z'
loop_
 _atom_site_type_symbol
 _atom_site_label
 _atom_site_symmetry_multiplicity
 _atom_site_fract_x
 _atom_site_fract_y
 _atom_site_fract_z
 _atom_site_occupancy
  Sm  Sm0  1  0.176183  0.254351  0.908308  1
  Sm  Sm1  1  0.062473  0.819628  0.916164  1
  Sm  Sm2  1  0.937527  0.180372  0.083836  1
  Sm  Sm3  1  0.823817  0.745649  0.091692  1
  Sm  Sm4  1  0.062473  0.680372  0.416164  1
  Sm  Sm5  1  0.823817  0.754351  0.591692  1
  Sm  Sm6  1  0.176183  0.245649  0.408308  1
  Sm  Sm7  1  0.937527  0.319628  0.583836  1
  Se  Se8  1  0.098455  0.920931  0.225616  1
  Se  Se9  1  0.647050  0.424473  0.963933  1
  Se  Se10  1  0.352950  0.575527  0.036067  1
  Se  Se11  1  0.340851  0.268166  0.692521  1
  Se  Se12  1  0.659149  0.768166  0.807479  1
  Se  Se13  1  0.352950  0.924473  0.536067  1
  Se  Se14  1  0.901545  0.420931  0.274384  1
  Se  Se15  1  0.848461  0.428980  0.821318  1
  Se  Se16  1  0.405560  0.516460  0.597091  1
  Se  Se17  1  0.340851  0.231834  0.192521  1
  Se  Se18  1  0.151539  0.928980  0.678682  1
  Se  Se19  1  0.594440  0.016460  0.902909  1
  Se  Se20  1  0.405560  0.983540  0.097091  1
  Se  Se21  1  0.098455  0.579069  0.725616  1
  Se  Se22  1  0.659149  0.731834  0.307479  1
  Se  Se23  1  0.901545  0.079069  0.774384  1
  Se  Se24  1  0.647050  0.075527  0.463933  1
  Se  Se25  1  0.594440  0.483540  0.402909  1
  Se  Se26  1  0.151539  0.571020  0.178682  1
  Se  Se27  1  0.848461  0.071020  0.321318  1
  O  O28  1  0.327188  0.268696  0.312226  1
  O  O29  1  0.172576  0.235854  0.095171  1
  O  O30  1  0.796206  0.366841  0.058515  1
  O  O31  1  0.084579  0.423490  0.767419  1
  O  O32  1  0.020425  0.333603  0.235799  1
  O  O33  1  0.979575  0.833603  0.264201  1
  O  O34  1  0.980299  0.556732  0.589998  1
  O  O35  1  0.979575  0.666397  0.764201  1
  O  O36  1  0.980299  0.943268  0.089998  1
  O  O37  1  0.019701  0.443268  0.410002  1
  O  O38  1  0.637315  0.891983  0.992036  1
  O  O39  1  0.362685  0.391983  0.507964  1
  O  O40  1  0.637315  0.608017  0.492036  1
  O  O41  1  0.827424  0.764146  0.904829  1
  O  O42  1  0.172576  0.264146  0.595171  1
  O  O43  1  0.052106  0.687525  0.089867  1
  O  O44  1  0.915421  0.576510  0.232581  1
  O  O45  1  0.915421  0.923490  0.732581  1
  O  O46  1  0.665928  0.583769  0.987797  1
  O  O47  1  0.796099  0.367131  0.694011  1
  O  O48  1  0.323697  0.904251  0.665801  1
  O  O49  1  0.796206  0.133159  0.558515  1
  O  O50  1  0.203901  0.867131  0.805989  1
  O  O51  1  0.947894  0.312475  0.910133  1
  O  O52  1  0.638798  0.558034  0.288202  1
  O  O53  1  0.638798  0.941966  0.788202  1
  O  O54  1  0.327188  0.231304  0.812226  1
  O  O55  1  0.726174  0.378724  0.444983  1
  O  O56  1  0.019701  0.056732  0.910002  1
  O  O57  1  0.273826  0.878724  0.055017  1
  O  O58  1  0.361202  0.058034  0.211798  1
  O  O59  1  0.084579  0.076510  0.267419  1
  O  O60  1  0.203794  0.633159  0.941485  1
  O  O61  1  0.362685  0.108017  0.007964  1
  O  O62  1  0.672812  0.768696  0.187774  1
  O  O63  1  0.827424  0.735854  0.404829  1
  O  O64  1  0.672812  0.731304  0.687774  1
  O  O65  1  0.676303  0.404251  0.834199  1
  O  O66  1  0.361202  0.441966  0.711798  1
  O  O67  1  0.323697  0.595749  0.165801  1
  O  O68  1  0.203794  0.866841  0.441485  1
  O  O69  1  0.947894  0.187525  0.410133  1
  O  O70  1  0.203901  0.632869  0.305989  1
  O  O71  1  0.020425  0.166397  0.735799  1
  O  O72  1  0.273826  0.621276  0.555017  1
  O  O73  1  0.665928  0.916231  0.487797  1
  O  O74  1  0.676303  0.095749  0.334199  1
  O  O75  1  0.334072  0.083769  0.512203  1
  O  O76  1  0.726174  0.121276  0.944983  1
  O  O77  1  0.334072  0.416231  0.012203  1
  O  O78  1  0.052106  0.812475  0.589867  1
  O  O79  1  0.796099  0.132869  0.194011  1
