# generated using pymatgen
data_Mg2B24C
_symmetry_space_group_name_H-M   'P 1'
_cell_length_a   8.96590611
_cell_length_b   8.96590611
_cell_length_c   5.08913856
_cell_angle_alpha   90.00000000
_cell_angle_beta   90.00000000
_cell_angle_gamma   90.00000000
_symmetry_Int_Tables_number   1
_chemical_formula_structural   Mg2B24C
_chemical_formula_sum   'Mg4 B48 C2'
_cell_volume   409.10298540
_cell_formula_units_Z   2
loop_
 _symmetry_equiv_pos_site_id
 _symmetry_equiv_pos_as_xyz
  1  'x, y, z'
loop_
 _atom_site_type_symbol
 _atom_site_label
 _atom_site_symmetry_multiplicity
 _atom_site_fract_x
 _atom_site_fract_y
 _atom_site_fract_z
 _atom_site_occupancy
  Mg  Mg0  1  0.000000  0.000000  0.000000  1
  Mg  Mg1  1  0.500000  0.500000  0.500000  1
  Mg  Mg2  1  0.000000  0.500000  0.750000  1
  Mg  Mg3  1  0.500000  0.000000  0.250000  1
  B  B4  1  0.598431  0.805870  0.082916  1
  B  B5  1  0.759039  0.077690  0.915348  1
  B  B6  1  0.615784  0.371656  0.875736  1
  B  B7  1  0.751519  0.735219  0.915079  1
  B  B8  1  0.251519  0.764781  0.415079  1
  B  B9  1  0.401569  0.194130  0.082916  1
  B  B10  1  0.264781  0.751519  0.084921  1
  B  B11  1  0.730855  0.407168  0.587507  1
  B  B12  1  0.922310  0.759039  0.084652  1
  B  B13  1  0.325280  0.920464  0.598591  1
  B  B14  1  0.240961  0.922310  0.915348  1
  B  B15  1  0.907168  0.230855  0.912493  1
  B  B16  1  0.735219  0.248481  0.084921  1
  B  B17  1  0.384216  0.628344  0.875736  1
  B  B18  1  0.077690  0.240961  0.084652  1
  B  B19  1  0.422310  0.740961  0.584652  1
  B  B20  1  0.901569  0.305870  0.582916  1
  B  B21  1  0.235219  0.251519  0.584921  1
  B  B22  1  0.115784  0.128344  0.375736  1
  B  B23  1  0.805870  0.401569  0.917084  1
  B  B24  1  0.628344  0.615784  0.124264  1
  B  B25  1  0.769145  0.907168  0.087507  1
  B  B26  1  0.748481  0.235219  0.415079  1
  B  B27  1  0.740961  0.577690  0.415348  1
  B  B28  1  0.092832  0.769145  0.912493  1
  B  B29  1  0.259039  0.422310  0.415348  1
  B  B30  1  0.407168  0.269145  0.412493  1
  B  B31  1  0.248481  0.264781  0.915079  1
  B  B32  1  0.884216  0.871656  0.375736  1
  B  B33  1  0.579536  0.174720  0.901409  1
  B  B34  1  0.420464  0.825280  0.901409  1
  B  B35  1  0.694130  0.901569  0.417084  1
  B  B36  1  0.577690  0.259039  0.584652  1
  B  B37  1  0.871656  0.115784  0.624264  1
  B  B38  1  0.305870  0.098431  0.417084  1
  B  B39  1  0.592832  0.730855  0.412493  1
  B  B40  1  0.079536  0.325280  0.401409  1
  B  B41  1  0.371656  0.384216  0.124264  1
  B  B42  1  0.920464  0.674720  0.401409  1
  B  B43  1  0.269145  0.592832  0.587507  1
  B  B44  1  0.098431  0.694130  0.582916  1
  B  B45  1  0.194130  0.598431  0.917084  1
  B  B46  1  0.764781  0.748481  0.584921  1
  B  B47  1  0.230855  0.092832  0.087507  1
  B  B48  1  0.174720  0.420464  0.098591  1
  B  B49  1  0.128344  0.884216  0.624264  1
  B  B50  1  0.825280  0.579536  0.098591  1
  B  B51  1  0.674720  0.079536  0.598591  1
  C  C52  1  0.000000  0.000000  0.500000  1
  C  C53  1  0.500000  0.500000  0.000000  1
