# generated using pymatgen
data_La2B3Cl
_symmetry_space_group_name_H-M   'P 1'
_cell_length_a   7.79791817
_cell_length_b   7.79791817
_cell_length_c   8.29119255
_cell_angle_alpha   90.00000000
_cell_angle_beta   90.00000000
_cell_angle_gamma   120.00000000
_symmetry_Int_Tables_number   1
_chemical_formula_structural   La2B3Cl
_chemical_formula_sum   'La8 B12 Cl4'
_cell_volume   436.62136151
_cell_formula_units_Z   4
loop_
 _symmetry_equiv_pos_site_id
 _symmetry_equiv_pos_as_xyz
  1  'x, y, z'
loop_
 _atom_site_type_symbol
 _atom_site_label
 _atom_site_symmetry_multiplicity
 _atom_site_fract_x
 _atom_site_fract_y
 _atom_site_fract_z
 _atom_site_occupancy
  La  La0  1  0.500081  0.000727  0.224576  1
  La  La1  1  0.500081  0.000727  0.775424  1
  La  La2  1  0.500646  0.499919  0.224576  1
  La  La3  1  0.999273  0.499354  0.224576  1
  La  La4  1  0.500646  0.499919  0.775424  1
  La  La5  1  0.999273  0.499354  0.775424  1
  La  La6  1  0.000000  0.000000  0.239479  1
  La  La7  1  0.000000  0.000000  0.760521  1
  B  B8  1  0.524906  0.262580  0.000000  1
  B  B9  1  0.262613  0.524989  0.000000  1
  B  B10  1  0.722480  0.861212  0.000000  1
  B  B11  1  0.861560  0.138346  0.000000  1
  B  B12  1  0.276786  0.138440  0.000000  1
  B  B13  1  0.262376  0.737387  0.000000  1
  B  B14  1  0.737420  0.262326  0.000000  1
  B  B15  1  0.138733  0.277520  0.000000  1
  B  B16  1  0.475011  0.737624  0.000000  1
  B  B17  1  0.861654  0.723214  0.000000  1
  B  B18  1  0.737674  0.475094  0.000000  1
  B  B19  1  0.138788  0.861267  0.000000  1
  Cl  Cl20  1  0.338510  0.173524  0.500000  1
  Cl  Cl21  1  0.835014  0.661490  0.500000  1
  Cl  Cl22  1  0.826476  0.164986  0.500000  1
  Cl  Cl23  1  0.333333  0.666667  0.500000  1
