# generated using pymatgen
data_Tm2NiAs2
_symmetry_space_group_name_H-M   'P 1'
_cell_length_a   4.08664685
_cell_length_b   4.08664685
_cell_length_c   13.80678136
_cell_angle_alpha   90.00000000
_cell_angle_beta   90.00000000
_cell_angle_gamma   120.00000000
_symmetry_Int_Tables_number   1
_chemical_formula_structural   Tm2NiAs2
_chemical_formula_sum   'Tm4 Ni2 As4'
_cell_volume   199.69045090
_cell_formula_units_Z   2
loop_
 _symmetry_equiv_pos_site_id
 _symmetry_equiv_pos_as_xyz
  1  'x, y, z'
loop_
 _atom_site_type_symbol
 _atom_site_label
 _atom_site_symmetry_multiplicity
 _atom_site_fract_x
 _atom_site_fract_y
 _atom_site_fract_z
 _atom_site_occupancy
  Tm  Tm0  1  0.333333  0.666667  0.880492  1
  Tm  Tm1  1  0.666667  0.333333  0.380492  1
  Tm  Tm2  1  0.666667  0.333333  0.115694  1
  Tm  Tm3  1  0.333333  0.666667  0.615694  1
  Ni  Ni4  1  0.000000  0.000000  0.734655  1
  Ni  Ni5  1  0.000000  0.000000  0.234655  1
  As  As6  1  0.000000  0.000000  0.500185  1
  As  As7  1  0.000000  0.000000  0.000185  1
  As  As8  1  0.666667  0.333333  0.752643  1
  As  As9  1  0.333333  0.666667  0.252643  1
