# generated using pymatgen
data_TaO2
_symmetry_space_group_name_H-M   'P 1'
_cell_length_a   10.22760076
_cell_length_b   10.22760076
_cell_length_c   10.22760076
_cell_angle_alpha   94.97482245
_cell_angle_beta   94.97482245
_cell_angle_gamma   145.74738373
_symmetry_Int_Tables_number   1
_chemical_formula_structural   TaO2
_chemical_formula_sum   'Ta16 O32'
_cell_volume   575.45420882
_cell_formula_units_Z   16
loop_
 _symmetry_equiv_pos_site_id
 _symmetry_equiv_pos_as_xyz
  1  'x, y, z'
loop_
 _atom_site_type_symbol
 _atom_site_label
 _atom_site_symmetry_multiplicity
 _atom_site_fract_x
 _atom_site_fract_y
 _atom_site_fract_z
 _atom_site_occupancy
  Ta  Ta0  1  0.973775  0.481324  0.757178  1
  Ta  Ta1  1  0.466597  0.723775  0.992451  1
  Ta  Ta2  1  0.731324  0.474147  0.007549  1
  Ta  Ta3  1  0.724147  0.216597  0.242822  1
  Ta  Ta4  1  0.276225  0.268676  0.742822  1
  Ta  Ta5  1  0.783403  0.026225  0.507549  1
  Ta  Ta6  1  0.518676  0.275853  0.492451  1
  Ta  Ta7  1  0.525853  0.533403  0.257178  1
  Ta  Ta8  1  0.526670  0.014734  0.741156  1
  Ta  Ta9  1  0.035514  0.276670  0.011935  1
  Ta  Ta10  1  0.264734  0.023579  0.988065  1
  Ta  Ta11  1  0.273579  0.785514  0.258844  1
  Ta  Ta12  1  0.723330  0.735266  0.758844  1
  Ta  Ta13  1  0.214486  0.473330  0.488065  1
  Ta  Ta14  1  0.985266  0.726421  0.511935  1
  Ta  Ta15  1  0.976421  0.964486  0.241156  1
  O  O16  1  0.494228  0.130976  0.887840  1
  O  O17  1  0.856388  0.244228  0.863252  1
  O  O18  1  0.380976  0.993136  0.136748  1
  O  O19  1  0.243136  0.606388  0.112160  1
  O  O20  1  0.755772  0.619024  0.612160  1
  O  O21  1  0.393612  0.505772  0.636748  1
  O  O22  1  0.869024  0.756864  0.363252  1
  O  O23  1  0.006864  0.143612  0.387840  1
  O  O24  1  0.000533  0.650072  0.899055  1
  O  O25  1  0.351478  0.750533  0.850461  1
  O  O26  1  0.900072  0.501017  0.149539  1
  O  O27  1  0.751017  0.101478  0.100945  1
  O  O28  1  0.249467  0.099928  0.600945  1
  O  O29  1  0.898522  0.999467  0.649539  1
  O  O30  1  0.349928  0.248983  0.350461  1
  O  O31  1  0.498983  0.648522  0.399055  1
  O  O32  1  0.482927  0.346790  0.110602  1
  O  O33  1  0.622325  0.232927  0.636137  1
  O  O34  1  0.596790  0.986188  0.363863  1
  O  O35  1  0.236188  0.372325  0.889398  1
  O  O36  1  0.767073  0.403210  0.389398  1
  O  O37  1  0.627675  0.517073  0.863863  1
  O  O38  1  0.653210  0.763812  0.136137  1
  O  O39  1  0.013812  0.377675  0.610602  1
  O  O40  1  0.007228  0.853552  0.099099  1
  O  O41  1  0.158129  0.757228  0.653675  1
  O  O42  1  0.103552  0.504454  0.346325  1
  O  O43  1  0.754454  0.908129  0.900901  1
  O  O44  1  0.242772  0.896448  0.400901  1
  O  O45  1  0.091871  0.992772  0.846325  1
  O  O46  1  0.146448  0.245546  0.153675  1
  O  O47  1  0.495546  0.841871  0.599099  1
