# generated using pymatgen
data_Nb3TeI7
_symmetry_space_group_name_H-M   'P 1'
_cell_length_a   7.73431465
_cell_length_b   7.73431465
_cell_length_c   7.24533571
_cell_angle_alpha   90.00000000
_cell_angle_beta   90.00000000
_cell_angle_gamma   120.00000000
_symmetry_Int_Tables_number   1
_chemical_formula_structural   Nb3TeI7
_chemical_formula_sum   'Nb3 Te1 I7'
_cell_volume   375.34688592
_cell_formula_units_Z   1
loop_
 _symmetry_equiv_pos_site_id
 _symmetry_equiv_pos_as_xyz
  1  'x, y, z'
loop_
 _atom_site_type_symbol
 _atom_site_label
 _atom_site_symmetry_multiplicity
 _atom_site_fract_x
 _atom_site_fract_y
 _atom_site_fract_z
 _atom_site_occupancy
  Nb  Nb0  1  0.264780  0.132390  0.498608  1
  Nb  Nb1  1  0.867610  0.132390  0.498608  1
  Nb  Nb2  1  0.867610  0.735220  0.498608  1
  Te  Te3  1  0.000000  0.000000  0.211209  1
  I  I4  1  0.665158  0.832579  0.754797  1
  I  I5  1  0.499236  0.998472  0.285507  1
  I  I6  1  0.167421  0.832579  0.754797  1
  I  I7  1  0.001528  0.500764  0.285507  1
  I  I8  1  0.666667  0.333333  0.701654  1
  I  I9  1  0.167421  0.334842  0.754797  1
  I  I10  1  0.499236  0.500764  0.285507  1
