# generated using pymatgen
data_Ti3O5
_symmetry_space_group_name_H-M   'P 1'
_cell_length_a   5.69429201
_cell_length_b   5.69429201
_cell_length_c   7.25376132
_cell_angle_alpha   70.26831433
_cell_angle_beta   109.73168567
_cell_angle_gamma   127.16469021
_symmetry_Int_Tables_number   1
_chemical_formula_structural   Ti3O5
_chemical_formula_sum   'Ti6 O10'
_cell_volume   173.60499151
_cell_formula_units_Z   2
loop_
 _symmetry_equiv_pos_site_id
 _symmetry_equiv_pos_as_xyz
  1  'x, y, z'
loop_
 _atom_site_type_symbol
 _atom_site_label
 _atom_site_symmetry_multiplicity
 _atom_site_fract_x
 _atom_site_fract_y
 _atom_site_fract_z
 _atom_site_occupancy
  Ti  Ti0  1  0.859705  0.115460  0.781746  1
  Ti  Ti1  1  0.884540  0.140295  0.281746  1
  Ti  Ti2  1  0.115460  0.859705  0.718254  1
  Ti  Ti3  1  0.140295  0.884540  0.218254  1
  Ti  Ti4  1  0.500000  0.500000  0.500000  1
  Ti  Ti5  1  0.500000  0.500000  0.000000  1
  O  O6  1  0.148024  0.527554  0.845747  1
  O  O7  1  0.312307  0.312307  0.250000  1
  O  O8  1  0.923671  0.760935  0.441438  1
  O  O9  1  0.239065  0.076329  0.941438  1
  O  O10  1  0.851976  0.472446  0.154253  1
  O  O11  1  0.076329  0.239065  0.558562  1
  O  O12  1  0.687693  0.687693  0.750000  1
  O  O13  1  0.527554  0.148024  0.654253  1
  O  O14  1  0.760935  0.923671  0.058562  1
  O  O15  1  0.472446  0.851976  0.345747  1
