# generated using pymatgen
data_SiO2
_symmetry_space_group_name_H-M   'P 1'
_cell_length_a   11.39499272
_cell_length_b   11.39499272
_cell_length_c   5.28467918
_cell_angle_alpha   90.00000000
_cell_angle_beta   90.00000000
_cell_angle_gamma   103.66931718
_symmetry_Int_Tables_number   1
_chemical_formula_structural   SiO2
_chemical_formula_sum   'Si12 O24'
_cell_volume   666.75782774
_cell_formula_units_Z   12
loop_
 _symmetry_equiv_pos_site_id
 _symmetry_equiv_pos_as_xyz
  1  'x, y, z'
loop_
 _atom_site_type_symbol
 _atom_site_label
 _atom_site_symmetry_multiplicity
 _atom_site_fract_x
 _atom_site_fract_y
 _atom_site_fract_z
 _atom_site_occupancy
  Si  Si0  1  0.659170  0.754695  0.250000  1
  Si  Si1  1  0.754695  0.659170  0.750000  1
  Si  Si2  1  0.994409  0.417276  0.250000  1
  Si  Si3  1  0.723320  0.276680  0.250000  1
  Si  Si4  1  0.381422  0.618578  0.250000  1
  Si  Si5  1  0.276680  0.723320  0.750000  1
  Si  Si6  1  0.005591  0.582724  0.750000  1
  Si  Si7  1  0.618578  0.381422  0.750000  1
  Si  Si8  1  0.340830  0.245305  0.750000  1
  Si  Si9  1  0.417276  0.994409  0.750000  1
  Si  Si10  1  0.582724  0.005591  0.250000  1
  Si  Si11  1  0.245305  0.340830  0.250000  1
  O  O12  1  0.266017  0.266017  0.000000  1
  O  O13  1  0.329391  0.670609  0.500774  1
  O  O14  1  0.733983  0.733983  0.000000  1
  O  O15  1  0.659269  0.527804  0.750000  1
  O  O16  1  0.106545  0.352982  0.250000  1
  O  O17  1  0.893455  0.647018  0.750000  1
  O  O18  1  0.130508  0.686035  0.750000  1
  O  O19  1  0.472196  0.340731  0.750000  1
  O  O20  1  0.647018  0.893455  0.250000  1
  O  O21  1  0.329391  0.670609  0.999226  1
  O  O22  1  0.670609  0.329391  0.499226  1
  O  O23  1  0.500000  0.000000  0.500000  1
  O  O24  1  0.733983  0.733983  0.500000  1
  O  O25  1  0.527804  0.659269  0.250000  1
  O  O26  1  0.352982  0.106545  0.750000  1
  O  O27  1  0.500000  0.000000  0.000000  1
  O  O28  1  0.340731  0.472196  0.250000  1
  O  O29  1  0.869492  0.313965  0.250000  1
  O  O30  1  0.266017  0.266017  0.500000  1
  O  O31  1  0.000000  0.500000  0.000000  1
  O  O32  1  0.670609  0.329391  0.000774  1
  O  O33  1  0.686035  0.130508  0.250000  1
  O  O34  1  0.313965  0.869492  0.750000  1
  O  O35  1  0.000000  0.500000  0.500000  1
