# generated using pymatgen
data_GaI2
_symmetry_space_group_name_H-M   'P 1'
_cell_length_a   15.83948941
_cell_length_b   15.83948941
_cell_length_c   15.83948941
_cell_angle_alpha   117.36301980
_cell_angle_beta   117.36301980
_cell_angle_gamma   117.36301980
_symmetry_Int_Tables_number   1
_chemical_formula_structural   GaI2
_chemical_formula_sum   'Ga12 I24'
_cell_volume   1648.26717571
_cell_formula_units_Z   12
loop_
 _symmetry_equiv_pos_site_id
 _symmetry_equiv_pos_as_xyz
  1  'x, y, z'
loop_
 _atom_site_type_symbol
 _atom_site_label
 _atom_site_symmetry_multiplicity
 _atom_site_fract_x
 _atom_site_fract_y
 _atom_site_fract_z
 _atom_site_occupancy
  Ga  Ga0  1  0.255826  0.104394  0.943411  1
  Ga  Ga1  1  0.297082  0.916559  0.107251  1
  Ga  Ga2  1  0.797082  0.607251  0.416559  1
  Ga  Ga3  1  0.107251  0.297082  0.916559  1
  Ga  Ga4  1  0.443411  0.604394  0.755826  1
  Ga  Ga5  1  0.755826  0.443412  0.604394  1
  Ga  Ga6  1  0.604394  0.755826  0.443412  1
  Ga  Ga7  1  0.416559  0.797082  0.607251  1
  Ga  Ga8  1  0.943411  0.255826  0.104394  1
  Ga  Ga9  1  0.607251  0.416559  0.797082  1
  Ga  Ga10  1  0.104394  0.943412  0.255826  1
  Ga  Ga11  1  0.916559  0.107251  0.297082  1
  I  I12  1  0.144666  0.216913  0.550212  1
  I  I13  1  0.045447  0.383963  0.451834  1
  I  I14  1  0.594534  0.496212  0.396607  1
  I  I15  1  0.216913  0.550212  0.144666  1
  I  I16  1  0.347595  0.099689  0.600805  1
  I  I17  1  0.996212  0.094534  0.896607  1
  I  I18  1  0.383963  0.451834  0.045447  1
  I  I19  1  0.951834  0.883963  0.545447  1
  I  I20  1  0.644666  0.050212  0.716913  1
  I  I21  1  0.496212  0.396607  0.594534  1
  I  I22  1  0.099689  0.600805  0.347595  1
  I  I23  1  0.847595  0.100805  0.599689  1
  I  I24  1  0.550212  0.144666  0.216913  1
  I  I25  1  0.451834  0.045447  0.383963  1
  I  I26  1  0.896607  0.996212  0.094534  1
  I  I27  1  0.396607  0.594534  0.496212  1
  I  I28  1  0.100805  0.599689  0.847595  1
  I  I29  1  0.600805  0.347595  0.099689  1
  I  I30  1  0.094534  0.896607  0.996212  1
  I  I31  1  0.050212  0.716913  0.644666  1
  I  I32  1  0.545447  0.951834  0.883963  1
  I  I33  1  0.599689  0.847595  0.100805  1
  I  I34  1  0.883963  0.545447  0.951834  1
  I  I35  1  0.716913  0.644666  0.050212  1
