# generated using pymatgen
data_ZrRu2
_symmetry_space_group_name_H-M   'P 1'
_cell_length_a   5.20279974
_cell_length_b   5.20279974
_cell_length_c   8.58556116
_cell_angle_alpha   90.00000000
_cell_angle_beta   90.00000000
_cell_angle_gamma   120.00000000
_symmetry_Int_Tables_number   1
_chemical_formula_structural   ZrRu2
_chemical_formula_sum   'Zr4 Ru8'
_cell_volume   201.26744668
_cell_formula_units_Z   4
loop_
 _symmetry_equiv_pos_site_id
 _symmetry_equiv_pos_as_xyz
  1  'x, y, z'
loop_
 _atom_site_type_symbol
 _atom_site_label
 _atom_site_symmetry_multiplicity
 _atom_site_fract_x
 _atom_site_fract_y
 _atom_site_fract_z
 _atom_site_occupancy
  Zr  Zr0  1  0.666667  0.333333  0.566319  1
  Zr  Zr1  1  0.333333  0.666667  0.433681  1
  Zr  Zr2  1  0.333333  0.666667  0.066319  1
  Zr  Zr3  1  0.666667  0.333333  0.933681  1
  Ru  Ru4  1  0.000000  0.000000  0.500000  1
  Ru  Ru5  1  0.000000  0.000000  0.000000  1
  Ru  Ru6  1  0.171879  0.343757  0.750000  1
  Ru  Ru7  1  0.171879  0.828121  0.750000  1
  Ru  Ru8  1  0.656243  0.828121  0.750000  1
  Ru  Ru9  1  0.828121  0.656243  0.250000  1
  Ru  Ru10  1  0.828121  0.171879  0.250000  1
  Ru  Ru11  1  0.343757  0.171879  0.250000  1
