# generated using pymatgen
data_Rb2Be2Si2O7
_symmetry_space_group_name_H-M   'P 1'
_cell_length_a   5.19992627
_cell_length_b   8.43910102
_cell_length_c   9.01388703
_cell_angle_alpha   90.00000000
_cell_angle_beta   90.00000000
_cell_angle_gamma   90.00000000
_symmetry_Int_Tables_number   1
_chemical_formula_structural   Rb2Be2Si2O7
_chemical_formula_sum   'Rb4 Be4 Si4 O14'
_cell_volume   395.55372822
_cell_formula_units_Z   2
loop_
 _symmetry_equiv_pos_site_id
 _symmetry_equiv_pos_as_xyz
  1  'x, y, z'
loop_
 _atom_site_type_symbol
 _atom_site_label
 _atom_site_symmetry_multiplicity
 _atom_site_fract_x
 _atom_site_fract_y
 _atom_site_fract_z
 _atom_site_occupancy
  Rb  Rb0  1  0.500000  0.000000  0.440972  1
  Rb  Rb1  1  0.000000  0.000000  0.001739  1
  Rb  Rb2  1  0.000000  0.500000  0.940972  1
  Rb  Rb3  1  0.500000  0.500000  0.501739  1
  Be  Be4  1  0.504516  0.240793  0.811976  1
  Be  Be5  1  0.995484  0.740793  0.311976  1
  Be  Be6  1  0.004516  0.259207  0.311976  1
  Be  Be7  1  0.495484  0.759207  0.811976  1
  Si  Si8  1  0.996296  0.803748  0.641918  1
  Si  Si9  1  0.003704  0.196252  0.641918  1
  Si  Si10  1  0.503704  0.303748  0.141918  1
  Si  Si11  1  0.496296  0.696252  0.141918  1
  O  O12  1  0.280992  0.747048  0.695063  1
  O  O13  1  0.073680  0.264531  0.477801  1
  O  O14  1  0.278754  0.746585  0.263152  1
  O  O15  1  0.721246  0.253415  0.263152  1
  O  O16  1  0.719008  0.252952  0.695063  1
  O  O17  1  0.000000  0.000000  0.628270  1
  O  O18  1  0.778754  0.753415  0.763152  1
  O  O19  1  0.926320  0.735469  0.477801  1
  O  O20  1  0.500000  0.500000  0.128270  1
  O  O21  1  0.573680  0.235469  0.977801  1
  O  O22  1  0.219008  0.247048  0.195063  1
  O  O23  1  0.221246  0.246585  0.763152  1
  O  O24  1  0.426320  0.764531  0.977801  1
  O  O25  1  0.780992  0.752952  0.195063  1
