# generated using pymatgen
data_LiCrPO4
_symmetry_space_group_name_H-M   'P 1'
_cell_length_a   5.21133231
_cell_length_b   9.72318166
_cell_length_c   8.64093388
_cell_angle_alpha   90.00000000
_cell_angle_beta   125.22889558
_cell_angle_gamma   90.00000000
_symmetry_Int_Tables_number   1
_chemical_formula_structural   LiCrPO4
_chemical_formula_sum   'Li4 Cr4 P4 O16'
_cell_volume   357.65338110
_cell_formula_units_Z   4
loop_
 _symmetry_equiv_pos_site_id
 _symmetry_equiv_pos_as_xyz
  1  'x, y, z'
loop_
 _atom_site_type_symbol
 _atom_site_label
 _atom_site_symmetry_multiplicity
 _atom_site_fract_x
 _atom_site_fract_y
 _atom_site_fract_z
 _atom_site_occupancy
  Li  Li0  1  0.228979  0.819991  0.526139  1
  Li  Li1  1  0.771021  0.180009  0.473861  1
  Li  Li2  1  0.228979  0.680009  0.026139  1
  Li  Li3  1  0.771021  0.319991  0.973861  1
  Cr  Cr4  1  0.235065  0.113690  0.977336  1
  Cr  Cr5  1  0.764935  0.613690  0.522664  1
  Cr  Cr6  1  0.235065  0.386310  0.477336  1
  Cr  Cr7  1  0.764935  0.886310  0.022664  1
  P  P8  1  0.923240  0.594238  0.232847  1
  P  P9  1  0.076760  0.094238  0.267153  1
  P  P10  1  0.923240  0.905762  0.732847  1
  P  P11  1  0.076760  0.405762  0.767153  1
  O  O12  1  0.916096  0.686487  0.085569  1
  O  O13  1  0.933594  0.060153  0.691453  1
  O  O14  1  0.234794  0.887711  0.941158  1
  O  O15  1  0.916096  0.813513  0.585569  1
  O  O16  1  0.355931  0.370040  0.755470  1
  O  O17  1  0.083904  0.186487  0.414431  1
  O  O18  1  0.765206  0.112289  0.058842  1
  O  O19  1  0.066406  0.560153  0.808547  1
  O  O20  1  0.933594  0.439847  0.191453  1
  O  O21  1  0.234794  0.612289  0.441158  1
  O  O22  1  0.066406  0.939847  0.308547  1
  O  O23  1  0.644069  0.870040  0.744530  1
  O  O24  1  0.355931  0.129960  0.255470  1
  O  O25  1  0.083904  0.313513  0.914431  1
  O  O26  1  0.765206  0.387711  0.558842  1
  O  O27  1  0.644069  0.629960  0.244530  1
