# generated using pymatgen
data_K3Mo2Br9
_symmetry_space_group_name_H-M   'P 1'
_cell_length_a   7.61836674
_cell_length_b   7.61836674
_cell_length_c   18.55969264
_cell_angle_alpha   90.00000000
_cell_angle_beta   90.00000000
_cell_angle_gamma   120.00000000
_symmetry_Int_Tables_number   1
_chemical_formula_structural   K3Mo2Br9
_chemical_formula_sum   'K6 Mo4 Br18'
_cell_volume   932.87866848
_cell_formula_units_Z   2
loop_
 _symmetry_equiv_pos_site_id
 _symmetry_equiv_pos_as_xyz
  1  'x, y, z'
loop_
 _atom_site_type_symbol
 _atom_site_label
 _atom_site_symmetry_multiplicity
 _atom_site_fract_x
 _atom_site_fract_y
 _atom_site_fract_z
 _atom_site_occupancy
  K  K0  1  0.333333  0.666667  0.945600  1
  K  K1  1  0.666667  0.333333  0.445600  1
  K  K2  1  0.000000  0.000000  0.250000  1
  K  K3  1  0.666667  0.333333  0.054400  1
  K  K4  1  0.333333  0.666667  0.554400  1
  K  K5  1  0.000000  0.000000  0.750000  1
  Mo  Mo6  1  0.333333  0.666667  0.173392  1
  Mo  Mo7  1  0.333333  0.666667  0.326608  1
  Mo  Mo8  1  0.666667  0.333333  0.673392  1
  Mo  Mo9  1  0.666667  0.333333  0.826608  1
  Br  Br10  1  0.230043  0.878568  0.093374  1
  Br  Br11  1  0.004473  0.554725  0.250000  1
  Br  Br12  1  0.449748  0.004473  0.750000  1
  Br  Br13  1  0.878568  0.648526  0.593374  1
  Br  Br14  1  0.230043  0.878568  0.406626  1
  Br  Br15  1  0.769957  0.121432  0.906626  1
  Br  Br16  1  0.351474  0.230043  0.906626  1
  Br  Br17  1  0.995527  0.445275  0.750000  1
  Br  Br18  1  0.550252  0.995527  0.250000  1
  Br  Br19  1  0.554725  0.550252  0.750000  1
  Br  Br20  1  0.769957  0.121432  0.593374  1
  Br  Br21  1  0.648526  0.769957  0.093374  1
  Br  Br22  1  0.445275  0.449748  0.250000  1
  Br  Br23  1  0.878568  0.648526  0.906626  1
  Br  Br24  1  0.648526  0.769957  0.406626  1
  Br  Br25  1  0.121432  0.351474  0.093374  1
  Br  Br26  1  0.351474  0.230043  0.593374  1
  Br  Br27  1  0.121432  0.351474  0.406626  1
