# generated using pymatgen
data_KBi6BrO9
_symmetry_space_group_name_H-M   'P 1'
_cell_length_a   15.16141537
_cell_length_b   15.16141537
_cell_length_c   15.16141537
_cell_angle_alpha   109.47122063
_cell_angle_beta   109.47122063
_cell_angle_gamma   109.47122063
_symmetry_Int_Tables_number   1
_chemical_formula_structural   KBi6BrO9
_chemical_formula_sum   'K8 Bi48 Br8 O72'
_cell_volume   2682.85590624
_cell_formula_units_Z   8
loop_
 _symmetry_equiv_pos_site_id
 _symmetry_equiv_pos_as_xyz
  1  'x, y, z'
loop_
 _atom_site_type_symbol
 _atom_site_label
 _atom_site_symmetry_multiplicity
 _atom_site_fract_x
 _atom_site_fract_y
 _atom_site_fract_z
 _atom_site_occupancy
  K  K0  1  1.000000  1.000000  0.500000  1
  K  K1  1  0.500000  0.500000  0.000000  1
  K  K2  1  1.000000  0.500000  0.500000  1
  K  K3  1  0.000000  0.000000  0.000000  1
  K  K4  1  0.500000  1.000000  0.500000  1
  K  K5  1  0.500000  0.500000  0.500000  1
  K  K6  1  0.500000  1.000000  0.000000  1
  K  K7  1  1.000000  0.500000  0.000000  1
  Bi  Bi8  1  0.750000  0.012813  0.262813  1
  Bi  Bi9  1  0.980613  0.961225  0.230613  1
  Bi  Bi10  1  0.487187  0.750000  0.237187  1
  Bi  Bi11  1  0.750000  0.512813  0.762813  1
  Bi  Bi12  1  0.987187  0.750000  0.737187  1
  Bi  Bi13  1  0.519387  0.269387  0.538775  1
  Bi  Bi14  1  0.269387  0.230613  0.750000  1
  Bi  Bi15  1  0.250000  0.487187  0.237187  1
  Bi  Bi16  1  0.019387  0.480613  0.250000  1
  Bi  Bi17  1  0.038775  0.769387  0.019387  1
  Bi  Bi18  1  0.980613  0.519387  0.750000  1
  Bi  Bi19  1  0.512813  0.250000  0.762813  1
  Bi  Bi20  1  0.012813  0.250000  0.262813  1
  Bi  Bi21  1  0.762813  0.512813  0.250000  1
  Bi  Bi22  1  0.487187  0.237187  0.250000  1
  Bi  Bi23  1  0.230613  0.750000  0.269387  1
  Bi  Bi24  1  0.987187  0.737187  0.250000  1
  Bi  Bi25  1  0.512813  0.762813  0.750000  1
  Bi  Bi26  1  0.750000  0.980613  0.519387  1
  Bi  Bi27  1  0.269387  0.538775  0.519387  1
  Bi  Bi28  1  0.250000  0.262813  0.012813  1
  Bi  Bi29  1  0.769387  0.250000  0.730613  1
  Bi  Bi30  1  0.237187  0.250000  0.487187  1
  Bi  Bi31  1  0.737187  0.250000  0.987187  1
  Bi  Bi32  1  0.538775  0.519387  0.269387  1
  Bi  Bi33  1  0.769387  0.019387  0.038775  1
  Bi  Bi34  1  0.262813  0.750000  0.012813  1
  Bi  Bi35  1  0.250000  0.987187  0.737187  1
  Bi  Bi36  1  0.730613  0.461225  0.480613  1
  Bi  Bi37  1  0.250000  0.730613  0.769387  1
  Bi  Bi38  1  0.961225  0.230613  0.980613  1
  Bi  Bi39  1  0.750000  0.737187  0.987187  1
  Bi  Bi40  1  0.750000  0.237187  0.487187  1
  Bi  Bi41  1  0.737187  0.987187  0.750000  1
  Bi  Bi42  1  0.730613  0.769387  0.250000  1
  Bi  Bi43  1  0.750000  0.269387  0.230613  1
  Bi  Bi44  1  0.250000  0.019387  0.480613  1
  Bi  Bi45  1  0.019387  0.038775  0.769387  1
  Bi  Bi46  1  0.250000  0.762813  0.512813  1
  Bi  Bi47  1  0.480613  0.730613  0.461225  1
  Bi  Bi48  1  0.762813  0.750000  0.512813  1
  Bi  Bi49  1  0.519387  0.750000  0.980613  1
  Bi  Bi50  1  0.237187  0.487187  0.750000  1
  Bi  Bi51  1  0.012813  0.262813  0.750000  1
  Bi  Bi52  1  0.461225  0.480613  0.730613  1
  Bi  Bi53  1  0.480613  0.250000  0.019387  1
  Bi  Bi54  1  0.262813  0.012813  0.250000  1
  Bi  Bi55  1  0.230613  0.980613  0.961225  1
  Br  Br56  1  0.250000  0.250000  0.250000  1
  Br  Br57  1  0.250000  0.500000  1.000000  1
  Br  Br58  1  0.750000  0.750000  0.750000  1
  Br  Br59  1  0.500000  1.000000  0.750000  1
  Br  Br60  1  1.000000  0.250000  0.500000  1
  Br  Br61  1  0.500000  1.000000  0.250000  1
  Br  Br62  1  0.750000  0.500000  0.000000  1
  Br  Br63  1  1.000000  0.750000  0.500000  1
  O  O64  1  0.713539  0.063036  0.652402  1
  O  O65  1  0.349497  0.786461  0.438863  1
  O  O66  1  0.561137  0.410634  0.347598  1
  O  O67  1  0.750000  0.355960  0.144040  1
  O  O68  1  0.349497  0.063036  0.910634  1
  O  O69  1  0.650503  0.213539  0.561137  1
  O  O70  1  0.847598  0.910634  0.061137  1
  O  O71  1  0.855960  0.105960  0.211920  1
  O  O72  1  0.063036  0.910634  0.349497  1
  O  O73  1  0.936964  0.089366  0.650503  1
  O  O74  1  0.144040  0.894040  0.788080  1
  O  O75  1  0.849497  0.938863  0.286461  1
  O  O76  1  0.938863  0.286461  0.849497  1
  O  O77  1  0.394040  0.644040  0.288080  1
  O  O78  1  0.152402  0.089366  0.938863  1
  O  O79  1  0.652402  0.438863  0.589366  1
  O  O80  1  0.061137  0.713539  0.150503  1
  O  O81  1  0.786461  0.847598  0.436964  1
  O  O82  1  0.410634  0.563036  0.849497  1
  O  O83  1  0.286461  0.849497  0.938863  1
  O  O84  1  0.063036  0.652402  0.713539  1
  O  O85  1  0.436964  0.150503  0.589366  1
  O  O86  1  0.288080  0.394040  0.644040  1
  O  O87  1  0.713539  0.150503  0.061137  1
  O  O88  1  0.849497  0.410634  0.563036  1
  O  O89  1  0.561137  0.650503  0.213539  1
  O  O90  1  0.894040  0.788080  0.144040  1
  O  O91  1  0.910634  0.061137  0.847598  1
  O  O92  1  0.711919  0.605960  0.355960  1
  O  O93  1  0.938863  0.152402  0.089366  1
  O  O94  1  0.355960  0.144040  0.750000  1
  O  O95  1  0.213539  0.152402  0.563036  1
  O  O96  1  0.105960  0.394040  0.250000  1
  O  O97  1  0.438863  0.589366  0.652402  1
  O  O98  1  0.847598  0.436964  0.786461  1
  O  O99  1  0.061137  0.847598  0.910634  1
  O  O100  1  0.650503  0.936964  0.089366  1
  O  O101  1  0.150503  0.589366  0.436964  1
  O  O102  1  0.750000  0.894040  0.605960  1
  O  O103  1  0.438863  0.349497  0.786461  1
  O  O104  1  0.105960  0.211919  0.855960  1
  O  O105  1  0.786461  0.438863  0.349497  1
  O  O106  1  0.250000  0.644040  0.855960  1
  O  O107  1  0.589366  0.436964  0.150503  1
  O  O108  1  0.563036  0.213539  0.152402  1
  O  O109  1  0.410634  0.347598  0.561137  1
  O  O110  1  0.644040  0.288080  0.394040  1
  O  O111  1  0.286461  0.936964  0.347598  1
  O  O112  1  0.347598  0.561137  0.410634  1
  O  O113  1  0.347598  0.286461  0.936964  1
  O  O114  1  0.152402  0.563036  0.213539  1
  O  O115  1  0.936964  0.347598  0.286461  1
  O  O116  1  0.910634  0.349497  0.063036  1
  O  O117  1  0.644040  0.855960  0.250000  1
  O  O118  1  0.563036  0.849497  0.410634  1
  O  O119  1  0.788080  0.144040  0.894040  1
  O  O120  1  0.089366  0.938863  0.152402  1
  O  O121  1  0.150503  0.061137  0.713539  1
  O  O122  1  0.605960  0.355960  0.711920  1
  O  O123  1  0.855960  0.250000  0.644040  1
  O  O124  1  0.394040  0.250000  0.105960  1
  O  O125  1  0.250000  0.105960  0.394040  1
  O  O126  1  0.211919  0.855960  0.105960  1
  O  O127  1  0.436964  0.786461  0.847598  1
  O  O128  1  0.144040  0.750000  0.355960  1
  O  O129  1  0.605960  0.750000  0.894040  1
  O  O130  1  0.652402  0.713539  0.063036  1
  O  O131  1  0.355960  0.711919  0.605960  1
  O  O132  1  0.089366  0.650503  0.936964  1
  O  O133  1  0.213539  0.561137  0.650503  1
  O  O134  1  0.589366  0.652402  0.438863  1
  O  O135  1  0.894040  0.605960  0.750000  1
