# generated using pymatgen
data_BaNaCr2F9
_symmetry_space_group_name_H-M   'P 1'
_cell_length_a   5.54092773
_cell_length_b   17.67530173
_cell_length_c   9.16445162
_cell_angle_alpha   90.00000000
_cell_angle_beta   125.66675816
_cell_angle_gamma   90.00000000
_symmetry_Int_Tables_number   1
_chemical_formula_structural   BaNaCr2F9
_chemical_formula_sum   'Ba4 Na4 Cr8 F36'
_cell_volume   729.18454143
_cell_formula_units_Z   4
loop_
 _symmetry_equiv_pos_site_id
 _symmetry_equiv_pos_as_xyz
  1  'x, y, z'
loop_
 _atom_site_type_symbol
 _atom_site_label
 _atom_site_symmetry_multiplicity
 _atom_site_fract_x
 _atom_site_fract_y
 _atom_site_fract_z
 _atom_site_occupancy
  Ba  Ba0  1  0.344184  0.715023  0.068475  1
  Ba  Ba1  1  0.655816  0.215023  0.431525  1
  Ba  Ba2  1  0.655816  0.284977  0.931525  1
  Ba  Ba3  1  0.344184  0.784977  0.568475  1
  Na  Na4  1  0.564135  0.959775  0.311245  1
  Na  Na5  1  0.435865  0.459775  0.188755  1
  Na  Na6  1  0.564135  0.540225  0.811245  1
  Na  Na7  1  0.435865  0.040225  0.688755  1
  Cr  Cr8  1  0.008336  0.580087  0.274386  1
  Cr  Cr9  1  0.190023  0.121596  0.910085  1
  Cr  Cr10  1  0.809977  0.878404  0.089915  1
  Cr  Cr11  1  0.190023  0.378404  0.410085  1
  Cr  Cr12  1  0.008336  0.919913  0.774386  1
  Cr  Cr13  1  0.991664  0.419913  0.725614  1
  Cr  Cr14  1  0.809977  0.621596  0.589915  1
  Cr  Cr15  1  0.991664  0.080087  0.225614  1
  F  F16  1  0.822374  0.932342  0.904952  1
  F  F17  1  0.177626  0.432342  0.595048  1
  F  F18  1  0.177626  0.067658  0.095048  1
  F  F19  1  0.822374  0.567658  0.404952  1
  F  F20  1  0.619673  0.791957  0.937955  1
  F  F21  1  0.380327  0.291957  0.562045  1
  F  F22  1  0.380327  0.208043  0.062045  1
  F  F23  1  0.619673  0.708043  0.437955  1
  F  F24  1  0.998410  0.531738  0.745721  1
  F  F25  1  0.001590  0.031738  0.754279  1
  F  F26  1  0.001590  0.468262  0.254279  1
  F  F27  1  0.998410  0.968262  0.245721  1
  F  F28  1  0.196704  0.663506  0.698263  1
  F  F29  1  0.803296  0.163506  0.801737  1
  F  F30  1  0.803296  0.336494  0.301737  1
  F  F31  1  0.196704  0.836494  0.198263  1
  F  F32  1  0.170110  0.581931  0.139031  1
  F  F33  1  0.829890  0.081931  0.360969  1
  F  F34  1  0.829890  0.418069  0.860969  1
  F  F35  1  0.170110  0.918069  0.639031  1
  F  F36  1  0.584603  0.075735  0.998032  1
  F  F37  1  0.415397  0.575735  0.501968  1
  F  F38  1  0.415397  0.924265  0.001968  1
  F  F39  1  0.584603  0.424265  0.498032  1
  F  F40  1  0.991147  0.687444  0.285968  1
  F  F41  1  0.008853  0.187444  0.214032  1
  F  F42  1  0.008853  0.312556  0.714032  1
  F  F43  1  0.991147  0.812556  0.785968  1
  F  F44  1  0.388352  0.082521  0.440150  1
  F  F45  1  0.611648  0.582521  0.059850  1
  F  F46  1  0.611648  0.917479  0.559850  1
  F  F47  1  0.388352  0.417479  0.940150  1
  F  F48  1  0.788417  0.835426  0.274155  1
  F  F49  1  0.211583  0.335426  0.225845  1
  F  F50  1  0.211583  0.164574  0.725845  1
  F  F51  1  0.788417  0.664574  0.774155  1
