# generated using pymatgen
data_Mn2SiS4
_symmetry_space_group_name_H-M   'P 1'
_cell_length_a   5.94295202
_cell_length_b   7.45596356
_cell_length_c   12.74021977
_cell_angle_alpha   90.00000000
_cell_angle_beta   90.00000000
_cell_angle_gamma   90.00000000
_symmetry_Int_Tables_number   1
_chemical_formula_structural   Mn2SiS4
_chemical_formula_sum   'Mn8 Si4 S16'
_cell_volume   564.52466344
_cell_formula_units_Z   4
loop_
 _symmetry_equiv_pos_site_id
 _symmetry_equiv_pos_as_xyz
  1  'x, y, z'
loop_
 _atom_site_type_symbol
 _atom_site_label
 _atom_site_symmetry_multiplicity
 _atom_site_fract_x
 _atom_site_fract_y
 _atom_site_fract_z
 _atom_site_occupancy
  Mn  Mn0  1  0.507860  0.750000  0.731455  1
  Mn  Mn1  1  0.007860  0.250000  0.768545  1
  Mn  Mn2  1  0.492140  0.250000  0.268545  1
  Mn  Mn3  1  0.992140  0.750000  0.231455  1
  Mn  Mn4  1  0.000000  0.500000  0.500000  1
  Mn  Mn5  1  0.500000  0.500000  0.000000  1
  Mn  Mn6  1  0.000000  0.000000  0.500000  1
  Mn  Mn7  1  0.500000  0.000000  0.000000  1
  Si  Si8  1  0.908135  0.250000  0.089966  1
  Si  Si9  1  0.091865  0.750000  0.910034  1
  Si  Si10  1  0.591865  0.250000  0.589966  1
  Si  Si11  1  0.408135  0.750000  0.410034  1
  S  S12  1  0.246234  0.523954  0.833115  1
  S  S13  1  0.746234  0.476046  0.666885  1
  S  S14  1  0.753766  0.023954  0.166885  1
  S  S15  1  0.253766  0.976046  0.333115  1
  S  S16  1  0.746234  0.023954  0.666885  1
  S  S17  1  0.753766  0.476046  0.166885  1
  S  S18  1  0.246234  0.976046  0.833115  1
  S  S19  1  0.253766  0.523954  0.333115  1
  S  S20  1  0.765487  0.750000  0.407408  1
  S  S21  1  0.265487  0.250000  0.092592  1
  S  S22  1  0.234513  0.250000  0.592592  1
  S  S23  1  0.734513  0.750000  0.907408  1
  S  S24  1  0.262799  0.750000  0.565289  1
  S  S25  1  0.762799  0.250000  0.934711  1
  S  S26  1  0.737201  0.250000  0.434711  1
  S  S27  1  0.237201  0.750000  0.065289  1
