# generated using pymatgen
data_K9Bi(PS4)4
_symmetry_space_group_name_H-M   'P 1'
_cell_length_a   9.09294034
_cell_length_b   9.79623542
_cell_length_c   18.60766722
_cell_angle_alpha   90.00000000
_cell_angle_beta   90.00000000
_cell_angle_gamma   90.00000000
_symmetry_Int_Tables_number   1
_chemical_formula_structural   K9Bi(PS4)4
_chemical_formula_sum   'K18 Bi2 P8 S32'
_cell_volume   1657.50743646
_cell_formula_units_Z   2
loop_
 _symmetry_equiv_pos_site_id
 _symmetry_equiv_pos_as_xyz
  1  'x, y, z'
loop_
 _atom_site_type_symbol
 _atom_site_label
 _atom_site_symmetry_multiplicity
 _atom_site_fract_x
 _atom_site_fract_y
 _atom_site_fract_z
 _atom_site_occupancy
  K  K0  1  0.142919  0.997537  0.576224  1
  K  K1  1  0.128851  0.483033  0.414585  1
  K  K2  1  0.479735  0.238080  0.732370  1
  K  K3  1  0.502973  0.753581  0.250747  1
  K  K4  1  0.500000  0.231800  0.500000  1
  K  K5  1  0.628851  0.516967  0.085415  1
  K  K6  1  0.357081  0.002463  0.076224  1
  K  K7  1  0.857081  0.997537  0.423776  1
  K  K8  1  0.002973  0.246419  0.249253  1
  K  K9  1  0.997027  0.246419  0.750747  1
  K  K10  1  0.497027  0.753581  0.749253  1
  K  K11  1  0.371149  0.516967  0.914585  1
  K  K12  1  0.000000  0.768200  0.000000  1
  K  K13  1  0.642919  0.002463  0.923776  1
  K  K14  1  0.020265  0.761920  0.232370  1
  K  K15  1  0.979735  0.761920  0.767630  1
  K  K16  1  0.520265  0.238080  0.267630  1
  K  K17  1  0.871149  0.483033  0.585415  1
  Bi  Bi18  1  0.500000  0.722632  0.500000  1
  Bi  Bi19  1  0.000000  0.277368  0.000000  1
  P  P20  1  0.791284  0.490637  0.877841  1
  P  P21  1  0.729019  0.978016  0.635395  1
  P  P22  1  0.708716  0.509363  0.377841  1
  P  P23  1  0.291284  0.509363  0.622159  1
  P  P24  1  0.229019  0.021984  0.864605  1
  P  P25  1  0.270981  0.978016  0.364605  1
  P  P26  1  0.770981  0.021984  0.135395  1
  P  P27  1  0.208716  0.490637  0.122159  1
  S  S28  1  0.767706  0.998323  0.244784  1
  S  S29  1  0.306590  0.849433  0.913795  1
  S  S30  1  0.786096  0.667554  0.442422  1
  S  S31  1  0.647277  0.183986  0.103138  1
  S  S32  1  0.852723  0.816014  0.603138  1
  S  S33  1  0.519314  0.517166  0.609082  1
  S  S34  1  0.713904  0.332446  0.942422  1
  S  S35  1  0.980686  0.482834  0.109082  1
  S  S36  1  0.703876  0.666177  0.917881  1
  S  S37  1  0.693410  0.849433  0.086205  1
  S  S38  1  0.762287  0.527294  0.272315  1
  S  S39  1  0.147277  0.816014  0.396862  1
  S  S40  1  0.019314  0.482834  0.890918  1
  S  S41  1  0.262287  0.472706  0.227685  1
  S  S42  1  0.480686  0.517166  0.390918  1
  S  S43  1  0.009528  0.055696  0.896000  1
  S  S44  1  0.267706  0.001677  0.255216  1
  S  S45  1  0.732294  0.001677  0.744784  1
  S  S46  1  0.990472  0.055696  0.104000  1
  S  S47  1  0.796124  0.333823  0.417881  1
  S  S48  1  0.237713  0.527294  0.727685  1
  S  S49  1  0.213904  0.667554  0.557578  1
  S  S50  1  0.352723  0.183986  0.896862  1
  S  S51  1  0.286096  0.332446  0.057578  1
  S  S52  1  0.193410  0.150567  0.413795  1
  S  S53  1  0.296124  0.666177  0.082119  1
  S  S54  1  0.203876  0.333823  0.582119  1
  S  S55  1  0.232294  0.998323  0.755216  1
  S  S56  1  0.737713  0.472706  0.772315  1
  S  S57  1  0.509528  0.944304  0.604000  1
  S  S58  1  0.806590  0.150567  0.586205  1
  S  S59  1  0.490472  0.944304  0.396000  1
