# generated using pymatgen
data_SbXeOF9
_symmetry_space_group_name_H-M   'P 1'
_cell_length_a   8.88966808
_cell_length_b   10.02117217
_cell_length_c   10.48635882
_cell_angle_alpha   109.59428326
_cell_angle_beta   93.42036871
_cell_angle_gamma   103.76009242
_symmetry_Int_Tables_number   1
_chemical_formula_structural   SbXeOF9
_chemical_formula_sum   'Sb4 Xe4 O4 F36'
_cell_volume   844.83923726
_cell_formula_units_Z   4
loop_
 _symmetry_equiv_pos_site_id
 _symmetry_equiv_pos_as_xyz
  1  'x, y, z'
loop_
 _atom_site_type_symbol
 _atom_site_label
 _atom_site_symmetry_multiplicity
 _atom_site_fract_x
 _atom_site_fract_y
 _atom_site_fract_z
 _atom_site_occupancy
  Sb  Sb0  1  0.924021  0.755179  0.255451  1
  Sb  Sb1  1  0.444991  0.777178  0.589836  1
  Sb  Sb2  1  0.075979  0.244821  0.744549  1
  Sb  Sb3  1  0.555009  0.222822  0.410164  1
  Xe  Xe4  1  0.544901  0.220013  0.866757  1
  Xe  Xe5  1  0.923340  0.793864  0.722817  1
  Xe  Xe6  1  0.455099  0.779987  0.133243  1
  Xe  Xe7  1  0.076660  0.206136  0.277183  1
  O  O8  1  0.900986  0.145697  0.151075  1
  O  O9  1  0.711156  0.203776  0.964907  1
  O  O10  1  0.288844  0.796224  0.035093  1
  O  O11  1  0.099014  0.854303  0.848925  1
  F  F12  1  0.437015  0.013912  0.307750  1
  F  F13  1  0.528814  0.643662  0.979827  1
  F  F14  1  0.299396  0.250234  0.758095  1
  F  F15  1  0.129441  0.453061  0.808421  1
  F  F16  1  0.922091  0.759560  0.075814  1
  F  F17  1  0.982619  0.615191  0.609787  1
  F  F18  1  0.086953  0.231463  0.558921  1
  F  F19  1  0.477719  0.814428  0.424489  1
  F  F20  1  0.823877  0.936338  0.847613  1
  F  F21  1  0.176123  0.063662  0.152387  1
  F  F22  1  0.613559  0.933414  0.092011  1
  F  F23  1  0.967184  0.972393  0.324292  1
  F  F24  1  0.342922  0.576467  0.490010  1
  F  F25  1  0.017381  0.384809  0.390213  1
  F  F26  1  0.386441  0.066586  0.907989  1
  F  F27  1  0.522281  0.185572  0.575511  1
  F  F28  1  0.913047  0.768537  0.441079  1
  F  F29  1  0.657078  0.423533  0.509990  1
  F  F30  1  0.348267  0.260497  0.411676  1
  F  F31  1  0.740970  0.159427  0.403778  1
  F  F32  1  0.665186  0.408933  0.851168  1
  F  F33  1  0.870559  0.546939  0.191579  1
  F  F34  1  0.784374  0.650341  0.786630  1
  F  F35  1  0.077909  0.240440  0.924186  1
  F  F36  1  0.434675  0.751487  0.760561  1
  F  F37  1  0.259030  0.840573  0.596222  1
  F  F38  1  0.856529  0.221506  0.718181  1
  F  F39  1  0.700604  0.749766  0.241905  1
  F  F40  1  0.471186  0.356338  0.020173  1
  F  F41  1  0.215626  0.349659  0.213370  1
  F  F42  1  0.143471  0.778494  0.281819  1
  F  F43  1  0.565325  0.248513  0.239439  1
  F  F44  1  0.334814  0.591067  0.148832  1
  F  F45  1  0.032816  0.027607  0.675708  1
  F  F46  1  0.651733  0.739503  0.588324  1
  F  F47  1  0.562985  0.986088  0.692250  1
