# generated using pymatgen
data_CaZr4(PO4)6
_symmetry_space_group_name_H-M   'P 1'
_cell_length_a   9.21760860
_cell_length_b   9.21760860
_cell_length_c   9.21760860
_cell_angle_alpha   58.06164524
_cell_angle_beta   58.06164524
_cell_angle_gamma   58.06164524
_symmetry_Int_Tables_number   1
_chemical_formula_structural   CaZr4(PO4)6
_chemical_formula_sum   'Ca1 Zr4 P6 O24'
_cell_volume   529.16819915
_cell_formula_units_Z   1
loop_
 _symmetry_equiv_pos_site_id
 _symmetry_equiv_pos_as_xyz
  1  'x, y, z'
loop_
 _atom_site_type_symbol
 _atom_site_label
 _atom_site_symmetry_multiplicity
 _atom_site_fract_x
 _atom_site_fract_y
 _atom_site_fract_z
 _atom_site_occupancy
  Ca  Ca0  1  0.500000  0.500000  0.500000  1
  Zr  Zr1  1  0.648774  0.648774  0.648774  1
  Zr  Zr2  1  0.139516  0.139516  0.139516  1
  Zr  Zr3  1  0.351226  0.351226  0.351226  1
  Zr  Zr4  1  0.860484  0.860484  0.860484  1
  P  P5  1  0.953974  0.256989  0.530702  1
  P  P6  1  0.256989  0.530702  0.953974  1
  P  P7  1  0.469298  0.046026  0.743011  1
  P  P8  1  0.530702  0.953974  0.256989  1
  P  P9  1  0.046026  0.743011  0.469298  1
  P  P10  1  0.743011  0.469298  0.046026  1
  O  O11  1  0.690679  0.505535  0.892344  1
  O  O12  1  0.766578  0.413080  0.570089  1
  O  O13  1  0.429911  0.233422  0.586920  1
  O  O14  1  0.051829  0.917711  0.301909  1
  O  O15  1  0.082289  0.698091  0.948171  1
  O  O16  1  0.301909  0.051829  0.917711  1
  O  O17  1  0.892344  0.690679  0.505535  1
  O  O18  1  0.638085  0.014473  0.765799  1
  O  O19  1  0.698091  0.948171  0.082289  1
  O  O20  1  0.107656  0.309321  0.494465  1
  O  O21  1  0.948171  0.082289  0.698091  1
  O  O22  1  0.413080  0.570089  0.766578  1
  O  O23  1  0.917711  0.301909  0.051829  1
  O  O24  1  0.494465  0.107656  0.309321  1
  O  O25  1  0.985527  0.234201  0.361915  1
  O  O26  1  0.586920  0.429911  0.233422  1
  O  O27  1  0.361915  0.985527  0.234201  1
  O  O28  1  0.014473  0.765799  0.638085  1
  O  O29  1  0.309321  0.494465  0.107656  1
  O  O30  1  0.234201  0.361915  0.985527  1
  O  O31  1  0.570089  0.766578  0.413080  1
  O  O32  1  0.765799  0.638085  0.014473  1
  O  O33  1  0.505535  0.892344  0.690679  1
  O  O34  1  0.233422  0.586920  0.429911  1
