# generated using pymatgen
data_Sr2LaTa3O11
_symmetry_space_group_name_H-M   'P 1'
_cell_length_a   11.46003696
_cell_length_b   11.46003696
_cell_length_c   11.46003696
_cell_angle_alpha   159.99588895
_cell_angle_beta   150.90044618
_cell_angle_gamma   35.56619390
_symmetry_Int_Tables_number   1
_chemical_formula_structural   Sr2LaTa3O11
_chemical_formula_sum   'Sr2 La1 Ta3 O11'
_cell_volume   250.13223873
_cell_formula_units_Z   1
loop_
 _symmetry_equiv_pos_site_id
 _symmetry_equiv_pos_as_xyz
  1  'x, y, z'
loop_
 _atom_site_type_symbol
 _atom_site_label
 _atom_site_symmetry_multiplicity
 _atom_site_fract_x
 _atom_site_fract_y
 _atom_site_fract_z
 _atom_site_occupancy
  Sr  Sr0  1  0.704840  0.204840  0.500000  1
  Sr  Sr1  1  0.295160  0.795160  0.500000  1
  La  La2  1  0.000000  0.000000  0.000000  1
  Ta  Ta3  1  0.135045  0.635045  0.500000  1
  Ta  Ta4  1  0.864955  0.364955  0.500000  1
  Ta  Ta5  1  0.500000  0.500000  0.000000  1
  O  O6  1  0.823057  0.559462  0.263594  1
  O  O7  1  0.295868  0.559462  0.736406  1
  O  O8  1  0.567888  0.305394  0.262494  1
  O  O9  1  0.957100  0.694606  0.262494  1
  O  O10  1  0.176943  0.440538  0.736406  1
  O  O11  1  0.704132  0.440538  0.263594  1
  O  O12  1  0.500000  0.000000  0.500000  1
  O  O13  1  0.120143  0.120143  0.000000  1
  O  O14  1  0.879857  0.879857  0.000000  1
  O  O15  1  0.432112  0.694606  0.737506  1
  O  O16  1  0.042900  0.305394  0.737506  1
