# generated using pymatgen
data_Na2Ca3Al2F14
_symmetry_space_group_name_H-M   'P 1'
_cell_length_a   8.98290187
_cell_length_b   8.98290187
_cell_length_c   8.98290187
_cell_angle_alpha   109.47122063
_cell_angle_beta   109.47122063
_cell_angle_gamma   109.47122063
_symmetry_Int_Tables_number   1
_chemical_formula_structural   Na2Ca3Al2F14
_chemical_formula_sum   'Na4 Ca6 Al4 F28'
_cell_volume   557.99213313
_cell_formula_units_Z   2
loop_
 _symmetry_equiv_pos_site_id
 _symmetry_equiv_pos_as_xyz
  1  'x, y, z'
loop_
 _atom_site_type_symbol
 _atom_site_label
 _atom_site_symmetry_multiplicity
 _atom_site_fract_x
 _atom_site_fract_y
 _atom_site_fract_z
 _atom_site_occupancy
  Na  Na0  1  0.000000  0.330323  0.500000  1
  Na  Na1  1  0.330323  0.500000  0.000000  1
  Na  Na2  1  0.169677  0.169677  0.169677  1
  Na  Na3  1  0.500000  0.000000  0.330323  1
  Ca  Ca4  1  0.716579  0.466579  0.250000  1
  Ca  Ca5  1  0.750000  0.783421  0.033421  1
  Ca  Ca6  1  0.033421  0.750000  0.783421  1
  Ca  Ca7  1  0.466579  0.250000  0.716579  1
  Ca  Ca8  1  0.250000  0.716579  0.466579  1
  Ca  Ca9  1  0.783421  0.033421  0.750000  1
  Al  Al10  1  0.000000  0.003592  0.500000  1
  Al  Al11  1  0.496408  0.496408  0.496408  1
  Al  Al12  1  0.003592  0.500000  0.000000  1
  Al  Al13  1  0.500000  0.000000  0.003592  1
  F  F14  1  0.500000  0.000000  0.577613  1
  F  F15  1  0.186352  0.241729  0.668260  1
  F  F16  1  0.668260  0.186352  0.241729  1
  F  F17  1  0.727559  0.549871  0.551084  1
  F  F18  1  0.981907  0.055377  0.313648  1
  F  F19  1  0.176475  0.948916  0.498787  1
  F  F20  1  0.313648  0.981907  0.055377  1
  F  F21  1  0.444623  0.426531  0.258271  1
  F  F22  1  0.323525  0.822312  0.772441  1
  F  F23  1  0.950129  0.677688  0.001213  1
  F  F24  1  0.922387  0.922387  0.922387  1
  F  F25  1  1.000000  0.577613  0.500000  1
  F  F26  1  0.948916  0.498787  0.176475  1
  F  F27  1  0.055377  0.313648  0.981907  1
  F  F28  1  0.258271  0.444623  0.426531  1
  F  F29  1  0.822312  0.772441  0.323525  1
  F  F30  1  0.549871  0.551084  0.727559  1
  F  F31  1  0.677688  0.001213  0.950129  1
  F  F32  1  0.831740  0.073469  0.518093  1
  F  F33  1  0.073469  0.518093  0.831740  1
  F  F34  1  0.001213  0.950129  0.677688  1
  F  F35  1  0.577613  0.500000  0.000000  1
  F  F36  1  0.241729  0.668260  0.186352  1
  F  F37  1  0.426531  0.258271  0.444623  1
  F  F38  1  0.772441  0.323525  0.822312  1
  F  F39  1  0.551084  0.727559  0.549871  1
  F  F40  1  0.518093  0.831740  0.073469  1
  F  F41  1  0.498787  0.176475  0.948916  1
