# generated using pymatgen
data_Li10Mg7Cl24
_symmetry_space_group_name_H-M   'P 1'
_cell_length_a   7.43471653
_cell_length_b   7.43471653
_cell_length_c   36.32991585
_cell_angle_alpha   89.91049506
_cell_angle_beta   90.08950494
_cell_angle_gamma   119.74602716
_symmetry_Int_Tables_number   1
_chemical_formula_structural   Li10Mg7Cl24
_chemical_formula_sum   'Li20 Mg14 Cl48'
_cell_volume   1743.52793708
_cell_formula_units_Z   2
loop_
 _symmetry_equiv_pos_site_id
 _symmetry_equiv_pos_as_xyz
  1  'x, y, z'
loop_
 _atom_site_type_symbol
 _atom_site_label
 _atom_site_symmetry_multiplicity
 _atom_site_fract_x
 _atom_site_fract_y
 _atom_site_fract_z
 _atom_site_occupancy
  Li  Li0  1  0.340778  0.659222  0.917526  1
  Li  Li1  1  0.174362  0.825638  0.643662  1
  Li  Li2  1  0.999771  0.000229  0.749320  1
  Li  Li3  1  0.840743  0.159257  0.477298  1
  Li  Li4  1  0.833060  0.166940  0.666746  1
  Li  Li5  1  0.826124  0.173876  0.853963  1
  Li  Li6  1  0.666703  0.333297  0.583399  1
  Li  Li7  1  0.500094  0.499906  0.500044  1
  Li  Li8  1  0.507615  0.492385  0.310654  1
  Li  Li9  1  0.492618  0.507382  0.689800  1
  Li  Li10  1  0.333346  0.666654  0.416610  1
  Li  Li11  1  0.174772  0.825228  0.145504  1
  Li  Li12  1  0.166604  0.833396  0.333252  1
  Li  Li13  1  0.159074  0.840926  0.522730  1
  Li  Li14  1  0.999912  0.000088  0.250191  1
  Li  Li15  1  0.833151  0.166849  0.167918  1
  Li  Li16  1  0.826106  0.173894  0.356005  1
  Li  Li17  1  0.673444  0.326556  0.084007  1
  Li  Li18  1  0.492417  0.507583  0.189414  1
  Li  Li19  1  0.158516  0.841484  0.019509  1
  Mg  Mg20  1  0.339913  0.178309  0.917320  1
  Mg  Mg21  1  0.002752  0.502594  0.750105  1
  Mg  Mg22  1  0.168786  0.831214  0.830862  1
  Mg  Mg23  1  0.821691  0.660087  0.917320  1
  Mg  Mg24  1  0.666448  0.833464  0.583346  1
  Mg  Mg25  1  0.497406  0.997248  0.750105  1
  Mg  Mg26  1  0.333317  0.166675  0.416556  1
  Mg  Mg27  1  0.166536  0.333552  0.583346  1
  Mg  Mg28  1  0.000359  0.499625  0.250193  1
  Mg  Mg29  1  0.833325  0.666683  0.416556  1
  Mg  Mg30  1  0.670883  0.842498  0.083946  1
  Mg  Mg31  1  0.500375  0.999641  0.250193  1
  Mg  Mg32  1  0.157502  0.329117  0.083946  1
  Mg  Mg33  1  0.500762  0.499238  0.997270  1
  Cl  Cl34  1  0.661005  0.338995  0.957475  1
  Cl  Cl35  1  0.505212  0.494788  0.879060  1
  Cl  Cl36  1  0.191292  0.338312  0.957599  1
  Cl  Cl37  1  0.661688  0.808708  0.957599  1
  Cl  Cl38  1  0.008367  0.526429  0.876086  1
  Cl  Cl39  1  0.325682  0.674318  0.790201  1
  Cl  Cl40  1  0.473571  0.991633  0.876086  1
  Cl  Cl41  1  0.862373  0.674635  0.790506  1
  Cl  Cl42  1  0.169676  0.830324  0.710856  1
  Cl  Cl43  1  0.163114  0.836886  0.953664  1
  Cl  Cl44  1  0.008982  0.991018  0.876185  1
  Cl  Cl45  1  0.325365  0.137627  0.790506  1
  Cl  Cl46  1  0.671117  0.855594  0.710837  1
  Cl  Cl47  1  0.993032  0.006968  0.622838  1
  Cl  Cl48  1  0.144406  0.328883  0.710837  1
  Cl  Cl49  1  0.836678  0.163322  0.544619  1
  Cl  Cl50  1  0.522397  0.005128  0.622798  1
  Cl  Cl51  1  0.829868  0.170132  0.788485  1
  Cl  Cl52  1  0.672816  0.327184  0.711420  1
  Cl  Cl53  1  0.994872  0.477603  0.622798  1
  Cl  Cl54  1  0.337627  0.189183  0.543735  1
  Cl  Cl55  1  0.659660  0.340340  0.456058  1
  Cl  Cl56  1  0.188382  0.337997  0.455920  1
  Cl  Cl57  1  0.810817  0.662373  0.543735  1
  Cl  Cl58  1  0.503352  0.496648  0.377927  1
  Cl  Cl59  1  0.496373  0.503627  0.622074  1
  Cl  Cl60  1  0.662003  0.811618  0.455920  1
  Cl  Cl61  1  0.340099  0.659901  0.543775  1
  Cl  Cl62  1  0.004341  0.521994  0.377038  1
  Cl  Cl63  1  0.326705  0.673295  0.289502  1
  Cl  Cl64  1  0.478006  0.995659  0.377038  1
  Cl  Cl65  1  0.169911  0.830089  0.211680  1
  Cl  Cl66  1  0.855400  0.670543  0.289443  1
  Cl  Cl67  1  0.163146  0.836854  0.455199  1
  Cl  Cl68  1  0.007060  0.992940  0.376962  1
  Cl  Cl69  1  0.329457  0.144600  0.289443  1
  Cl  Cl70  1  0.671197  0.855405  0.210397  1
  Cl  Cl71  1  0.995821  0.004179  0.123293  1
  Cl  Cl72  1  0.144595  0.328803  0.210397  1
  Cl  Cl73  1  0.838545  0.161455  0.046627  1
  Cl  Cl74  1  0.518706  0.004113  0.123240  1
  Cl  Cl75  1  0.830291  0.169709  0.288538  1
  Cl  Cl76  1  0.673497  0.326503  0.210322  1
  Cl  Cl77  1  0.995887  0.481294  0.123240  1
  Cl  Cl78  1  0.341896  0.193738  0.042403  1
  Cl  Cl79  1  0.806262  0.658104  0.042403  1
  Cl  Cl80  1  0.495009  0.504991  0.120713  1
  Cl  Cl81  1  0.341844  0.658156  0.042240  1
