# generated using pymatgen
data_Rb5Sn(PSe5)3
_symmetry_space_group_name_H-M   'P 1'
_cell_length_a   7.49330374
_cell_length_b   12.02221541
_cell_length_c   19.68520093
_cell_angle_alpha   87.09724593
_cell_angle_beta   100.01882388
_cell_angle_gamma   107.46184619
_symmetry_Int_Tables_number   1
_chemical_formula_structural   Rb5Sn(PSe5)3
_chemical_formula_sum   'Rb10 Sn2 P6 Se30'
_cell_volume   1665.84254481
_cell_formula_units_Z   2
loop_
 _symmetry_equiv_pos_site_id
 _symmetry_equiv_pos_as_xyz
  1  'x, y, z'
loop_
 _atom_site_type_symbol
 _atom_site_label
 _atom_site_symmetry_multiplicity
 _atom_site_fract_x
 _atom_site_fract_y
 _atom_site_fract_z
 _atom_site_occupancy
  Rb  Rb0  1  0.585971  0.648464  0.753708  1
  Rb  Rb1  1  0.299516  0.135087  0.961374  1
  Rb  Rb2  1  0.700484  0.864913  0.038626  1
  Rb  Rb3  1  0.328831  0.143604  0.544977  1
  Rb  Rb4  1  0.671169  0.856396  0.455023  1
  Rb  Rb5  1  0.056539  0.596511  0.117145  1
  Rb  Rb6  1  0.414029  0.351536  0.246292  1
  Rb  Rb7  1  0.000216  0.385857  0.627620  1
  Rb  Rb8  1  0.999784  0.614143  0.372380  1
  Rb  Rb9  1  0.943461  0.403489  0.882855  1
  Sn  Sn10  1  0.830059  0.098873  0.257922  1
  Sn  Sn11  1  0.169941  0.901127  0.742078  1
  P  P12  1  0.412834  0.260125  0.748893  1
  P  P13  1  0.231681  0.775531  0.563201  1
  P  P14  1  0.768319  0.224469  0.436799  1
  P  P15  1  0.973887  0.229790  0.072768  1
  P  P16  1  0.026113  0.770210  0.927232  1
  P  P17  1  0.587166  0.739875  0.251107  1
  Se  Se18  1  0.951361  0.682762  0.604543  1
  Se  Se19  1  0.142071  0.163310  0.359794  1
  Se  Se20  1  0.048639  0.317238  0.395457  1
  Se  Se21  1  0.588801  0.099744  0.352695  1
  Se  Se22  1  0.821210  0.131801  0.532332  1
  Se  Se23  1  0.125200  0.665341  0.770582  1
  Se  Se24  1  0.590430  0.643316  0.160874  1
  Se  Se25  1  0.411199  0.900256  0.647305  1
  Se  Se26  1  0.132342  0.127213  0.711385  1
  Se  Se27  1  0.867658  0.872787  0.288615  1
  Se  Se28  1  0.951258  0.895910  0.846800  1
  Se  Se29  1  0.048742  0.104090  0.153200  1
  Se  Se30  1  0.874800  0.334659  0.229418  1
  Se  Se31  1  0.809753  0.146953  0.975439  1
  Se  Se32  1  0.479554  0.624737  0.334590  1
  Se  Se33  1  0.673562  0.376505  0.447070  1
  Se  Se34  1  0.774134  0.627363  0.940289  1
  Se  Se35  1  0.624351  0.151159  0.763976  1
  Se  Se36  1  0.508320  0.005422  0.165480  1
  Se  Se37  1  0.190247  0.853047  0.024561  1
  Se  Se38  1  0.743816  0.291108  0.111189  1
  Se  Se39  1  0.178790  0.868199  0.467668  1
  Se  Se40  1  0.225866  0.372637  0.059711  1
  Se  Se41  1  0.326438  0.623495  0.552930  1
  Se  Se42  1  0.256184  0.708892  0.888811  1
  Se  Se43  1  0.409570  0.356684  0.839126  1
  Se  Se44  1  0.520446  0.375263  0.665410  1
  Se  Se45  1  0.491680  0.994578  0.834520  1
  Se  Se46  1  0.857929  0.836690  0.640206  1
  Se  Se47  1  0.375649  0.848841  0.236024  1
