# generated using pymatgen
data_NaCaBeSi2O6F
_symmetry_space_group_name_H-M   'P 1'
_cell_length_a   7.45721300
_cell_length_b   7.47368900
_cell_length_c   10.09308700
_cell_angle_alpha   90.00000000
_cell_angle_beta   90.00000000
_cell_angle_gamma   90.00000000
_symmetry_Int_Tables_number   1
_chemical_formula_structural   NaCaBeSi2O6F
_chemical_formula_sum   'Na4 Ca4 Be4 Si8 O24 F4'
_cell_volume   562.51691529
_cell_formula_units_Z   4
loop_
 _symmetry_equiv_pos_site_id
 _symmetry_equiv_pos_as_xyz
  1  'x, y, z'
loop_
 _atom_site_type_symbol
 _atom_site_label
 _atom_site_symmetry_multiplicity
 _atom_site_fract_x
 _atom_site_fract_y
 _atom_site_fract_z
 _atom_site_occupancy
  Na  Na0  1  0.103872  0.182826  0.255563  1
  Na  Na1  1  0.396128  0.817174  0.755563  1
  Na  Na2  1  0.603872  0.317174  0.744437  1
  Na  Na3  1  0.896128  0.682826  0.244437  1
  Ca  Ca4  1  0.076808  0.145091  0.739383  1
  Ca  Ca5  1  0.423192  0.854909  0.239383  1
  Ca  Ca6  1  0.576808  0.354909  0.260617  1
  Ca  Ca7  1  0.923192  0.645091  0.760617  1
  Be  Be8  1  0.119041  0.859401  0.967438  1
  Be  Be9  1  0.880959  0.359401  0.532562  1
  Be  Be10  1  0.619041  0.640599  0.032562  1
  Be  Be11  1  0.380959  0.140599  0.467438  1
  Si  Si12  1  0.400048  0.141924  0.976784  1
  Si  Si13  1  0.763199  0.990728  0.998993  1
  Si  Si14  1  0.099952  0.858076  0.476784  1
  Si  Si15  1  0.736801  0.009272  0.498993  1
  Si  Si16  1  0.599952  0.641924  0.523216  1
  Si  Si17  1  0.900048  0.358076  0.023216  1
  Si  Si18  1  0.236801  0.490728  0.501007  1
  Si  Si19  1  0.263199  0.509272  0.001007  1
  O  O20  1  0.352067  0.342767  0.910933  1
  O  O21  1  0.920382  0.911897  0.903017  1
  O  O22  1  0.598988  0.086127  0.910517  1
  O  O23  1  0.420382  0.588103  0.096983  1
  O  O24  1  0.852067  0.157233  0.089067  1
  O  O25  1  0.823957  0.162643  0.593444  1
  O  O26  1  0.901012  0.913873  0.410517  1
  O  O27  1  0.676043  0.837357  0.093444  1
  O  O28  1  0.401012  0.586127  0.589483  1
  O  O29  1  0.647933  0.842767  0.589067  1
  O  O30  1  0.176043  0.662643  0.906556  1
  O  O31  1  0.754167  0.491832  0.089427  1
  O  O32  1  0.147933  0.657233  0.410933  1
  O  O33  1  0.745833  0.508168  0.589427  1
  O  O34  1  0.409740  0.144697  0.135851  1
  O  O35  1  0.590260  0.644697  0.364149  1
  O  O36  1  0.254167  0.008168  0.910573  1
  O  O37  1  0.909740  0.355303  0.864149  1
  O  O38  1  0.323957  0.337357  0.406556  1
  O  O39  1  0.245833  0.991832  0.410573  1
  O  O40  1  0.579618  0.088103  0.403017  1
  O  O41  1  0.098988  0.413873  0.089483  1
  O  O42  1  0.090260  0.855303  0.635851  1
  O  O43  1  0.079618  0.411897  0.596983  1
  F  F44  1  0.878754  0.352607  0.374261  1
  F  F45  1  0.378754  0.147393  0.625739  1
  F  F46  1  0.621246  0.647393  0.874261  1
  F  F47  1  0.121246  0.852607  0.125739  1
