# generated using pymatgen
data_TaP4S6Cl5
_symmetry_space_group_name_H-M   'P 1'
_cell_length_a   7.25330089
_cell_length_b   11.55703502
_cell_length_c   12.22439792
_cell_angle_alpha   102.17445115
_cell_angle_beta   95.84897459
_cell_angle_gamma   104.01633485
_symmetry_Int_Tables_number   1
_chemical_formula_structural   TaP4S6Cl5
_chemical_formula_sum   'Ta2 P8 S12 Cl10'
_cell_volume   959.13371020
_cell_formula_units_Z   2
loop_
 _symmetry_equiv_pos_site_id
 _symmetry_equiv_pos_as_xyz
  1  'x, y, z'
loop_
 _atom_site_type_symbol
 _atom_site_label
 _atom_site_symmetry_multiplicity
 _atom_site_fract_x
 _atom_site_fract_y
 _atom_site_fract_z
 _atom_site_occupancy
  Ta  Ta0  1  0.483261  0.735830  0.851785  1
  Ta  Ta1  1  0.516739  0.264170  0.148215  1
  P  P2  1  0.955576  0.575494  0.286940  1
  P  P3  1  0.251830  0.826068  0.447313  1
  P  P4  1  0.943787  0.800582  0.496191  1
  P  P5  1  0.044424  0.424506  0.713060  1
  P  P6  1  0.056213  0.199418  0.503809  1
  P  P7  1  0.748170  0.173932  0.552687  1
  P  P8  1  0.052715  0.135512  0.763603  1
  P  P9  1  0.947285  0.864488  0.236397  1
  S  S10  1  0.111200  0.332422  0.835389  1
  S  S11  1  0.236234  0.924066  0.319643  1
  S  S12  1  0.183005  0.391448  0.571401  1
  S  S13  1  0.753319  0.355945  0.639102  1
  S  S14  1  0.246681  0.644055  0.360898  1
  S  S15  1  0.763766  0.075934  0.680357  1
  S  S16  1  0.904885  0.398317  0.214189  1
  S  S17  1  0.816995  0.608552  0.428599  1
  S  S18  1  0.095115  0.601683  0.785811  1
  S  S19  1  0.190736  0.117211  0.618634  1
  S  S20  1  0.809264  0.882789  0.381366  1
  S  S21  1  0.888800  0.667578  0.164611  1
  Cl  Cl22  1  0.444778  0.447106  0.137226  1
  Cl  Cl23  1  0.210630  0.137772  0.092946  1
  Cl  Cl24  1  0.555222  0.552894  0.862774  1
  Cl  Cl25  1  0.672497  0.114840  0.177924  1
  Cl  Cl26  1  0.509058  0.692068  0.657291  1
  Cl  Cl27  1  0.405775  0.759412  0.034502  1
  Cl  Cl28  1  0.490942  0.307932  0.342709  1
  Cl  Cl29  1  0.594225  0.240588  0.965498  1
  Cl  Cl30  1  0.327503  0.885160  0.822076  1
  Cl  Cl31  1  0.789370  0.862228  0.907054  1
