# generated using pymatgen
data_Cs2Li3GaO4
_symmetry_space_group_name_H-M   'P 1'
_cell_length_a   8.26040683
_cell_length_b   8.26040683
_cell_length_c   8.26040683
_cell_angle_alpha   144.10213293
_cell_angle_beta   104.37690050
_cell_angle_gamma   86.65415434
_symmetry_Int_Tables_number   1
_chemical_formula_structural   Cs2Li3GaO4
_chemical_formula_sum   'Cs4 Li6 Ga2 O8'
_cell_volume   309.85842454
_cell_formula_units_Z   2
loop_
 _symmetry_equiv_pos_site_id
 _symmetry_equiv_pos_as_xyz
  1  'x, y, z'
loop_
 _atom_site_type_symbol
 _atom_site_label
 _atom_site_symmetry_multiplicity
 _atom_site_fract_x
 _atom_site_fract_y
 _atom_site_fract_z
 _atom_site_occupancy
  Cs  Cs0  1  0.627544  0.761419  0.388963  1
  Cs  Cs1  1  0.372456  0.238581  0.611037  1
  Cs  Cs2  1  0.127544  0.738581  0.866125  1
  Cs  Cs3  1  0.872456  0.261419  0.133875  1
  Li  Li4  1  0.009732  0.750000  0.259732  1
  Li  Li5  1  0.509732  0.250000  0.259732  1
  Li  Li6  1  0.490268  0.750000  0.740268  1
  Li  Li7  1  0.250000  0.750000  0.500000  1
  Li  Li8  1  0.990268  0.250000  0.740268  1
  Li  Li9  1  0.750000  0.250000  0.500000  1
  Ga  Ga10  1  0.750000  0.750000  0.000000  1
  Ga  Ga11  1  0.250000  0.250000  0.000000  1
  O  O12  1  0.293294  0.407969  0.349652  1
  O  O13  1  0.441683  0.092031  0.885325  1
  O  O14  1  0.558317  0.907969  0.114675  1
  O  O15  1  0.793294  0.443642  0.885325  1
  O  O16  1  0.706706  0.592031  0.650348  1
  O  O17  1  0.941683  0.056358  0.349652  1
  O  O18  1  0.206706  0.556358  0.114675  1
  O  O19  1  0.058317  0.943642  0.650348  1
