# generated using pymatgen
data_CuWO3F2
_symmetry_space_group_name_H-M   'P 1'
_cell_length_a   3.78480073
_cell_length_b   9.81154342
_cell_length_c   5.28484529
_cell_angle_alpha   90.00000000
_cell_angle_beta   105.73065755
_cell_angle_gamma   90.00000000
_symmetry_Int_Tables_number   1
_chemical_formula_structural   CuWO3F2
_chemical_formula_sum   'Cu2 W2 O6 F4'
_cell_volume   188.90110140
_cell_formula_units_Z   2
loop_
 _symmetry_equiv_pos_site_id
 _symmetry_equiv_pos_as_xyz
  1  'x, y, z'
loop_
 _atom_site_type_symbol
 _atom_site_label
 _atom_site_symmetry_multiplicity
 _atom_site_fract_x
 _atom_site_fract_y
 _atom_site_fract_z
 _atom_site_occupancy
  Cu  Cu0  1  0.000000  0.500000  0.500000  1
  Cu  Cu1  1  0.000000  0.000000  0.500000  1
  W  W2  1  0.791896  0.250000  0.972560  1
  W  W3  1  0.208104  0.750000  0.027440  1
  O  O4  1  0.120359  0.609148  0.801806  1
  O  O5  1  0.879641  0.390852  0.198194  1
  O  O6  1  0.879641  0.109148  0.198194  1
  O  O7  1  0.265340  0.250000  0.898208  1
  O  O8  1  0.734660  0.750000  0.101792  1
  O  O9  1  0.120359  0.890852  0.801806  1
  F  F10  1  0.332649  0.888018  0.348312  1
  F  F11  1  0.667351  0.111982  0.651688  1
  F  F12  1  0.667351  0.388018  0.651688  1
  F  F13  1  0.332649  0.611982  0.348312  1
