# generated using pymatgen
data_CsGd(CO3)2
_symmetry_space_group_name_H-M   'P 1'
_cell_length_a   8.57996388
_cell_length_b   8.89112047
_cell_length_c   8.89224809
_cell_angle_alpha   98.72271892
_cell_angle_beta   96.59001828
_cell_angle_gamma   115.37153209
_symmetry_Int_Tables_number   1
_chemical_formula_structural   CsGd(CO3)2
_chemical_formula_sum   'Cs4 Gd4 C8 O24'
_cell_volume   593.43572570
_cell_formula_units_Z   4
loop_
 _symmetry_equiv_pos_site_id
 _symmetry_equiv_pos_as_xyz
  1  'x, y, z'
loop_
 _atom_site_type_symbol
 _atom_site_label
 _atom_site_symmetry_multiplicity
 _atom_site_fract_x
 _atom_site_fract_y
 _atom_site_fract_z
 _atom_site_occupancy
  Cs  Cs0  1  0.244855  0.030789  0.036988  1
  Cs  Cs1  1  0.755145  0.969211  0.963012  1
  Cs  Cs2  1  0.241433  0.189640  0.526918  1
  Cs  Cs3  1  0.758567  0.810360  0.473082  1
  Gd  Gd4  1  0.261051  0.522146  0.048815  1
  Gd  Gd5  1  0.738949  0.477854  0.951185  1
  Gd  Gd6  1  0.241166  0.713845  0.543151  1
  Gd  Gd7  1  0.758834  0.286155  0.456849  1
  C  C8  1  0.585390  0.399622  0.233264  1
  C  C9  1  0.414610  0.600378  0.766736  1
  C  C10  1  0.004749  0.722848  0.212841  1
  C  C11  1  0.995251  0.277152  0.787159  1
  C  C12  1  0.543507  0.141340  0.739891  1
  C  C13  1  0.456493  0.858660  0.260109  1
  C  C14  1  0.028539  0.297930  0.289372  1
  C  C15  1  0.971461  0.702070  0.710628  1
  O  O16  1  0.505015  0.442556  0.127638  1
  O  O17  1  0.494985  0.557444  0.872362  1
  O  O18  1  0.724441  0.382098  0.205732  1
  O  O19  1  0.275559  0.617902  0.794268  1
  O  O20  1  0.462807  0.627268  0.637334  1
  O  O21  1  0.537193  0.372732  0.362666  1
  O  O22  1  0.046990  0.626083  0.117133  1
  O  O23  1  0.953010  0.373917  0.882867  1
  O  O24  1  0.133861  0.261595  0.839499  1
  O  O25  1  0.866139  0.738405  0.160501  1
  O  O26  1  0.094617  0.799381  0.352182  1
  O  O27  1  0.905383  0.200619  0.647818  1
  O  O28  1  0.609158  0.273254  0.675029  1
  O  O29  1  0.390842  0.726746  0.324971  1
  O  O30  1  0.557956  0.177006  0.889428  1
  O  O31  1  0.442044  0.822994  0.110572  1
  O  O32  1  0.531358  0.012746  0.340194  1
  O  O33  1  0.468642  0.987254  0.659806  1
  O  O34  1  0.065291  0.429243  0.401925  1
  O  O35  1  0.934709  0.570757  0.598075  1
  O  O36  1  0.103853  0.844070  0.705878  1
  O  O37  1  0.896147  0.155930  0.294122  1
  O  O38  1  0.119358  0.308089  0.183161  1
  O  O39  1  0.880642  0.691911  0.816839  1
