# generated using pymatgen
data_Zr2(NiP)3
_symmetry_space_group_name_H-M   'P 1'
_cell_length_a   3.62916839
_cell_length_b   10.06028813
_cell_length_c   12.36415726
_cell_angle_alpha   90.00000000
_cell_angle_beta   90.00000000
_cell_angle_gamma   90.00000000
_symmetry_Int_Tables_number   1
_chemical_formula_structural   Zr2(NiP)3
_chemical_formula_sum   'Zr8 Ni12 P12'
_cell_volume   451.42131235
_cell_formula_units_Z   4
loop_
 _symmetry_equiv_pos_site_id
 _symmetry_equiv_pos_as_xyz
  1  'x, y, z'
loop_
 _atom_site_type_symbol
 _atom_site_label
 _atom_site_symmetry_multiplicity
 _atom_site_fract_x
 _atom_site_fract_y
 _atom_site_fract_z
 _atom_site_occupancy
  Zr  Zr0  1  0.250000  0.074598  0.708986  1
  Zr  Zr1  1  0.750000  0.925402  0.291014  1
  Zr  Zr2  1  0.750000  0.574598  0.791014  1
  Zr  Zr3  1  0.250000  0.425402  0.208986  1
  Zr  Zr4  1  0.250000  0.162804  0.995237  1
  Zr  Zr5  1  0.750000  0.837196  0.004763  1
  Zr  Zr6  1  0.750000  0.662804  0.504763  1
  Zr  Zr7  1  0.250000  0.337196  0.495237  1
  Ni  Ni8  1  0.250000  0.726372  0.165425  1
  Ni  Ni9  1  0.750000  0.273628  0.834575  1
  Ni  Ni10  1  0.750000  0.226372  0.334575  1
  Ni  Ni11  1  0.250000  0.773628  0.665425  1
  Ni  Ni12  1  0.250000  0.364858  0.717641  1
  Ni  Ni13  1  0.750000  0.635142  0.282359  1
  Ni  Ni14  1  0.750000  0.864858  0.782359  1
  Ni  Ni15  1  0.250000  0.135142  0.217641  1
  Ni  Ni16  1  0.250000  0.596069  0.984022  1
  Ni  Ni17  1  0.750000  0.403931  0.015978  1
  Ni  Ni18  1  0.750000  0.096069  0.515978  1
  Ni  Ni19  1  0.250000  0.903931  0.484022  1
  P  P20  1  0.250000  0.946253  0.128559  1
  P  P21  1  0.750000  0.053747  0.871441  1
  P  P22  1  0.750000  0.446253  0.371441  1
  P  P23  1  0.250000  0.553747  0.628559  1
  P  P24  1  0.250000  0.397534  0.898080  1
  P  P25  1  0.750000  0.602466  0.101920  1
  P  P26  1  0.750000  0.897534  0.601920  1
  P  P27  1  0.250000  0.102466  0.398080  1
  P  P28  1  0.250000  0.762934  0.854861  1
  P  P29  1  0.750000  0.237066  0.145139  1
  P  P30  1  0.750000  0.262934  0.645139  1
  P  P31  1  0.250000  0.737066  0.354861  1
