# generated using pymatgen
data_Tl2Mo9S11
_symmetry_space_group_name_H-M   'P 1'
_cell_length_a   13.05151871
_cell_length_b   13.05151871
_cell_length_c   13.05151871
_cell_angle_alpha   42.25283298
_cell_angle_beta   42.25283298
_cell_angle_gamma   42.25283298
_symmetry_Int_Tables_number   1
_chemical_formula_structural   Tl2Mo9S11
_chemical_formula_sum   'Tl4 Mo18 S22'
_cell_volume   909.71589589
_cell_formula_units_Z   2
loop_
 _symmetry_equiv_pos_site_id
 _symmetry_equiv_pos_as_xyz
  1  'x, y, z'
loop_
 _atom_site_type_symbol
 _atom_site_label
 _atom_site_symmetry_multiplicity
 _atom_site_fract_x
 _atom_site_fract_y
 _atom_site_fract_z
 _atom_site_occupancy
  Tl  Tl0  1  0.332192  0.332192  0.332192  1
  Tl  Tl1  1  0.770122  0.770122  0.770122  1
  Tl  Tl2  1  0.229878  0.229878  0.229878  1
  Tl  Tl3  1  0.667808  0.667808  0.667809  1
  Mo  Mo4  1  0.357754  0.546733  0.694113  1
  Mo  Mo5  1  0.110948  0.252510  0.923781  1
  Mo  Mo6  1  0.019982  0.870393  0.201643  1
  Mo  Mo7  1  0.076219  0.889052  0.747490  1
  Mo  Mo8  1  0.305887  0.642246  0.453267  1
  Mo  Mo9  1  0.980018  0.129607  0.798357  1
  Mo  Mo10  1  0.870393  0.201643  0.019982  1
  Mo  Mo11  1  0.201643  0.019982  0.870393  1
  Mo  Mo12  1  0.747490  0.076219  0.889052  1
  Mo  Mo13  1  0.129607  0.798357  0.980018  1
  Mo  Mo14  1  0.252510  0.923781  0.110948  1
  Mo  Mo15  1  0.798357  0.980018  0.129607  1
  Mo  Mo16  1  0.694113  0.357754  0.546733  1
  Mo  Mo17  1  0.546733  0.694113  0.357754  1
  Mo  Mo18  1  0.453267  0.305887  0.642246  1
  Mo  Mo19  1  0.889052  0.747490  0.076219  1
  Mo  Mo20  1  0.923781  0.110948  0.252510  1
  Mo  Mo21  1  0.642246  0.453267  0.305887  1
  S  S22  1  0.584363  0.584363  0.584363  1
  S  S23  1  0.800791  0.402718  0.063136  1
  S  S24  1  0.597282  0.936864  0.199209  1
  S  S25  1  0.281762  0.948916  0.672613  1
  S  S26  1  0.242175  0.840357  0.497249  1
  S  S27  1  0.063136  0.800791  0.402718  1
  S  S28  1  0.051084  0.327387  0.718238  1
  S  S29  1  0.415637  0.415637  0.415637  1
  S  S30  1  0.852754  0.852754  0.852754  1
  S  S31  1  0.497249  0.242175  0.840357  1
  S  S32  1  0.402718  0.063136  0.800791  1
  S  S33  1  0.672613  0.281762  0.948916  1
  S  S34  1  0.199209  0.597282  0.936864  1
  S  S35  1  0.147246  0.147246  0.147246  1
  S  S36  1  0.502751  0.757825  0.159643  1
  S  S37  1  0.757825  0.159643  0.502751  1
  S  S38  1  0.840357  0.497249  0.242175  1
  S  S39  1  0.948916  0.672613  0.281762  1
  S  S40  1  0.718238  0.051084  0.327387  1
  S  S41  1  0.327387  0.718238  0.051084  1
  S  S42  1  0.936864  0.199209  0.597282  1
  S  S43  1  0.159643  0.502751  0.757825  1
