# generated using pymatgen
data_In6Se7
_symmetry_space_group_name_H-M   'P 1'
_cell_length_a   9.61999365
_cell_length_b   4.13432739
_cell_length_c   18.02767172
_cell_angle_alpha   90.00000000
_cell_angle_beta   100.91087817
_cell_angle_gamma   90.00000000
_symmetry_Int_Tables_number   1
_chemical_formula_structural   In6Se7
_chemical_formula_sum   'In12 Se14'
_cell_volume   704.03886205
_cell_formula_units_Z   2
loop_
 _symmetry_equiv_pos_site_id
 _symmetry_equiv_pos_as_xyz
  1  'x, y, z'
loop_
 _atom_site_type_symbol
 _atom_site_label
 _atom_site_symmetry_multiplicity
 _atom_site_fract_x
 _atom_site_fract_y
 _atom_site_fract_z
 _atom_site_occupancy
  In  In0  1  0.473647  0.743337  0.772001  1
  In  In1  1  0.328301  0.748562  0.966239  1
  In  In2  1  0.984341  0.252977  0.896029  1
  In  In3  1  0.647334  0.754713  0.453040  1
  In  In4  1  0.931221  0.254215  0.375766  1
  In  In5  1  0.068779  0.754215  0.624234  1
  In  In6  1  0.671699  0.248562  0.033761  1
  In  In7  1  0.015659  0.752977  0.103971  1
  In  In8  1  0.819236  0.754987  0.686930  1
  In  In9  1  0.180764  0.254987  0.313070  1
  In  In10  1  0.352666  0.254713  0.546960  1
  In  In11  1  0.526353  0.243337  0.227999  1
  Se  Se12  1  0.240714  0.754093  0.226872  1
  Se  Se13  1  0.246163  0.253642  0.679630  1
  Se  Se14  1  0.470141  0.246534  0.907348  1
  Se  Se15  1  0.556096  0.755679  0.591857  1
  Se  Se16  1  0.759286  0.254093  0.773128  1
  Se  Se17  1  0.120896  0.751223  0.841895  1
  Se  Se18  1  0.753837  0.753642  0.320370  1
  Se  Se19  1  0.529859  0.746534  0.092652  1
  Se  Se20  1  0.164182  0.753133  0.493828  1
  Se  Se21  1  0.879104  0.251223  0.158105  1
  Se  Se22  1  0.443904  0.255679  0.408143  1
  Se  Se23  1  0.830862  0.741805  0.968007  1
  Se  Se24  1  0.169138  0.241805  0.031993  1
  Se  Se25  1  0.835818  0.253133  0.506172  1
