# generated using pymatgen
data_CeNiSb3
_symmetry_space_group_name_H-M   'P 1'
_cell_length_a   6.26032000
_cell_length_b   12.47588305
_cell_length_c   18.48736061
_cell_angle_alpha   90.00000000
_cell_angle_beta   90.00000000
_cell_angle_gamma   90.00000000
_symmetry_Int_Tables_number   1
_chemical_formula_structural   CeNiSb3
_chemical_formula_sum   'Ce12 Ni12 Sb36'
_cell_volume   1443.91869872
_cell_formula_units_Z   12
loop_
 _symmetry_equiv_pos_site_id
 _symmetry_equiv_pos_as_xyz
  1  'x, y, z'
loop_
 _atom_site_type_symbol
 _atom_site_label
 _atom_site_symmetry_multiplicity
 _atom_site_fract_x
 _atom_site_fract_y
 _atom_site_fract_z
 _atom_site_occupancy
  Ce  Ce0  1  0.939362  0.305137  0.750000  1
  Ce  Ce1  1  0.473146  0.299929  0.583549  1
  Ce  Ce2  1  0.526854  0.700071  0.416451  1
  Ce  Ce3  1  0.473146  0.299929  0.916451  1
  Ce  Ce4  1  0.026854  0.299929  0.083549  1
  Ce  Ce5  1  0.439362  0.694863  0.750000  1
  Ce  Ce6  1  0.973146  0.700071  0.916451  1
  Ce  Ce7  1  0.026854  0.299929  0.416451  1
  Ce  Ce8  1  0.973146  0.700071  0.583549  1
  Ce  Ce9  1  0.560638  0.305137  0.250000  1
  Ce  Ce10  1  0.526854  0.700071  0.083549  1
  Ce  Ce11  1  0.060638  0.694863  0.250000  1
  Ni  Ni12  1  0.826186  0.899463  0.176056  1
  Ni  Ni13  1  0.173814  0.100537  0.823944  1
  Ni  Ni14  1  0.673814  0.899463  0.823944  1
  Ni  Ni15  1  0.250000  0.894994  0.000000  1
  Ni  Ni16  1  0.173814  0.100537  0.676056  1
  Ni  Ni17  1  0.326186  0.100537  0.323944  1
  Ni  Ni18  1  0.326186  0.100537  0.176056  1
  Ni  Ni19  1  0.750000  0.105006  0.000000  1
  Ni  Ni20  1  0.750000  0.105006  0.500000  1
  Ni  Ni21  1  0.250000  0.894994  0.500000  1
  Ni  Ni22  1  0.673814  0.899463  0.676056  1
  Ni  Ni23  1  0.826186  0.899463  0.323944  1
  Sb  Sb24  1  0.704818  0.503261  0.666106  1
  Sb  Sb25  1  0.025468  0.770358  0.415609  1
  Sb  Sb26  1  0.795182  0.503261  0.333894  1
  Sb  Sb27  1  0.959151  0.971843  0.586676  1
  Sb  Sb28  1  0.474532  0.770358  0.915609  1
  Sb  Sb29  1  0.040849  0.028157  0.413324  1
  Sb  Sb30  1  0.204818  0.496739  0.833894  1
  Sb  Sb31  1  0.474532  0.770358  0.584391  1
  Sb  Sb32  1  0.317132  0.940670  0.750000  1
  Sb  Sb33  1  0.525468  0.229642  0.415609  1
  Sb  Sb34  1  0.250000  0.503627  0.500000  1
  Sb  Sb35  1  0.540849  0.971843  0.086676  1
  Sb  Sb36  1  0.295182  0.496739  0.333894  1
  Sb  Sb37  1  0.060868  0.229892  0.250000  1
  Sb  Sb38  1  0.682868  0.059330  0.250000  1
  Sb  Sb39  1  0.959151  0.971843  0.913324  1
  Sb  Sb40  1  0.439132  0.229892  0.750000  1
  Sb  Sb41  1  0.560868  0.770108  0.250000  1
  Sb  Sb42  1  0.939132  0.770108  0.750000  1
  Sb  Sb43  1  0.025468  0.770358  0.084391  1
  Sb  Sb44  1  0.204818  0.496739  0.666106  1
  Sb  Sb45  1  0.295182  0.496739  0.166106  1
  Sb  Sb46  1  0.540849  0.971843  0.413324  1
  Sb  Sb47  1  0.525468  0.229642  0.084391  1
  Sb  Sb48  1  0.750000  0.496373  0.000000  1
  Sb  Sb49  1  0.182868  0.940670  0.250000  1
  Sb  Sb50  1  0.974532  0.229642  0.915609  1
  Sb  Sb51  1  0.040849  0.028157  0.086676  1
  Sb  Sb52  1  0.974532  0.229642  0.584391  1
  Sb  Sb53  1  0.459151  0.028157  0.586676  1
  Sb  Sb54  1  0.250000  0.503627  0.000000  1
  Sb  Sb55  1  0.817132  0.059330  0.750000  1
  Sb  Sb56  1  0.795182  0.503261  0.166106  1
  Sb  Sb57  1  0.704818  0.503261  0.833894  1
  Sb  Sb58  1  0.750000  0.496373  0.500000  1
  Sb  Sb59  1  0.459151  0.028157  0.913324  1
