# generated using pymatgen
data_YZr3F15
_symmetry_space_group_name_H-M   'P 1'
_cell_length_a   8.21668886
_cell_length_b   8.22261180
_cell_length_c   16.43745773
_cell_angle_alpha   100.22879262
_cell_angle_beta   100.20026750
_cell_angle_gamma   100.18870334
_symmetry_Int_Tables_number   1
_chemical_formula_structural   YZr3F15
_chemical_formula_sum   'Y4 Zr12 F60'
_cell_volume   1050.45477798
_cell_formula_units_Z   4
loop_
 _symmetry_equiv_pos_site_id
 _symmetry_equiv_pos_as_xyz
  1  'x, y, z'
loop_
 _atom_site_type_symbol
 _atom_site_label
 _atom_site_symmetry_multiplicity
 _atom_site_fract_x
 _atom_site_fract_y
 _atom_site_fract_z
 _atom_site_occupancy
  Y  Y0  1  0.323318  0.177326  0.874479  1
  Y  Y1  1  0.249307  0.677934  0.411179  1
  Y  Y2  1  0.750693  0.322066  0.588821  1
  Y  Y3  1  0.676682  0.822674  0.125521  1
  Zr  Zr4  1  0.248395  0.676656  0.912385  1
  Zr  Zr5  1  0.176693  0.748776  0.662335  1
  Zr  Zr6  1  0.250070  0.249379  0.623998  1
  Zr  Zr7  1  0.175995  0.750272  0.160847  1
  Zr  Zr8  1  0.323398  0.177365  0.374395  1
  Zr  Zr9  1  0.251206  0.250414  0.125344  1
  Zr  Zr10  1  0.748794  0.749586  0.874656  1
  Zr  Zr11  1  0.676602  0.822635  0.625605  1
  Zr  Zr12  1  0.824005  0.249728  0.839153  1
  Zr  Zr13  1  0.749930  0.750621  0.376002  1
  Zr  Zr14  1  0.823307  0.251224  0.337665  1
  Zr  Zr15  1  0.751605  0.323344  0.087615  1
  F  F16  1  0.006108  0.774063  0.887364  1
  F  F17  1  0.035277  0.466103  0.879124  1
  F  F18  1  0.038534  0.153032  0.840081  1
  F  F19  1  0.004158  0.781632  0.389239  1
  F  F20  1  0.187307  0.651607  0.778737  1
  F  F21  1  0.244824  0.953865  0.763199  1
  F  F22  1  0.026677  0.454720  0.368350  1
  F  F23  1  0.312999  0.935151  0.923917  1
  F  F24  1  0.218413  0.221986  0.998664  1
  F  F25  1  0.223378  0.992611  0.611436  1
  F  F26  1  0.150543  0.686092  0.532928  1
  F  F27  1  0.053787  0.152790  0.342660  1
  F  F28  1  0.345157  0.460325  0.908632  1
  F  F29  1  0.276025  0.280213  0.751067  1
  F  F30  1  0.277965  0.508409  0.639958  1
  F  F31  1  0.177697  0.654649  0.267868  1
  F  F32  1  0.251983  0.967302  0.267931  1
  F  F33  1  0.318164  0.960984  0.422563  1
  F  F34  1  0.221343  0.225158  0.495515  1
  F  F35  1  0.223161  0.993668  0.111237  1
  F  F36  1  0.150401  0.685138  0.026470  1
  F  F37  1  0.493937  0.723598  0.859927  1
  F  F38  1  0.447302  0.813577  0.674213  1
  F  F39  1  0.348138  0.436161  0.406705  1
  F  F40  1  0.275831  0.275532  0.253863  1
  F  F41  1  0.276445  0.506003  0.136697  1
  F  F42  1  0.545166  0.252912  0.985949  1
  F  F43  1  0.471492  0.752771  0.522609  1
  F  F44  1  0.565470  0.183978  0.824947  1
  F  F45  1  0.504719  0.276364  0.640243  1
  F  F46  1  0.495281  0.723636  0.359757  1
  F  F47  1  0.434530  0.816022  0.175053  1
  F  F48  1  0.528508  0.247229  0.477391  1
  F  F49  1  0.454834  0.747088  0.014051  1
  F  F50  1  0.723555  0.493997  0.863303  1
  F  F51  1  0.724169  0.724468  0.746137  1
  F  F52  1  0.651862  0.563839  0.593295  1
  F  F53  1  0.552698  0.186423  0.325787  1
  F  F54  1  0.506063  0.276402  0.140073  1
  F  F55  1  0.849599  0.314862  0.973530  1
  F  F56  1  0.776839  0.006332  0.888763  1
  F  F57  1  0.778657  0.774842  0.504485  1
  F  F58  1  0.681836  0.039016  0.577437  1
  F  F59  1  0.748017  0.032698  0.732069  1
  F  F60  1  0.822303  0.345351  0.732132  1
  F  F61  1  0.722035  0.491591  0.360042  1
  F  F62  1  0.723975  0.719787  0.248933  1
  F  F63  1  0.654843  0.539675  0.091368  1
  F  F64  1  0.946213  0.847210  0.657340  1
  F  F65  1  0.849457  0.313908  0.467072  1
  F  F66  1  0.776622  0.007389  0.388564  1
  F  F67  1  0.781587  0.778014  0.001336  1
  F  F68  1  0.687001  0.064849  0.076083  1
  F  F69  1  0.973323  0.545280  0.631650  1
  F  F70  1  0.755176  0.046135  0.236801  1
  F  F71  1  0.812693  0.348393  0.221263  1
  F  F72  1  0.995842  0.218368  0.610761  1
  F  F73  1  0.961466  0.846968  0.159919  1
  F  F74  1  0.964723  0.533897  0.120876  1
  F  F75  1  0.993892  0.225937  0.112636  1
