# generated using pymatgen
data_K6Cu(SiO4)2
_symmetry_space_group_name_H-M   'P 1'
_cell_length_a   6.28230033
_cell_length_b   6.75153654
_cell_length_c   7.61465759
_cell_angle_alpha   83.46204417
_cell_angle_beta   87.65659872
_cell_angle_gamma   69.85288250
_symmetry_Int_Tables_number   1
_chemical_formula_structural   K6Cu(SiO4)2
_chemical_formula_sum   'K6 Cu1 Si2 O8'
_cell_volume   301.24213912
_cell_formula_units_Z   1
loop_
 _symmetry_equiv_pos_site_id
 _symmetry_equiv_pos_as_xyz
  1  'x, y, z'
loop_
 _atom_site_type_symbol
 _atom_site_label
 _atom_site_symmetry_multiplicity
 _atom_site_fract_x
 _atom_site_fract_y
 _atom_site_fract_z
 _atom_site_occupancy
  K  K0  1  0.653420  0.827452  0.167439  1
  K  K1  1  0.799537  0.304295  0.975465  1
  K  K2  1  0.274983  0.814208  0.558957  1
  K  K3  1  0.725017  0.185792  0.441043  1
  K  K4  1  0.200463  0.695705  0.024535  1
  K  K5  1  0.346580  0.172548  0.832561  1
  Cu  Cu6  1  0.000000  0.500000  0.500000  1
  Si  Si7  1  0.780565  0.759572  0.731901  1
  Si  Si8  1  0.219435  0.240428  0.268099  1
  O  O9  1  0.564189  0.725404  0.842170  1
  O  O10  1  0.832240  0.967432  0.784970  1
  O  O11  1  0.167760  0.032568  0.215030  1
  O  O12  1  0.016375  0.541577  0.753409  1
  O  O13  1  0.435811  0.274596  0.157830  1
  O  O14  1  0.983625  0.458423  0.246591  1
  O  O15  1  0.743978  0.769553  0.512034  1
  O  O16  1  0.256022  0.230447  0.487966  1
