# generated using pymatgen
data_LiCr(PO3)4
_symmetry_space_group_name_H-M   'P 1'
_cell_length_a   5.20437285
_cell_length_b   13.62579400
_cell_length_c   7.37091421
_cell_angle_alpha   90.00000000
_cell_angle_beta   98.31048772
_cell_angle_gamma   90.00000000
_symmetry_Int_Tables_number   1
_chemical_formula_structural   LiCr(PO3)4
_chemical_formula_sum   'Li2 Cr2 P8 O24'
_cell_volume   517.21021164
_cell_formula_units_Z   2
loop_
 _symmetry_equiv_pos_site_id
 _symmetry_equiv_pos_as_xyz
  1  'x, y, z'
loop_
 _atom_site_type_symbol
 _atom_site_label
 _atom_site_symmetry_multiplicity
 _atom_site_fract_x
 _atom_site_fract_y
 _atom_site_fract_z
 _atom_site_occupancy
  Li  Li0  1  0.368744  0.509662  0.391536  1
  Li  Li1  1  0.631256  0.009662  0.608464  1
  Cr  Cr2  1  0.506206  0.234365  0.001459  1
  Cr  Cr3  1  0.493794  0.734365  0.998541  1
  P  P4  1  0.858221  0.176799  0.392740  1
  P  P5  1  0.974970  0.597330  0.944832  1
  P  P6  1  0.010861  0.873105  0.055568  1
  P  P7  1  0.025030  0.097330  0.055168  1
  P  P8  1  0.141779  0.676799  0.607260  1
  P  P9  1  0.221009  0.319684  0.616831  1
  P  P10  1  0.778991  0.819684  0.383169  1
  P  P11  1  0.989139  0.373105  0.944432  1
  O  O12  1  0.295472  0.109098  0.008773  1
  O  O13  1  0.992610  0.361063  0.729103  1
  O  O14  1  0.007390  0.861063  0.270897  1
  O  O15  1  0.050262  0.268037  0.445614  1
  O  O16  1  0.031615  0.109655  0.271957  1
  O  O17  1  0.065691  0.486012  0.984644  1
  O  O18  1  0.183928  0.618808  0.444328  1
  O  O19  1  0.189156  0.657085  0.050818  1
  O  O20  1  0.205740  0.316100  0.055371  1
  O  O21  1  0.282295  0.858354  0.012597  1
  O  O22  1  0.626913  0.218022  0.269137  1
  O  O23  1  0.373087  0.718022  0.730863  1
  O  O24  1  0.374284  0.242580  0.733737  1
  O  O25  1  0.358119  0.403393  0.544997  1
  O  O26  1  0.968385  0.609655  0.728043  1
  O  O27  1  0.625716  0.742580  0.266263  1
  O  O28  1  0.949738  0.768037  0.554386  1
  O  O29  1  0.704528  0.609098  0.991227  1
  O  O30  1  0.717705  0.358354  0.987403  1
  O  O31  1  0.794260  0.816100  0.944629  1
  O  O32  1  0.810844  0.157085  0.949182  1
  O  O33  1  0.816072  0.118808  0.555672  1
  O  O34  1  0.934309  0.986012  0.015356  1
  O  O35  1  0.641881  0.903393  0.455003  1
