# generated using pymatgen
data_KMnH2OF4
_symmetry_space_group_name_H-M   'P 1'
_cell_length_a   7.62016094
_cell_length_b   7.62016094
_cell_length_c   10.72694474
_cell_angle_alpha   77.41283194
_cell_angle_beta   102.58716806
_cell_angle_gamma   130.62635699
_symmetry_Int_Tables_number   1
_chemical_formula_structural   KMnH2OF4
_chemical_formula_sum   'K4 Mn4 H8 O4 F16'
_cell_volume   458.94931210
_cell_formula_units_Z   4
loop_
 _symmetry_equiv_pos_site_id
 _symmetry_equiv_pos_as_xyz
  1  'x, y, z'
loop_
 _atom_site_type_symbol
 _atom_site_label
 _atom_site_symmetry_multiplicity
 _atom_site_fract_x
 _atom_site_fract_y
 _atom_site_fract_z
 _atom_site_occupancy
  K  K0  1  0.181198  0.339120  0.556168  1
  K  K1  1  0.339120  0.181198  0.943832  1
  K  K2  1  0.818802  0.660880  0.443832  1
  K  K3  1  0.660880  0.818802  0.056168  1
  Mn  Mn4  1  0.500000  1.000000  0.500000  1
  Mn  Mn5  1  0.000000  0.500000  0.000000  1
  Mn  Mn6  1  0.756805  0.756805  0.750000  1
  Mn  Mn7  1  0.243195  0.243195  0.250000  1
  H  H8  1  0.266531  0.907860  0.695086  1
  H  H9  1  0.907860  0.266531  0.804914  1
  H  H10  1  0.733469  0.092140  0.304914  1
  H  H11  1  0.092140  0.733469  0.195086  1
  H  H12  1  0.400797  0.807279  0.744462  1
  H  H13  1  0.807279  0.400797  0.755538  1
  H  H14  1  0.599203  0.192721  0.255538  1
  H  H15  1  0.192721  0.599203  0.244462  1
  O  O16  1  0.412742  0.937572  0.691310  1
  O  O17  1  0.937572  0.412742  0.808690  1
  O  O18  1  0.587258  0.062428  0.308690  1
  O  O19  1  0.062428  0.587258  0.191310  1
  F  F20  1  0.644914  0.845706  0.562301  1
  F  F21  1  0.845706  0.644914  0.937699  1
  F  F22  1  0.355086  0.154294  0.437699  1
  F  F23  1  0.154294  0.355086  0.062301  1
  F  F24  1  0.783543  0.282052  0.537713  1
  F  F25  1  0.282052  0.783543  0.962287  1
  F  F26  1  0.216457  0.717948  0.462287  1
  F  F27  1  0.717948  0.216457  0.037713  1
  F  F28  1  0.901649  0.039547  0.816434  1
  F  F29  1  0.039547  0.901649  0.683566  1
  F  F30  1  0.098351  0.960453  0.183566  1
  F  F31  1  0.960453  0.098351  0.316434  1
  F  F32  1  0.471287  0.620278  0.808625  1
  F  F33  1  0.620278  0.471287  0.691375  1
  F  F34  1  0.528713  0.379722  0.191375  1
  F  F35  1  0.379722  0.528713  0.308625  1
