# generated using pymatgen
data_U2Zn17
_symmetry_space_group_name_H-M   'P 1'
_cell_length_a   8.99349200
_cell_length_b   8.99349200
_cell_length_c   8.80458731
_cell_angle_alpha   90.00000000
_cell_angle_beta   90.00000000
_cell_angle_gamma   120.00000000
_symmetry_Int_Tables_number   1
_chemical_formula_structural   U2Zn17
_chemical_formula_sum   'U4 Zn34'
_cell_volume   616.73179952
_cell_formula_units_Z   2
loop_
 _symmetry_equiv_pos_site_id
 _symmetry_equiv_pos_as_xyz
  1  'x, y, z'
loop_
 _atom_site_type_symbol
 _atom_site_label
 _atom_site_symmetry_multiplicity
 _atom_site_fract_x
 _atom_site_fract_y
 _atom_site_fract_z
 _atom_site_occupancy
  U  U0  1  0.000000  0.000000  0.250000  1
  U  U1  1  0.000000  0.000000  0.750000  1
  U  U2  1  0.666667  0.333333  0.750000  1
  U  U3  1  0.333333  0.666667  0.250000  1
  Zn  Zn4  1  0.366803  0.329329  0.250000  1
  Zn  Zn5  1  0.366803  0.037475  0.250000  1
  Zn  Zn6  1  0.500000  0.000000  0.000000  1
  Zn  Zn7  1  0.500000  0.500000  0.500000  1
  Zn  Zn8  1  0.676820  0.838410  0.022504  1
  Zn  Zn9  1  0.161590  0.323180  0.022504  1
  Zn  Zn10  1  0.838410  0.161590  0.977496  1
  Zn  Zn11  1  0.323180  0.161590  0.977496  1
  Zn  Zn12  1  0.633197  0.962525  0.750000  1
  Zn  Zn13  1  0.676820  0.838410  0.477496  1
  Zn  Zn14  1  0.333333  0.666667  0.899822  1
  Zn  Zn15  1  0.329329  0.366803  0.750000  1
  Zn  Zn16  1  0.962525  0.633197  0.250000  1
  Zn  Zn17  1  0.161590  0.323180  0.477496  1
  Zn  Zn18  1  0.329329  0.962525  0.750000  1
  Zn  Zn19  1  0.670671  0.633197  0.250000  1
  Zn  Zn20  1  0.666667  0.333333  0.399822  1
  Zn  Zn21  1  0.323180  0.161590  0.522504  1
  Zn  Zn22  1  0.161590  0.838410  0.022504  1
  Zn  Zn23  1  0.000000  0.500000  0.000000  1
  Zn  Zn24  1  0.037475  0.670671  0.750000  1
  Zn  Zn25  1  0.333333  0.666667  0.600178  1
  Zn  Zn26  1  0.670671  0.037475  0.250000  1
  Zn  Zn27  1  0.666667  0.333333  0.100178  1
  Zn  Zn28  1  0.838410  0.676820  0.977496  1
  Zn  Zn29  1  0.962525  0.329329  0.250000  1
  Zn  Zn30  1  0.838410  0.161590  0.522504  1
  Zn  Zn31  1  0.037475  0.366803  0.750000  1
  Zn  Zn32  1  0.838410  0.676820  0.522504  1
  Zn  Zn33  1  0.500000  0.500000  0.000000  1
  Zn  Zn34  1  0.633197  0.670671  0.750000  1
  Zn  Zn35  1  0.161590  0.838410  0.477496  1
  Zn  Zn36  1  0.500000  0.000000  0.500000  1
  Zn  Zn37  1  0.000000  0.500000  0.500000  1
