# generated using pymatgen
data_Sc(AlC)3
_symmetry_space_group_name_H-M   'P 1'
_cell_length_a   3.36426068
_cell_length_b   3.36426068
_cell_length_c   16.78558870
_cell_angle_alpha   90.00000000
_cell_angle_beta   90.00000000
_cell_angle_gamma   120.00000000
_symmetry_Int_Tables_number   1
_chemical_formula_structural   Sc(AlC)3
_chemical_formula_sum   'Sc2 Al6 C6'
_cell_volume   164.53052694
_cell_formula_units_Z   2
loop_
 _symmetry_equiv_pos_site_id
 _symmetry_equiv_pos_as_xyz
  1  'x, y, z'
loop_
 _atom_site_type_symbol
 _atom_site_label
 _atom_site_symmetry_multiplicity
 _atom_site_fract_x
 _atom_site_fract_y
 _atom_site_fract_z
 _atom_site_occupancy
  Sc  Sc0  1  0.000000  0.000000  0.001139  1
  Sc  Sc1  1  0.000000  0.000000  0.501139  1
  Al  Al2  1  0.333333  0.666667  0.371786  1
  Al  Al3  1  0.666667  0.333333  0.629979  1
  Al  Al4  1  0.666667  0.333333  0.871786  1
  Al  Al5  1  0.333333  0.666667  0.756681  1
  Al  Al6  1  0.333333  0.666667  0.129979  1
  Al  Al7  1  0.666667  0.333333  0.256681  1
  C  C8  1  0.333333  0.666667  0.250109  1
  C  C9  1  0.666667  0.333333  0.750109  1
  C  C10  1  0.666667  0.333333  0.410440  1
  C  C11  1  0.333333  0.666667  0.910440  1
  C  C12  1  0.666667  0.333333  0.083866  1
  C  C13  1  0.333333  0.666667  0.583866  1
