# generated using pymatgen
data_Li2W2O7
_symmetry_space_group_name_H-M   'P 1'
_cell_length_a   5.18517757
_cell_length_b   7.10368833
_cell_length_c   8.50732582
_cell_angle_alpha   69.91160833
_cell_angle_beta   77.84047810
_cell_angle_gamma   85.74602271
_symmetry_Int_Tables_number   1
_chemical_formula_structural   Li2W2O7
_chemical_formula_sum   'Li4 W4 O14'
_cell_volume   287.69129847
_cell_formula_units_Z   2
loop_
 _symmetry_equiv_pos_site_id
 _symmetry_equiv_pos_as_xyz
  1  'x, y, z'
loop_
 _atom_site_type_symbol
 _atom_site_label
 _atom_site_symmetry_multiplicity
 _atom_site_fract_x
 _atom_site_fract_y
 _atom_site_fract_z
 _atom_site_occupancy
  Li  Li0  1  0.859695  0.998617  0.732477  1
  Li  Li1  1  0.140305  0.001383  0.267523  1
  Li  Li2  1  0.690868  0.257718  0.098864  1
  Li  Li3  1  0.309132  0.742282  0.901136  1
  W  W4  1  0.301807  0.253835  0.822296  1
  W  W5  1  0.698193  0.746165  0.177704  1
  W  W6  1  0.184831  0.458570  0.334475  1
  W  W7  1  0.815169  0.541430  0.665525  1
  O  O8  1  0.048709  0.606636  0.129415  1
  O  O9  1  0.951291  0.393364  0.870585  1
  O  O10  1  0.349837  0.750094  0.299034  1
  O  O11  1  0.650163  0.249906  0.700966  1
  O  O12  1  0.819141  0.975568  0.182257  1
  O  O13  1  0.180859  0.024432  0.817743  1
  O  O14  1  0.822818  0.584487  0.422680  1
  O  O15  1  0.177182  0.415513  0.577320  1
  O  O16  1  0.081300  0.213423  0.367190  1
  O  O17  1  0.918700  0.786577  0.632810  1
  O  O18  1  0.356055  0.187042  0.036654  1
  O  O19  1  0.643945  0.812958  0.963346  1
  O  O20  1  0.538289  0.439920  0.233637  1
  O  O21  1  0.461711  0.560080  0.766363  1
