# generated using pymatgen
data_Cs2SnS14
_symmetry_space_group_name_H-M   'P 1'
_cell_length_a   7.30526482
_cell_length_b   19.24467728
_cell_length_c   15.83888082
_cell_angle_alpha   90.00000000
_cell_angle_beta   107.76779227
_cell_angle_gamma   90.00000000
_symmetry_Int_Tables_number   1
_chemical_formula_structural   Cs2SnS14
_chemical_formula_sum   'Cs8 Sn4 S56'
_cell_volume   2120.53461314
_cell_formula_units_Z   4
loop_
 _symmetry_equiv_pos_site_id
 _symmetry_equiv_pos_as_xyz
  1  'x, y, z'
loop_
 _atom_site_type_symbol
 _atom_site_label
 _atom_site_symmetry_multiplicity
 _atom_site_fract_x
 _atom_site_fract_y
 _atom_site_fract_z
 _atom_site_occupancy
  Cs  Cs0  1  0.441963  0.798659  0.522860  1
  Cs  Cs1  1  0.558037  0.298659  0.977140  1
  Cs  Cs2  1  0.558037  0.201341  0.477140  1
  Cs  Cs3  1  0.441963  0.701341  0.022860  1
  Cs  Cs4  1  0.794730  0.950881  0.164465  1
  Cs  Cs5  1  0.205270  0.450881  0.335535  1
  Cs  Cs6  1  0.205270  0.049119  0.835535  1
  Cs  Cs7  1  0.794730  0.549119  0.664465  1
  Sn  Sn8  1  0.865744  0.824540  0.830505  1
  Sn  Sn9  1  0.134256  0.324540  0.669495  1
  Sn  Sn10  1  0.134256  0.175460  0.169495  1
  Sn  Sn11  1  0.865744  0.675460  0.330505  1
  S  S12  1  0.936435  0.816954  0.677082  1
  S  S13  1  0.063565  0.316954  0.822918  1
  S  S14  1  0.063565  0.183046  0.322918  1
  S  S15  1  0.936435  0.683046  0.177082  1
  S  S16  1  0.045269  0.907024  0.644525  1
  S  S17  1  0.954731  0.407024  0.855475  1
  S  S18  1  0.954731  0.092976  0.355475  1
  S  S19  1  0.045269  0.592976  0.144525  1
  S  S20  1  0.823094  0.964500  0.561389  1
  S  S21  1  0.176906  0.464500  0.938611  1
  S  S22  1  0.176906  0.035500  0.438611  1
  S  S23  1  0.823094  0.535500  0.061389  1
  S  S24  1  0.722171  0.032404  0.639469  1
  S  S25  1  0.277829  0.532404  0.860531  1
  S  S26  1  0.277829  0.967596  0.360531  1
  S  S27  1  0.722171  0.467596  0.139469  1
  S  S28  1  0.549510  0.974376  0.695653  1
  S  S29  1  0.450490  0.474376  0.804347  1
  S  S30  1  0.450490  0.025624  0.304347  1
  S  S31  1  0.549510  0.525624  0.195653  1
  S  S32  1  0.706419  0.949057  0.821870  1
  S  S33  1  0.293581  0.449057  0.678130  1
  S  S34  1  0.293581  0.050943  0.178130  1
  S  S35  1  0.706419  0.550943  0.321870  1
  S  S36  1  0.227527  0.864686  0.903286  1
  S  S37  1  0.772473  0.364686  0.596714  1
  S  S38  1  0.772473  0.135314  0.096714  1
  S  S39  1  0.227527  0.635314  0.403286  1
  S  S40  1  0.218834  0.908590  0.020787  1
  S  S41  1  0.781166  0.408590  0.479213  1
  S  S42  1  0.781166  0.091410  0.979213  1
  S  S43  1  0.218834  0.591410  0.520787  1
  S  S44  1  0.089102  0.831823  0.074868  1
  S  S45  1  0.910898  0.331823  0.425132  1
  S  S46  1  0.910898  0.168177  0.925132  1
  S  S47  1  0.089102  0.668177  0.574868  1
  S  S48  1  0.813137  0.829506  0.988591  1
  S  S49  1  0.186863  0.329506  0.511409  1
  S  S50  1  0.186863  0.170494  0.011409  1
  S  S51  1  0.813137  0.670494  0.488591  1
  S  S52  1  0.976818  0.693753  0.837752  1
  S  S53  1  0.023182  0.193753  0.662248  1
  S  S54  1  0.023182  0.306247  0.162248  1
  S  S55  1  0.976818  0.806247  0.337752  1
  S  S56  1  0.750169  0.645457  0.864594  1
  S  S57  1  0.249831  0.145457  0.635406  1
  S  S58  1  0.249831  0.354543  0.135406  1
  S  S59  1  0.750169  0.854543  0.364594  1
  S  S60  1  0.516172  0.676068  0.759486  1
  S  S61  1  0.483828  0.176068  0.740514  1
  S  S62  1  0.483828  0.323932  0.240514  1
  S  S63  1  0.516172  0.823932  0.259486  1
  S  S64  1  0.502950  0.782003  0.774545  1
  S  S65  1  0.497050  0.282003  0.725455  1
  S  S66  1  0.497050  0.217997  0.225455  1
  S  S67  1  0.502950  0.717997  0.274545  1
