# generated using pymatgen
data_La2Rh7
_symmetry_space_group_name_H-M   'P 1'
_cell_length_a   5.34206256
_cell_length_b   5.34206256
_cell_length_c   26.63754442
_cell_angle_alpha   90.00000000
_cell_angle_beta   90.00000000
_cell_angle_gamma   120.00000000
_symmetry_Int_Tables_number   1
_chemical_formula_structural   La2Rh7
_chemical_formula_sum   'La8 Rh28'
_cell_volume   658.32865293
_cell_formula_units_Z   4
loop_
 _symmetry_equiv_pos_site_id
 _symmetry_equiv_pos_as_xyz
  1  'x, y, z'
loop_
 _atom_site_type_symbol
 _atom_site_label
 _atom_site_symmetry_multiplicity
 _atom_site_fract_x
 _atom_site_fract_y
 _atom_site_fract_z
 _atom_site_occupancy
  La  La0  1  0.666667  0.333333  0.530045  1
  La  La1  1  0.333333  0.666667  0.030045  1
  La  La2  1  0.333333  0.666667  0.174570  1
  La  La3  1  0.666667  0.333333  0.969955  1
  La  La4  1  0.666667  0.333333  0.674570  1
  La  La5  1  0.666667  0.333333  0.825430  1
  La  La6  1  0.333333  0.666667  0.325430  1
  La  La7  1  0.333333  0.666667  0.469955  1
  Rh  Rh8  1  0.000000  0.000000  0.667291  1
  Rh  Rh9  1  0.833302  0.666603  0.250000  1
  Rh  Rh10  1  0.167016  0.334032  0.585527  1
  Rh  Rh11  1  0.832984  0.167016  0.414473  1
  Rh  Rh12  1  0.665968  0.832984  0.914473  1
  Rh  Rh13  1  0.333333  0.666667  0.833232  1
  Rh  Rh14  1  0.832984  0.665968  0.085527  1
  Rh  Rh15  1  0.832984  0.665968  0.414473  1
  Rh  Rh16  1  0.167016  0.832984  0.914473  1
  Rh  Rh17  1  0.666667  0.333333  0.333232  1
  Rh  Rh18  1  0.000000  0.000000  0.332709  1
  Rh  Rh19  1  0.167016  0.832984  0.585527  1
  Rh  Rh20  1  0.334032  0.167016  0.414473  1
  Rh  Rh21  1  0.000000  0.000000  0.000000  1
  Rh  Rh22  1  0.000000  0.000000  0.167291  1
  Rh  Rh23  1  0.333333  0.666667  0.666768  1
  Rh  Rh24  1  0.665968  0.832984  0.585527  1
  Rh  Rh25  1  0.666603  0.833302  0.750000  1
  Rh  Rh26  1  0.832984  0.167016  0.085527  1
  Rh  Rh27  1  0.833302  0.166698  0.250000  1
  Rh  Rh28  1  0.334032  0.167016  0.085527  1
  Rh  Rh29  1  0.666667  0.333333  0.166768  1
  Rh  Rh30  1  0.167016  0.334032  0.914473  1
  Rh  Rh31  1  0.000000  0.000000  0.500000  1
  Rh  Rh32  1  0.166698  0.333397  0.750000  1
  Rh  Rh33  1  0.000000  0.000000  0.832709  1
  Rh  Rh34  1  0.166698  0.833302  0.750000  1
  Rh  Rh35  1  0.333397  0.166698  0.250000  1
