# generated using pymatgen
data_VSeO4
_symmetry_space_group_name_H-M   'P 1'
_cell_length_a   3.98594668
_cell_length_b   10.01173430
_cell_length_c   8.18211216
_cell_angle_alpha   90.00000000
_cell_angle_beta   98.86747709
_cell_angle_gamma   90.00000000
_symmetry_Int_Tables_number   1
_chemical_formula_structural   VSeO4
_chemical_formula_sum   'V4 Se4 O16'
_cell_volume   322.61463438
_cell_formula_units_Z   4
loop_
 _symmetry_equiv_pos_site_id
 _symmetry_equiv_pos_as_xyz
  1  'x, y, z'
loop_
 _atom_site_type_symbol
 _atom_site_label
 _atom_site_symmetry_multiplicity
 _atom_site_fract_x
 _atom_site_fract_y
 _atom_site_fract_z
 _atom_site_occupancy
  V  V0  1  0.017788  0.003399  0.304031  1
  V  V1  1  0.982212  0.503399  0.195969  1
  V  V2  1  0.982212  0.996601  0.695969  1
  V  V3  1  0.017788  0.496601  0.804031  1
  Se  Se4  1  0.188829  0.790575  0.033429  1
  Se  Se5  1  0.811171  0.290575  0.466571  1
  Se  Se6  1  0.811171  0.209425  0.966571  1
  Se  Se7  1  0.188829  0.709425  0.533429  1
  O  O8  1  0.985270  0.871659  0.497426  1
  O  O9  1  0.014730  0.371659  0.002574  1
  O  O10  1  0.014730  0.128341  0.502574  1
  O  O11  1  0.985270  0.628341  0.997426  1
  O  O12  1  0.869362  0.164270  0.171622  1
  O  O13  1  0.130638  0.664270  0.328378  1
  O  O14  1  0.130638  0.835730  0.828378  1
  O  O15  1  0.869362  0.335730  0.671622  1
  O  O16  1  0.435112  0.993537  0.302297  1
  O  O17  1  0.564888  0.493537  0.197703  1
  O  O18  1  0.564888  0.006463  0.697703  1
  O  O19  1  0.435112  0.506463  0.802297  1
  O  O20  1  0.879305  0.882431  0.106008  1
  O  O21  1  0.120695  0.382431  0.393992  1
  O  O22  1  0.120695  0.117569  0.893992  1
  O  O23  1  0.879305  0.617569  0.606008  1
