# generated using pymatgen
data_Er(Al3Ni)3
_symmetry_space_group_name_H-M   'P 1'
_cell_length_a   10.04334248
_cell_length_b   10.04334248
_cell_length_c   10.04334248
_cell_angle_alpha   42.46378415
_cell_angle_beta   42.46378415
_cell_angle_gamma   42.46378415
_symmetry_Int_Tables_number   1
_chemical_formula_structural   Er(Al3Ni)3
_chemical_formula_sum   'Er2 Al18 Ni6'
_cell_volume   418.07052850
_cell_formula_units_Z   2
loop_
 _symmetry_equiv_pos_site_id
 _symmetry_equiv_pos_as_xyz
  1  'x, y, z'
loop_
 _atom_site_type_symbol
 _atom_site_label
 _atom_site_symmetry_multiplicity
 _atom_site_fract_x
 _atom_site_fract_y
 _atom_site_fract_z
 _atom_site_occupancy
  Er  Er0  1  0.833084  0.833084  0.833084  1
  Er  Er1  1  0.166916  0.166916  0.166916  1
  Al  Al2  1  0.897334  0.236881  0.567071  1
  Al  Al3  1  0.567071  0.897334  0.236881  1
  Al  Al4  1  0.432929  0.763119  0.102666  1
  Al  Al5  1  0.051900  0.051900  0.051900  1
  Al  Al6  1  0.948100  0.948100  0.948100  1
  Al  Al7  1  0.709195  0.500000  0.290805  1
  Al  Al8  1  0.102666  0.432929  0.763119  1
  Al  Al9  1  0.613054  0.613054  0.613054  1
  Al  Al10  1  0.500000  0.290805  0.709195  1
  Al  Al11  1  0.763119  0.102666  0.432929  1
  Al  Al12  1  0.281967  0.281967  0.281967  1
  Al  Al13  1  0.386946  0.386946  0.386946  1
  Al  Al14  1  0.666116  0.333884  0.000000  1
  Al  Al15  1  0.290805  0.709195  0.500000  1
  Al  Al16  1  0.333884  0.000000  0.666116  1
  Al  Al17  1  0.718033  0.718033  0.718033  1
  Al  Al18  1  0.000000  0.666116  0.333884  1
  Al  Al19  1  0.236881  0.567071  0.897334  1
  Ni  Ni20  1  0.581595  0.241542  0.921523  1
  Ni  Ni21  1  0.418405  0.078477  0.758458  1
  Ni  Ni22  1  0.921523  0.581595  0.241542  1
  Ni  Ni23  1  0.241542  0.921523  0.581595  1
  Ni  Ni24  1  0.078477  0.758458  0.418405  1
  Ni  Ni25  1  0.758458  0.418405  0.078477  1
