# generated using pymatgen
data_La5Al3Ni2
_symmetry_space_group_name_H-M   'P 1'
_cell_length_a   7.91957007
_cell_length_b   7.91957007
_cell_length_c   10.47881838
_cell_angle_alpha   90.00000000
_cell_angle_beta   90.00000000
_cell_angle_gamma   128.43227607
_symmetry_Int_Tables_number   1
_chemical_formula_structural   La5Al3Ni2
_chemical_formula_sum   'La10 Al6 Ni4'
_cell_volume   514.83460163
_cell_formula_units_Z   2
loop_
 _symmetry_equiv_pos_site_id
 _symmetry_equiv_pos_as_xyz
  1  'x, y, z'
loop_
 _atom_site_type_symbol
 _atom_site_label
 _atom_site_symmetry_multiplicity
 _atom_site_fract_x
 _atom_site_fract_y
 _atom_site_fract_z
 _atom_site_occupancy
  La  La0  1  0.874839  0.125161  1.000000  1
  La  La1  1  0.475673  0.040667  0.250000  1
  La  La2  1  0.125161  0.874839  0.500000  1
  La  La3  1  0.125161  0.874839  0.000000  1
  La  La4  1  0.524327  0.959333  0.750000  1
  La  La5  1  0.874839  0.125161  0.500000  1
  La  La6  1  0.389754  0.389754  0.750000  1
  La  La7  1  0.959333  0.524327  0.750000  1
  La  La8  1  0.040667  0.475673  0.250000  1
  La  La9  1  0.610246  0.610246  0.250000  1
  Al  Al10  1  0.882206  0.882206  0.750000  1
  Al  Al11  1  0.352614  0.647386  1.000000  1
  Al  Al12  1  0.352614  0.647386  0.500000  1
  Al  Al13  1  0.117794  0.117794  0.250000  1
  Al  Al14  1  0.647386  0.352614  0.000000  1
  Al  Al15  1  0.647386  0.352614  0.500000  1
  Ni  Ni16  1  0.670272  0.670272  0.561186  1
  Ni  Ni17  1  0.670272  0.670272  0.938814  1
  Ni  Ni18  1  0.329728  0.329728  0.061186  1
  Ni  Ni19  1  0.329728  0.329728  0.438814  1
