# generated using pymatgen
data_KDy(SeO4)2
_symmetry_space_group_name_H-M   'P 1'
_cell_length_a   5.72349503
_cell_length_b   9.10603384
_cell_length_c   27.83295966
_cell_angle_alpha   90.00000000
_cell_angle_beta   90.00000000
_cell_angle_gamma   90.00000000
_symmetry_Int_Tables_number   1
_chemical_formula_structural   KDy(SeO4)2
_chemical_formula_sum   'K8 Dy8 Se16 O64'
_cell_volume   1450.60763880
_cell_formula_units_Z   8
loop_
 _symmetry_equiv_pos_site_id
 _symmetry_equiv_pos_as_xyz
  1  'x, y, z'
loop_
 _atom_site_type_symbol
 _atom_site_label
 _atom_site_symmetry_multiplicity
 _atom_site_fract_x
 _atom_site_fract_y
 _atom_site_fract_z
 _atom_site_occupancy
  K  K0  1  0.284131  0.782917  0.332996  1
  K  K1  1  0.745471  0.449388  0.918106  1
  K  K2  1  0.784131  0.282917  0.167004  1
  K  K3  1  0.754529  0.449388  0.418106  1
  K  K4  1  0.254529  0.949388  0.081894  1
  K  K5  1  0.215869  0.782917  0.832996  1
  K  K6  1  0.715869  0.282917  0.667004  1
  K  K7  1  0.245471  0.949388  0.581894  1
  Dy  Dy8  1  0.276833  0.418066  0.052677  1
  Dy  Dy9  1  0.723167  0.918066  0.947323  1
  Dy  Dy10  1  0.776833  0.918066  0.447323  1
  Dy  Dy11  1  0.324901  0.322488  0.300847  1
  Dy  Dy12  1  0.824901  0.822488  0.199153  1
  Dy  Dy13  1  0.175099  0.322488  0.800847  1
  Dy  Dy14  1  0.675099  0.822488  0.699153  1
  Dy  Dy15  1  0.223167  0.418066  0.552677  1
  Se  Se16  1  0.810310  0.055541  0.317074  1
  Se  Se17  1  0.210181  0.021088  0.707625  1
  Se  Se18  1  0.236552  0.717401  0.456196  1
  Se  Se19  1  0.710181  0.521088  0.792375  1
  Se  Se20  1  0.689690  0.055541  0.817074  1
  Se  Se21  1  0.736552  0.217401  0.043804  1
  Se  Se22  1  0.789819  0.521088  0.292375  1
  Se  Se23  1  0.732396  0.688342  0.566654  1
  Se  Se24  1  0.232396  0.188342  0.933346  1
  Se  Se25  1  0.263448  0.717401  0.956196  1
  Se  Se26  1  0.763448  0.217401  0.543804  1
  Se  Se27  1  0.289819  0.021088  0.207625  1
  Se  Se28  1  0.310310  0.555541  0.182926  1
  Se  Se29  1  0.767604  0.688342  0.066654  1
  Se  Se30  1  0.189690  0.555541  0.682926  1
  Se  Se31  1  0.267604  0.188342  0.433346  1
  O  O32  1  0.798539  0.919031  0.357115  1
  O  O33  1  0.701461  0.919031  0.857115  1
  O  O34  1  0.004813  0.622740  0.571908  1
  O  O35  1  0.256821  0.492474  0.737678  1
  O  O36  1  0.198993  0.323476  0.893319  1
  O  O37  1  0.298539  0.419031  0.142885  1
  O  O38  1  0.958751  0.553446  0.076451  1
  O  O39  1  0.187508  0.251553  0.988977  1
  O  O40  1  0.333593  0.861485  0.990620  1
  O  O41  1  0.518692  0.242204  0.576048  1
  O  O42  1  0.166407  0.861485  0.490620  1
  O  O43  1  0.743179  0.992474  0.262322  1
  O  O44  1  0.687508  0.751553  0.511023  1
  O  O45  1  0.977958  0.978312  0.673487  1
  O  O46  1  0.995187  0.122740  0.428092  1
  O  O47  1  0.945851  0.525790  0.828926  1
  O  O48  1  0.301007  0.323476  0.393319  1
  O  O49  1  0.331999  0.188496  0.230148  1
  O  O50  1  0.041249  0.053446  0.923549  1
  O  O51  1  0.477958  0.478312  0.826513  1
  O  O52  1  0.022042  0.478312  0.326513  1
  O  O53  1  0.509158  0.216225  0.082535  1
  O  O54  1  0.243179  0.492474  0.237678  1
  O  O55  1  0.116149  0.684440  0.168175  1
  O  O56  1  0.541249  0.553446  0.576451  1
  O  O57  1  0.775622  0.385829  0.754572  1
  O  O58  1  0.275622  0.885829  0.745428  1
  O  O59  1  0.018692  0.742204  0.923952  1
  O  O60  1  0.668001  0.688496  0.769852  1
  O  O61  1  0.458751  0.053446  0.423549  1
  O  O62  1  0.078560  0.127950  0.317276  1
  O  O63  1  0.756821  0.992474  0.762322  1
  O  O64  1  0.168001  0.188496  0.730148  1
  O  O65  1  0.504813  0.122740  0.928092  1
  O  O66  1  0.833593  0.361485  0.509380  1
  O  O67  1  0.921440  0.627950  0.682724  1
  O  O68  1  0.981308  0.242204  0.076048  1
  O  O69  1  0.312492  0.251553  0.488977  1
  O  O70  1  0.666407  0.361485  0.009380  1
  O  O71  1  0.698993  0.823476  0.606681  1
  O  O72  1  0.990842  0.216225  0.582535  1
  O  O73  1  0.481308  0.742204  0.423952  1
  O  O74  1  0.831999  0.688496  0.269852  1
  O  O75  1  0.009158  0.716225  0.417465  1
  O  O76  1  0.201461  0.419031  0.642885  1
  O  O77  1  0.754498  0.054216  0.017289  1
  O  O78  1  0.445851  0.025790  0.671074  1
  O  O79  1  0.224378  0.885829  0.245428  1
  O  O80  1  0.383851  0.684440  0.668175  1
  O  O81  1  0.578560  0.627950  0.182724  1
  O  O82  1  0.883851  0.184440  0.831825  1
  O  O83  1  0.616149  0.184440  0.331825  1
  O  O84  1  0.812492  0.751553  0.011023  1
  O  O85  1  0.054149  0.025790  0.171074  1
  O  O86  1  0.554149  0.525790  0.328926  1
  O  O87  1  0.495187  0.622740  0.071908  1
  O  O88  1  0.724378  0.385829  0.254572  1
  O  O89  1  0.254498  0.554216  0.482711  1
  O  O90  1  0.245502  0.554216  0.982711  1
  O  O91  1  0.801007  0.823476  0.106681  1
  O  O92  1  0.522042  0.978312  0.173487  1
  O  O93  1  0.745502  0.054216  0.517289  1
  O  O94  1  0.490842  0.716225  0.917465  1
  O  O95  1  0.421440  0.127950  0.817276  1
