# generated using pymatgen
data_KSr4(BO3)3
_symmetry_space_group_name_H-M   'P 1'
_cell_length_a   6.98366718
_cell_length_b   6.98366718
_cell_length_c   11.16525822
_cell_angle_alpha   90.00000000
_cell_angle_beta   90.00000000
_cell_angle_gamma   120.20915761
_symmetry_Int_Tables_number   1
_chemical_formula_structural   KSr4(BO3)3
_chemical_formula_sum   'K2 Sr8 B6 O18'
_cell_volume   470.59497307
_cell_formula_units_Z   2
loop_
 _symmetry_equiv_pos_site_id
 _symmetry_equiv_pos_as_xyz
  1  'x, y, z'
loop_
 _atom_site_type_symbol
 _atom_site_label
 _atom_site_symmetry_multiplicity
 _atom_site_fract_x
 _atom_site_fract_y
 _atom_site_fract_z
 _atom_site_occupancy
  K  K0  1  0.085195  0.251034  0.750000  1
  K  K1  1  0.251034  0.085195  0.250000  1
  Sr  Sr2  1  0.287047  0.857215  0.530766  1
  Sr  Sr3  1  0.717818  0.717818  1.000000  1
  Sr  Sr4  1  0.287047  0.857215  0.969234  1
  Sr  Sr5  1  0.717818  0.717818  0.500000  1
  Sr  Sr6  1  0.857215  0.287047  0.030766  1
  Sr  Sr7  1  0.857215  0.287047  0.469234  1
  Sr  Sr8  1  0.585146  0.295742  0.750000  1
  Sr  Sr9  1  0.295742  0.585146  0.250000  1
  B  B10  1  0.616440  0.867447  0.750000  1
  B  B11  1  0.030714  0.690016  0.750000  1
  B  B12  1  0.867447  0.616440  0.250000  1
  B  B13  1  0.288106  0.288106  1.000000  1
  B  B14  1  0.690016  0.030714  0.250000  1
  B  B15  1  0.288106  0.288106  0.500000  1
  O  O16  1  0.202258  0.907605  0.750000  1
  O  O17  1  0.945337  0.574029  0.857880  1
  O  O18  1  0.907605  0.202258  0.250000  1
  O  O19  1  0.290931  0.485115  0.027335  1
  O  O20  1  0.988710  0.657041  0.142105  1
  O  O21  1  0.574029  0.945337  0.142120  1
  O  O22  1  0.485115  0.290931  0.972665  1
  O  O23  1  0.657041  0.988710  0.642105  1
  O  O24  1  0.988710  0.657041  0.357895  1
  O  O25  1  0.645877  0.550261  0.250000  1
  O  O26  1  0.550261  0.645877  0.750000  1
  O  O27  1  0.945337  0.574029  0.642120  1
  O  O28  1  0.574029  0.945337  0.357880  1
  O  O29  1  0.290931  0.485115  0.472665  1
  O  O30  1  0.657041  0.988710  0.857895  1
  O  O31  1  0.485115  0.290931  0.527335  1
  O  O32  1  0.089383  0.089383  0.500000  1
  O  O33  1  0.089383  0.089383  1.000000  1
