# generated using pymatgen
data_Ti4Cd(CuO4)3
_symmetry_space_group_name_H-M   'P 1'
_cell_length_a   6.45866832
_cell_length_b   6.45866832
_cell_length_c   6.45866832
_cell_angle_alpha   109.47122063
_cell_angle_beta   109.47122063
_cell_angle_gamma   109.47122063
_symmetry_Int_Tables_number   1
_chemical_formula_structural   Ti4Cd(CuO4)3
_chemical_formula_sum   'Ti4 Cd1 Cu3 O12'
_cell_volume   207.39919016
_cell_formula_units_Z   1
loop_
 _symmetry_equiv_pos_site_id
 _symmetry_equiv_pos_as_xyz
  1  'x, y, z'
loop_
 _atom_site_type_symbol
 _atom_site_label
 _atom_site_symmetry_multiplicity
 _atom_site_fract_x
 _atom_site_fract_y
 _atom_site_fract_z
 _atom_site_occupancy
  Ti  Ti0  1  0.500000  0.500000  0.500000  1
  Ti  Ti1  1  0.000000  0.500000  1.000000  1
  Ti  Ti2  1  0.000000  0.000000  0.500000  1
  Ti  Ti3  1  0.500000  0.000000  0.000000  1
  Cd  Cd4  1  0.000000  0.000000  0.000000  1
  Cu  Cu5  1  0.000000  0.500000  0.500000  1
  Cu  Cu6  1  0.500000  0.500000  0.000000  1
  Cu  Cu7  1  0.500000  0.000000  0.500000  1
  O  O8  1  0.482633  0.177937  0.304696  1
  O  O9  1  0.177937  0.695304  0.873241  1
  O  O10  1  0.304696  0.126759  0.822063  1
  O  O11  1  0.822063  0.695304  0.517367  1
  O  O12  1  0.695304  0.873241  0.177937  1
  O  O13  1  0.822063  0.304696  0.126759  1
  O  O14  1  0.695304  0.517367  0.822063  1
  O  O15  1  0.304696  0.482633  0.177937  1
  O  O16  1  0.177937  0.304696  0.482633  1
  O  O17  1  0.873241  0.177937  0.695304  1
  O  O18  1  0.126759  0.822063  0.304696  1
  O  O19  1  0.517367  0.822063  0.695304  1
