# generated using pymatgen
data_V6O11
_symmetry_space_group_name_H-M   'P 1'
_cell_length_a   5.56025986
_cell_length_b   7.14219259
_cell_length_c   9.75894401
_cell_angle_alpha   89.26289971
_cell_angle_beta   99.85785737
_cell_angle_gamma   107.79300946
_symmetry_Int_Tables_number   1
_chemical_formula_structural   V6O11
_chemical_formula_sum   'V12 O22'
_cell_volume   363.24372732
_cell_formula_units_Z   2
loop_
 _symmetry_equiv_pos_site_id
 _symmetry_equiv_pos_as_xyz
  1  'x, y, z'
loop_
 _atom_site_type_symbol
 _atom_site_label
 _atom_site_symmetry_multiplicity
 _atom_site_fract_x
 _atom_site_fract_y
 _atom_site_fract_z
 _atom_site_occupancy
  V  V0  1  0.759106  0.358539  0.425019  1
  V  V1  1  0.240894  0.641461  0.574981  1
  V  V2  1  0.688521  0.920495  0.755814  1
  V  V3  1  0.311479  0.079505  0.244186  1
  V  V4  1  0.230998  0.140175  0.586068  1
  V  V5  1  0.769002  0.859825  0.413932  1
  V  V6  1  0.694448  0.428540  0.764878  1
  V  V7  1  0.305552  0.571460  0.235122  1
  V  V8  1  0.182013  0.198029  0.935683  1
  V  V9  1  0.817987  0.801971  0.064317  1
  V  V10  1  0.174739  0.692380  0.930779  1
  V  V11  1  0.825261  0.307620  0.069221  1
  O  O12  1  0.127866  0.016228  0.385557  1
  O  O13  1  0.872134  0.983772  0.614443  1
  O  O14  1  0.637613  0.082752  0.347966  1
  O  O15  1  0.362387  0.917248  0.652034  1
  O  O16  1  0.904641  0.639452  0.474757  1
  O  O17  1  0.095359  0.360548  0.525243  1
  O  O18  1  0.927130  0.420091  0.240373  1
  O  O19  1  0.072870  0.579909  0.759627  1
  O  O20  1  0.209492  0.451866  0.034319  1
  O  O21  1  0.790508  0.548134  0.965681  1
  O  O22  1  0.817919  0.204143  0.860500  1
  O  O23  1  0.182081  0.795857  0.139500  1
  O  O24  1  0.592585  0.300924  0.573433  1
  O  O25  1  0.407415  0.699076  0.426567  1
  O  O26  1  0.329171  0.254692  0.789785  1
  O  O27  1  0.670829  0.745308  0.210215  1
  O  O28  1  0.016806  0.908358  0.893942  1
  O  O29  1  0.983194  0.091642  0.106058  1
  O  O30  1  0.441410  0.358091  0.297703  1
  O  O31  1  0.558590  0.641909  0.702297  1
  O  O32  1  0.473353  0.171719  0.071665  1
  O  O33  1  0.526647  0.828281  0.928335  1
