# generated using pymatgen
data_SbS3N2Cl7
_symmetry_space_group_name_H-M   'P 1'
_cell_length_a   15.00581716
_cell_length_b   13.23671076
_cell_length_c   15.41978655
_cell_angle_alpha   90.00000000
_cell_angle_beta   91.41830630
_cell_angle_gamma   90.00000000
_symmetry_Int_Tables_number   1
_chemical_formula_structural   SbS3N2Cl7
_chemical_formula_sum   'Sb8 S24 N16 Cl56'
_cell_volume   3061.85780230
_cell_formula_units_Z   8
loop_
 _symmetry_equiv_pos_site_id
 _symmetry_equiv_pos_as_xyz
  1  'x, y, z'
loop_
 _atom_site_type_symbol
 _atom_site_label
 _atom_site_symmetry_multiplicity
 _atom_site_fract_x
 _atom_site_fract_y
 _atom_site_fract_z
 _atom_site_occupancy
  Sb  Sb0  1  0.173631  0.171145  0.443563  1
  Sb  Sb1  1  0.797270  0.639120  0.085336  1
  Sb  Sb2  1  0.326369  0.671145  0.556437  1
  Sb  Sb3  1  0.673631  0.328855  0.443563  1
  Sb  Sb4  1  0.702730  0.139120  0.914664  1
  Sb  Sb5  1  0.826369  0.828855  0.556437  1
  Sb  Sb6  1  0.202730  0.360880  0.914664  1
  Sb  Sb7  1  0.297270  0.860880  0.085336  1
  S  S8  1  0.614620  0.949278  0.348545  1
  S  S9  1  0.885380  0.449278  0.651455  1
  S  S10  1  0.642781  0.782107  0.332404  1
  S  S11  1  0.357219  0.217893  0.667596  1
  S  S12  1  0.599738  0.709296  0.707732  1
  S  S13  1  0.857219  0.282107  0.667596  1
  S  S14  1  0.114620  0.550722  0.348545  1
  S  S15  1  0.590428  0.780867  0.876312  1
  S  S16  1  0.036130  0.332926  0.688546  1
  S  S17  1  0.536130  0.167074  0.688546  1
  S  S18  1  0.090428  0.719133  0.876312  1
  S  S19  1  0.142781  0.717893  0.332404  1
  S  S20  1  0.109209  0.888562  0.867779  1
  S  S21  1  0.400262  0.290704  0.292268  1
  S  S22  1  0.390791  0.388562  0.132221  1
  S  S23  1  0.963870  0.667074  0.311454  1
  S  S24  1  0.909572  0.280867  0.123688  1
  S  S25  1  0.609209  0.611438  0.867779  1
  S  S26  1  0.463870  0.832926  0.311454  1
  S  S27  1  0.099738  0.790704  0.707732  1
  S  S28  1  0.890791  0.111438  0.132221  1
  S  S29  1  0.900262  0.209296  0.292268  1
  S  S30  1  0.385380  0.050722  0.651455  1
  S  S31  1  0.409572  0.219133  0.123688  1
  N  N32  1  0.457373  0.244776  0.692012  1
  N  N33  1  0.510470  0.936666  0.347231  1
  N  N34  1  0.989530  0.436666  0.652769  1
  N  N35  1  0.081854  0.703978  0.774594  1
  N  N36  1  0.624869  0.611616  0.767113  1
  N  N37  1  0.010470  0.563334  0.347231  1
  N  N38  1  0.418146  0.203978  0.225406  1
  N  N39  1  0.124869  0.888384  0.767113  1
  N  N40  1  0.875131  0.111616  0.232887  1
  N  N41  1  0.489530  0.063334  0.652769  1
  N  N42  1  0.542627  0.755224  0.307988  1
  N  N43  1  0.042627  0.744776  0.307988  1
  N  N44  1  0.957373  0.255224  0.692012  1
  N  N45  1  0.581854  0.796022  0.774594  1
  N  N46  1  0.918146  0.296022  0.225406  1
  N  N47  1  0.375131  0.388384  0.232887  1
  Cl  Cl48  1  0.823793  0.874573  0.401897  1
  Cl  Cl49  1  0.159090  0.202320  0.848827  1
  Cl  Cl50  1  0.979258  0.940222  0.888575  1
  Cl  Cl51  1  0.239627  0.425336  0.774059  1
  Cl  Cl52  1  0.464393  0.762175  0.534429  1
  Cl  Cl53  1  0.520742  0.440222  0.111425  1
  Cl  Cl54  1  0.535607  0.237825  0.465571  1
  Cl  Cl55  1  0.185780  0.585452  0.572397  1
  Cl  Cl56  1  0.176207  0.125427  0.598103  1
  Cl  Cl57  1  0.830269  0.705133  0.943888  1
  Cl  Cl58  1  0.153509  0.499228  0.225349  1
  Cl  Cl59  1  0.246309  0.824085  0.520642  1
  Cl  Cl60  1  0.814220  0.414548  0.427603  1
  Cl  Cl61  1  0.670095  0.281861  0.292766  1
  Cl  Cl62  1  0.964393  0.737825  0.534429  1
  Cl  Cl63  1  0.314220  0.085452  0.427603  1
  Cl  Cl64  1  0.753691  0.175915  0.479358  1
  Cl  Cl65  1  0.169731  0.294867  0.056112  1
  Cl  Cl66  1  0.753400  0.481100  0.020869  1
  Cl  Cl67  1  0.840910  0.797680  0.151173  1
  Cl  Cl68  1  0.846491  0.500772  0.774651  1
  Cl  Cl69  1  0.760373  0.574664  0.225941  1
  Cl  Cl70  1  0.020742  0.059778  0.111425  1
  Cl  Cl71  1  0.948234  0.578159  0.103488  1
  Cl  Cl72  1  0.653509  0.000772  0.225349  1
  Cl  Cl73  1  0.330269  0.794867  0.943888  1
  Cl  Cl74  1  0.829905  0.781861  0.707234  1
  Cl  Cl75  1  0.746309  0.675915  0.520642  1
  Cl  Cl76  1  0.644341  0.702109  0.067589  1
  Cl  Cl77  1  0.408026  0.520892  0.589203  1
  Cl  Cl78  1  0.035607  0.262175  0.465571  1
  Cl  Cl79  1  0.551766  0.078159  0.896512  1
  Cl  Cl80  1  0.855659  0.202109  0.932411  1
  Cl  Cl81  1  0.051766  0.421841  0.896512  1
  Cl  Cl82  1  0.355659  0.297891  0.932411  1
  Cl  Cl83  1  0.669731  0.205133  0.056112  1
  Cl  Cl84  1  0.448234  0.921841  0.103488  1
  Cl  Cl85  1  0.479258  0.559778  0.888575  1
  Cl  Cl86  1  0.329905  0.718139  0.707234  1
  Cl  Cl87  1  0.246600  0.518900  0.979131  1
  Cl  Cl88  1  0.591974  0.479108  0.410797  1
  Cl  Cl89  1  0.253691  0.324085  0.479358  1
  Cl  Cl90  1  0.340910  0.702320  0.151173  1
  Cl  Cl91  1  0.659090  0.297680  0.848827  1
  Cl  Cl92  1  0.746600  0.981100  0.979131  1
  Cl  Cl93  1  0.170095  0.218139  0.292766  1
  Cl  Cl94  1  0.685780  0.914548  0.572397  1
  Cl  Cl95  1  0.260373  0.925336  0.225941  1
  Cl  Cl96  1  0.091974  0.020892  0.410797  1
  Cl  Cl97  1  0.144341  0.797891  0.067589  1
  Cl  Cl98  1  0.253400  0.018900  0.020869  1
  Cl  Cl99  1  0.739627  0.074664  0.774059  1
  Cl  Cl100  1  0.908026  0.979108  0.589203  1
  Cl  Cl101  1  0.323793  0.625427  0.401897  1
  Cl  Cl102  1  0.346491  0.999228  0.774651  1
  Cl  Cl103  1  0.676207  0.374573  0.598103  1
