# generated using pymatgen
data_SiO2
_symmetry_space_group_name_H-M   'P 1'
_cell_length_a   5.12672154
_cell_length_b   12.94688968
_cell_length_c   14.97058456
_cell_angle_alpha   103.37014618
_cell_angle_beta   90.46161774
_cell_angle_gamma   100.75121946
_symmetry_Int_Tables_number   1
_chemical_formula_structural   SiO2
_chemical_formula_sum   'Si16 O32'
_cell_volume   948.40893414
_cell_formula_units_Z   16
loop_
 _symmetry_equiv_pos_site_id
 _symmetry_equiv_pos_as_xyz
  1  'x, y, z'
loop_
 _atom_site_type_symbol
 _atom_site_label
 _atom_site_symmetry_multiplicity
 _atom_site_fract_x
 _atom_site_fract_y
 _atom_site_fract_z
 _atom_site_occupancy
  Si  Si0  1  0.887555  0.898220  0.357028  1
  Si  Si1  1  0.695138  0.277359  0.422282  1
  Si  Si2  1  0.678071  0.443607  0.305424  1
  Si  Si3  1  0.668430  0.387635  0.905872  1
  Si  Si4  1  0.331570  0.612365  0.094128  1
  Si  Si5  1  0.232266  0.526141  0.890776  1
  Si  Si6  1  0.112445  0.101780  0.642972  1
  Si  Si7  1  0.767734  0.473859  0.109224  1
  Si  Si8  1  0.665550  0.220914  0.728964  1
  Si  Si9  1  0.304862  0.722641  0.577718  1
  Si  Si10  1  0.864406  0.857225  0.561618  1
  Si  Si11  1  0.753537  0.416004  0.626022  1
  Si  Si12  1  0.135594  0.142775  0.438382  1
  Si  Si13  1  0.246463  0.583996  0.373978  1
  Si  Si14  1  0.334450  0.779086  0.271036  1
  Si  Si15  1  0.321929  0.556393  0.694576  1
  O  O16  1  0.083528  0.527195  0.119964  1
  O  O17  1  0.349824  0.732423  0.160611  1
  O  O18  1  0.592524  0.512628  0.663585  1
  O  O19  1  0.337009  0.682002  0.323183  1
  O  O20  1  0.690233  0.417593  0.193958  1
  O  O21  1  0.929762  0.536706  0.354418  1
  O  O22  1  0.676644  0.330578  0.334908  1
  O  O23  1  0.650176  0.267577  0.839389  1
  O  O24  1  0.970941  0.232272  0.420045  1
  O  O25  1  0.407476  0.487372  0.336415  1
  O  O26  1  0.070238  0.463294  0.645582  1
  O  O27  1  0.937129  0.173717  0.712371  1
  O  O28  1  0.702480  0.381251  0.012903  1
  O  O29  1  0.986490  0.974270  0.628712  1
  O  O30  1  0.297520  0.618749  0.987097  1
  O  O31  1  0.395660  0.429564  0.890074  1
  O  O32  1  0.690489  0.370704  0.515922  1
  O  O33  1  0.013510  0.025730  0.371288  1
  O  O34  1  0.116448  0.136382  0.545293  1
  O  O35  1  0.323356  0.669422  0.665092  1
  O  O36  1  0.554753  0.822696  0.583811  1
  O  O37  1  0.445247  0.177304  0.416189  1
  O  O38  1  0.916472  0.472805  0.880036  1
  O  O39  1  0.883552  0.863618  0.454707  1
  O  O40  1  0.412475  0.124174  0.688805  1
  O  O41  1  0.604340  0.570436  0.109926  1
  O  O42  1  0.062871  0.826283  0.287629  1
  O  O43  1  0.029059  0.767728  0.579955  1
  O  O44  1  0.309511  0.629296  0.484078  1
  O  O45  1  0.662991  0.317998  0.676817  1
  O  O46  1  0.587525  0.875826  0.311195  1
  O  O47  1  0.309767  0.582407  0.806042  1
