# generated using pymatgen
data_K2U(WO5)2
_symmetry_space_group_name_H-M   'P 1'
_cell_length_a   7.70159565
_cell_length_b   8.78539733
_cell_length_c   14.33855676
_cell_angle_alpha   90.00000000
_cell_angle_beta   90.00000000
_cell_angle_gamma   90.00000000
_symmetry_Int_Tables_number   1
_chemical_formula_structural   K2U(WO5)2
_chemical_formula_sum   'K8 U4 W8 O40'
_cell_volume   970.16937462
_cell_formula_units_Z   4
loop_
 _symmetry_equiv_pos_site_id
 _symmetry_equiv_pos_as_xyz
  1  'x, y, z'
loop_
 _atom_site_type_symbol
 _atom_site_label
 _atom_site_symmetry_multiplicity
 _atom_site_fract_x
 _atom_site_fract_y
 _atom_site_fract_z
 _atom_site_occupancy
  K  K0  1  0.750000  0.155460  0.301657  1
  K  K1  1  0.250000  0.844540  0.698343  1
  K  K2  1  0.250000  0.655460  0.198343  1
  K  K3  1  0.750000  0.344540  0.801657  1
  K  K4  1  0.250000  0.173952  0.283766  1
  K  K5  1  0.750000  0.826048  0.716234  1
  K  K6  1  0.750000  0.673952  0.216234  1
  K  K7  1  0.250000  0.326048  0.783766  1
  U  U8  1  0.250000  0.524999  0.496093  1
  U  U9  1  0.750000  0.475001  0.503907  1
  U  U10  1  0.750000  0.024999  0.003907  1
  U  U11  1  0.250000  0.975001  0.996093  1
  W  W12  1  0.001205  0.853620  0.431001  1
  W  W13  1  0.501205  0.146380  0.568999  1
  W  W14  1  0.998795  0.353620  0.068999  1
  W  W15  1  0.498795  0.646380  0.931001  1
  W  W16  1  0.998795  0.146380  0.568999  1
  W  W17  1  0.498795  0.853620  0.431001  1
  W  W18  1  0.001205  0.646380  0.931001  1
  W  W19  1  0.501205  0.353620  0.068999  1
  O  O20  1  0.972279  0.647355  0.484483  1
  O  O21  1  0.472279  0.352645  0.515517  1
  O  O22  1  0.027721  0.147355  0.015517  1
  O  O23  1  0.527721  0.852645  0.984483  1
  O  O24  1  0.027721  0.352645  0.515517  1
  O  O25  1  0.527721  0.647355  0.484483  1
  O  O26  1  0.972279  0.852645  0.984483  1
  O  O27  1  0.472279  0.147355  0.015517  1
  O  O28  1  0.750000  0.866856  0.422024  1
  O  O29  1  0.250000  0.133144  0.577976  1
  O  O30  1  0.250000  0.366856  0.077976  1
  O  O31  1  0.750000  0.633144  0.922024  1
  O  O32  1  0.032064  0.067533  0.423920  1
  O  O33  1  0.532064  0.932467  0.576080  1
  O  O34  1  0.967936  0.567533  0.076080  1
  O  O35  1  0.467936  0.432467  0.923920  1
  O  O36  1  0.967936  0.932467  0.576080  1
  O  O37  1  0.467936  0.067533  0.423920  1
  O  O38  1  0.032064  0.432467  0.923920  1
  O  O39  1  0.532064  0.567533  0.076080  1
  O  O40  1  0.250000  0.810039  0.464850  1
  O  O41  1  0.750000  0.189961  0.535150  1
  O  O42  1  0.750000  0.310039  0.035150  1
  O  O43  1  0.250000  0.689961  0.964850  1
  O  O44  1  0.028027  0.809434  0.310374  1
  O  O45  1  0.528027  0.190566  0.689626  1
  O  O46  1  0.971973  0.309434  0.189626  1
  O  O47  1  0.471973  0.690566  0.810374  1
  O  O48  1  0.971973  0.190566  0.689626  1
  O  O49  1  0.471973  0.809434  0.310374  1
  O  O50  1  0.028027  0.690566  0.810374  1
  O  O51  1  0.528027  0.309434  0.189626  1
  O  O52  1  0.250000  0.557298  0.622286  1
  O  O53  1  0.750000  0.442702  0.377714  1
  O  O54  1  0.750000  0.057298  0.877714  1
  O  O55  1  0.250000  0.942702  0.122286  1
  O  O56  1  0.250000  0.487789  0.370094  1
  O  O57  1  0.750000  0.512211  0.629906  1
  O  O58  1  0.750000  0.987789  0.129906  1
  O  O59  1  0.250000  0.012211  0.870094  1
