# generated using pymatgen
data_ThFe2SiC
_symmetry_space_group_name_H-M   'P 1'
_cell_length_a   5.69018280
_cell_length_b   5.69018280
_cell_length_c   6.79010108
_cell_angle_alpha   90.00000000
_cell_angle_beta   90.00000000
_cell_angle_gamma   139.97602706
_symmetry_Int_Tables_number   1
_chemical_formula_structural   ThFe2SiC
_chemical_formula_sum   'Th2 Fe4 Si2 C2'
_cell_volume   141.38802798
_cell_formula_units_Z   2
loop_
 _symmetry_equiv_pos_site_id
 _symmetry_equiv_pos_as_xyz
  1  'x, y, z'
loop_
 _atom_site_type_symbol
 _atom_site_label
 _atom_site_symmetry_multiplicity
 _atom_site_fract_x
 _atom_site_fract_y
 _atom_site_fract_z
 _atom_site_occupancy
  Th  Th0  1  0.058538  0.941462  0.250000  1
  Th  Th1  1  0.941462  0.058538  0.750000  1
  Fe  Fe2  1  0.336235  0.663765  0.060569  1
  Fe  Fe3  1  0.336235  0.663765  0.439431  1
  Fe  Fe4  1  0.663765  0.336235  0.939431  1
  Fe  Fe5  1  0.663765  0.336235  0.560569  1
  Si  Si6  1  0.775349  0.224651  0.250000  1
  Si  Si7  1  0.224651  0.775349  0.750000  1
  C  C8  1  0.500000  0.500000  0.500000  1
  C  C9  1  0.500000  0.500000  0.000000  1
