# generated using pymatgen
data_Rb2Ce(NO3)6
_symmetry_space_group_name_H-M   'P 1'
_cell_length_a   8.46719929
_cell_length_b   7.01161808
_cell_length_c   15.68210275
_cell_angle_alpha   90.00000000
_cell_angle_beta   121.11466520
_cell_angle_gamma   90.00000000
_symmetry_Int_Tables_number   1
_chemical_formula_structural   Rb2Ce(NO3)6
_chemical_formula_sum   'Rb4 Ce2 N12 O36'
_cell_volume   797.08475553
_cell_formula_units_Z   2
loop_
 _symmetry_equiv_pos_site_id
 _symmetry_equiv_pos_as_xyz
  1  'x, y, z'
loop_
 _atom_site_type_symbol
 _atom_site_label
 _atom_site_symmetry_multiplicity
 _atom_site_fract_x
 _atom_site_fract_y
 _atom_site_fract_z
 _atom_site_occupancy
  Rb  Rb0  1  0.633989  0.768098  0.660927  1
  Rb  Rb1  1  0.633989  0.731902  0.160927  1
  Rb  Rb2  1  0.366011  0.268098  0.839073  1
  Rb  Rb3  1  0.366011  0.231902  0.339073  1
  Ce  Ce4  1  0.000000  0.500000  0.500000  1
  Ce  Ce5  1  0.000000  0.000000  0.000000  1
  N  N6  1  0.671418  0.747156  0.445990  1
  N  N7  1  0.786878  0.242059  0.322738  1
  N  N8  1  0.213122  0.757941  0.677262  1
  N  N9  1  0.328582  0.247156  0.054010  1
  N  N10  1  0.328582  0.252844  0.554010  1
  N  N11  1  0.107258  0.730475  0.890097  1
  N  N12  1  0.107258  0.769525  0.390097  1
  N  N13  1  0.213122  0.742059  0.177262  1
  N  N14  1  0.892742  0.230475  0.609903  1
  N  N15  1  0.671418  0.752844  0.945990  1
  N  N16  1  0.786878  0.257941  0.822738  1
  N  N17  1  0.892742  0.269525  0.109903  1
  O  O18  1  0.695931  0.374564  0.756450  1
  O  O19  1  0.304069  0.625436  0.243550  1
  O  O20  1  0.293894  0.405958  0.501338  1
  O  O21  1  0.706106  0.905958  0.998662  1
  O  O22  1  0.856890  0.116790  0.656947  1
  O  O23  1  0.449791  0.140992  0.565070  1
  O  O24  1  0.143110  0.883210  0.343053  1
  O  O25  1  0.039988  0.775025  0.616454  1
  O  O26  1  0.771784  0.773888  0.408080  1
  O  O27  1  0.172807  0.716129  0.984074  1
  O  O28  1  0.706106  0.594042  0.498662  1
  O  O29  1  0.827193  0.283871  0.015926  1
  O  O30  1  0.289012  0.609410  0.664193  1
  O  O31  1  0.289012  0.890590  0.164193  1
  O  O32  1  0.039988  0.724975  0.116454  1
  O  O33  1  0.960012  0.275025  0.883546  1
  O  O34  1  0.856890  0.383210  0.156947  1
  O  O35  1  0.304069  0.874564  0.743550  1
  O  O36  1  0.228216  0.273888  0.091920  1
  O  O37  1  0.550209  0.859008  0.434930  1
  O  O38  1  0.449791  0.359008  0.065070  1
  O  O39  1  0.001385  0.374133  0.652409  1
  O  O40  1  0.143110  0.616790  0.843053  1
  O  O41  1  0.695931  0.125436  0.256450  1
  O  O42  1  0.960012  0.224975  0.383546  1
  O  O43  1  0.228216  0.226112  0.591920  1
  O  O44  1  0.550209  0.640992  0.934930  1
  O  O45  1  0.293894  0.094042  0.001338  1
  O  O46  1  0.998615  0.874133  0.847591  1
  O  O47  1  0.710988  0.390590  0.335807  1
  O  O48  1  0.001385  0.125867  0.152409  1
  O  O49  1  0.771784  0.726112  0.908080  1
  O  O50  1  0.710988  0.109410  0.835807  1
  O  O51  1  0.172807  0.783871  0.484074  1
  O  O52  1  0.998615  0.625867  0.347591  1
  O  O53  1  0.827193  0.216129  0.515926  1
