# generated using pymatgen
data_MoP2O7
_symmetry_space_group_name_H-M   'P 1'
_cell_length_a   6.48708291
_cell_length_b   6.50877012
_cell_length_c   7.15217619
_cell_angle_alpha   87.88730780
_cell_angle_beta   114.42218018
_cell_angle_gamma   95.80644643
_symmetry_Int_Tables_number   1
_chemical_formula_structural   MoP2O7
_chemical_formula_sum   'Mo2 P4 O14'
_cell_volume   273.55039842
_cell_formula_units_Z   2
loop_
 _symmetry_equiv_pos_site_id
 _symmetry_equiv_pos_as_xyz
  1  'x, y, z'
loop_
 _atom_site_type_symbol
 _atom_site_label
 _atom_site_symmetry_multiplicity
 _atom_site_fract_x
 _atom_site_fract_y
 _atom_site_fract_z
 _atom_site_occupancy
  Mo  Mo0  1  0.909987  0.650458  0.789172  1
  Mo  Mo1  1  0.090013  0.349542  0.210828  1
  P  P2  1  0.765187  0.135652  0.747815  1
  P  P3  1  0.338593  0.614721  0.645969  1
  P  P4  1  0.661407  0.385279  0.354031  1
  P  P5  1  0.234813  0.864348  0.252185  1
  O  O6  1  0.300817  0.801516  0.489317  1
  O  O7  1  0.239695  0.414240  0.522129  1
  O  O8  1  0.699183  0.198484  0.510683  1
  O  O9  1  0.216923  0.651087  0.783575  1
  O  O10  1  0.760305  0.585760  0.477871  1
  O  O11  1  0.063830  0.668740  0.129199  1
  O  O12  1  0.084782  0.043347  0.229517  1
  O  O13  1  0.406333  0.382801  0.215492  1
  O  O14  1  0.593667  0.617199  0.784508  1
  O  O15  1  0.572445  0.091429  0.804863  1
  O  O16  1  0.783077  0.348913  0.216425  1
  O  O17  1  0.427555  0.908571  0.195137  1
  O  O18  1  0.915218  0.956653  0.770483  1
  O  O19  1  0.936170  0.331260  0.870801  1
