# generated using pymatgen
data_ThB4
_symmetry_space_group_name_H-M   'P 1'
_cell_length_a   7.25561389
_cell_length_b   7.25561389
_cell_length_c   4.11952518
_cell_angle_alpha   90.00000000
_cell_angle_beta   90.00000000
_cell_angle_gamma   90.00000000
_symmetry_Int_Tables_number   1
_chemical_formula_structural   ThB4
_chemical_formula_sum   'Th4 B16'
_cell_volume   216.86800724
_cell_formula_units_Z   4
loop_
 _symmetry_equiv_pos_site_id
 _symmetry_equiv_pos_as_xyz
  1  'x, y, z'
loop_
 _atom_site_type_symbol
 _atom_site_label
 _atom_site_symmetry_multiplicity
 _atom_site_fract_x
 _atom_site_fract_y
 _atom_site_fract_z
 _atom_site_occupancy
  Th  Th0  1  0.814012  0.314012  0.000000  1
  Th  Th1  1  0.314012  0.185988  0.000000  1
  Th  Th2  1  0.685988  0.814012  0.000000  1
  Th  Th3  1  0.185988  0.685988  0.000000  1
  B  B4  1  0.000000  0.000000  0.201145  1
  B  B5  1  0.500000  0.500000  0.798855  1
  B  B6  1  0.000000  0.000000  0.798855  1
  B  B7  1  0.500000  0.500000  0.201145  1
  B  B8  1  0.589557  0.089557  0.500000  1
  B  B9  1  0.089557  0.410443  0.500000  1
  B  B10  1  0.910443  0.589557  0.500000  1
  B  B11  1  0.410443  0.910443  0.500000  1
  B  B12  1  0.038899  0.175149  0.500000  1
  B  B13  1  0.175149  0.961101  0.500000  1
  B  B14  1  0.824851  0.038899  0.500000  1
  B  B15  1  0.961101  0.824851  0.500000  1
  B  B16  1  0.461101  0.675149  0.500000  1
  B  B17  1  0.538899  0.324851  0.500000  1
  B  B18  1  0.675149  0.538899  0.500000  1
  B  B19  1  0.324851  0.461101  0.500000  1
