# generated using pymatgen
data_K3Cu11Te16
_symmetry_space_group_name_H-M   'P 1'
_cell_length_a   15.87074288
_cell_length_b   15.87074288
_cell_length_c   15.87074288
_cell_angle_alpha   154.59447771
_cell_angle_beta   103.17934472
_cell_angle_gamma   82.45563613
_symmetry_Int_Tables_number   1
_chemical_formula_structural   K3Cu11Te16
_chemical_formula_sum   'K6 Cu22 Te32'
_cell_volume   1642.97133868
_cell_formula_units_Z   2
loop_
 _symmetry_equiv_pos_site_id
 _symmetry_equiv_pos_as_xyz
  1  'x, y, z'
loop_
 _atom_site_type_symbol
 _atom_site_label
 _atom_site_symmetry_multiplicity
 _atom_site_fract_x
 _atom_site_fract_y
 _atom_site_fract_z
 _atom_site_occupancy
  K  K0  1  0.902241  0.177055  0.079296  1
  K  K1  1  0.597759  0.177055  0.774814  1
  K  K2  1  0.500000  1.000000  1.000000  1
  K  K3  1  0.097759  0.822945  0.920704  1
  K  K4  1  1.000000  0.500000  1.000000  1
  K  K5  1  0.402241  0.822945  0.225186  1
  Cu  Cu6  1  0.976380  0.292462  0.590396  1
  Cu  Cu7  1  0.297934  0.614016  0.590396  1
  Cu  Cu8  1  0.487434  0.781232  0.582956  1
  Cu  Cu9  1  0.202066  0.292462  0.816082  1
  Cu  Cu10  1  0.250000  0.101182  0.351182  1
  Cu  Cu11  1  0.301725  0.218768  0.206202  1
  Cu  Cu12  1  0.512566  0.218768  0.417044  1
  Cu  Cu13  1  0.012566  0.095523  0.793798  1
  Cu  Cu14  1  0.797934  0.707538  0.183918  1
  Cu  Cu15  1  0.198275  0.904477  0.417044  1
  Cu  Cu16  1  0.476380  0.385984  0.183918  1
  Cu  Cu17  1  0.702066  0.385984  0.409604  1
  Cu  Cu18  1  0.750000  0.898818  0.648818  1
  Cu  Cu19  1  0.801725  0.095523  0.582956  1
  Cu  Cu20  1  0.356294  0.356294  0.000000  1
  Cu  Cu21  1  0.987434  0.904477  0.206202  1
  Cu  Cu22  1  0.023620  0.707538  0.409604  1
  Cu  Cu23  1  0.143706  0.643706  0.500000  1
  Cu  Cu24  1  0.698275  0.781232  0.793798  1
  Cu  Cu25  1  0.523620  0.614016  0.816082  1
  Cu  Cu26  1  0.856294  0.356294  0.500000  1
  Cu  Cu27  1  0.643706  0.643706  0.000000  1
  Te  Te28  1  0.235660  0.574054  0.190397  1
  Te  Te29  1  0.383656  0.045263  0.809603  1
  Te  Te30  1  0.651671  0.856810  0.330484  1
  Te  Te31  1  0.141693  0.433583  0.791890  1
  Te  Te32  1  0.973674  0.143190  0.294861  1
  Te  Te33  1  0.847645  0.646542  0.494187  1
  Te  Te34  1  0.358307  0.650197  0.791890  1
  Te  Te35  1  0.348329  0.143190  0.669516  1
  Te  Te36  1  0.858307  0.566417  0.208110  1
  Te  Te37  1  0.264340  0.954737  0.838394  1
  Te  Te38  1  0.641693  0.349803  0.208110  1
  Te  Te39  1  0.883656  0.574054  0.838394  1
  Te  Te40  1  0.850293  0.146324  0.796032  1
  Te  Te41  1  0.151671  0.321187  0.294861  1
  Te  Te42  1  0.347645  0.353458  0.701103  1
  Te  Te43  1  0.925682  1.000000  0.425682  1
  Te  Te44  1  0.149707  0.853676  0.203968  1
  Te  Te45  1  0.074318  1.000000  0.574318  1
  Te  Te46  1  0.616344  0.954737  0.190397  1
  Te  Te47  1  0.848329  0.678813  0.705139  1
  Te  Te48  1  0.652355  0.646542  0.298897  1
  Te  Te49  1  0.152355  0.353458  0.505813  1
  Te  Te50  1  0.350293  0.054261  0.203968  1
  Te  Te51  1  0.425682  0.500000  0.425682  1
  Te  Te52  1  0.026326  0.856810  0.705139  1
  Te  Te53  1  0.649707  0.945739  0.796032  1
  Te  Te54  1  0.526326  0.321187  0.669516  1
  Te  Te55  1  0.473674  0.678813  0.330484  1
  Te  Te56  1  0.116344  0.425946  0.161606  1
  Te  Te57  1  0.764340  0.425946  0.809603  1
  Te  Te58  1  0.574318  0.500000  0.574318  1
  Te  Te59  1  0.735660  0.045263  0.161606  1
