# generated using pymatgen
data_Ca2Zr(SiO3)4
_symmetry_space_group_name_H-M   'P 1'
_cell_length_a   5.39167177
_cell_length_b   13.85042042
_cell_length_c   7.50837165
_cell_angle_alpha   90.00000000
_cell_angle_beta   108.89488359
_cell_angle_gamma   90.00000000
_symmetry_Int_Tables_number   1
_chemical_formula_structural   Ca2Zr(SiO3)4
_chemical_formula_sum   'Ca4 Zr2 Si8 O24'
_cell_volume   530.48823999
_cell_formula_units_Z   2
loop_
 _symmetry_equiv_pos_site_id
 _symmetry_equiv_pos_as_xyz
  1  'x, y, z'
loop_
 _atom_site_type_symbol
 _atom_site_label
 _atom_site_symmetry_multiplicity
 _atom_site_fract_x
 _atom_site_fract_y
 _atom_site_fract_z
 _atom_site_occupancy
  Ca  Ca0  1  0.000000  0.000000  0.500000  1
  Ca  Ca1  1  0.165334  0.250000  0.813698  1
  Ca  Ca2  1  0.834666  0.750000  0.186302  1
  Ca  Ca3  1  0.000000  0.500000  0.500000  1
  Zr  Zr4  1  0.000000  0.500000  0.000000  1
  Zr  Zr5  1  0.000000  0.000000  0.000000  1
  Si  Si6  1  0.431882  0.639764  0.384460  1
  Si  Si7  1  0.433238  0.862414  0.817821  1
  Si  Si8  1  0.431882  0.860236  0.384460  1
  Si  Si9  1  0.566762  0.137586  0.182179  1
  Si  Si10  1  0.568118  0.139764  0.615540  1
  Si  Si11  1  0.433238  0.637586  0.817821  1
  Si  Si12  1  0.566762  0.362414  0.182179  1
  Si  Si13  1  0.568118  0.360236  0.615540  1
  O  O14  1  0.793946  0.067970  0.157627  1
  O  O15  1  0.724873  0.867387  0.378266  1
  O  O16  1  0.731802  0.881170  0.954447  1
  O  O17  1  0.596940  0.123078  0.405699  1
  O  O18  1  0.212213  0.934727  0.256433  1
  O  O19  1  0.305909  0.750000  0.312794  1
  O  O20  1  0.403060  0.876922  0.594301  1
  O  O21  1  0.694091  0.250000  0.687206  1
  O  O22  1  0.275127  0.367387  0.621734  1
  O  O23  1  0.370170  0.750000  0.862687  1
  O  O24  1  0.629830  0.250000  0.137313  1
  O  O25  1  0.403060  0.623078  0.594301  1
  O  O26  1  0.268198  0.118830  0.045553  1
  O  O27  1  0.793946  0.432030  0.157627  1
  O  O28  1  0.787787  0.065273  0.743567  1
  O  O29  1  0.206054  0.932030  0.842373  1
  O  O30  1  0.212213  0.565273  0.256433  1
  O  O31  1  0.731802  0.618830  0.954447  1
  O  O32  1  0.724873  0.632613  0.378266  1
  O  O33  1  0.596940  0.376922  0.405699  1
  O  O34  1  0.275127  0.132613  0.621734  1
  O  O35  1  0.787787  0.434727  0.743567  1
  O  O36  1  0.268198  0.381170  0.045553  1
  O  O37  1  0.206054  0.567970  0.842373  1
