# generated using pymatgen
data_Cs2CuH12(SO7)2
_symmetry_space_group_name_H-M   'P 1'
_cell_length_a   6.35846606
_cell_length_b   12.85787032
_cell_length_c   9.52318935
_cell_angle_alpha   90.00000000
_cell_angle_beta   105.50613983
_cell_angle_gamma   90.00000000
_symmetry_Int_Tables_number   1
_chemical_formula_structural   Cs2CuH12(SO7)2
_chemical_formula_sum   'Cs4 Cu2 H24 S4 O28'
_cell_volume   750.24209061
_cell_formula_units_Z   2
loop_
 _symmetry_equiv_pos_site_id
 _symmetry_equiv_pos_as_xyz
  1  'x, y, z'
loop_
 _atom_site_type_symbol
 _atom_site_label
 _atom_site_symmetry_multiplicity
 _atom_site_fract_x
 _atom_site_fract_y
 _atom_site_fract_z
 _atom_site_occupancy
  Cs  Cs0  1  0.647461  0.355084  0.887998  1
  Cs  Cs1  1  0.352539  0.855084  0.612002  1
  Cs  Cs2  1  0.352539  0.644916  0.112002  1
  Cs  Cs3  1  0.647461  0.144916  0.387998  1
  Cu  Cu4  1  0.000000  0.000000  0.000000  1
  Cu  Cu5  1  0.000000  0.500000  0.500000  1
  H  H6  1  0.688541  0.096043  0.810531  1
  H  H7  1  0.311459  0.596043  0.689469  1
  H  H8  1  0.311459  0.903957  0.189469  1
  H  H9  1  0.688541  0.403957  0.310531  1
  H  H10  1  0.922319  0.127552  0.782284  1
  H  H11  1  0.077681  0.627552  0.717716  1
  H  H12  1  0.077681  0.872448  0.217716  1
  H  H13  1  0.922319  0.372448  0.282284  1
  H  H14  1  0.076773  0.100054  0.300611  1
  H  H15  1  0.923227  0.600054  0.199389  1
  H  H16  1  0.923227  0.899946  0.699389  1
  H  H17  1  0.076773  0.399946  0.800611  1
  H  H18  1  0.014152  0.186382  0.180143  1
  H  H19  1  0.985848  0.686382  0.319857  1
  H  H20  1  0.985848  0.813618  0.819857  1
  H  H21  1  0.014152  0.313618  0.680143  1
  H  H22  1  0.676500  0.937280  0.094885  1
  H  H23  1  0.323500  0.437280  0.405115  1
  H  H24  1  0.323500  0.062720  0.905115  1
  H  H25  1  0.676500  0.562720  0.594885  1
  H  H26  1  0.697818  0.863476  0.964946  1
  H  H27  1  0.302182  0.363476  0.535054  1
  H  H28  1  0.302182  0.136524  0.035054  1
  H  H29  1  0.697818  0.636524  0.464946  1
  S  S30  1  0.263603  0.147817  0.623992  1
  S  S31  1  0.736397  0.647817  0.876008  1
  S  S32  1  0.736397  0.852183  0.376008  1
  S  S33  1  0.263603  0.352183  0.123992  1
  O  O34  1  0.383988  0.243789  0.603757  1
  O  O35  1  0.616012  0.743789  0.896243  1
  O  O36  1  0.616012  0.756211  0.396243  1
  O  O37  1  0.383988  0.256211  0.103757  1
  O  O38  1  0.216699  0.082700  0.490470  1
  O  O39  1  0.783301  0.582700  0.009530  1
  O  O40  1  0.783301  0.917300  0.509530  1
  O  O41  1  0.216699  0.417300  0.990470  1
  O  O42  1  0.404197  0.086207  0.748868  1
  O  O43  1  0.595803  0.586207  0.751132  1
  O  O44  1  0.595803  0.913793  0.251132  1
  O  O45  1  0.404197  0.413793  0.248868  1
  O  O46  1  0.055223  0.177275  0.659713  1
  O  O47  1  0.944777  0.677275  0.840287  1
  O  O48  1  0.944777  0.822725  0.340287  1
  O  O49  1  0.055223  0.322725  0.159713  1
  O  O50  1  0.845447  0.111401  0.858476  1
  O  O51  1  0.154553  0.611401  0.641524  1
  O  O52  1  0.154553  0.888599  0.141524  1
  O  O53  1  0.845447  0.388599  0.358476  1
  O  O54  1  0.985514  0.112952  0.200510  1
  O  O55  1  0.014486  0.612952  0.299490  1
  O  O56  1  0.014486  0.887048  0.799490  1
  O  O57  1  0.985514  0.387048  0.700510  1
  O  O58  1  0.714183  0.937336  0.999352  1
  O  O59  1  0.285817  0.437336  0.500648  1
  O  O60  1  0.285817  0.062664  0.000648  1
  O  O61  1  0.714183  0.562664  0.499352  1
