# generated using pymatgen
data_Sb2Pt
_symmetry_space_group_name_H-M   'P 1'
_cell_length_a   6.54885099
_cell_length_b   6.54885099
_cell_length_c   6.54885099
_cell_angle_alpha   90.00000000
_cell_angle_beta   90.00000000
_cell_angle_gamma   90.00000000
_symmetry_Int_Tables_number   1
_chemical_formula_structural   Sb2Pt
_chemical_formula_sum   'Sb8 Pt4'
_cell_volume   280.86351474
_cell_formula_units_Z   4
loop_
 _symmetry_equiv_pos_site_id
 _symmetry_equiv_pos_as_xyz
  1  'x, y, z'
loop_
 _atom_site_type_symbol
 _atom_site_label
 _atom_site_symmetry_multiplicity
 _atom_site_fract_x
 _atom_site_fract_y
 _atom_site_fract_z
 _atom_site_occupancy
  Sb  Sb0  1  0.374716  0.125284  0.874716  1
  Sb  Sb1  1  0.125284  0.874716  0.374716  1
  Sb  Sb2  1  0.874716  0.374716  0.125284  1
  Sb  Sb3  1  0.625284  0.625284  0.625284  1
  Sb  Sb4  1  0.374716  0.374716  0.374716  1
  Sb  Sb5  1  0.125284  0.625284  0.874716  1
  Sb  Sb6  1  0.874716  0.125284  0.625284  1
  Sb  Sb7  1  0.625284  0.874716  0.125284  1
  Pt  Pt8  1  0.000000  0.500000  0.500000  1
  Pt  Pt9  1  0.500000  0.500000  0.000000  1
  Pt  Pt10  1  0.500000  0.000000  0.500000  1
  Pt  Pt11  1  0.000000  0.000000  0.000000  1
