# generated using pymatgen
data_K9U6BiO24
_symmetry_space_group_name_H-M   'P 1'
_cell_length_a   8.76710049
_cell_length_b   8.76710049
_cell_length_c   8.76710049
_cell_angle_alpha   90.00000000
_cell_angle_beta   90.00000000
_cell_angle_gamma   90.00000000
_symmetry_Int_Tables_number   1
_chemical_formula_structural   K9U6BiO24
_chemical_formula_sum   'K9 U6 Bi1 O24'
_cell_volume   673.85732500
_cell_formula_units_Z   1
loop_
 _symmetry_equiv_pos_site_id
 _symmetry_equiv_pos_as_xyz
  1  'x, y, z'
loop_
 _atom_site_type_symbol
 _atom_site_label
 _atom_site_symmetry_multiplicity
 _atom_site_fract_x
 _atom_site_fract_y
 _atom_site_fract_z
 _atom_site_occupancy
  K  K0  1  0.000000  0.000000  0.000000  1
  K  K1  1  0.752347  0.752347  0.752347  1
  K  K2  1  0.247653  0.247653  0.752347  1
  K  K3  1  0.752347  0.247653  0.247653  1
  K  K4  1  0.247653  0.247653  0.247653  1
  K  K5  1  0.247653  0.752347  0.247653  1
  K  K6  1  0.752347  0.247653  0.752347  1
  K  K7  1  0.247653  0.752347  0.752347  1
  K  K8  1  0.752347  0.752347  0.247653  1
  U  U9  1  0.000000  0.000000  0.500000  1
  U  U10  1  0.000000  0.500000  0.000000  1
  U  U11  1  0.500000  0.000000  0.000000  1
  U  U12  1  0.500000  0.500000  0.000000  1
  U  U13  1  0.000000  0.500000  0.500000  1
  U  U14  1  0.500000  0.000000  0.500000  1
  Bi  Bi15  1  0.500000  0.500000  0.500000  1
  O  O16  1  0.284978  0.000000  0.000000  1
  O  O17  1  0.500000  0.254955  0.000000  1
  O  O18  1  0.000000  0.715022  0.000000  1
  O  O19  1  0.500000  0.000000  0.254955  1
  O  O20  1  0.500000  0.500000  0.230652  1
  O  O21  1  0.000000  0.500000  0.254955  1
  O  O22  1  0.000000  0.284978  0.000000  1
  O  O23  1  0.254955  0.000000  0.500000  1
  O  O24  1  0.500000  0.500000  0.769348  1
  O  O25  1  0.745045  0.000000  0.500000  1
  O  O26  1  0.000000  0.500000  0.745045  1
  O  O27  1  0.500000  0.000000  0.745045  1
  O  O28  1  0.715022  0.000000  0.000000  1
  O  O29  1  0.000000  0.745045  0.500000  1
  O  O30  1  0.500000  0.769348  0.500000  1
  O  O31  1  0.500000  0.230652  0.500000  1
  O  O32  1  0.000000  0.254955  0.500000  1
  O  O33  1  0.769348  0.500000  0.500000  1
  O  O34  1  0.254955  0.500000  0.000000  1
  O  O35  1  0.745045  0.500000  0.000000  1
  O  O36  1  0.000000  0.000000  0.284978  1
  O  O37  1  0.500000  0.745045  0.000000  1
  O  O38  1  0.230652  0.500000  0.500000  1
  O  O39  1  0.000000  0.000000  0.715022  1
