# generated using pymatgen
data_CeMnSi2
_symmetry_space_group_name_H-M   'P 1'
_cell_length_a   8.82170036
_cell_length_b   8.82170036
_cell_length_c   3.98481839
_cell_angle_alpha   90.00000000
_cell_angle_beta   90.00000000
_cell_angle_gamma   153.34537301
_symmetry_Int_Tables_number   1
_chemical_formula_structural   CeMnSi2
_chemical_formula_sum   'Ce2 Mn2 Si4'
_cell_volume   139.11803443
_cell_formula_units_Z   2
loop_
 _symmetry_equiv_pos_site_id
 _symmetry_equiv_pos_as_xyz
  1  'x, y, z'
loop_
 _atom_site_type_symbol
 _atom_site_label
 _atom_site_symmetry_multiplicity
 _atom_site_fract_x
 _atom_site_fract_y
 _atom_site_fract_z
 _atom_site_occupancy
  Ce  Ce0  1  0.603090  0.396910  0.250000  1
  Ce  Ce1  1  0.396910  0.603090  0.750000  1
  Mn  Mn2  1  0.748726  0.251274  0.750000  1
  Mn  Mn3  1  0.251274  0.748726  0.250000  1
  Si  Si4  1  0.822679  0.177321  0.250000  1
  Si  Si5  1  0.177321  0.822679  0.750000  1
  Si  Si6  1  0.035767  0.964233  0.750000  1
  Si  Si7  1  0.964233  0.035767  0.250000  1
