# generated using pymatgen
data_SiO2
_symmetry_space_group_name_H-M   'P 1'
_cell_length_a   10.98464906
_cell_length_b   10.98464906
_cell_length_c   10.98464906
_cell_angle_alpha   99.80282463
_cell_angle_beta   99.80282463
_cell_angle_gamma   131.26051958
_symmetry_Int_Tables_number   1
_chemical_formula_structural   SiO2
_chemical_formula_sum   'Si16 O32'
_cell_volume   907.58111709
_cell_formula_units_Z   16
loop_
 _symmetry_equiv_pos_site_id
 _symmetry_equiv_pos_as_xyz
  1  'x, y, z'
loop_
 _atom_site_type_symbol
 _atom_site_label
 _atom_site_symmetry_multiplicity
 _atom_site_fract_x
 _atom_site_fract_y
 _atom_site_fract_z
 _atom_site_occupancy
  Si  Si0  1  0.275873  0.415082  0.340988  1
  Si  Si1  1  0.934885  0.275873  0.860791  1
  Si  Si2  1  0.425906  0.084918  0.860791  1
  Si  Si3  1  0.565115  0.425906  0.340988  1
  Si  Si4  1  0.084918  0.224127  0.659012  1
  Si  Si5  1  0.224127  0.565115  0.139209  1
  Si  Si6  1  0.574094  0.915082  0.139209  1
  Si  Si7  1  0.434885  0.574094  0.659012  1
  Si  Si8  1  0.724127  0.584918  0.659012  1
  Si  Si9  1  0.584918  0.925906  0.860791  1
  Si  Si10  1  0.775873  0.434885  0.860791  1
  Si  Si11  1  0.074094  0.934885  0.659012  1
  Si  Si12  1  0.925906  0.065115  0.340988  1
  Si  Si13  1  0.065115  0.724127  0.139209  1
  Si  Si14  1  0.415082  0.074094  0.139209  1
  Si  Si15  1  0.915082  0.775873  0.340988  1
  O  O16  1  0.032578  0.872511  0.500000  1
  O  O17  1  0.104293  0.395707  0.000000  1
  O  O18  1  0.250000  0.513889  0.263889  1
  O  O19  1  0.413332  0.721246  0.134578  1
  O  O20  1  0.467422  0.967422  0.839933  1
  O  O21  1  0.967422  0.127489  0.500000  1
  O  O22  1  0.395707  0.395707  0.291414  1
  O  O23  1  0.250000  0.986111  0.736111  1
  O  O24  1  0.278754  0.413332  0.692086  1
  O  O25  1  0.604293  0.604293  0.708586  1
  O  O26  1  0.586668  0.278754  0.865422  1
  O  O27  1  0.750000  0.013889  0.263889  1
  O  O28  1  0.872511  0.372511  0.839933  1
  O  O29  1  0.395707  0.104293  1.000000  1
  O  O30  1  0.895707  0.895707  0.291414  1
  O  O31  1  0.486111  0.750000  0.736111  1
  O  O32  1  0.372511  0.532578  0.500000  1
  O  O33  1  0.750000  0.486111  0.736111  1
  O  O34  1  0.086668  0.221246  0.307914  1
  O  O35  1  0.221246  0.913332  0.134578  1
  O  O36  1  0.127489  0.627489  0.160067  1
  O  O37  1  0.778754  0.086668  0.865422  1
  O  O38  1  0.532578  0.032578  0.160067  1
  O  O39  1  0.913332  0.778754  0.692086  1
  O  O40  1  0.721246  0.586668  0.307914  1
  O  O41  1  0.513889  0.250000  0.263889  1
  O  O42  1  0.013889  0.750000  0.263889  1
  O  O43  1  0.604293  0.895707  0.000000  1
  O  O44  1  0.986111  0.250000  0.736111  1
  O  O45  1  0.895707  0.604293  0.000000  1
  O  O46  1  0.627489  0.467422  0.500000  1
  O  O47  1  0.104293  0.104293  0.708586  1
