# generated using pymatgen
data_Tl2Pd
_symmetry_space_group_name_H-M   'P 1'
_cell_length_a   5.69053121
_cell_length_b   5.69053121
_cell_length_c   5.69053121
_cell_angle_alpha   105.64912669
_cell_angle_beta   105.64912669
_cell_angle_gamma   117.41994962
_symmetry_Int_Tables_number   1
_chemical_formula_structural   Tl2Pd
_chemical_formula_sum   'Tl4 Pd2'
_cell_volume   139.77830908
_cell_formula_units_Z   2
loop_
 _symmetry_equiv_pos_site_id
 _symmetry_equiv_pos_as_xyz
  1  'x, y, z'
loop_
 _atom_site_type_symbol
 _atom_site_label
 _atom_site_symmetry_multiplicity
 _atom_site_fract_x
 _atom_site_fract_y
 _atom_site_fract_z
 _atom_site_occupancy
  Tl  Tl0  1  0.834540  0.334540  0.169080  1
  Tl  Tl1  1  0.334540  0.165460  0.500000  1
  Tl  Tl2  1  0.665460  0.834540  0.500000  1
  Tl  Tl3  1  0.165460  0.665460  0.830920  1
  Pd  Pd4  1  0.250000  0.250000  0.000000  1
  Pd  Pd5  1  0.750000  0.750000  0.000000  1
