# generated using pymatgen
data_InPt
_symmetry_space_group_name_H-M   'P 1'
_cell_length_a   7.06227437
_cell_length_b   7.06227437
_cell_length_c   7.74104991
_cell_angle_alpha   58.69434158
_cell_angle_beta   121.30565842
_cell_angle_gamma   143.00457870
_symmetry_Int_Tables_number   1
_chemical_formula_structural   InPt
_chemical_formula_sum   'In5 Pt5'
_cell_volume   194.35294083
_cell_formula_units_Z   5
loop_
 _symmetry_equiv_pos_site_id
 _symmetry_equiv_pos_as_xyz
  1  'x, y, z'
loop_
 _atom_site_type_symbol
 _atom_site_label
 _atom_site_symmetry_multiplicity
 _atom_site_fract_x
 _atom_site_fract_y
 _atom_site_fract_z
 _atom_site_occupancy
  In  In0  1  0.500000  0.500000  0.500000  1
  In  In1  1  0.148907  0.851093  0.845464  1
  In  In2  1  0.851093  0.148907  0.154536  1
  In  In3  1  0.372091  0.627909  0.756406  1
  In  In4  1  0.627909  0.372091  0.243594  1
  Pt  Pt5  1  0.000000  0.000000  0.000000  1
  Pt  Pt6  1  0.258914  0.741086  0.263425  1
  Pt  Pt7  1  0.741086  0.258914  0.736575  1
  Pt  Pt8  1  0.108874  0.891126  0.443852  1
  Pt  Pt9  1  0.891126  0.108874  0.556148  1
