# generated using pymatgen
data_KVCdO4
_symmetry_space_group_name_H-M   'P 1'
_cell_length_a   15.15648258
_cell_length_b   5.82004704
_cell_length_c   25.22592964
_cell_angle_alpha   90.00000000
_cell_angle_beta   126.62796401
_cell_angle_gamma   90.00000000
_symmetry_Int_Tables_number   1
_chemical_formula_structural   KVCdO4
_chemical_formula_sum   'K16 V16 Cd16 O64'
_cell_volume   1785.79424353
_cell_formula_units_Z   16
loop_
 _symmetry_equiv_pos_site_id
 _symmetry_equiv_pos_as_xyz
  1  'x, y, z'
loop_
 _atom_site_type_symbol
 _atom_site_label
 _atom_site_symmetry_multiplicity
 _atom_site_fract_x
 _atom_site_fract_y
 _atom_site_fract_z
 _atom_site_occupancy
  K  K0  1  0.112597  0.215591  0.863701  1
  K  K1  1  0.580310  0.217239  0.205813  1
  K  K2  1  0.369113  0.780955  0.616314  1
  K  K3  1  0.630887  0.280955  0.883686  1
  K  K4  1  0.419690  0.717239  0.294187  1
  K  K5  1  0.580310  0.282761  0.705813  1
  K  K6  1  0.887403  0.784409  0.136299  1
  K  K7  1  0.147494  0.214771  0.043676  1
  K  K8  1  0.852506  0.714771  0.456324  1
  K  K9  1  0.369113  0.719045  0.116314  1
  K  K10  1  0.630887  0.219045  0.383686  1
  K  K11  1  0.147494  0.285229  0.543676  1
  K  K12  1  0.887403  0.715591  0.636299  1
  K  K13  1  0.419690  0.782761  0.794187  1
  K  K14  1  0.852506  0.785229  0.956324  1
  K  K15  1  0.112597  0.284409  0.363701  1
  V  V16  1  0.577309  0.774387  0.462655  1
  V  V17  1  0.908487  0.224047  0.542118  1
  V  V18  1  0.091513  0.724047  0.957882  1
  V  V19  1  0.091513  0.775953  0.457882  1
  V  V20  1  0.327821  0.271452  0.715599  1
  V  V21  1  0.843203  0.257590  0.207693  1
  V  V22  1  0.327821  0.228548  0.215599  1
  V  V23  1  0.422691  0.225613  0.537345  1
  V  V24  1  0.156797  0.742410  0.792307  1
  V  V25  1  0.672179  0.771452  0.784401  1
  V  V26  1  0.672179  0.728548  0.284401  1
  V  V27  1  0.843203  0.242410  0.707693  1
  V  V28  1  0.577309  0.725613  0.962655  1
  V  V29  1  0.422691  0.274387  0.037345  1
  V  V30  1  0.908487  0.275953  0.042118  1
  V  V31  1  0.156797  0.757590  0.292307  1
  Cd  Cd32  1  0.368098  0.252738  0.877352  1
  Cd  Cd33  1  0.908461  0.766979  0.302954  1
  Cd  Cd34  1  0.631902  0.752738  0.622648  1
  Cd  Cd35  1  0.091539  0.266979  0.197046  1
  Cd  Cd36  1  0.345842  0.785155  0.953807  1
  Cd  Cd37  1  0.872165  0.248556  0.871058  1
  Cd  Cd38  1  0.908461  0.733021  0.802954  1
  Cd  Cd39  1  0.654158  0.285155  0.546193  1
  Cd  Cd40  1  0.127835  0.748556  0.628942  1
  Cd  Cd41  1  0.091539  0.233021  0.697046  1
  Cd  Cd42  1  0.345842  0.714845  0.453807  1
  Cd  Cd43  1  0.654158  0.214845  0.046193  1
  Cd  Cd44  1  0.127835  0.751444  0.128942  1
  Cd  Cd45  1  0.368098  0.247262  0.377352  1
  Cd  Cd46  1  0.631902  0.747262  0.122648  1
  Cd  Cd47  1  0.872165  0.251444  0.371058  1
  O  O48  1  0.875378  0.121684  0.781177  1
  O  O49  1  0.957460  0.243105  0.708233  1
  O  O50  1  0.607430  0.687692  0.199432  1
  O  O51  1  0.285043  0.965989  0.172453  1
  O  O52  1  0.875126  0.312835  0.963386  1
  O  O53  1  0.798645  0.972817  0.199979  1
  O  O54  1  0.416290  0.373935  0.208089  1
  O  O55  1  0.025756  0.479503  0.908108  1
  O  O56  1  0.583710  0.873935  0.291911  1
  O  O57  1  0.001146  0.047567  0.081348  1
  O  O58  1  0.358710  0.268944  0.572822  1
  O  O59  1  0.663170  0.821615  0.046074  1
  O  O60  1  0.001146  0.452433  0.581348  1
  O  O61  1  0.259618  0.924696  0.359286  1
  O  O62  1  0.201355  0.027183  0.800021  1
  O  O63  1  0.042540  0.756895  0.291767  1
  O  O64  1  0.543948  0.110648  0.080712  1
  O  O65  1  0.875126  0.187165  0.463386  1
  O  O66  1  0.998854  0.952433  0.918652  1
  O  O67  1  0.607430  0.812308  0.699432  1
  O  O68  1  0.358710  0.231056  0.072822  1
  O  O69  1  0.416290  0.126065  0.708089  1
  O  O70  1  0.042540  0.743105  0.791767  1
  O  O71  1  0.210482  0.409127  0.181319  1
  O  O72  1  0.789518  0.590873  0.818681  1
  O  O73  1  0.714957  0.034011  0.827547  1
  O  O74  1  0.583710  0.626065  0.791911  1
  O  O75  1  0.285043  0.534011  0.672453  1
  O  O76  1  0.336830  0.178385  0.953926  1
  O  O77  1  0.457956  0.928672  0.543977  1
  O  O78  1  0.641290  0.731056  0.427178  1
  O  O79  1  0.789518  0.909127  0.318681  1
  O  O80  1  0.663170  0.678385  0.546074  1
  O  O81  1  0.124874  0.687165  0.036614  1
  O  O82  1  0.456052  0.610648  0.419288  1
  O  O83  1  0.210597  0.717636  0.465998  1
  O  O84  1  0.974244  0.520497  0.091892  1
  O  O85  1  0.210597  0.782364  0.965998  1
  O  O86  1  0.998854  0.547567  0.418652  1
  O  O87  1  0.124622  0.621684  0.718823  1
  O  O88  1  0.124622  0.878316  0.218823  1
  O  O89  1  0.336830  0.321615  0.453926  1
  O  O90  1  0.456052  0.889352  0.919288  1
  O  O91  1  0.210482  0.090873  0.681319  1
  O  O92  1  0.641290  0.768944  0.927178  1
  O  O93  1  0.957460  0.256895  0.208233  1
  O  O94  1  0.740382  0.075304  0.640714  1
  O  O95  1  0.798645  0.527183  0.699979  1
  O  O96  1  0.714957  0.465989  0.327547  1
  O  O97  1  0.392570  0.187692  0.300568  1
  O  O98  1  0.789403  0.282364  0.534002  1
  O  O99  1  0.201355  0.472817  0.300021  1
  O  O100  1  0.875378  0.378316  0.281177  1
  O  O101  1  0.974244  0.979503  0.591892  1
  O  O102  1  0.542044  0.428672  0.956023  1
  O  O103  1  0.025756  0.020497  0.408108  1
  O  O104  1  0.740382  0.424696  0.140714  1
  O  O105  1  0.124874  0.812835  0.536614  1
  O  O106  1  0.392570  0.312308  0.800568  1
  O  O107  1  0.543948  0.389352  0.580712  1
  O  O108  1  0.789403  0.217636  0.034002  1
  O  O109  1  0.542044  0.071328  0.456023  1
  O  O110  1  0.259618  0.575304  0.859286  1
  O  O111  1  0.457956  0.571328  0.043977  1
