# generated using pymatgen
data_NaZr2AgF11
_symmetry_space_group_name_H-M   'P 1'
_cell_length_a   5.82837948
_cell_length_b   5.97612765
_cell_length_c   7.97724176
_cell_angle_alpha   111.69199601
_cell_angle_beta   96.26142595
_cell_angle_gamma   106.21974564
_symmetry_Int_Tables_number   1
_chemical_formula_structural   NaZr2AgF11
_chemical_formula_sum   'Na1 Zr2 Ag1 F11'
_cell_volume   240.78260315
_cell_formula_units_Z   1
loop_
 _symmetry_equiv_pos_site_id
 _symmetry_equiv_pos_as_xyz
  1  'x, y, z'
loop_
 _atom_site_type_symbol
 _atom_site_label
 _atom_site_symmetry_multiplicity
 _atom_site_fract_x
 _atom_site_fract_y
 _atom_site_fract_z
 _atom_site_occupancy
  Na  Na0  1  0.000000  0.000000  0.000000  1
  Zr  Zr1  1  0.504700  0.506873  0.230098  1
  Zr  Zr2  1  0.495300  0.493127  0.769902  1
  Ag  Ag3  1  0.000000  0.000000  0.500000  1
  F  F4  1  0.262023  0.731924  0.110179  1
  F  F5  1  0.336079  0.333077  0.011453  1
  F  F6  1  0.663921  0.666923  0.988547  1
  F  F7  1  0.779441  0.795566  0.688866  1
  F  F8  1  0.796118  0.771994  0.282641  1
  F  F9  1  0.203882  0.228006  0.717359  1
  F  F10  1  0.737977  0.268076  0.889821  1
  F  F11  1  0.220559  0.204434  0.311134  1
  F  F12  1  0.732230  0.253663  0.346615  1
  F  F13  1  0.267770  0.746337  0.653385  1
  F  F14  1  0.500000  0.500000  0.500000  1
