# generated using pymatgen
data_Cu3Sn
_symmetry_space_group_name_H-M   'P 1'
_cell_length_a   4.35710166
_cell_length_b   4.86130458
_cell_length_c   5.45212500
_cell_angle_alpha   90.00000000
_cell_angle_beta   90.00000000
_cell_angle_gamma   90.00000000
_symmetry_Int_Tables_number   1
_chemical_formula_structural   Cu3Sn
_chemical_formula_sum   'Cu6 Sn2'
_cell_volume   115.48254054
_cell_formula_units_Z   2
loop_
 _symmetry_equiv_pos_site_id
 _symmetry_equiv_pos_as_xyz
  1  'x, y, z'
loop_
 _atom_site_type_symbol
 _atom_site_label
 _atom_site_symmetry_multiplicity
 _atom_site_fract_x
 _atom_site_fract_y
 _atom_site_fract_z
 _atom_site_occupancy
  Cu  Cu0  1  0.500000  0.305539  0.000000  1
  Cu  Cu1  1  0.000000  0.154564  0.751581  1
  Cu  Cu2  1  0.500000  0.845436  0.748419  1
  Cu  Cu3  1  0.000000  0.154564  0.248419  1
  Cu  Cu4  1  0.500000  0.845436  0.251581  1
  Cu  Cu5  1  0.000000  0.694461  0.500000  1
  Sn  Sn6  1  0.500000  0.342337  0.500000  1
  Sn  Sn7  1  0.000000  0.657663  0.000000  1
