# generated using pymatgen
data_KGeAuS3
_symmetry_space_group_name_H-M   'P 1'
_cell_length_a   10.79969201
_cell_length_b   11.49870926
_cell_length_c   12.15218917
_cell_angle_alpha   90.00000000
_cell_angle_beta   119.74509876
_cell_angle_gamma   90.00000000
_symmetry_Int_Tables_number   1
_chemical_formula_structural   KGeAuS3
_chemical_formula_sum   'K8 Ge8 Au8 S24'
_cell_volume   1310.25372914
_cell_formula_units_Z   8
loop_
 _symmetry_equiv_pos_site_id
 _symmetry_equiv_pos_as_xyz
  1  'x, y, z'
loop_
 _atom_site_type_symbol
 _atom_site_label
 _atom_site_symmetry_multiplicity
 _atom_site_fract_x
 _atom_site_fract_y
 _atom_site_fract_z
 _atom_site_occupancy
  K  K0  1  0.382372  0.733820  0.710580  1
  K  K1  1  0.910276  0.766158  0.876139  1
  K  K2  1  0.617628  0.233820  0.789420  1
  K  K3  1  0.089724  0.233842  0.123861  1
  K  K4  1  0.089724  0.266158  0.623861  1
  K  K5  1  0.910276  0.733842  0.376139  1
  K  K6  1  0.617628  0.266180  0.289420  1
  K  K7  1  0.382372  0.766180  0.210580  1
  Ge  Ge8  1  0.665684  0.001385  0.082412  1
  Ge  Ge9  1  0.664732  0.503688  0.057468  1
  Ge  Ge10  1  0.335268  0.003688  0.442532  1
  Ge  Ge11  1  0.665684  0.498615  0.582412  1
  Ge  Ge12  1  0.334316  0.501385  0.417588  1
  Ge  Ge13  1  0.664732  0.996312  0.557468  1
  Ge  Ge14  1  0.335268  0.496312  0.942532  1
  Ge  Ge15  1  0.334316  0.998615  0.917588  1
  Au  Au16  1  0.987240  0.088829  0.357038  1
  Au  Au17  1  0.015156  0.918748  0.180406  1
  Au  Au18  1  0.984844  0.418748  0.319594  1
  Au  Au19  1  0.012760  0.911171  0.642962  1
  Au  Au20  1  0.987240  0.411171  0.857038  1
  Au  Au21  1  0.984844  0.081252  0.819594  1
  Au  Au22  1  0.012760  0.588829  0.142962  1
  Au  Au23  1  0.015156  0.581252  0.680406  1
  S  S24  1  0.816011  0.998975  0.005099  1
  S  S25  1  0.183989  0.498975  0.494901  1
  S  S26  1  0.500458  0.854410  0.011311  1
  S  S27  1  0.791216  0.340858  0.138416  1
  S  S28  1  0.234720  0.993321  0.707070  1
  S  S29  1  0.519032  0.528294  0.143610  1
  S  S30  1  0.500458  0.645590  0.511311  1
  S  S31  1  0.480968  0.028294  0.356390  1
  S  S32  1  0.208784  0.659142  0.861584  1
  S  S33  1  0.213510  0.165775  0.425432  1
  S  S34  1  0.208784  0.840858  0.361584  1
  S  S35  1  0.816011  0.501025  0.505099  1
  S  S36  1  0.499542  0.354410  0.488689  1
  S  S37  1  0.765280  0.006679  0.292930  1
  S  S38  1  0.480968  0.471706  0.856390  1
  S  S39  1  0.765280  0.493321  0.792930  1
  S  S40  1  0.791216  0.159142  0.638416  1
  S  S41  1  0.519032  0.971706  0.643610  1
  S  S42  1  0.499542  0.145590  0.988689  1
  S  S43  1  0.213510  0.334225  0.925432  1
  S  S44  1  0.234720  0.506679  0.207070  1
  S  S45  1  0.183989  0.001025  0.994901  1
  S  S46  1  0.786490  0.665775  0.074568  1
  S  S47  1  0.786490  0.834225  0.574568  1
