# generated using pymatgen
data_Nb2P4O15
_symmetry_space_group_name_H-M   'P 1'
_cell_length_a   6.80660138
_cell_length_b   8.53586231
_cell_length_c   11.22320478
_cell_angle_alpha   74.29747325
_cell_angle_beta   89.70103754
_cell_angle_gamma   89.89119142
_symmetry_Int_Tables_number   1
_chemical_formula_structural   Nb2P4O15
_chemical_formula_sum   'Nb4 P8 O30'
_cell_volume   627.72655717
_cell_formula_units_Z   2
loop_
 _symmetry_equiv_pos_site_id
 _symmetry_equiv_pos_as_xyz
  1  'x, y, z'
loop_
 _atom_site_type_symbol
 _atom_site_label
 _atom_site_symmetry_multiplicity
 _atom_site_fract_x
 _atom_site_fract_y
 _atom_site_fract_z
 _atom_site_occupancy
  Nb  Nb0  1  0.738025  0.703816  0.855272  1
  Nb  Nb1  1  0.261975  0.296184  0.144728  1
  Nb  Nb2  1  0.233703  0.293591  0.647743  1
  Nb  Nb3  1  0.766297  0.706409  0.352257  1
  P  P4  1  0.113066  0.913460  0.622879  1
  P  P5  1  0.438806  0.683332  0.602292  1
  P  P6  1  0.062292  0.684682  0.098503  1
  P  P7  1  0.561194  0.316668  0.397708  1
  P  P8  1  0.613602  0.084667  0.876065  1
  P  P9  1  0.886934  0.086540  0.377121  1
  P  P10  1  0.937708  0.315318  0.901497  1
  P  P11  1  0.386398  0.915333  0.123935  1
  O  O12  1  0.322494  0.525994  0.642112  1
  O  O13  1  0.556573  0.661779  0.967965  1
  O  O14  1  0.034536  0.335010  0.549027  1
  O  O15  1  0.443427  0.338221  0.032035  1
  O  O16  1  0.509266  0.794876  0.212745  1
  O  O17  1  0.445804  0.299801  0.516751  1
  O  O18  1  0.032686  0.301102  0.026448  1
  O  O19  1  0.565125  0.710424  0.706652  1
  O  O20  1  0.916915  0.714845  0.193674  1
  O  O21  1  0.677506  0.474006  0.357888  1
  O  O22  1  0.988201  0.790950  0.709247  1
  O  O23  1  0.490734  0.205124  0.787255  1
  O  O24  1  0.967314  0.698898  0.973552  1
  O  O25  1  0.177038  0.527673  0.146389  1
  O  O26  1  0.822962  0.472327  0.853611  1
  O  O27  1  0.788574  0.164932  0.932357  1
  O  O28  1  0.211426  0.835068  0.067643  1
  O  O29  1  0.000000  0.000000  0.500000  1
  O  O30  1  0.011799  0.209050  0.290753  1
  O  O31  1  0.965464  0.664990  0.450973  1
  O  O32  1  0.707740  0.952278  0.826431  1
  O  O33  1  0.289406  0.833993  0.565237  1
  O  O34  1  0.554196  0.700199  0.483249  1
  O  O35  1  0.434875  0.289576  0.293348  1
  O  O36  1  0.083085  0.285155  0.806326  1
  O  O37  1  0.292260  0.047722  0.173569  1
  O  O38  1  0.205247  0.044429  0.674239  1
  O  O39  1  0.794753  0.955571  0.325761  1
  O  O40  1  0.710594  0.166007  0.434763  1
  O  O41  1  0.500000  0.000000  0.000000  1
