# generated using pymatgen
data_Rb2AgAu3I8
_symmetry_space_group_name_H-M   'P 1'
_cell_length_a   7.87483383
_cell_length_b   7.87483383
_cell_length_c   21.96264436
_cell_angle_alpha   79.93305897
_cell_angle_beta   100.06694103
_cell_angle_gamma   121.72728653
_symmetry_Int_Tables_number   1
_chemical_formula_structural   Rb2AgAu3I8
_chemical_formula_sum   'Rb4 Ag2 Au6 I16'
_cell_volume   1135.00404023
_cell_formula_units_Z   2
loop_
 _symmetry_equiv_pos_site_id
 _symmetry_equiv_pos_as_xyz
  1  'x, y, z'
loop_
 _atom_site_type_symbol
 _atom_site_label
 _atom_site_symmetry_multiplicity
 _atom_site_fract_x
 _atom_site_fract_y
 _atom_site_fract_z
 _atom_site_occupancy
  Rb  Rb0  1  0.326666  0.734379  0.404244  1
  Rb  Rb1  1  0.265621  0.673334  0.904244  1
  Rb  Rb2  1  0.673334  0.265621  0.595756  1
  Rb  Rb3  1  0.734379  0.326666  0.095756  1
  Ag  Ag4  1  0.982866  0.982866  0.750000  1
  Ag  Ag5  1  0.017134  0.017134  0.250000  1
  Au  Au6  1  0.402028  0.595800  0.199165  1
  Au  Au7  1  0.597972  0.404200  0.800835  1
  Au  Au8  1  0.000000  0.000000  0.000000  1
  Au  Au9  1  0.595800  0.402028  0.300835  1
  Au  Au10  1  0.404200  0.597972  0.699165  1
  Au  Au11  1  0.000000  0.000000  0.500000  1
  I  I12  1  0.594683  0.934911  0.750508  1
  I  I13  1  0.157646  0.778242  0.560343  1
  I  I14  1  0.065089  0.405317  0.250508  1
  I  I15  1  0.190778  0.264539  0.646410  1
  I  I16  1  0.778242  0.157646  0.939657  1
  I  I17  1  0.809222  0.735461  0.353590  1
  I  I18  1  0.327288  0.227926  0.437153  1
  I  I19  1  0.221758  0.842354  0.060343  1
  I  I20  1  0.934911  0.594683  0.749492  1
  I  I21  1  0.772074  0.672712  0.937153  1
  I  I22  1  0.842354  0.221758  0.439657  1
  I  I23  1  0.672712  0.772074  0.562847  1
  I  I24  1  0.264539  0.190778  0.853590  1
  I  I25  1  0.227926  0.327288  0.062847  1
  I  I26  1  0.405317  0.065089  0.249492  1
  I  I27  1  0.735461  0.809222  0.146410  1
