# generated using pymatgen
data_Nd4Te3N2
_symmetry_space_group_name_H-M   'P 1'
_cell_length_a   7.43035174
_cell_length_b   11.43199337
_cell_length_c   11.78029537
_cell_angle_alpha   90.00000000
_cell_angle_beta   90.00000000
_cell_angle_gamma   90.00000000
_symmetry_Int_Tables_number   1
_chemical_formula_structural   Nd4Te3N2
_chemical_formula_sum   'Nd16 Te12 N8'
_cell_volume   1000.66225077
_cell_formula_units_Z   4
loop_
 _symmetry_equiv_pos_site_id
 _symmetry_equiv_pos_as_xyz
  1  'x, y, z'
loop_
 _atom_site_type_symbol
 _atom_site_label
 _atom_site_symmetry_multiplicity
 _atom_site_fract_x
 _atom_site_fract_y
 _atom_site_fract_z
 _atom_site_occupancy
  Nd  Nd0  1  0.145173  0.390373  0.950611  1
  Nd  Nd1  1  0.409526  0.158783  0.250000  1
  Nd  Nd2  1  0.354827  0.890373  0.049389  1
  Nd  Nd3  1  0.730514  0.468479  0.750000  1
  Nd  Nd4  1  0.854827  0.609627  0.450611  1
  Nd  Nd5  1  0.769486  0.968479  0.250000  1
  Nd  Nd6  1  0.269486  0.531521  0.250000  1
  Nd  Nd7  1  0.145173  0.390373  0.549389  1
  Nd  Nd8  1  0.354827  0.890373  0.450611  1
  Nd  Nd9  1  0.090474  0.658783  0.750000  1
  Nd  Nd10  1  0.909526  0.341217  0.250000  1
  Nd  Nd11  1  0.230514  0.031521  0.750000  1
  Nd  Nd12  1  0.645173  0.109627  0.549389  1
  Nd  Nd13  1  0.590474  0.841217  0.750000  1
  Nd  Nd14  1  0.854827  0.609627  0.049389  1
  Nd  Nd15  1  0.645173  0.109627  0.950611  1
  Te  Te16  1  0.065500  0.135671  0.079228  1
  Te  Te17  1  0.082937  0.774597  0.250000  1
  Te  Te18  1  0.565500  0.364329  0.079228  1
  Te  Te19  1  0.582937  0.725403  0.250000  1
  Te  Te20  1  0.934500  0.864329  0.920772  1
  Te  Te21  1  0.434500  0.635671  0.920772  1
  Te  Te22  1  0.917063  0.225403  0.750000  1
  Te  Te23  1  0.934500  0.864329  0.579228  1
  Te  Te24  1  0.065500  0.135671  0.420772  1
  Te  Te25  1  0.434500  0.635671  0.579228  1
  Te  Te26  1  0.565500  0.364329  0.420772  1
  Te  Te27  1  0.417063  0.274597  0.750000  1
  N  N28  1  0.447145  0.967621  0.621920  1
  N  N29  1  0.552855  0.032379  0.121920  1
  N  N30  1  0.947145  0.532379  0.621920  1
  N  N31  1  0.052855  0.467621  0.378080  1
  N  N32  1  0.947145  0.532379  0.878080  1
  N  N33  1  0.052855  0.467621  0.121920  1
  N  N34  1  0.552855  0.032379  0.378080  1
  N  N35  1  0.447145  0.967621  0.878080  1
