# generated using pymatgen
data_K3Sc(MoO4)3
_symmetry_space_group_name_H-M   'P 1'
_cell_length_a   9.58049587
_cell_length_b   11.13339373
_cell_length_c   13.93601392
_cell_angle_alpha   90.00000000
_cell_angle_beta   90.00000000
_cell_angle_gamma   90.00000000
_symmetry_Int_Tables_number   1
_chemical_formula_structural   K3Sc(MoO4)3
_chemical_formula_sum   'K12 Sc4 Mo12 O48'
_cell_volume   1486.46308216
_cell_formula_units_Z   4
loop_
 _symmetry_equiv_pos_site_id
 _symmetry_equiv_pos_as_xyz
  1  'x, y, z'
loop_
 _atom_site_type_symbol
 _atom_site_label
 _atom_site_symmetry_multiplicity
 _atom_site_fract_x
 _atom_site_fract_y
 _atom_site_fract_z
 _atom_site_occupancy
  K  K0  1  0.477840  0.514502  0.250000  1
  K  K1  1  0.541459  0.250000  0.000000  1
  K  K2  1  0.180765  0.272866  0.750000  1
  K  K3  1  0.458541  0.750000  0.500000  1
  K  K4  1  0.477840  0.985498  0.750000  1
  K  K5  1  0.458541  0.750000  0.000000  1
  K  K6  1  0.819235  0.772866  0.750000  1
  K  K7  1  0.180765  0.227134  0.250000  1
  K  K8  1  0.522160  0.485498  0.750000  1
  K  K9  1  0.541459  0.250000  0.500000  1
  K  K10  1  0.819235  0.727134  0.250000  1
  K  K11  1  0.522160  0.014502  0.250000  1
  Sc  Sc12  1  0.067003  0.750000  0.500000  1
  Sc  Sc13  1  0.067003  0.750000  0.000000  1
  Sc  Sc14  1  0.932997  0.250000  0.500000  1
  Sc  Sc15  1  0.932997  0.250000  0.000000  1
  Mo  Mo16  1  0.181712  0.830451  0.250000  1
  Mo  Mo17  1  0.750506  0.547724  0.994052  1
  Mo  Mo18  1  0.249494  0.047724  0.994052  1
  Mo  Mo19  1  0.818288  0.330451  0.250000  1
  Mo  Mo20  1  0.750506  0.952276  0.494052  1
  Mo  Mo21  1  0.249494  0.452276  0.005948  1
  Mo  Mo22  1  0.181712  0.669549  0.750000  1
  Mo  Mo23  1  0.750506  0.952276  0.005948  1
  Mo  Mo24  1  0.249494  0.452276  0.494052  1
  Mo  Mo25  1  0.249494  0.047724  0.505948  1
  Mo  Mo26  1  0.750506  0.547724  0.505948  1
  Mo  Mo27  1  0.818288  0.169549  0.750000  1
  O  O28  1  0.691518  0.891300  0.383312  1
  O  O29  1  0.616318  0.576222  0.079050  1
  O  O30  1  0.616318  0.576222  0.420950  1
  O  O31  1  0.652521  0.241364  0.750000  1
  O  O32  1  0.308482  0.391300  0.116688  1
  O  O33  1  0.075780  0.711432  0.646500  1
  O  O34  1  0.210266  0.513050  0.750000  1
  O  O35  1  0.907972  0.875113  0.968902  1
  O  O36  1  0.223251  0.614572  0.017356  1
  O  O37  1  0.223251  0.885428  0.982644  1
  O  O38  1  0.776749  0.385428  0.517356  1
  O  O39  1  0.907972  0.624887  0.031098  1
  O  O40  1  0.924220  0.211432  0.646500  1
  O  O41  1  0.924220  0.211432  0.853500  1
  O  O42  1  0.383682  0.423778  0.579050  1
  O  O43  1  0.347479  0.741364  0.750000  1
  O  O44  1  0.347479  0.758636  0.250000  1
  O  O45  1  0.652521  0.258636  0.250000  1
  O  O46  1  0.092028  0.124887  0.031098  1
  O  O47  1  0.210266  0.986950  0.250000  1
  O  O48  1  0.691518  0.891300  0.116688  1
  O  O49  1  0.308482  0.108700  0.616688  1
  O  O50  1  0.092028  0.375113  0.968902  1
  O  O51  1  0.092028  0.375113  0.531098  1
  O  O52  1  0.776749  0.114572  0.017356  1
  O  O53  1  0.789734  0.486950  0.250000  1
  O  O54  1  0.776749  0.114572  0.482644  1
  O  O55  1  0.907972  0.624887  0.468902  1
  O  O56  1  0.616318  0.923778  0.920950  1
  O  O57  1  0.924220  0.288568  0.146500  1
  O  O58  1  0.223251  0.614572  0.482644  1
  O  O59  1  0.383682  0.423778  0.920950  1
  O  O60  1  0.308482  0.391300  0.383312  1
  O  O61  1  0.092028  0.124887  0.468902  1
  O  O62  1  0.776749  0.385428  0.982644  1
  O  O63  1  0.789734  0.013050  0.750000  1
  O  O64  1  0.223251  0.885428  0.517356  1
  O  O65  1  0.308482  0.108700  0.883312  1
  O  O66  1  0.691518  0.608700  0.616688  1
  O  O67  1  0.616318  0.923778  0.579050  1
  O  O68  1  0.907972  0.875113  0.531098  1
  O  O69  1  0.075780  0.788568  0.353500  1
  O  O70  1  0.075780  0.711432  0.853500  1
  O  O71  1  0.383682  0.076222  0.079050  1
  O  O72  1  0.075780  0.788568  0.146500  1
  O  O73  1  0.383682  0.076222  0.420950  1
  O  O74  1  0.691518  0.608700  0.883312  1
  O  O75  1  0.924220  0.288568  0.353500  1
