# generated using pymatgen
data_Cs7Np3(Cl2O)6
_symmetry_space_group_name_H-M   'P 1'
_cell_length_a   13.31688571
_cell_length_b   13.31688571
_cell_length_c   13.31688571
_cell_angle_alpha   109.47122063
_cell_angle_beta   109.47122063
_cell_angle_gamma   109.47122063
_symmetry_Int_Tables_number   1
_chemical_formula_structural   Cs7Np3(Cl2O)6
_chemical_formula_sum   'Cs14 Np6 Cl24 O12'
_cell_volume   1817.96754946
_cell_formula_units_Z   2
loop_
 _symmetry_equiv_pos_site_id
 _symmetry_equiv_pos_as_xyz
  1  'x, y, z'
loop_
 _atom_site_type_symbol
 _atom_site_label
 _atom_site_symmetry_multiplicity
 _atom_site_fract_x
 _atom_site_fract_y
 _atom_site_fract_z
 _atom_site_occupancy
  Cs  Cs0  1  0.704072  0.500000  0.000000  1
  Cs  Cs1  1  0.500000  0.000000  0.704072  1
  Cs  Cs2  1  0.000000  0.704072  0.500000  1
  Cs  Cs3  1  0.795928  0.795928  0.795928  1
  Cs  Cs4  1  0.500000  0.000000  0.204072  1
  Cs  Cs5  1  0.204072  0.500000  0.000000  1
  Cs  Cs6  1  0.000000  0.204072  0.500000  1
  Cs  Cs7  1  0.295928  0.295928  0.295928  1
  Cs  Cs8  1  0.875000  0.250000  0.125000  1
  Cs  Cs9  1  0.625000  0.750000  0.375000  1
  Cs  Cs10  1  0.250000  0.125000  0.875000  1
  Cs  Cs11  1  0.750000  0.375000  0.625000  1
  Cs  Cs12  1  0.125000  0.875000  0.250000  1
  Cs  Cs13  1  0.375000  0.625000  0.750000  1
  Np  Np14  1  0.125000  0.750000  0.875000  1
  Np  Np15  1  0.375000  0.250000  0.625000  1
  Np  Np16  1  0.750000  0.875000  0.125000  1
  Np  Np17  1  0.250000  0.625000  0.375000  1
  Np  Np18  1  0.875000  0.125000  0.750000  1
  Np  Np19  1  0.625000  0.375000  0.250000  1
  Cl  Cl20  1  0.189337  0.974921  0.045856  1
  Cl  Cl21  1  0.070935  0.525079  0.714416  1
  Cl  Cl22  1  0.429065  0.143481  0.454144  1
  Cl  Cl23  1  0.310663  0.356519  0.785584  1
  Cl  Cl24  1  0.545856  0.474921  0.689337  1
  Cl  Cl25  1  0.214416  0.025079  0.570935  1
  Cl  Cl26  1  0.954144  0.643481  0.929065  1
  Cl  Cl27  1  0.285584  0.856519  0.810663  1
  Cl  Cl28  1  0.974921  0.045856  0.189337  1
  Cl  Cl29  1  0.525079  0.714416  0.070935  1
  Cl  Cl30  1  0.143481  0.454144  0.429065  1
  Cl  Cl31  1  0.356519  0.785584  0.310663  1
  Cl  Cl32  1  0.474921  0.689337  0.545856  1
  Cl  Cl33  1  0.025079  0.570935  0.214416  1
  Cl  Cl34  1  0.643481  0.929065  0.954144  1
  Cl  Cl35  1  0.856519  0.810663  0.285584  1
  Cl  Cl36  1  0.045856  0.189337  0.974921  1
  Cl  Cl37  1  0.714416  0.070935  0.525079  1
  Cl  Cl38  1  0.454144  0.429065  0.143481  1
  Cl  Cl39  1  0.785584  0.310663  0.356519  1
  Cl  Cl40  1  0.689337  0.545856  0.474921  1
  Cl  Cl41  1  0.570935  0.214416  0.025079  1
  Cl  Cl42  1  0.929065  0.954144  0.643481  1
  Cl  Cl43  1  0.810663  0.285584  0.856519  1
  O  O44  1  0.242832  0.750000  0.992832  1
  O  O45  1  0.257168  0.250000  0.507168  1
  O  O46  1  0.492832  0.250000  0.742832  1
  O  O47  1  0.007168  0.750000  0.757168  1
  O  O48  1  0.750000  0.992832  0.242832  1
  O  O49  1  0.250000  0.507168  0.257168  1
  O  O50  1  0.250000  0.742832  0.492832  1
  O  O51  1  0.750000  0.757168  0.007168  1
  O  O52  1  0.992832  0.242832  0.750000  1
  O  O53  1  0.507168  0.257168  0.250000  1
  O  O54  1  0.742832  0.492832  0.250000  1
  O  O55  1  0.757168  0.007168  0.750000  1
