# generated using pymatgen
data_AgTeO3
_symmetry_space_group_name_H-M   'P 1'
_cell_length_a   6.64362294
_cell_length_b   7.06203410
_cell_length_c   13.52209761
_cell_angle_alpha   90.00000000
_cell_angle_beta   90.78456268
_cell_angle_gamma   90.00000000
_symmetry_Int_Tables_number   1
_chemical_formula_structural   AgTeO3
_chemical_formula_sum   'Ag8 Te8 O24'
_cell_volume   634.36342604
_cell_formula_units_Z   8
loop_
 _symmetry_equiv_pos_site_id
 _symmetry_equiv_pos_as_xyz
  1  'x, y, z'
loop_
 _atom_site_type_symbol
 _atom_site_label
 _atom_site_symmetry_multiplicity
 _atom_site_fract_x
 _atom_site_fract_y
 _atom_site_fract_z
 _atom_site_occupancy
  Ag  Ag0  1  0.493748  0.183927  0.068690  1
  Ag  Ag1  1  0.493748  0.316073  0.568690  1
  Ag  Ag2  1  0.529451  0.446894  0.802240  1
  Ag  Ag3  1  0.506252  0.683927  0.431310  1
  Ag  Ag4  1  0.470549  0.553106  0.197760  1
  Ag  Ag5  1  0.529451  0.053106  0.302240  1
  Ag  Ag6  1  0.506252  0.816073  0.931310  1
  Ag  Ag7  1  0.470549  0.946894  0.697760  1
  Te  Te8  1  0.996391  0.133961  0.590494  1
  Te  Te9  1  0.860142  0.840053  0.140143  1
  Te  Te10  1  0.860142  0.659947  0.640143  1
  Te  Te11  1  0.996391  0.366039  0.090494  1
  Te  Te12  1  0.139858  0.340053  0.359857  1
  Te  Te13  1  0.003609  0.633961  0.909506  1
  Te  Te14  1  0.003609  0.866039  0.409506  1
  Te  Te15  1  0.139858  0.159947  0.859857  1
  O  O16  1  0.154098  0.911936  0.536973  1
  O  O17  1  0.828267  0.689589  0.482743  1
  O  O18  1  0.845902  0.088064  0.463027  1
  O  O19  1  0.577322  0.645624  0.640733  1
  O  O20  1  0.577322  0.854376  0.140733  1
  O  O21  1  0.187847  0.355332  0.199287  1
  O  O22  1  0.188173  0.670796  0.371475  1
  O  O23  1  0.811827  0.329204  0.628525  1
  O  O24  1  0.172949  0.053205  0.339716  1
  O  O25  1  0.812153  0.644668  0.800713  1
  O  O26  1  0.827051  0.553205  0.160284  1
  O  O27  1  0.172949  0.446795  0.839716  1
  O  O28  1  0.812153  0.855332  0.300713  1
  O  O29  1  0.422678  0.145624  0.859267  1
  O  O30  1  0.845902  0.411936  0.963027  1
  O  O31  1  0.171733  0.189589  0.017257  1
  O  O32  1  0.828267  0.810411  0.982743  1
  O  O33  1  0.188173  0.829204  0.871475  1
  O  O34  1  0.827051  0.946795  0.660284  1
  O  O35  1  0.187847  0.144668  0.699287  1
  O  O36  1  0.171733  0.310411  0.517257  1
  O  O37  1  0.422678  0.354376  0.359267  1
  O  O38  1  0.811827  0.170796  0.128525  1
  O  O39  1  0.154098  0.588064  0.036973  1
