# generated using pymatgen
data_RbSb2F7
_symmetry_space_group_name_H-M   'P 1'
_cell_length_a   9.07269578
_cell_length_b   6.60756430
_cell_length_c   13.03760213
_cell_angle_alpha   90.00000000
_cell_angle_beta   102.08300757
_cell_angle_gamma   90.00000000
_symmetry_Int_Tables_number   1
_chemical_formula_structural   RbSb2F7
_chemical_formula_sum   'Rb4 Sb8 F28'
_cell_volume   764.26795451
_cell_formula_units_Z   4
loop_
 _symmetry_equiv_pos_site_id
 _symmetry_equiv_pos_as_xyz
  1  'x, y, z'
loop_
 _atom_site_type_symbol
 _atom_site_label
 _atom_site_symmetry_multiplicity
 _atom_site_fract_x
 _atom_site_fract_y
 _atom_site_fract_z
 _atom_site_occupancy
  Rb  Rb0  1  0.075575  0.236080  0.888465  1
  Rb  Rb1  1  0.575575  0.263920  0.888465  1
  Rb  Rb2  1  0.424425  0.736080  0.111535  1
  Rb  Rb3  1  0.924425  0.763920  0.111535  1
  Sb  Sb4  1  0.282219  0.761192  0.785753  1
  Sb  Sb5  1  0.217781  0.261192  0.214247  1
  Sb  Sb6  1  0.717781  0.238808  0.214247  1
  Sb  Sb7  1  0.782219  0.738808  0.785753  1
  Sb  Sb8  1  0.835422  0.703637  0.415230  1
  Sb  Sb9  1  0.335422  0.796363  0.415230  1
  Sb  Sb10  1  0.164578  0.296363  0.584770  1
  Sb  Sb11  1  0.664578  0.203637  0.584770  1
  F  F12  1  0.835310  0.426483  0.496136  1
  F  F13  1  0.371190  0.382665  0.647793  1
  F  F14  1  0.084252  0.798869  0.826567  1
  F  F15  1  0.128810  0.882665  0.352207  1
  F  F16  1  0.180014  0.041003  0.104107  1
  F  F17  1  0.137896  0.446788  0.095529  1
  F  F18  1  0.680014  0.458997  0.104107  1
  F  F19  1  0.212516  0.079658  0.712372  1
  F  F20  1  0.862104  0.553212  0.904471  1
  F  F21  1  0.637896  0.053212  0.095529  1
  F  F22  1  0.628810  0.617335  0.352207  1
  F  F23  1  0.712516  0.420342  0.712372  1
  F  F24  1  0.819986  0.958997  0.895893  1
  F  F25  1  0.335310  0.073517  0.496136  1
  F  F26  1  0.897393  0.530183  0.304099  1
  F  F27  1  0.362104  0.946788  0.904471  1
  F  F28  1  0.319986  0.541003  0.895893  1
  F  F29  1  0.415748  0.298869  0.173433  1
  F  F30  1  0.602607  0.030183  0.695901  1
  F  F31  1  0.915748  0.201131  0.173433  1
  F  F32  1  0.102607  0.469817  0.695901  1
  F  F33  1  0.397393  0.969817  0.304099  1
  F  F34  1  0.871190  0.117335  0.647793  1
  F  F35  1  0.287484  0.579658  0.287628  1
  F  F36  1  0.164690  0.573517  0.503864  1
  F  F37  1  0.584252  0.701131  0.826567  1
  F  F38  1  0.664690  0.926483  0.503864  1
  F  F39  1  0.787484  0.920342  0.287628  1
