# generated using pymatgen
data_Na2Tl2B10O17
_symmetry_space_group_name_H-M   'P 1'
_cell_length_a   11.54127451
_cell_length_b   11.54127451
_cell_length_c   11.08833399
_cell_angle_alpha   75.71564993
_cell_angle_beta   104.28435007
_cell_angle_gamma   147.13717215
_symmetry_Int_Tables_number   1
_chemical_formula_structural   Na2Tl2B10O17
_chemical_formula_sum   'Na4 Tl4 B20 O34'
_cell_volume   774.48078312
_cell_formula_units_Z   2
loop_
 _symmetry_equiv_pos_site_id
 _symmetry_equiv_pos_as_xyz
  1  'x, y, z'
loop_
 _atom_site_type_symbol
 _atom_site_label
 _atom_site_symmetry_multiplicity
 _atom_site_fract_x
 _atom_site_fract_y
 _atom_site_fract_z
 _atom_site_occupancy
  Na  Na0  1  0.819648  0.285915  0.815257  1
  Na  Na1  1  0.714085  0.180352  0.315257  1
  Na  Na2  1  0.180352  0.714085  0.184743  1
  Na  Na3  1  0.285915  0.819648  0.684743  1
  Tl  Tl4  1  0.124926  0.261321  0.921730  1
  Tl  Tl5  1  0.875074  0.738679  0.078270  1
  Tl  Tl6  1  0.261321  0.124926  0.578270  1
  Tl  Tl7  1  0.738679  0.875074  0.421730  1
  B  B8  1  0.474030  0.187834  0.135382  1
  B  B9  1  0.982718  0.288064  0.159031  1
  B  B10  1  0.734588  0.624851  0.736017  1
  B  B11  1  0.066918  0.390734  0.571833  1
  B  B12  1  0.017282  0.711936  0.840969  1
  B  B13  1  0.265412  0.375149  0.263983  1
  B  B14  1  0.239317  0.601474  0.000946  1
  B  B15  1  0.525970  0.812166  0.864618  1
  B  B16  1  0.933082  0.609266  0.428167  1
  B  B17  1  0.760683  0.398526  0.999054  1
  B  B18  1  0.624851  0.734588  0.763983  1
  B  B19  1  0.609266  0.933082  0.071833  1
  B  B20  1  0.711936  0.017282  0.659031  1
  B  B21  1  0.288064  0.982718  0.340969  1
  B  B22  1  0.398526  0.760683  0.500946  1
  B  B23  1  0.390734  0.066918  0.928167  1
  B  B24  1  0.375149  0.265412  0.236017  1
  B  B25  1  0.187834  0.474030  0.364618  1
  B  B26  1  0.812166  0.525970  0.635382  1
  B  B27  1  0.601474  0.239317  0.499054  1
  O  O28  1  0.407484  0.407484  0.250000  1
  O  O29  1  0.469680  0.311560  0.141901  1
  O  O30  1  0.051419  0.409093  0.252924  1
  O  O31  1  0.035006  0.398936  0.030408  1
  O  O32  1  0.688440  0.530320  0.641901  1
  O  O33  1  0.911520  0.743425  0.818526  1
  O  O34  1  0.398936  0.035006  0.469592  1
  O  O35  1  0.311560  0.469680  0.358099  1
  O  O36  1  0.601064  0.964994  0.530408  1
  O  O37  1  0.964994  0.601064  0.969592  1
  O  O38  1  0.327101  0.051515  0.027170  1
  O  O39  1  0.353816  0.701708  0.385310  1
  O  O40  1  0.088480  0.256575  0.181474  1
  O  O41  1  0.948485  0.672899  0.527170  1
  O  O42  1  0.409093  0.051419  0.247076  1
  O  O43  1  0.253532  0.922308  0.839211  1
  O  O44  1  0.758511  0.388792  0.413198  1
  O  O45  1  0.256575  0.088480  0.318526  1
  O  O46  1  0.590907  0.948581  0.752924  1
  O  O47  1  0.077692  0.746468  0.339211  1
  O  O48  1  0.530320  0.688440  0.858099  1
  O  O49  1  0.672899  0.948485  0.972830  1
  O  O50  1  0.592516  0.592516  0.750000  1
  O  O51  1  0.611208  0.241489  0.913198  1
  O  O52  1  0.298292  0.646184  0.885310  1
  O  O53  1  0.051515  0.327101  0.472830  1
  O  O54  1  0.746468  0.077692  0.160789  1
  O  O55  1  0.701708  0.353816  0.114690  1
  O  O56  1  0.948581  0.590907  0.747076  1
  O  O57  1  0.922308  0.253532  0.660789  1
  O  O58  1  0.646184  0.298292  0.614690  1
  O  O59  1  0.743425  0.911520  0.681474  1
  O  O60  1  0.388792  0.758511  0.086802  1
  O  O61  1  0.241489  0.611208  0.586802  1
