# generated using pymatgen
data_SiO2
_symmetry_space_group_name_H-M   'P 1'
_cell_length_a   5.92734452
_cell_length_b   5.92734452
_cell_length_c   5.92734452
_cell_angle_alpha   89.14851980
_cell_angle_beta   89.14851980
_cell_angle_gamma   89.14851980
_symmetry_Int_Tables_number   1
_chemical_formula_structural   SiO2
_chemical_formula_sum   'Si6 O12'
_cell_volume   208.17953231
_cell_formula_units_Z   6
loop_
 _symmetry_equiv_pos_site_id
 _symmetry_equiv_pos_as_xyz
  1  'x, y, z'
loop_
 _atom_site_type_symbol
 _atom_site_label
 _atom_site_symmetry_multiplicity
 _atom_site_fract_x
 _atom_site_fract_y
 _atom_site_fract_z
 _atom_site_occupancy
  Si  Si0  1  0.625105  0.874895  0.250000  1
  Si  Si1  1  0.125105  0.750000  0.374895  1
  Si  Si2  1  0.750000  0.374895  0.125105  1
  Si  Si3  1  0.374895  0.125105  0.750000  1
  Si  Si4  1  0.250000  0.625105  0.874895  1
  Si  Si5  1  0.874895  0.250000  0.625105  1
  O  O6  1  0.871170  0.375941  0.376376  1
  O  O7  1  0.875941  0.371170  0.876376  1
  O  O8  1  0.628830  0.123624  0.124059  1
  O  O9  1  0.371170  0.876376  0.875941  1
  O  O10  1  0.376376  0.871170  0.375941  1
  O  O11  1  0.123624  0.124059  0.628830  1
  O  O12  1  0.128830  0.624059  0.623624  1
  O  O13  1  0.876376  0.875941  0.371170  1
  O  O14  1  0.624059  0.623624  0.128830  1
  O  O15  1  0.124059  0.628830  0.123624  1
  O  O16  1  0.375941  0.376376  0.871170  1
  O  O17  1  0.623624  0.128830  0.624059  1
