# generated using pymatgen
data_OsO2F3
_symmetry_space_group_name_H-M   'P 1'
_cell_length_a   5.76357924
_cell_length_b   10.32882949
_cell_length_c   12.90978012
_cell_angle_alpha   90.00000000
_cell_angle_beta   101.48218846
_cell_angle_gamma   90.00000000
_symmetry_Int_Tables_number   1
_chemical_formula_structural   OsO2F3
_chemical_formula_sum   'Os8 O16 F24'
_cell_volume   753.15155046
_cell_formula_units_Z   8
loop_
 _symmetry_equiv_pos_site_id
 _symmetry_equiv_pos_as_xyz
  1  'x, y, z'
loop_
 _atom_site_type_symbol
 _atom_site_label
 _atom_site_symmetry_multiplicity
 _atom_site_fract_x
 _atom_site_fract_y
 _atom_site_fract_z
 _atom_site_occupancy
  Os  Os0  1  0.970531  0.741639  0.503455  1
  Os  Os1  1  0.658997  0.008442  0.782569  1
  Os  Os2  1  0.029469  0.258361  0.496545  1
  Os  Os3  1  0.341003  0.991558  0.217431  1
  Os  Os4  1  0.658997  0.491558  0.282569  1
  Os  Os5  1  0.341003  0.508442  0.717431  1
  Os  Os6  1  0.029469  0.241639  0.996545  1
  Os  Os7  1  0.970531  0.758361  0.003455  1
  O  O8  1  0.530939  0.155315  0.747444  1
  O  O9  1  0.528548  0.440869  0.644868  1
  O  O10  1  0.741083  0.665889  0.539629  1
  O  O11  1  0.395214  0.422120  0.832741  1
  O  O12  1  0.604786  0.577880  0.167259  1
  O  O13  1  0.469061  0.844685  0.252556  1
  O  O14  1  0.471452  0.559131  0.355132  1
  O  O15  1  0.741083  0.834111  0.039629  1
  O  O16  1  0.528548  0.059131  0.144868  1
  O  O17  1  0.258917  0.334111  0.460371  1
  O  O18  1  0.469061  0.655315  0.752556  1
  O  O19  1  0.395214  0.077880  0.332741  1
  O  O20  1  0.604786  0.922120  0.667259  1
  O  O21  1  0.530939  0.344685  0.247444  1
  O  O22  1  0.258917  0.165889  0.960371  1
  O  O23  1  0.471452  0.940869  0.855132  1
  F  F24  1  0.092086  0.834595  0.628875  1
  F  F25  1  0.974335  0.443506  0.275481  1
  F  F26  1  0.183312  0.394408  0.055032  1
  F  F27  1  0.092086  0.665405  0.128875  1
  F  F28  1  0.025665  0.943506  0.224519  1
  F  F29  1  0.025665  0.556494  0.724519  1
  F  F30  1  0.183312  0.105592  0.555032  1
  F  F31  1  0.238546  0.789846  0.449213  1
  F  F32  1  0.907914  0.334595  0.871125  1
  F  F33  1  0.882614  0.843956  0.857447  1
  F  F34  1  0.974335  0.056494  0.775481  1
  F  F35  1  0.761454  0.210154  0.550787  1
  F  F36  1  0.816688  0.894408  0.444968  1
  F  F37  1  0.187424  0.589504  0.557791  1
  F  F38  1  0.816688  0.605592  0.944968  1
  F  F39  1  0.117386  0.343956  0.642553  1
  F  F40  1  0.761454  0.289846  0.050787  1
  F  F41  1  0.187424  0.910496  0.057791  1
  F  F42  1  0.882614  0.656044  0.357447  1
  F  F43  1  0.812576  0.410496  0.442209  1
  F  F44  1  0.238546  0.710154  0.949213  1
  F  F45  1  0.907914  0.165405  0.371125  1
  F  F46  1  0.812576  0.089504  0.942209  1
  F  F47  1  0.117386  0.156044  0.142553  1
