# generated using pymatgen
data_ZrB2O5
_symmetry_space_group_name_H-M   'P 1'
_cell_length_a   4.45287986
_cell_length_b   7.01021583
_cell_length_c   9.07172811
_cell_angle_alpha   90.00000000
_cell_angle_beta   90.94951077
_cell_angle_gamma   90.00000000
_symmetry_Int_Tables_number   1
_chemical_formula_structural   ZrB2O5
_chemical_formula_sum   'Zr4 B8 O20'
_cell_volume   283.14099490
_cell_formula_units_Z   4
loop_
 _symmetry_equiv_pos_site_id
 _symmetry_equiv_pos_as_xyz
  1  'x, y, z'
loop_
 _atom_site_type_symbol
 _atom_site_label
 _atom_site_symmetry_multiplicity
 _atom_site_fract_x
 _atom_site_fract_y
 _atom_site_fract_z
 _atom_site_occupancy
  Zr  Zr0  1  0.001330  0.112819  0.671046  1
  Zr  Zr1  1  0.998670  0.612819  0.828954  1
  Zr  Zr2  1  0.998670  0.887181  0.328954  1
  Zr  Zr3  1  0.001330  0.387181  0.171046  1
  B  B4  1  0.465299  0.412996  0.665912  1
  B  B5  1  0.472684  0.730314  0.077015  1
  B  B6  1  0.534701  0.587004  0.334088  1
  B  B7  1  0.527316  0.269686  0.922985  1
  B  B8  1  0.465299  0.087004  0.165912  1
  B  B9  1  0.527316  0.230314  0.422985  1
  B  B10  1  0.534701  0.912996  0.834088  1
  B  B11  1  0.472684  0.769686  0.577015  1
  O  O12  1  0.214555  0.590166  0.320945  1
  O  O13  1  0.308273  0.344849  0.807198  1
  O  O14  1  0.331908  0.896115  0.149889  1
  O  O15  1  0.349712  0.279451  0.553574  1
  O  O16  1  0.650288  0.720549  0.446426  1
  O  O17  1  0.233015  0.598190  0.032701  1
  O  O18  1  0.349712  0.220549  0.053574  1
  O  O19  1  0.785445  0.090166  0.179055  1
  O  O20  1  0.233015  0.901810  0.532701  1
  O  O21  1  0.308273  0.155151  0.307198  1
  O  O22  1  0.214555  0.909834  0.820945  1
  O  O23  1  0.691727  0.844849  0.692802  1
  O  O24  1  0.650288  0.779451  0.946426  1
  O  O25  1  0.785445  0.409834  0.679055  1
  O  O26  1  0.331908  0.603885  0.649889  1
  O  O27  1  0.668092  0.103885  0.850111  1
  O  O28  1  0.766985  0.098190  0.467299  1
  O  O29  1  0.691727  0.655151  0.192802  1
  O  O30  1  0.668092  0.396115  0.350111  1
  O  O31  1  0.766985  0.401810  0.967299  1
