# generated using pymatgen
data_AsSOF9
_symmetry_space_group_name_H-M   'P 1'
_cell_length_a   7.45401534
_cell_length_b   8.70426688
_cell_length_c   11.17491820
_cell_angle_alpha   90.00000000
_cell_angle_beta   90.00000000
_cell_angle_gamma   90.00000000
_symmetry_Int_Tables_number   1
_chemical_formula_structural   AsSOF9
_chemical_formula_sum   'As4 S4 O4 F36'
_cell_volume   725.04812429
_cell_formula_units_Z   4
loop_
 _symmetry_equiv_pos_site_id
 _symmetry_equiv_pos_as_xyz
  1  'x, y, z'
loop_
 _atom_site_type_symbol
 _atom_site_label
 _atom_site_symmetry_multiplicity
 _atom_site_fract_x
 _atom_site_fract_y
 _atom_site_fract_z
 _atom_site_occupancy
  As  As0  1  0.750000  0.707548  0.486874  1
  As  As1  1  0.250000  0.207548  0.013126  1
  As  As2  1  0.250000  0.292452  0.513126  1
  As  As3  1  0.750000  0.792452  0.986874  1
  S  S4  1  0.250000  0.833978  0.304095  1
  S  S5  1  0.750000  0.333978  0.195905  1
  S  S6  1  0.750000  0.166022  0.695905  1
  S  S7  1  0.250000  0.666022  0.804095  1
  O  O8  1  0.250000  0.704668  0.231218  1
  O  O9  1  0.250000  0.795332  0.731218  1
  O  O10  1  0.750000  0.295332  0.768782  1
  O  O11  1  0.750000  0.204668  0.268782  1
  F  F12  1  0.750000  0.506204  0.504322  1
  F  F13  1  0.081117  0.271227  0.403296  1
  F  F14  1  0.750000  0.308841  0.063013  1
  F  F15  1  0.095497  0.555971  0.789289  1
  F  F16  1  0.918883  0.771227  0.096704  1
  F  F17  1  0.250000  0.089712  0.535532  1
  F  F18  1  0.904503  0.444029  0.210711  1
  F  F19  1  0.417888  0.310278  0.626374  1
  F  F20  1  0.582112  0.810278  0.873626  1
  F  F21  1  0.750000  0.910288  0.464468  1
  F  F22  1  0.917888  0.810278  0.873626  1
  F  F23  1  0.595497  0.444029  0.210711  1
  F  F24  1  0.250000  0.493796  0.495678  1
  F  F25  1  0.404503  0.555971  0.789289  1
  F  F26  1  0.250000  0.006204  0.995678  1
  F  F27  1  0.581117  0.771227  0.096704  1
  F  F28  1  0.082112  0.310278  0.626374  1
  F  F29  1  0.081117  0.228773  0.903296  1
  F  F30  1  0.750000  0.993796  0.004322  1
  F  F31  1  0.417888  0.189722  0.126374  1
  F  F32  1  0.418883  0.228773  0.903296  1
  F  F33  1  0.418883  0.271227  0.403296  1
  F  F34  1  0.750000  0.589712  0.964468  1
  F  F35  1  0.250000  0.808841  0.436987  1
  F  F36  1  0.595497  0.055971  0.710711  1
  F  F37  1  0.082112  0.189722  0.126374  1
  F  F38  1  0.750000  0.191159  0.563013  1
  F  F39  1  0.404503  0.944029  0.289289  1
  F  F40  1  0.918883  0.728773  0.596704  1
  F  F41  1  0.917888  0.689722  0.373626  1
  F  F42  1  0.250000  0.691159  0.936987  1
  F  F43  1  0.095497  0.944029  0.289289  1
  F  F44  1  0.250000  0.410288  0.035532  1
  F  F45  1  0.582112  0.689722  0.373626  1
  F  F46  1  0.581117  0.728773  0.596704  1
  F  F47  1  0.904503  0.055971  0.710711  1
