# generated using pymatgen
data_BaLi2(MgSi)2
_symmetry_space_group_name_H-M   'P 1'
_cell_length_a   9.11344364
_cell_length_b   9.11344364
_cell_length_c   9.11344364
_cell_angle_alpha   29.11075770
_cell_angle_beta   29.11075770
_cell_angle_gamma   29.11075770
_symmetry_Int_Tables_number   1
_chemical_formula_structural   BaLi2(MgSi)2
_chemical_formula_sum   'Ba1 Li2 Mg2 Si2'
_cell_volume   158.48001513
_cell_formula_units_Z   1
loop_
 _symmetry_equiv_pos_site_id
 _symmetry_equiv_pos_as_xyz
  1  'x, y, z'
loop_
 _atom_site_type_symbol
 _atom_site_label
 _atom_site_symmetry_multiplicity
 _atom_site_fract_x
 _atom_site_fract_y
 _atom_site_fract_z
 _atom_site_occupancy
  Ba  Ba0  1  0.000000  0.000000  0.000000  1
  Li  Li1  1  0.570444  0.570444  0.570444  1
  Li  Li2  1  0.429556  0.429556  0.429556  1
  Mg  Mg3  1  0.864322  0.864322  0.864322  1
  Mg  Mg4  1  0.135678  0.135678  0.135678  1
  Si  Si5  1  0.757899  0.757899  0.757899  1
  Si  Si6  1  0.242101  0.242101  0.242101  1
