# generated using pymatgen
data_FeSnF6
_symmetry_space_group_name_H-M   'P 1'
_cell_length_a   5.63104044
_cell_length_b   5.63104044
_cell_length_c   5.63104044
_cell_angle_alpha   58.27887374
_cell_angle_beta   58.27887374
_cell_angle_gamma   58.27887374
_symmetry_Int_Tables_number   1
_chemical_formula_structural   FeSnF6
_chemical_formula_sum   'Fe1 Sn1 F6'
_cell_volume   121.27859680
_cell_formula_units_Z   1
loop_
 _symmetry_equiv_pos_site_id
 _symmetry_equiv_pos_as_xyz
  1  'x, y, z'
loop_
 _atom_site_type_symbol
 _atom_site_label
 _atom_site_symmetry_multiplicity
 _atom_site_fract_x
 _atom_site_fract_y
 _atom_site_fract_z
 _atom_site_occupancy
  Fe  Fe0  1  0.500000  0.500000  0.500000  1
  Sn  Sn1  1  0.000000  0.000000  0.000000  1
  F  F2  1  0.761168  0.137109  0.350122  1
  F  F3  1  0.137109  0.350122  0.761168  1
  F  F4  1  0.350122  0.761168  0.137109  1
  F  F5  1  0.862891  0.649878  0.238832  1
  F  F6  1  0.238832  0.862891  0.649878  1
  F  F7  1  0.649878  0.238832  0.862891  1
