# generated using pymatgen
data_Ti7Br16
_symmetry_space_group_name_H-M   'P 1'
_cell_length_a   7.27996263
_cell_length_b   10.66684374
_cell_length_c   15.47374031
_cell_angle_alpha   90.00000000
_cell_angle_beta   90.00000000
_cell_angle_gamma   90.00000000
_symmetry_Int_Tables_number   1
_chemical_formula_structural   Ti7Br16
_chemical_formula_sum   'Ti14 Br32'
_cell_volume   1201.60129317
_cell_formula_units_Z   2
loop_
 _symmetry_equiv_pos_site_id
 _symmetry_equiv_pos_as_xyz
  1  'x, y, z'
loop_
 _atom_site_type_symbol
 _atom_site_label
 _atom_site_symmetry_multiplicity
 _atom_site_fract_x
 _atom_site_fract_y
 _atom_site_fract_z
 _atom_site_occupancy
  Ti  Ti0  1  0.500000  0.000000  0.000000  1
  Ti  Ti1  1  0.000000  0.500000  0.500000  1
  Ti  Ti2  1  0.000000  0.540037  0.764012  1
  Ti  Ti3  1  0.000000  0.459963  0.235988  1
  Ti  Ti4  1  0.500000  0.040037  0.735988  1
  Ti  Ti5  1  0.500000  0.959963  0.264012  1
  Ti  Ti6  1  0.197536  0.743055  0.860853  1
  Ti  Ti7  1  0.197536  0.256945  0.139147  1
  Ti  Ti8  1  0.302464  0.243055  0.639147  1
  Ti  Ti9  1  0.302464  0.756945  0.360853  1
  Ti  Ti10  1  0.802464  0.256945  0.139147  1
  Ti  Ti11  1  0.802464  0.743055  0.860853  1
  Ti  Ti12  1  0.697536  0.756945  0.360853  1
  Ti  Ti13  1  0.697536  0.243055  0.639147  1
  Br  Br14  1  0.500000  0.757908  0.980644  1
  Br  Br15  1  0.500000  0.242092  0.019356  1
  Br  Br16  1  0.000000  0.257908  0.519356  1
  Br  Br17  1  0.000000  0.742092  0.480644  1
  Br  Br18  1  0.000000  0.756299  0.992541  1
  Br  Br19  1  0.000000  0.243701  0.007459  1
  Br  Br20  1  0.500000  0.256299  0.507459  1
  Br  Br21  1  0.500000  0.743701  0.492541  1
  Br  Br22  1  0.500000  0.772952  0.752438  1
  Br  Br23  1  0.500000  0.227048  0.247562  1
  Br  Br24  1  0.000000  0.272952  0.747562  1
  Br  Br25  1  0.000000  0.727048  0.252438  1
  Br  Br26  1  0.000000  0.769950  0.726833  1
  Br  Br27  1  0.000000  0.230050  0.273167  1
  Br  Br28  1  0.500000  0.269950  0.773167  1
  Br  Br29  1  0.500000  0.730050  0.226833  1
  Br  Br30  1  0.252906  0.003374  0.871224  1
  Br  Br31  1  0.252906  0.996626  0.128776  1
  Br  Br32  1  0.247094  0.503374  0.628776  1
  Br  Br33  1  0.247094  0.496626  0.371224  1
  Br  Br34  1  0.747094  0.996626  0.128776  1
  Br  Br35  1  0.747094  0.003374  0.871224  1
  Br  Br36  1  0.752906  0.496626  0.371224  1
  Br  Br37  1  0.752906  0.503374  0.628776  1
  Br  Br38  1  0.249580  0.511800  0.874031  1
  Br  Br39  1  0.249580  0.488200  0.125969  1
  Br  Br40  1  0.250420  0.011800  0.625969  1
  Br  Br41  1  0.250420  0.988200  0.374031  1
  Br  Br42  1  0.750420  0.488200  0.125969  1
  Br  Br43  1  0.750420  0.511800  0.874031  1
  Br  Br44  1  0.749580  0.988200  0.374031  1
  Br  Br45  1  0.749580  0.011800  0.625969  1
