# generated using pymatgen
data_CeHSO5
_symmetry_space_group_name_H-M   'P 1'
_cell_length_a   4.55697537
_cell_length_b   12.65470328
_cell_length_c   7.18017311
_cell_angle_alpha   90.00000000
_cell_angle_beta   111.14212236
_cell_angle_gamma   90.00000000
_symmetry_Int_Tables_number   1
_chemical_formula_structural   CeHSO5
_chemical_formula_sum   'Ce4 H4 S4 O20'
_cell_volume   386.18930451
_cell_formula_units_Z   4
loop_
 _symmetry_equiv_pos_site_id
 _symmetry_equiv_pos_as_xyz
  1  'x, y, z'
loop_
 _atom_site_type_symbol
 _atom_site_label
 _atom_site_symmetry_multiplicity
 _atom_site_fract_x
 _atom_site_fract_y
 _atom_site_fract_z
 _atom_site_occupancy
  Ce  Ce0  1  0.161531  0.064356  0.802125  1
  Ce  Ce1  1  0.838469  0.564356  0.697875  1
  Ce  Ce2  1  0.838469  0.935644  0.197875  1
  Ce  Ce3  1  0.161531  0.435644  0.302125  1
  H  H4  1  0.213053  0.846485  0.976392  1
  H  H5  1  0.786947  0.346485  0.523608  1
  H  H6  1  0.786947  0.153515  0.023608  1
  H  H7  1  0.213053  0.653515  0.476392  1
  S  S8  1  0.403944  0.146068  0.387910  1
  S  S9  1  0.596056  0.646068  0.112090  1
  S  S10  1  0.596056  0.853932  0.612090  1
  S  S11  1  0.403944  0.353932  0.887910  1
  O  O12  1  0.471465  0.097103  0.219413  1
  O  O13  1  0.528535  0.597103  0.280587  1
  O  O14  1  0.528535  0.902897  0.780587  1
  O  O15  1  0.471465  0.402897  0.719413  1
  O  O16  1  0.692936  0.165318  0.561454  1
  O  O17  1  0.307064  0.665318  0.938546  1
  O  O18  1  0.307064  0.834682  0.438546  1
  O  O19  1  0.692936  0.334682  0.061454  1
  O  O20  1  0.194505  0.070592  0.447730  1
  O  O21  1  0.805495  0.570592  0.052270  1
  O  O22  1  0.805495  0.929408  0.552270  1
  O  O23  1  0.194505  0.429408  0.947730  1
  O  O24  1  0.231004  0.246262  0.320295  1
  O  O25  1  0.768996  0.746262  0.179705  1
  O  O26  1  0.768996  0.753738  0.679705  1
  O  O27  1  0.231004  0.253738  0.820295  1
  O  O28  1  0.237312  0.915874  0.041312  1
  O  O29  1  0.762688  0.415874  0.458688  1
  O  O30  1  0.762688  0.084126  0.958688  1
  O  O31  1  0.237312  0.584126  0.541312  1
