# generated using pymatgen
data_ZnS
_symmetry_space_group_name_H-M   'P 1'
_cell_length_a   3.85406443
_cell_length_b   3.85406443
_cell_length_c   81.90264391
_cell_angle_alpha   90.00000000
_cell_angle_beta   90.00000000
_cell_angle_gamma   120.00000000
_symmetry_Int_Tables_number   1
_chemical_formula_structural   ZnS
_chemical_formula_sum   'Zn26 S26'
_cell_volume   1053.57751921
_cell_formula_units_Z   26
loop_
 _symmetry_equiv_pos_site_id
 _symmetry_equiv_pos_as_xyz
  1  'x, y, z'
loop_
 _atom_site_type_symbol
 _atom_site_label
 _atom_site_symmetry_multiplicity
 _atom_site_fract_x
 _atom_site_fract_y
 _atom_site_fract_z
 _atom_site_occupancy
  Zn  Zn0  1  0.666667  0.333333  0.807675  1
  Zn  Zn1  1  0.333333  0.666667  0.115391  1
  Zn  Zn2  1  0.000000  0.000000  0.461557  1
  Zn  Zn3  1  0.666667  0.333333  0.653847  1
  Zn  Zn4  1  0.333333  0.666667  0.230776  1
  Zn  Zn5  1  0.000000  0.000000  0.961539  1
  Zn  Zn6  1  0.666667  0.333333  0.884643  1
  Zn  Zn7  1  0.666667  0.333333  0.038472  1
  Zn  Zn8  1  0.000000  0.000000  0.192292  1
  Zn  Zn9  1  0.000000  0.000000  0.076927  1
  Zn  Zn10  1  0.333333  0.666667  0.769255  1
  Zn  Zn11  1  0.333333  0.666667  0.692292  1
  Zn  Zn12  1  0.666667  0.333333  0.423081  1
  Zn  Zn13  1  0.000000  0.000000  0.846159  1
  Zn  Zn14  1  0.333333  0.666667  0.576952  1
  Zn  Zn15  1  0.666667  0.333333  0.538468  1
  Zn  Zn16  1  0.333333  0.666667  0.000035  1
  Zn  Zn17  1  0.666667  0.333333  0.307699  1
  Zn  Zn18  1  0.666667  0.333333  0.153847  1
  Zn  Zn19  1  0.000000  0.000000  0.269259  1
  Zn  Zn20  1  0.333333  0.666667  0.923064  1
  Zn  Zn21  1  0.000000  0.000000  0.615394  1
  Zn  Zn22  1  0.333333  0.666667  0.499987  1
  Zn  Zn23  1  0.000000  0.000000  0.384600  1
  Zn  Zn24  1  0.333333  0.666667  0.346160  1
  Zn  Zn25  1  0.000000  0.000000  0.730774  1
  S  S26  1  0.000000  0.000000  0.759645  1
  S  S27  1  0.333333  0.666667  0.028861  1
  S  S28  1  0.333333  0.666667  0.721114  1
  S  S29  1  0.333333  0.666667  0.798064  1
  S  S30  1  0.666667  0.333333  0.336535  1
  S  S31  1  0.000000  0.000000  0.221114  1
  S  S32  1  0.666667  0.333333  0.836494  1
  S  S33  1  0.666667  0.333333  0.067298  1
  S  S34  1  0.666667  0.333333  0.913458  1
  S  S35  1  0.666667  0.333333  0.451947  1
  S  S36  1  0.000000  0.000000  0.105766  1
  S  S37  1  0.000000  0.000000  0.875031  1
  S  S38  1  0.000000  0.000000  0.298074  1
  S  S39  1  0.333333  0.666667  0.605776  1
  S  S40  1  0.333333  0.666667  0.951880  1
  S  S41  1  0.000000  0.000000  0.490373  1
  S  S42  1  0.666667  0.333333  0.682678  1
  S  S43  1  0.333333  0.666667  0.374991  1
  S  S44  1  0.666667  0.333333  0.182678  1
  S  S45  1  0.000000  0.000000  0.990413  1
  S  S46  1  0.333333  0.666667  0.259647  1
  S  S47  1  0.000000  0.000000  0.413421  1
  S  S48  1  0.333333  0.666667  0.144227  1
  S  S49  1  0.333333  0.666667  0.528809  1
  S  S50  1  0.666667  0.333333  0.567335  1
  S  S51  1  0.000000  0.000000  0.644229  1
