# generated using pymatgen
data_Ga2NiCl8
_symmetry_space_group_name_H-M   'P 1'
_cell_length_a   9.63753325
_cell_length_b   9.63753325
_cell_length_c   11.69831700
_cell_angle_alpha   54.39826048
_cell_angle_beta   125.60173952
_cell_angle_gamma   130.79141079
_symmetry_Int_Tables_number   1
_chemical_formula_structural   Ga2NiCl8
_chemical_formula_sum   'Ga4 Ni2 Cl16'
_cell_volume   631.89464826
_cell_formula_units_Z   2
loop_
 _symmetry_equiv_pos_site_id
 _symmetry_equiv_pos_as_xyz
  1  'x, y, z'
loop_
 _atom_site_type_symbol
 _atom_site_label
 _atom_site_symmetry_multiplicity
 _atom_site_fract_x
 _atom_site_fract_y
 _atom_site_fract_z
 _atom_site_occupancy
  Ga  Ga0  1  0.840664  0.672575  0.032711  1
  Ga  Ga1  1  0.159336  0.327425  0.967289  1
  Ga  Ga2  1  0.672575  0.840664  0.467289  1
  Ga  Ga3  1  0.327425  0.159336  0.532711  1
  Ni  Ni4  1  0.997212  0.997212  0.750000  1
  Ni  Ni5  1  0.002788  0.002788  0.250000  1
  Cl  Cl6  1  0.161375  0.868177  0.508743  1
  Cl  Cl7  1  0.838625  0.131823  0.491257  1
  Cl  Cl8  1  0.371806  0.687749  0.441935  1
  Cl  Cl9  1  0.312251  0.628194  0.941935  1
  Cl  Cl10  1  0.131823  0.838625  0.008743  1
  Cl  Cl11  1  0.695674  0.857423  0.280197  1
  Cl  Cl12  1  0.281860  0.146919  0.189737  1
  Cl  Cl13  1  0.146919  0.281860  0.310263  1
  Cl  Cl14  1  0.304326  0.142577  0.719803  1
  Cl  Cl15  1  0.628194  0.312251  0.558065  1
  Cl  Cl16  1  0.857423  0.695674  0.219803  1
  Cl  Cl17  1  0.868177  0.161375  0.991257  1
  Cl  Cl18  1  0.687749  0.371806  0.058065  1
  Cl  Cl19  1  0.142577  0.304326  0.780197  1
  Cl  Cl20  1  0.853081  0.718140  0.689737  1
  Cl  Cl21  1  0.718140  0.853081  0.810263  1
