# generated using pymatgen
data_MnH6SO6
_symmetry_space_group_name_H-M   'P 1'
_cell_length_a   5.67462132
_cell_length_b   9.60686279
_cell_length_c   9.92404637
_cell_angle_alpha   90.00000000
_cell_angle_beta   90.00000000
_cell_angle_gamma   90.00000000
_symmetry_Int_Tables_number   1
_chemical_formula_structural   MnH6SO6
_chemical_formula_sum   'Mn4 H24 S4 O24'
_cell_volume   541.01244850
_cell_formula_units_Z   4
loop_
 _symmetry_equiv_pos_site_id
 _symmetry_equiv_pos_as_xyz
  1  'x, y, z'
loop_
 _atom_site_type_symbol
 _atom_site_label
 _atom_site_symmetry_multiplicity
 _atom_site_fract_x
 _atom_site_fract_y
 _atom_site_fract_z
 _atom_site_occupancy
  Mn  Mn0  1  0.246120  0.190506  0.275042  1
  Mn  Mn1  1  0.253880  0.809494  0.775042  1
  Mn  Mn2  1  0.746120  0.309494  0.724958  1
  Mn  Mn3  1  0.753880  0.690506  0.224958  1
  H  H4  1  0.987305  0.098670  0.869688  1
  H  H5  1  0.618065  0.467925  0.405784  1
  H  H6  1  0.103649  0.967155  0.101302  1
  H  H7  1  0.896351  0.467155  0.398698  1
  H  H8  1  0.519172  0.099243  0.872971  1
  H  H9  1  0.012695  0.598670  0.630312  1
  H  H10  1  0.683695  0.709772  0.648711  1
  H  H11  1  0.980828  0.900757  0.372971  1
  H  H12  1  0.603649  0.532845  0.898698  1
  H  H13  1  0.816305  0.290228  0.148711  1
  H  H14  1  0.497363  0.263709  0.039570  1
  H  H15  1  0.118065  0.032075  0.594216  1
  H  H16  1  0.019172  0.400757  0.127029  1
  H  H17  1  0.480828  0.599243  0.627029  1
  H  H18  1  0.487305  0.401330  0.130312  1
  H  H19  1  0.381935  0.967925  0.094216  1
  H  H20  1  0.316305  0.209772  0.851289  1
  H  H21  1  0.512695  0.901330  0.369688  1
  H  H22  1  0.502637  0.763709  0.460430  1
  H  H23  1  0.881935  0.532075  0.905784  1
  H  H24  1  0.396351  0.032845  0.601302  1
  H  H25  1  0.997363  0.236291  0.960430  1
  H  H26  1  0.002637  0.736291  0.539570  1
  H  H27  1  0.183695  0.790228  0.351289  1
  S  S28  1  0.254765  0.657941  0.065094  1
  S  S29  1  0.245235  0.342059  0.565094  1
  S  S30  1  0.745235  0.157941  0.434906  1
  S  S31  1  0.754765  0.842059  0.934906  1
  O  O32  1  0.989517  0.297414  0.131281  1
  O  O33  1  0.254450  0.985972  0.635160  1
  O  O34  1  0.990463  0.702800  0.634695  1
  O  O35  1  0.029400  0.423993  0.619809  1
  O  O36  1  0.745550  0.485972  0.864840  1
  O  O37  1  0.536410  0.923775  0.882700  1
  O  O38  1  0.489517  0.202586  0.868719  1
  O  O39  1  0.470600  0.576007  0.119809  1
  O  O40  1  0.509537  0.297200  0.134695  1
  O  O41  1  0.257647  0.629175  0.911332  1
  O  O42  1  0.245550  0.014028  0.135160  1
  O  O43  1  0.529400  0.076007  0.380191  1
  O  O44  1  0.510483  0.702586  0.631281  1
  O  O45  1  0.754450  0.514028  0.364840  1
  O  O46  1  0.463590  0.423775  0.617300  1
  O  O47  1  0.757647  0.870825  0.088668  1
  O  O48  1  0.742353  0.129175  0.588668  1
  O  O49  1  0.010483  0.797414  0.368719  1
  O  O50  1  0.009537  0.202800  0.865305  1
  O  O51  1  0.036410  0.576225  0.117300  1
  O  O52  1  0.490463  0.797200  0.365305  1
  O  O53  1  0.963590  0.076225  0.382700  1
  O  O54  1  0.970600  0.923993  0.880191  1
  O  O55  1  0.242353  0.370825  0.411332  1
