# generated using pymatgen
data_Co7Mo6
_symmetry_space_group_name_H-M   'P 1'
_cell_length_a   8.94153882
_cell_length_b   8.94153882
_cell_length_c   8.94153882
_cell_angle_alpha   30.80521348
_cell_angle_beta   30.80521348
_cell_angle_gamma   30.80521348
_symmetry_Int_Tables_number   1
_chemical_formula_structural   Co7Mo6
_chemical_formula_sum   'Co7 Mo6'
_cell_volume   166.27759850
_cell_formula_units_Z   1
loop_
 _symmetry_equiv_pos_site_id
 _symmetry_equiv_pos_as_xyz
  1  'x, y, z'
loop_
 _atom_site_type_symbol
 _atom_site_label
 _atom_site_symmetry_multiplicity
 _atom_site_fract_x
 _atom_site_fract_y
 _atom_site_fract_z
 _atom_site_occupancy
  Co  Co0  1  0.910054  0.410942  0.910054  1
  Co  Co1  1  0.589058  0.089946  0.089946  1
  Co  Co2  1  0.000000  0.000000  0.000000  1
  Co  Co3  1  0.410942  0.910054  0.910054  1
  Co  Co4  1  0.089946  0.589058  0.089946  1
  Co  Co5  1  0.089946  0.089946  0.589058  1
  Co  Co6  1  0.910054  0.910054  0.410942  1
  Mo  Mo7  1  0.165710  0.165710  0.165710  1
  Mo  Mo8  1  0.347311  0.347311  0.347311  1
  Mo  Mo9  1  0.549659  0.549659  0.549659  1
  Mo  Mo10  1  0.450341  0.450341  0.450341  1
  Mo  Mo11  1  0.834290  0.834290  0.834290  1
  Mo  Mo12  1  0.652689  0.652689  0.652689  1
