# generated using pymatgen
data_La6S4N3Cl
_symmetry_space_group_name_H-M   'P 1'
_cell_length_a   4.11846630
_cell_length_b   11.91534178
_cell_length_c   27.23135551
_cell_angle_alpha   90.00000000
_cell_angle_beta   90.00000000
_cell_angle_gamma   90.00000000
_symmetry_Int_Tables_number   1
_chemical_formula_structural   La6S4N3Cl
_chemical_formula_sum   'La24 S16 N12 Cl4'
_cell_volume   1336.32250007
_cell_formula_units_Z   4
loop_
 _symmetry_equiv_pos_site_id
 _symmetry_equiv_pos_as_xyz
  1  'x, y, z'
loop_
 _atom_site_type_symbol
 _atom_site_label
 _atom_site_symmetry_multiplicity
 _atom_site_fract_x
 _atom_site_fract_y
 _atom_site_fract_z
 _atom_site_occupancy
  La  La0  1  0.250000  0.232777  0.935011  1
  La  La1  1  0.750000  0.058102  0.573954  1
  La  La2  1  0.250000  0.909129  0.959595  1
  La  La3  1  0.250000  0.237875  0.669990  1
  La  La4  1  0.250000  0.384643  0.294199  1
  La  La5  1  0.250000  0.445260  0.810226  1
  La  La6  1  0.250000  0.941898  0.426046  1
  La  La7  1  0.750000  0.615357  0.705801  1
  La  La8  1  0.750000  0.554740  0.189774  1
  La  La9  1  0.750000  0.558102  0.926046  1
  La  La10  1  0.750000  0.762125  0.330010  1
  La  La11  1  0.750000  0.090871  0.040405  1
  La  La12  1  0.750000  0.115357  0.794199  1
  La  La13  1  0.250000  0.441898  0.073954  1
  La  La14  1  0.750000  0.262125  0.169990  1
  La  La15  1  0.250000  0.737875  0.830010  1
  La  La16  1  0.250000  0.884643  0.205801  1
  La  La17  1  0.250000  0.732777  0.564989  1
  La  La18  1  0.750000  0.590871  0.459595  1
  La  La19  1  0.750000  0.267223  0.435011  1
  La  La20  1  0.250000  0.409129  0.540405  1
  La  La21  1  0.750000  0.767223  0.064989  1
  La  La22  1  0.250000  0.945260  0.689774  1
  La  La23  1  0.750000  0.054740  0.310226  1
  S  S24  1  0.250000  0.213744  0.104138  1
  S  S25  1  0.250000  0.044565  0.863929  1
  S  S26  1  0.250000  0.647306  0.005353  1
  S  S27  1  0.750000  0.819193  0.638853  1
  S  S28  1  0.250000  0.180807  0.361147  1
  S  S29  1  0.750000  0.286256  0.604138  1
  S  S30  1  0.750000  0.319193  0.861147  1
  S  S31  1  0.250000  0.713744  0.395862  1
  S  S32  1  0.250000  0.680807  0.138853  1
  S  S33  1  0.250000  0.147306  0.494647  1
  S  S34  1  0.750000  0.955435  0.136071  1
  S  S35  1  0.250000  0.544565  0.636071  1
  S  S36  1  0.750000  0.352694  0.994647  1
  S  S37  1  0.750000  0.852694  0.505353  1
  S  S38  1  0.750000  0.455435  0.363929  1
  S  S39  1  0.750000  0.786256  0.895862  1
  N  N40  1  0.750000  0.903470  0.010626  1
  N  N41  1  0.750000  0.436079  0.124779  1
  N  N42  1  0.250000  0.110817  0.738765  1
  N  N43  1  0.250000  0.563921  0.875221  1
  N  N44  1  0.250000  0.610817  0.761235  1
  N  N45  1  0.750000  0.403470  0.489374  1
  N  N46  1  0.750000  0.936079  0.375221  1
  N  N47  1  0.250000  0.096530  0.989374  1
  N  N48  1  0.250000  0.596530  0.510626  1
  N  N49  1  0.250000  0.063921  0.624779  1
  N  N50  1  0.750000  0.889183  0.261235  1
  N  N51  1  0.750000  0.389183  0.238765  1
  Cl  Cl52  1  0.250000  0.135686  0.234558  1
  Cl  Cl53  1  0.750000  0.364314  0.734558  1
  Cl  Cl54  1  0.250000  0.635686  0.265442  1
  Cl  Cl55  1  0.750000  0.864314  0.765442  1
