# generated using pymatgen
data_NaHf2CuSe5
_symmetry_space_group_name_H-M   'P 1'
_cell_length_a   7.22723245
_cell_length_b   7.22723245
_cell_length_c   16.29188957
_cell_angle_alpha   90.00000000
_cell_angle_beta   90.00000000
_cell_angle_gamma   149.56735595
_symmetry_Int_Tables_number   1
_chemical_formula_structural   NaHf2CuSe5
_chemical_formula_sum   'Na2 Hf4 Cu2 Se10'
_cell_volume   431.03890509
_cell_formula_units_Z   2
loop_
 _symmetry_equiv_pos_site_id
 _symmetry_equiv_pos_as_xyz
  1  'x, y, z'
loop_
 _atom_site_type_symbol
 _atom_site_label
 _atom_site_symmetry_multiplicity
 _atom_site_fract_x
 _atom_site_fract_y
 _atom_site_fract_z
 _atom_site_occupancy
  Na  Na0  1  0.033850  0.966150  0.250000  1
  Na  Na1  1  0.966150  0.033850  0.750000  1
  Hf  Hf2  1  0.209377  0.790623  0.901561  1
  Hf  Hf3  1  0.790623  0.209377  0.401561  1
  Hf  Hf4  1  0.209377  0.790623  0.598439  1
  Hf  Hf5  1  0.790623  0.209377  0.098439  1
  Cu  Cu6  1  0.322546  0.677454  0.250000  1
  Cu  Cu7  1  0.677454  0.322546  0.750000  1
  Se  Se8  1  0.159817  0.840183  0.439304  1
  Se  Se9  1  0.840183  0.159817  0.939304  1
  Se  Se10  1  0.291036  0.708964  0.750000  1
  Se  Se11  1  0.422362  0.577638  0.371848  1
  Se  Se12  1  0.159817  0.840183  0.060696  1
  Se  Se13  1  0.577638  0.422362  0.871848  1
  Se  Se14  1  0.577638  0.422362  0.628152  1
  Se  Se15  1  0.422362  0.577638  0.128152  1
  Se  Se16  1  0.840183  0.159817  0.560696  1
  Se  Se17  1  0.708964  0.291036  0.250000  1
