# generated using pymatgen
data_Cs2As2OF10
_symmetry_space_group_name_H-M   'P 1'
_cell_length_a   5.70519715
_cell_length_b   10.92705010
_cell_length_c   9.39125755
_cell_angle_alpha   90.00000000
_cell_angle_beta   105.28714485
_cell_angle_gamma   90.00000000
_symmetry_Int_Tables_number   1
_chemical_formula_structural   Cs2As2OF10
_chemical_formula_sum   'Cs4 As4 O2 F20'
_cell_volume   564.74458087
_cell_formula_units_Z   2
loop_
 _symmetry_equiv_pos_site_id
 _symmetry_equiv_pos_as_xyz
  1  'x, y, z'
loop_
 _atom_site_type_symbol
 _atom_site_label
 _atom_site_symmetry_multiplicity
 _atom_site_fract_x
 _atom_site_fract_y
 _atom_site_fract_z
 _atom_site_occupancy
  Cs  Cs0  1  0.824067  0.984338  0.247302  1
  Cs  Cs1  1  0.175933  0.015662  0.752698  1
  Cs  Cs2  1  0.175933  0.484338  0.752698  1
  Cs  Cs3  1  0.824067  0.515662  0.247302  1
  As  As4  1  0.494384  0.250000  0.477399  1
  As  As5  1  0.274918  0.250000  0.113607  1
  As  As6  1  0.725082  0.750000  0.886393  1
  As  As7  1  0.505616  0.750000  0.522601  1
  O  O8  1  0.507277  0.250000  0.286448  1
  O  O9  1  0.492723  0.750000  0.713552  1
  F  F10  1  0.268283  0.133161  0.451440  1
  F  F11  1  0.732786  0.915131  0.893639  1
  F  F12  1  0.727082  0.364308  0.516620  1
  F  F13  1  0.267214  0.084869  0.106361  1
  F  F14  1  0.021298  0.250000  0.189688  1
  F  F15  1  0.488091  0.750000  0.976776  1
  F  F16  1  0.978702  0.750000  0.810312  1
  F  F17  1  0.272918  0.864308  0.483380  1
  F  F18  1  0.935259  0.750000  0.066313  1
  F  F19  1  0.064741  0.250000  0.933687  1
  F  F20  1  0.731717  0.633161  0.548560  1
  F  F21  1  0.501093  0.250000  0.669076  1
  F  F22  1  0.511909  0.250000  0.023224  1
  F  F23  1  0.727082  0.135692  0.516620  1
  F  F24  1  0.731717  0.866839  0.548560  1
  F  F25  1  0.267214  0.415131  0.106361  1
  F  F26  1  0.272918  0.635692  0.483380  1
  F  F27  1  0.268283  0.366839  0.451440  1
  F  F28  1  0.498907  0.750000  0.330924  1
  F  F29  1  0.732786  0.584869  0.893639  1
