# generated using pymatgen
data_MgGa
_symmetry_space_group_name_H-M   'P 1'
_cell_length_a   8.04507186
_cell_length_b   8.04507186
_cell_length_c   8.04507186
_cell_angle_alpha   96.71436597
_cell_angle_beta   96.71436597
_cell_angle_gamma   140.01034521
_symmetry_Int_Tables_number   1
_chemical_formula_structural   MgGa
_chemical_formula_sum   'Mg8 Ga8'
_cell_volume   314.45890350
_cell_formula_units_Z   8
loop_
 _symmetry_equiv_pos_site_id
 _symmetry_equiv_pos_as_xyz
  1  'x, y, z'
loop_
 _atom_site_type_symbol
 _atom_site_label
 _atom_site_symmetry_multiplicity
 _atom_site_fract_x
 _atom_site_fract_y
 _atom_site_fract_z
 _atom_site_occupancy
  Mg  Mg0  1  0.588614  0.147248  0.706099  1
  Mg  Mg1  1  0.117486  0.411386  0.558634  1
  Mg  Mg2  1  0.852752  0.558851  0.441366  1
  Mg  Mg3  1  0.441149  0.882514  0.293901  1
  Mg  Mg4  1  0.808851  0.867486  0.206099  1
  Mg  Mg5  1  0.397248  0.191149  0.058634  1
  Mg  Mg6  1  0.132514  0.338614  0.941366  1
  Mg  Mg7  1  0.661386  0.602752  0.793901  1
  Ga  Ga8  1  0.137902  0.050240  0.695109  1
  Ga  Ga9  1  0.692794  0.887902  0.587662  1
  Ga  Ga10  1  0.300240  0.105131  0.412338  1
  Ga  Ga11  1  0.355131  0.442794  0.304891  1
  Ga  Ga12  1  0.894869  0.307206  0.195109  1
  Ga  Ga13  1  0.949760  0.644869  0.087662  1
  Ga  Ga14  1  0.557206  0.862098  0.912338  1
  Ga  Ga15  1  0.112098  0.699760  0.804891  1
