# generated using pymatgen
data_ThPbI6
_symmetry_space_group_name_H-M   'P 1'
_cell_length_a   7.89686793
_cell_length_b   7.89686793
_cell_length_c   14.28401075
_cell_angle_alpha   90.00000000
_cell_angle_beta   90.00000000
_cell_angle_gamma   120.00000000
_symmetry_Int_Tables_number   1
_chemical_formula_structural   ThPbI6
_chemical_formula_sum   'Th2 Pb2 I12'
_cell_volume   771.41938827
_cell_formula_units_Z   2
loop_
 _symmetry_equiv_pos_site_id
 _symmetry_equiv_pos_as_xyz
  1  'x, y, z'
loop_
 _atom_site_type_symbol
 _atom_site_label
 _atom_site_symmetry_multiplicity
 _atom_site_fract_x
 _atom_site_fract_y
 _atom_site_fract_z
 _atom_site_occupancy
  Th  Th0  1  0.333333  0.666667  0.250000  1
  Th  Th1  1  0.666667  0.333333  0.750000  1
  Pb  Pb2  1  0.000000  0.000000  0.000000  1
  Pb  Pb3  1  0.000000  0.000000  0.500000  1
  I  I4  1  0.340226  0.350699  0.125861  1
  I  I5  1  0.649301  0.989527  0.125861  1
  I  I6  1  0.010473  0.659774  0.125861  1
  I  I7  1  0.649301  0.659774  0.374139  1
  I  I8  1  0.010473  0.350699  0.374139  1
  I  I9  1  0.340226  0.989527  0.374139  1
  I  I10  1  0.659774  0.649301  0.874139  1
  I  I11  1  0.350699  0.010473  0.874139  1
  I  I12  1  0.989527  0.340226  0.874139  1
  I  I13  1  0.350699  0.340226  0.625861  1
  I  I14  1  0.989527  0.649301  0.625861  1
  I  I15  1  0.659774  0.010473  0.625861  1
