# generated using pymatgen
data_Cs(WCl3)3
_symmetry_space_group_name_H-M   'P 1'
_cell_length_a   9.82904077
_cell_length_b   9.82904077
_cell_length_c   8.71656650
_cell_angle_alpha   90.00000000
_cell_angle_beta   90.00000000
_cell_angle_gamma   120.00000000
_symmetry_Int_Tables_number   1
_chemical_formula_structural   Cs(WCl3)3
_chemical_formula_sum   'Cs2 W6 Cl18'
_cell_volume   729.28679984
_cell_formula_units_Z   2
loop_
 _symmetry_equiv_pos_site_id
 _symmetry_equiv_pos_as_xyz
  1  'x, y, z'
loop_
 _atom_site_type_symbol
 _atom_site_label
 _atom_site_symmetry_multiplicity
 _atom_site_fract_x
 _atom_site_fract_y
 _atom_site_fract_z
 _atom_site_occupancy
  Cs  Cs0  1  0.666667  0.333333  0.419001  1
  Cs  Cs1  1  0.333333  0.666667  0.580999  1
  W  W2  1  0.160085  0.186325  0.125569  1
  W  W3  1  0.186325  0.026240  0.874431  1
  W  W4  1  0.973760  0.160085  0.874431  1
  W  W5  1  0.026240  0.839915  0.125569  1
  W  W6  1  0.839915  0.813675  0.874431  1
  W  W7  1  0.813675  0.973760  0.125569  1
  Cl  Cl8  1  0.652259  0.598350  0.702834  1
  Cl  Cl9  1  0.053909  0.652259  0.297166  1
  Cl  Cl10  1  0.846719  0.597416  0.997988  1
  Cl  Cl11  1  0.598350  0.946091  0.297166  1
  Cl  Cl12  1  0.402584  0.249304  0.997988  1
  Cl  Cl13  1  0.597416  0.750696  0.002012  1
  Cl  Cl14  1  0.970598  0.179623  0.307980  1
  Cl  Cl15  1  0.820377  0.790975  0.307980  1
  Cl  Cl16  1  0.750696  0.153281  0.997988  1
  Cl  Cl17  1  0.249304  0.846719  0.002012  1
  Cl  Cl18  1  0.179623  0.209025  0.692020  1
  Cl  Cl19  1  0.029402  0.820377  0.692020  1
  Cl  Cl20  1  0.790975  0.970598  0.692020  1
  Cl  Cl21  1  0.209025  0.029402  0.307980  1
  Cl  Cl22  1  0.153281  0.402584  0.002012  1
  Cl  Cl23  1  0.946091  0.347741  0.702834  1
  Cl  Cl24  1  0.347741  0.401650  0.297166  1
  Cl  Cl25  1  0.401650  0.053909  0.702834  1
