# generated using pymatgen
data_Ba2LaAg5S6
_symmetry_space_group_name_H-M   'P 1'
_cell_length_a   7.39357710
_cell_length_b   7.39357710
_cell_length_c   11.34352479
_cell_angle_alpha   85.04973768
_cell_angle_beta   94.95026232
_cell_angle_gamma   146.27620800
_symmetry_Int_Tables_number   1
_chemical_formula_structural   Ba2LaAg5S6
_chemical_formula_sum   'Ba2 La1 Ag5 S6'
_cell_volume   342.86731796
_cell_formula_units_Z   1
loop_
 _symmetry_equiv_pos_site_id
 _symmetry_equiv_pos_as_xyz
  1  'x, y, z'
loop_
 _atom_site_type_symbol
 _atom_site_label
 _atom_site_symmetry_multiplicity
 _atom_site_fract_x
 _atom_site_fract_y
 _atom_site_fract_z
 _atom_site_occupancy
  Ba  Ba0  1  0.749143  0.250857  0.292708  1
  Ba  Ba1  1  0.250857  0.749143  0.707292  1
  La  La2  1  0.500000  0.500000  0.500000  1
  Ag  Ag3  1  0.648638  0.351362  0.964850  1
  Ag  Ag4  1  0.351362  0.648638  0.035150  1
  Ag  Ag5  1  0.019072  0.980928  0.255521  1
  Ag  Ag6  1  0.980928  0.019072  0.744479  1
  Ag  Ag7  1  0.000000  0.000000  0.000000  1
  S  S8  1  0.413657  0.586343  0.257811  1
  S  S9  1  0.157362  0.842638  0.101219  1
  S  S10  1  0.842638  0.157362  0.898781  1
  S  S11  1  0.586343  0.413657  0.742189  1
  S  S12  1  0.868822  0.131178  0.551197  1
  S  S13  1  0.131178  0.868822  0.448803  1
