# generated using pymatgen
data_Co3C2(SeO5)2
_symmetry_space_group_name_H-M   'P 1'
_cell_length_a   5.71040989
_cell_length_b   5.71040989
_cell_length_c   7.93331857
_cell_angle_alpha   67.84096914
_cell_angle_beta   112.15903086
_cell_angle_gamma   109.01782046
_symmetry_Int_Tables_number   1
_chemical_formula_structural   Co3C2(SeO5)2
_chemical_formula_sum   'Co3 C2 Se2 O10'
_cell_volume   216.74993394
_cell_formula_units_Z   1
loop_
 _symmetry_equiv_pos_site_id
 _symmetry_equiv_pos_as_xyz
  1  'x, y, z'
loop_
 _atom_site_type_symbol
 _atom_site_label
 _atom_site_symmetry_multiplicity
 _atom_site_fract_x
 _atom_site_fract_y
 _atom_site_fract_z
 _atom_site_occupancy
  Co  Co0  1  0.808384  0.191616  0.819540  1
  Co  Co1  1  0.191616  0.808384  0.180460  1
  Co  Co2  1  0.500000  0.500000  0.000000  1
  C  C3  1  0.542973  0.457027  0.435899  1
  C  C4  1  0.457027  0.542973  0.564101  1
  Se  Se5  1  0.840814  0.159186  0.257988  1
  Se  Se6  1  0.159186  0.840814  0.742012  1
  O  O7  1  0.303910  0.696090  0.481499  1
  O  O8  1  0.058975  0.941025  0.878350  1
  O  O9  1  0.506221  0.117211  0.152385  1
  O  O10  1  0.696090  0.303910  0.518501  1
  O  O11  1  0.941025  0.058975  0.121650  1
  O  O12  1  0.117211  0.506221  0.847615  1
  O  O13  1  0.550618  0.449382  0.743105  1
  O  O14  1  0.882789  0.493779  0.152385  1
  O  O15  1  0.449382  0.550618  0.256895  1
  O  O16  1  0.493779  0.882789  0.847615  1
