# generated using pymatgen
data_TlCr5S8
_symmetry_space_group_name_H-M   'P 1'
_cell_length_a   9.17648248
_cell_length_b   9.17648248
_cell_length_c   8.70487705
_cell_angle_alpha   75.20970009
_cell_angle_beta   104.79029991
_cell_angle_gamma   158.06441148
_symmetry_Int_Tables_number   1
_chemical_formula_structural   TlCr5S8
_chemical_formula_sum   'Tl1 Cr5 S8'
_cell_volume   264.40974331
_cell_formula_units_Z   1
loop_
 _symmetry_equiv_pos_site_id
 _symmetry_equiv_pos_as_xyz
  1  'x, y, z'
loop_
 _atom_site_type_symbol
 _atom_site_label
 _atom_site_symmetry_multiplicity
 _atom_site_fract_x
 _atom_site_fract_y
 _atom_site_fract_z
 _atom_site_occupancy
  Tl  Tl0  1  0.000000  0.000000  0.000000  1
  Cr  Cr1  1  0.500000  0.500000  0.500000  1
  Cr  Cr2  1  0.203546  0.796454  0.835193  1
  Cr  Cr3  1  0.796454  0.203546  0.164807  1
  Cr  Cr4  1  0.841365  0.158635  0.525389  1
  Cr  Cr5  1  0.158635  0.841365  0.474611  1
  S  S6  1  0.328090  0.671910  0.011223  1
  S  S7  1  0.671910  0.328090  0.988777  1
  S  S8  1  0.737643  0.262357  0.656044  1
  S  S9  1  0.262357  0.737643  0.343956  1
  S  S10  1  0.414311  0.585689  0.670715  1
  S  S11  1  0.585689  0.414311  0.329285  1
  S  S12  1  0.076273  0.923727  0.649970  1
  S  S13  1  0.923727  0.076273  0.350030  1
