# generated using pymatgen
data_Nd(Al4Co)2
_symmetry_space_group_name_H-M   'P 1'
_cell_length_a   4.00349382
_cell_length_b   12.49105414
_cell_length_c   14.39331561
_cell_angle_alpha   90.00000000
_cell_angle_beta   90.00000000
_cell_angle_gamma   90.00000000
_symmetry_Int_Tables_number   1
_chemical_formula_structural   Nd(Al4Co)2
_chemical_formula_sum   'Nd4 Al32 Co8'
_cell_volume   719.77888396
_cell_formula_units_Z   4
loop_
 _symmetry_equiv_pos_site_id
 _symmetry_equiv_pos_as_xyz
  1  'x, y, z'
loop_
 _atom_site_type_symbol
 _atom_site_label
 _atom_site_symmetry_multiplicity
 _atom_site_fract_x
 _atom_site_fract_y
 _atom_site_fract_z
 _atom_site_occupancy
  Nd  Nd0  1  0.000000  0.840339  0.181024  1
  Nd  Nd1  1  0.000000  0.159661  0.818976  1
  Nd  Nd2  1  0.000000  0.659661  0.681024  1
  Nd  Nd3  1  0.000000  0.340339  0.318976  1
  Al  Al4  1  0.500000  0.025793  0.131683  1
  Al  Al5  1  0.500000  0.169260  0.991970  1
  Al  Al6  1  0.500000  0.235955  0.172631  1
  Al  Al7  1  0.000000  0.500000  0.500000  1
  Al  Al8  1  0.000000  0.659712  0.955536  1
  Al  Al9  1  0.000000  0.096255  0.252663  1
  Al  Al10  1  0.500000  0.047435  0.679585  1
  Al  Al11  1  0.000000  0.903745  0.747337  1
  Al  Al12  1  0.500000  0.547435  0.820415  1
  Al  Al13  1  0.500000  0.974207  0.868317  1
  Al  Al14  1  0.500000  0.659061  0.120761  1
  Al  Al15  1  0.500000  0.735955  0.327369  1
  Al  Al16  1  0.500000  0.452565  0.179585  1
  Al  Al17  1  0.500000  0.952565  0.320415  1
  Al  Al18  1  0.500000  0.330740  0.491970  1
  Al  Al19  1  0.000000  0.596255  0.247337  1
  Al  Al20  1  0.500000  0.474207  0.631683  1
  Al  Al21  1  0.500000  0.764045  0.827369  1
  Al  Al22  1  0.500000  0.159061  0.379239  1
  Al  Al23  1  0.500000  0.840939  0.620761  1
  Al  Al24  1  0.500000  0.830740  0.008030  1
  Al  Al25  1  0.500000  0.669260  0.508030  1
  Al  Al26  1  0.500000  0.000000  0.500000  1
  Al  Al27  1  0.000000  0.340288  0.044464  1
  Al  Al28  1  0.500000  0.525793  0.368317  1
  Al  Al29  1  0.500000  0.340939  0.879239  1
  Al  Al30  1  0.000000  0.403745  0.752663  1
  Al  Al31  1  0.500000  0.500000  0.000000  1
  Al  Al32  1  0.000000  0.159712  0.544464  1
  Al  Al33  1  0.000000  0.840288  0.455536  1
  Al  Al34  1  0.500000  0.264045  0.672631  1
  Al  Al35  1  0.000000  0.000000  0.000000  1
  Co  Co36  1  0.000000  0.534308  0.094212  1
  Co  Co37  1  0.000000  0.034308  0.405788  1
  Co  Co38  1  0.000000  0.652099  0.403880  1
  Co  Co39  1  0.000000  0.965692  0.594212  1
  Co  Co40  1  0.000000  0.465692  0.905788  1
  Co  Co41  1  0.000000  0.152099  0.096120  1
  Co  Co42  1  0.000000  0.847901  0.903880  1
  Co  Co43  1  0.000000  0.347901  0.596120  1
