# generated using pymatgen
data_Sr3In11
_symmetry_space_group_name_H-M   'P 1'
_cell_length_a   9.47792677
_cell_length_b   9.47792677
_cell_length_c   9.47792677
_cell_angle_alpha   148.75196857
_cell_angle_beta   106.65446307
_cell_angle_gamma   81.86367466
_symmetry_Int_Tables_number   1
_chemical_formula_structural   Sr3In11
_chemical_formula_sum   'Sr3 In11'
_cell_volume   413.86105506
_cell_formula_units_Z   1
loop_
 _symmetry_equiv_pos_site_id
 _symmetry_equiv_pos_as_xyz
  1  'x, y, z'
loop_
 _atom_site_type_symbol
 _atom_site_label
 _atom_site_symmetry_multiplicity
 _atom_site_fract_x
 _atom_site_fract_y
 _atom_site_fract_z
 _atom_site_occupancy
  Sr  Sr0  1  0.308746  0.808746  0.500000  1
  Sr  Sr1  1  0.691254  0.191254  0.500000  1
  Sr  Sr2  1  1.000000  0.500000  0.500000  1
  In  In3  1  0.872296  0.646311  0.225985  1
  In  In4  1  0.420326  0.646311  0.774015  1
  In  In5  1  0.714657  0.842886  0.871771  1
  In  In6  1  0.127704  0.353689  0.774015  1
  In  In7  1  0.285343  0.157114  0.128229  1
  In  In8  1  0.690728  1.000000  0.690728  1
  In  In9  1  0.309272  1.000000  0.309272  1
  In  In10  1  0.579674  0.353689  0.225985  1
  In  In11  1  0.028885  0.157114  0.871771  1
  In  In12  1  0.500000  0.500000  0.000000  1
  In  In13  1  0.971115  0.842886  0.128229  1
