# generated using pymatgen
data_CsNaSi2O5
_symmetry_space_group_name_H-M   'P 1'
_cell_length_a   4.98584400
_cell_length_b   13.56740100
_cell_length_c   17.39845700
_cell_angle_alpha   90.00000000
_cell_angle_beta   90.00000000
_cell_angle_gamma   90.00000000
_symmetry_Int_Tables_number   1
_chemical_formula_structural   CsNaSi2O5
_chemical_formula_sum   'Cs8 Na8 Si16 O40'
_cell_volume   1176.91766461
_cell_formula_units_Z   8
loop_
 _symmetry_equiv_pos_site_id
 _symmetry_equiv_pos_as_xyz
  1  'x, y, z'
loop_
 _atom_site_type_symbol
 _atom_site_label
 _atom_site_symmetry_multiplicity
 _atom_site_fract_x
 _atom_site_fract_y
 _atom_site_fract_z
 _atom_site_occupancy
  Cs  Cs0  1  0.736678  0.506378  0.766202  1
  Cs  Cs1  1  0.752635  0.641352  0.016656  1
  Cs  Cs2  1  0.247365  0.141352  0.983344  1
  Cs  Cs3  1  0.747365  0.641352  0.516656  1
  Cs  Cs4  1  0.236678  0.006378  0.733798  1
  Cs  Cs5  1  0.263322  0.006378  0.233798  1
  Cs  Cs6  1  0.763322  0.506378  0.266202  1
  Cs  Cs7  1  0.252635  0.141352  0.483344  1
  Na  Na8  1  0.261289  0.734511  0.154376  1
  Na  Na9  1  0.744324  0.912361  0.596144  1
  Na  Na10  1  0.255676  0.412361  0.403856  1
  Na  Na11  1  0.755676  0.912361  0.096144  1
  Na  Na12  1  0.238711  0.734511  0.654376  1
  Na  Na13  1  0.738711  0.234511  0.845624  1
  Na  Na14  1  0.244324  0.412361  0.903856  1
  Na  Na15  1  0.761289  0.234511  0.345624  1
  Si  Si16  1  0.277167  0.688415  0.355411  1
  Si  Si17  1  0.722833  0.188415  0.644589  1
  Si  Si18  1  0.275434  0.862903  0.974770  1
  Si  Si19  1  0.222833  0.688415  0.855411  1
  Si  Si20  1  0.775434  0.362903  0.525230  1
  Si  Si21  1  0.270428  0.458576  0.604513  1
  Si  Si22  1  0.224566  0.862903  0.474770  1
  Si  Si23  1  0.218434  0.284204  0.723898  1
  Si  Si24  1  0.281566  0.284204  0.223898  1
  Si  Si25  1  0.724566  0.362903  0.025230  1
  Si  Si26  1  0.718434  0.784204  0.776102  1
  Si  Si27  1  0.777167  0.188415  0.144589  1
  Si  Si28  1  0.729572  0.958576  0.395487  1
  Si  Si29  1  0.229572  0.458576  0.104513  1
  Si  Si30  1  0.770428  0.958576  0.895487  1
  Si  Si31  1  0.781566  0.784204  0.276102  1
  O  O32  1  0.696836  0.359883  0.436602  1
  O  O33  1  0.091963  0.739367  0.285743  1
  O  O34  1  0.913866  0.907196  0.465015  1
  O  O35  1  0.784026  0.895729  0.315025  1
  O  O36  1  0.803164  0.359883  0.936602  1
  O  O37  1  0.284026  0.395729  0.184975  1
  O  O38  1  0.215974  0.395729  0.684975  1
  O  O39  1  0.777515  0.251466  0.564257  1
  O  O40  1  0.913834  0.435228  0.079492  1
  O  O41  1  0.776699  0.073035  0.383515  1
  O  O42  1  0.303164  0.859883  0.563398  1
  O  O43  1  0.722485  0.251466  0.064257  1
  O  O44  1  0.222485  0.751466  0.435743  1
  O  O45  1  0.907318  0.711944  0.830478  1
  O  O46  1  0.086134  0.407196  0.534985  1
  O  O47  1  0.223301  0.573035  0.616485  1
  O  O48  1  0.408037  0.739367  0.785743  1
  O  O49  1  0.701910  0.787185  0.187572  1
  O  O50  1  0.201910  0.287185  0.312428  1
  O  O51  1  0.723301  0.073035  0.883515  1
  O  O52  1  0.591963  0.239367  0.214257  1
  O  O53  1  0.413834  0.935228  0.420508  1
  O  O54  1  0.277515  0.751466  0.935743  1
  O  O55  1  0.798090  0.787185  0.687572  1
  O  O56  1  0.908037  0.239367  0.714257  1
  O  O57  1  0.715974  0.895729  0.815025  1
  O  O58  1  0.276699  0.573035  0.116485  1
  O  O59  1  0.592682  0.711944  0.330478  1
  O  O60  1  0.269582  0.573999  0.867520  1
  O  O61  1  0.769582  0.073999  0.632480  1
  O  O62  1  0.196836  0.859883  0.063398  1
  O  O63  1  0.586134  0.907196  0.965015  1
  O  O64  1  0.407318  0.211944  0.669522  1
  O  O65  1  0.230418  0.573999  0.367520  1
  O  O66  1  0.092682  0.211944  0.169522  1
  O  O67  1  0.730418  0.073999  0.132480  1
  O  O68  1  0.086166  0.935228  0.920508  1
  O  O69  1  0.413866  0.407196  0.034985  1
  O  O70  1  0.586166  0.435228  0.579492  1
  O  O71  1  0.298090  0.287185  0.812428  1
