# generated using pymatgen
data_Rb4Hf3S14
_symmetry_space_group_name_H-M   'P 1'
_cell_length_a   11.81056983
_cell_length_b   11.81056983
_cell_length_c   13.84202340
_cell_angle_alpha   68.76953331
_cell_angle_beta   111.23046669
_cell_angle_gamma   138.28364897
_symmetry_Int_Tables_number   1
_chemical_formula_structural   Rb4Hf3S14
_chemical_formula_sum   'Rb8 Hf6 S28'
_cell_volume   1184.45542396
_cell_formula_units_Z   2
loop_
 _symmetry_equiv_pos_site_id
 _symmetry_equiv_pos_as_xyz
  1  'x, y, z'
loop_
 _atom_site_type_symbol
 _atom_site_label
 _atom_site_symmetry_multiplicity
 _atom_site_fract_x
 _atom_site_fract_y
 _atom_site_fract_z
 _atom_site_occupancy
  Rb  Rb0  1  0.021619  0.616303  0.110075  1
  Rb  Rb1  1  0.616303  0.021619  0.389925  1
  Rb  Rb2  1  0.978381  0.383697  0.889925  1
  Rb  Rb3  1  0.383697  0.978381  0.610075  1
  Rb  Rb4  1  0.196894  0.327606  0.356132  1
  Rb  Rb5  1  0.327606  0.196894  0.143868  1
  Rb  Rb6  1  0.803106  0.672394  0.643868  1
  Rb  Rb7  1  0.672394  0.803106  0.856132  1
  Hf  Hf8  1  0.920779  0.584358  0.411875  1
  Hf  Hf9  1  0.584358  0.920779  0.088125  1
  Hf  Hf10  1  0.079221  0.415642  0.588125  1
  Hf  Hf11  1  0.415642  0.079221  0.911875  1
  Hf  Hf12  1  0.765730  0.765730  0.250000  1
  Hf  Hf13  1  0.234270  0.234270  0.750000  1
  S  S14  1  0.884504  0.804920  0.105745  1
  S  S15  1  0.804920  0.884504  0.394255  1
  S  S16  1  0.115496  0.195080  0.894255  1
  S  S17  1  0.195080  0.115496  0.605745  1
  S  S18  1  0.654213  0.516456  0.414881  1
  S  S19  1  0.516456  0.654213  0.085119  1
  S  S20  1  0.345787  0.483544  0.585119  1
  S  S21  1  0.483544  0.345787  0.914881  1
  S  S22  1  0.070806  0.899694  0.367992  1
  S  S23  1  0.899694  0.070806  0.132008  1
  S  S24  1  0.929194  0.100306  0.632008  1
  S  S25  1  0.100306  0.929194  0.867992  1
  S  S26  1  0.760620  0.568922  0.206700  1
  S  S27  1  0.568922  0.760620  0.293300  1
  S  S28  1  0.239380  0.431078  0.793300  1
  S  S29  1  0.431078  0.239380  0.706700  1
  S  S30  1  0.990152  0.431748  0.398598  1
  S  S31  1  0.431748  0.990152  0.101402  1
  S  S32  1  0.009848  0.568252  0.601402  1
  S  S33  1  0.568252  0.009848  0.898598  1
  S  S34  1  0.852943  0.190221  0.168152  1
  S  S35  1  0.190221  0.852943  0.331848  1
  S  S36  1  0.147057  0.809779  0.831848  1
  S  S37  1  0.809779  0.147057  0.668152  1
  S  S38  1  0.310502  0.595300  0.109608  1
  S  S39  1  0.595300  0.310502  0.390392  1
  S  S40  1  0.689498  0.404700  0.890392  1
  S  S41  1  0.404700  0.689498  0.609608  1
