# generated using pymatgen
data_Ba5Mg18Si13
_symmetry_space_group_name_H-M   'P 1'
_cell_length_a   14.55980273
_cell_length_b   14.55980273
_cell_length_c   4.50301300
_cell_angle_alpha   90.00000000
_cell_angle_beta   90.00000000
_cell_angle_gamma   120.00000000
_symmetry_Int_Tables_number   1
_chemical_formula_structural   Ba5Mg18Si13
_chemical_formula_sum   'Ba5 Mg18 Si13'
_cell_volume   826.69405402
_cell_formula_units_Z   1
loop_
 _symmetry_equiv_pos_site_id
 _symmetry_equiv_pos_as_xyz
  1  'x, y, z'
loop_
 _atom_site_type_symbol
 _atom_site_label
 _atom_site_symmetry_multiplicity
 _atom_site_fract_x
 _atom_site_fract_y
 _atom_site_fract_z
 _atom_site_occupancy
  Ba  Ba0  1  0.000000  0.819914  0.500000  1
  Ba  Ba1  1  0.180086  0.180086  0.500000  1
  Ba  Ba2  1  0.819914  0.000000  0.500000  1
  Ba  Ba3  1  0.666667  0.333333  0.000000  1
  Ba  Ba4  1  0.333333  0.666667  0.000000  1
  Mg  Mg5  1  0.177317  0.372715  0.000000  1
  Mg  Mg6  1  0.804603  0.627285  0.000000  1
  Mg  Mg7  1  0.372715  0.177317  0.000000  1
  Mg  Mg8  1  0.822683  0.195397  0.000000  1
  Mg  Mg9  1  0.195397  0.822683  0.000000  1
  Mg  Mg10  1  0.277635  0.000000  0.500000  1
  Mg  Mg11  1  0.722365  0.722365  0.500000  1
  Mg  Mg12  1  0.000000  0.277635  0.500000  1
  Mg  Mg13  1  0.878088  0.516986  0.500000  1
  Mg  Mg14  1  0.638898  0.121912  0.500000  1
  Mg  Mg15  1  0.483014  0.361102  0.500000  1
  Mg  Mg16  1  0.361102  0.483014  0.500000  1
  Mg  Mg17  1  0.121912  0.638898  0.500000  1
  Mg  Mg18  1  0.516986  0.878088  0.500000  1
  Mg  Mg19  1  0.441887  0.000000  0.000000  1
  Mg  Mg20  1  0.558113  0.558113  0.000000  1
  Mg  Mg21  1  0.000000  0.441887  0.000000  1
  Mg  Mg22  1  0.627285  0.804603  0.000000  1
  Si  Si23  1  0.308691  0.833554  0.500000  1
  Si  Si24  1  0.475137  0.166446  0.500000  1
  Si  Si25  1  0.691309  0.524863  0.500000  1
  Si  Si26  1  0.524863  0.691309  0.500000  1
  Si  Si27  1  0.166446  0.475137  0.500000  1
  Si  Si28  1  0.000000  0.000000  0.000000  1
  Si  Si29  1  0.165958  0.000000  0.000000  1
  Si  Si30  1  0.834042  0.834042  0.000000  1
  Si  Si31  1  0.000000  0.165958  0.000000  1
  Si  Si32  1  0.629532  0.000000  0.000000  1
  Si  Si33  1  0.370468  0.370468  0.000000  1
  Si  Si34  1  0.000000  0.629532  0.000000  1
  Si  Si35  1  0.833554  0.308691  0.500000  1
