# generated using pymatgen
data_SiB3
_symmetry_space_group_name_H-M   'P 1'
_cell_length_a   8.17498193
_cell_length_b   8.17498193
_cell_length_c   8.17498193
_cell_angle_alpha   135.25511019
_cell_angle_beta   118.33303958
_cell_angle_gamma   79.34796141
_symmetry_Int_Tables_number   1
_chemical_formula_structural   SiB3
_chemical_formula_sum   'Si8 B24'
_cell_volume   328.14503524
_cell_formula_units_Z   8
loop_
 _symmetry_equiv_pos_site_id
 _symmetry_equiv_pos_as_xyz
  1  'x, y, z'
loop_
 _atom_site_type_symbol
 _atom_site_label
 _atom_site_symmetry_multiplicity
 _atom_site_fract_x
 _atom_site_fract_y
 _atom_site_fract_z
 _atom_site_occupancy
  Si  Si0  1  0.019338  0.186129  0.205467  1
  Si  Si1  1  0.519338  0.813871  0.333210  1
  Si  Si2  1  0.345538  0.843325  0.997788  1
  Si  Si3  1  0.480662  0.186129  0.666790  1
  Si  Si4  1  0.980662  0.813871  0.794533  1
  Si  Si5  1  0.154462  0.652250  0.997788  1
  Si  Si6  1  0.845538  0.347750  0.002212  1
  Si  Si7  1  0.654462  0.156675  0.002212  1
  B  B8  1  0.925751  0.702279  0.276528  1
  B  B9  1  0.001816  0.109739  0.386736  1
  B  B10  1  0.501816  0.615080  0.392077  1
  B  B11  1  0.998184  0.890261  0.613264  1
  B  B12  1  0.074249  0.297721  0.723472  1
  B  B13  1  0.776997  0.890261  0.392077  1
  B  B14  1  0.823414  0.843262  0.169859  1
  B  B15  1  0.676586  0.346445  0.519848  1
  B  B16  1  0.323414  0.653555  0.480152  1
  B  B17  1  0.425751  0.649223  0.723472  1
  B  B18  1  0.723003  0.615080  0.613264  1
  B  B19  1  0.826597  0.156738  0.480152  1
  B  B20  1  0.176586  0.156738  0.830141  1
  B  B21  1  0.223003  0.109739  0.607923  1
  B  B22  1  0.569111  0.797413  0.728302  1
  B  B23  1  0.930889  0.159191  0.728302  1
  B  B24  1  0.326597  0.346445  0.169859  1
  B  B25  1  0.498184  0.384920  0.607923  1
  B  B26  1  0.173403  0.843262  0.519848  1
  B  B27  1  0.430889  0.202587  0.271698  1
  B  B28  1  0.069111  0.840809  0.271698  1
  B  B29  1  0.276997  0.384920  0.386736  1
  B  B30  1  0.574249  0.350777  0.276528  1
  B  B31  1  0.673403  0.653555  0.830141  1
