# generated using pymatgen
data_Na5La(WO4)4
_symmetry_space_group_name_H-M   'P 1'
_cell_length_a   10.20332623
_cell_length_b   10.20332623
_cell_length_c   10.20332623
_cell_angle_alpha   108.95005514
_cell_angle_beta   108.95005514
_cell_angle_gamma   110.51865651
_symmetry_Int_Tables_number   1
_chemical_formula_structural   Na5La(WO4)4
_chemical_formula_sum   'Na10 La2 W8 O32'
_cell_volume   817.51236072
_cell_formula_units_Z   2
loop_
 _symmetry_equiv_pos_site_id
 _symmetry_equiv_pos_as_xyz
  1  'x, y, z'
loop_
 _atom_site_type_symbol
 _atom_site_label
 _atom_site_symmetry_multiplicity
 _atom_site_fract_x
 _atom_site_fract_y
 _atom_site_fract_z
 _atom_site_occupancy
  Na  Na0  1  0.500000  0.500000  0.000000  1
  Na  Na1  1  0.750000  0.250000  0.500000  1
  Na  Na2  1  0.828854  0.653718  0.417254  1
  Na  Na3  1  0.661600  0.578854  0.675136  1
  Na  Na4  1  0.903718  0.986464  0.324864  1
  Na  Na5  1  0.236464  0.411600  0.582746  1
  Na  Na6  1  0.421146  0.096282  0.082746  1
  Na  Na7  1  0.588400  0.171146  0.824864  1
  Na  Na8  1  0.346282  0.763536  0.175136  1
  Na  Na9  1  0.013536  0.338400  0.917254  1
  La  La10  1  1.000000  1.000000  0.000000  1
  La  La11  1  0.250000  0.750000  0.500000  1
  W  W12  1  0.699954  0.919664  0.584204  1
  W  W13  1  0.365750  0.449954  0.280290  1
  W  W14  1  0.169664  0.085460  0.719710  1
  W  W15  1  0.335460  0.115750  0.415796  1
  W  W16  1  0.550046  0.830336  0.915796  1
  W  W17  1  0.884250  0.300046  0.219710  1
  W  W18  1  0.080336  0.664540  0.780290  1
  W  W19  1  0.914540  0.634250  0.084204  1
  O  O20  1  0.482467  0.805470  0.446332  1
  O  O21  1  0.286135  0.232467  0.176997  1
  O  O22  1  0.055470  0.109138  0.823003  1
  O  O23  1  0.359138  0.036135  0.553668  1
  O  O24  1  0.767533  0.944530  0.053668  1
  O  O25  1  0.963865  0.517533  0.323003  1
  O  O26  1  0.194530  0.640862  0.676997  1
  O  O27  1  0.890862  0.713865  0.946332  1
  O  O28  1  0.792490  0.889805  0.462671  1
  O  O29  1  0.579819  0.542490  0.402685  1
  O  O30  1  0.139805  0.177134  0.597315  1
  O  O31  1  0.427134  0.329819  0.537329  1
  O  O32  1  0.457510  0.860195  0.037329  1
  O  O33  1  0.670181  0.207510  0.097315  1
  O  O34  1  0.110195  0.572866  0.902685  1
  O  O35  1  0.822866  0.420181  0.962671  1
  O  O36  1  0.754642  0.852921  0.731338  1
  O  O37  1  0.273304  0.504642  0.401721  1
  O  O38  1  0.102921  0.871582  0.598279  1
  O  O39  1  0.121582  0.023304  0.268662  1
  O  O40  1  0.495358  0.897079  0.768662  1
  O  O41  1  0.976696  0.245358  0.098279  1
  O  O42  1  0.147079  0.878418  0.901721  1
  O  O43  1  0.128418  0.726696  0.231338  1
  O  O44  1  0.756005  0.130070  0.673729  1
  O  O45  1  0.332277  0.506005  0.125935  1
  O  O46  1  0.380070  0.206342  0.874065  1
  O  O47  1  0.456342  0.082277  0.326271  1
  O  O48  1  0.493995  0.619930  0.826271  1
  O  O49  1  0.917723  0.243995  0.374065  1
  O  O50  1  0.869930  0.543658  0.625935  1
  O  O51  1  0.793658  0.667723  0.173729  1
