# generated using pymatgen
data_SnSe2(Cl4O)2
_symmetry_space_group_name_H-M   'P 1'
_cell_length_a   6.84376401
_cell_length_b   6.84376401
_cell_length_c   16.84812420
_cell_angle_alpha   86.03480956
_cell_angle_beta   93.96519044
_cell_angle_gamma   90.62499490
_symmetry_Int_Tables_number   1
_chemical_formula_structural   SnSe2(Cl4O)2
_chemical_formula_sum   'Sn2 Se4 Cl16 O4'
_cell_volume   785.32911328
_cell_formula_units_Z   2
loop_
 _symmetry_equiv_pos_site_id
 _symmetry_equiv_pos_as_xyz
  1  'x, y, z'
loop_
 _atom_site_type_symbol
 _atom_site_label
 _atom_site_symmetry_multiplicity
 _atom_site_fract_x
 _atom_site_fract_y
 _atom_site_fract_z
 _atom_site_occupancy
  Sn  Sn0  1  0.199356  0.199356  0.750000  1
  Sn  Sn1  1  0.800644  0.800644  0.250000  1
  Se  Se2  1  0.098465  0.786590  0.866465  1
  Se  Se3  1  0.786590  0.098465  0.633535  1
  Se  Se4  1  0.901535  0.213410  0.133535  1
  Se  Se5  1  0.213410  0.901535  0.366465  1
  Cl  Cl6  1  0.304552  0.167038  0.425540  1
  Cl  Cl7  1  0.695448  0.832962  0.574460  1
  Cl  Cl8  1  0.167038  0.304552  0.074460  1
  Cl  Cl9  1  0.910624  0.408653  0.740613  1
  Cl  Cl10  1  0.408653  0.910624  0.759387  1
  Cl  Cl11  1  0.591347  0.089376  0.240613  1
  Cl  Cl12  1  0.180962  0.707193  0.474500  1
  Cl  Cl13  1  0.636569  0.642430  0.141872  1
  Cl  Cl14  1  0.363431  0.357570  0.858128  1
  Cl  Cl15  1  0.357570  0.363431  0.641872  1
  Cl  Cl16  1  0.832962  0.695448  0.925540  1
  Cl  Cl17  1  0.292807  0.819038  0.974500  1
  Cl  Cl18  1  0.707193  0.180962  0.025500  1
  Cl  Cl19  1  0.642430  0.636569  0.358128  1
  Cl  Cl20  1  0.819038  0.292807  0.525500  1
  Cl  Cl21  1  0.089376  0.591347  0.259387  1
  O  O22  1  0.018109  0.028134  0.663202  1
  O  O23  1  0.981891  0.971866  0.336798  1
  O  O24  1  0.971866  0.981891  0.163202  1
  O  O25  1  0.028134  0.018109  0.836798  1
