# generated using pymatgen
data_Ba4Nd2Cu2O9
_symmetry_space_group_name_H-M   'P 1'
_cell_length_a   12.11348028
_cell_length_b   12.11348028
_cell_length_c   3.91815952
_cell_angle_alpha   90.00000000
_cell_angle_beta   90.00000000
_cell_angle_gamma   90.00000000
_symmetry_Int_Tables_number   1
_chemical_formula_structural   Ba4Nd2Cu2O9
_chemical_formula_sum   'Ba8 Nd4 Cu4 O18'
_cell_volume   574.93664020
_cell_formula_units_Z   2
loop_
 _symmetry_equiv_pos_site_id
 _symmetry_equiv_pos_as_xyz
  1  'x, y, z'
loop_
 _atom_site_type_symbol
 _atom_site_label
 _atom_site_symmetry_multiplicity
 _atom_site_fract_x
 _atom_site_fract_y
 _atom_site_fract_z
 _atom_site_occupancy
  Ba  Ba0  1  0.828352  0.886496  0.261245  1
  Ba  Ba1  1  0.671648  0.386496  0.761245  1
  Ba  Ba2  1  0.171648  0.113504  0.261245  1
  Ba  Ba3  1  0.886496  0.171648  0.738755  1
  Ba  Ba4  1  0.613504  0.671648  0.238755  1
  Ba  Ba5  1  0.386496  0.328352  0.238755  1
  Ba  Ba6  1  0.113504  0.828352  0.738755  1
  Ba  Ba7  1  0.328352  0.613504  0.761245  1
  Nd  Nd8  1  0.889753  0.610247  0.750000  1
  Nd  Nd9  1  0.110247  0.389753  0.750000  1
  Nd  Nd10  1  0.389753  0.889753  0.250000  1
  Nd  Nd11  1  0.610247  0.110247  0.250000  1
  Cu  Cu12  1  0.098365  0.598365  0.250000  1
  Cu  Cu13  1  0.401635  0.098365  0.750000  1
  Cu  Cu14  1  0.598365  0.901635  0.750000  1
  Cu  Cu15  1  0.901635  0.401635  0.250000  1
  O  O16  1  0.256343  0.756343  0.250000  1
  O  O17  1  0.209194  0.476921  0.250752  1
  O  O18  1  0.023079  0.290806  0.249248  1
  O  O19  1  0.243657  0.256343  0.750000  1
  O  O20  1  0.592833  0.907167  0.250000  1
  O  O21  1  0.092833  0.592833  0.750000  1
  O  O22  1  0.709194  0.023079  0.750752  1
  O  O23  1  0.976921  0.709194  0.249248  1
  O  O24  1  0.756343  0.743657  0.750000  1
  O  O25  1  0.907167  0.407167  0.750000  1
  O  O26  1  0.476921  0.790806  0.749248  1
  O  O27  1  0.290806  0.976921  0.750752  1
  O  O28  1  0.790806  0.523079  0.250752  1
  O  O29  1  0.743657  0.243657  0.250000  1
  O  O30  1  0.500000  0.500000  0.000000  1
  O  O31  1  0.523079  0.209194  0.749248  1
  O  O32  1  0.407167  0.092833  0.250000  1
  O  O33  1  0.000000  0.000000  0.500000  1
