# generated using pymatgen
data_Zn2GeO4
_symmetry_space_group_name_H-M   'P 1'
_cell_length_a   8.95509623
_cell_length_b   8.95509623
_cell_length_c   8.95509623
_cell_angle_alpha   107.81594611
_cell_angle_beta   107.81594611
_cell_angle_gamma   107.81594611
_symmetry_Int_Tables_number   1
_chemical_formula_structural   Zn2GeO4
_chemical_formula_sum   'Zn12 Ge6 O24'
_cell_volume   584.25314008
_cell_formula_units_Z   6
loop_
 _symmetry_equiv_pos_site_id
 _symmetry_equiv_pos_as_xyz
  1  'x, y, z'
loop_
 _atom_site_type_symbol
 _atom_site_label
 _atom_site_symmetry_multiplicity
 _atom_site_fract_x
 _atom_site_fract_y
 _atom_site_fract_z
 _atom_site_occupancy
  Zn  Zn0  1  0.873509  0.275712  0.103343  1
  Zn  Zn1  1  0.103343  0.873509  0.275712  1
  Zn  Zn2  1  0.275712  0.103343  0.873509  1
  Zn  Zn3  1  0.126491  0.724288  0.896657  1
  Zn  Zn4  1  0.896657  0.126491  0.724288  1
  Zn  Zn5  1  0.724288  0.896657  0.126491  1
  Zn  Zn6  1  0.202876  0.608264  0.440512  1
  Zn  Zn7  1  0.440512  0.202876  0.608264  1
  Zn  Zn8  1  0.608264  0.440512  0.202876  1
  Zn  Zn9  1  0.797124  0.391736  0.559488  1
  Zn  Zn10  1  0.559488  0.797124  0.391736  1
  Zn  Zn11  1  0.391736  0.559488  0.797124  1
  Ge  Ge12  1  0.537051  0.945060  0.767935  1
  Ge  Ge13  1  0.767935  0.537051  0.945060  1
  Ge  Ge14  1  0.945060  0.767935  0.537051  1
  Ge  Ge15  1  0.462949  0.054940  0.232065  1
  Ge  Ge16  1  0.232065  0.462949  0.054940  1
  Ge  Ge17  1  0.054940  0.232065  0.462949  1
  O  O18  1  0.421530  0.073330  0.750746  1
  O  O19  1  0.750746  0.421530  0.073330  1
  O  O20  1  0.073330  0.750746  0.421530  1
  O  O21  1  0.578470  0.926670  0.249254  1
  O  O22  1  0.249254  0.578470  0.926670  1
  O  O23  1  0.926670  0.249254  0.578470  1
  O  O24  1  0.035171  0.363359  0.350005  1
  O  O25  1  0.350005  0.035171  0.363359  1
  O  O26  1  0.363359  0.350005  0.035171  1
  O  O27  1  0.964829  0.636641  0.649995  1
  O  O28  1  0.649995  0.964829  0.636641  1
  O  O29  1  0.636641  0.649995  0.964829  1
  O  O30  1  0.389307  0.721445  0.683863  1
  O  O31  1  0.683863  0.389307  0.721445  1
  O  O32  1  0.721445  0.683863  0.389307  1
  O  O33  1  0.610693  0.278555  0.316137  1
  O  O34  1  0.316137  0.610693  0.278555  1
  O  O35  1  0.278555  0.316137  0.610693  1
  O  O36  1  0.970659  0.013999  0.304259  1
  O  O37  1  0.013999  0.304259  0.970659  1
  O  O38  1  0.304259  0.970659  0.013999  1
  O  O39  1  0.029341  0.986001  0.695741  1
  O  O40  1  0.986001  0.695741  0.029341  1
  O  O41  1  0.695741  0.029341  0.986001  1
