# generated using pymatgen
data_KMnF3
_symmetry_space_group_name_H-M   'P 1'
_cell_length_a   6.00742540
_cell_length_b   6.03319364
_cell_length_c   8.49788455
_cell_angle_alpha   90.00000000
_cell_angle_beta   90.00000000
_cell_angle_gamma   90.00000000
_symmetry_Int_Tables_number   1
_chemical_formula_structural   KMnF3
_chemical_formula_sum   'K4 Mn4 F12'
_cell_volume   307.99699380
_cell_formula_units_Z   4
loop_
 _symmetry_equiv_pos_site_id
 _symmetry_equiv_pos_as_xyz
  1  'x, y, z'
loop_
 _atom_site_type_symbol
 _atom_site_label
 _atom_site_symmetry_multiplicity
 _atom_site_fract_x
 _atom_site_fract_y
 _atom_site_fract_z
 _atom_site_occupancy
  K  K0  1  0.991118  0.001950  0.250000  1
  K  K1  1  0.491118  0.498050  0.250000  1
  K  K2  1  0.508882  0.501950  0.750000  1
  K  K3  1  0.008882  0.998050  0.750000  1
  Mn  Mn4  1  0.000000  0.500000  0.000000  1
  Mn  Mn5  1  0.500000  0.000000  0.500000  1
  Mn  Mn6  1  0.500000  0.000000  0.000000  1
  Mn  Mn7  1  0.000000  0.500000  0.500000  1
  F  F8  1  0.735170  0.264811  0.477481  1
  F  F9  1  0.235170  0.235189  0.022519  1
  F  F10  1  0.764830  0.764811  0.522519  1
  F  F11  1  0.264830  0.735189  0.977481  1
  F  F12  1  0.264830  0.735189  0.522519  1
  F  F13  1  0.764830  0.764811  0.977481  1
  F  F14  1  0.235170  0.235189  0.477481  1
  F  F15  1  0.735170  0.264811  0.022519  1
  F  F16  1  0.503257  0.956539  0.250000  1
  F  F17  1  0.003257  0.543461  0.250000  1
  F  F18  1  0.996743  0.456539  0.750000  1
  F  F19  1  0.496743  0.043461  0.750000  1
