# generated using pymatgen
data_Cs5Hg19
_symmetry_space_group_name_H-M   'P 1'
_cell_length_a   10.48108692
_cell_length_b   10.48108692
_cell_length_c   10.48108692
_cell_angle_alpha   106.96546266
_cell_angle_beta   106.96546266
_cell_angle_gamma   114.60811707
_symmetry_Int_Tables_number   1
_chemical_formula_structural   Cs5Hg19
_chemical_formula_sum   'Cs5 Hg19'
_cell_volume   880.94115757
_cell_formula_units_Z   1
loop_
 _symmetry_equiv_pos_site_id
 _symmetry_equiv_pos_as_xyz
  1  'x, y, z'
loop_
 _atom_site_type_symbol
 _atom_site_label
 _atom_site_symmetry_multiplicity
 _atom_site_fract_x
 _atom_site_fract_y
 _atom_site_fract_z
 _atom_site_occupancy
  Cs  Cs0  1  0.324303  0.119118  0.443421  1
  Cs  Cs1  1  0.880882  0.324303  0.205185  1
  Cs  Cs2  1  0.119118  0.675697  0.794815  1
  Cs  Cs3  1  0.675697  0.880882  0.556579  1
  Cs  Cs4  1  0.500000  0.500000  0.000000  1
  Hg  Hg5  1  0.343090  0.525938  0.589332  1
  Hg  Hg6  1  0.753757  0.343090  0.817152  1
  Hg  Hg7  1  0.525938  0.936605  0.182848  1
  Hg  Hg8  1  0.936605  0.753757  0.410668  1
  Hg  Hg9  1  0.656910  0.474062  0.410668  1
  Hg  Hg10  1  0.246243  0.656910  0.182848  1
  Hg  Hg11  1  0.474062  0.063395  0.817152  1
  Hg  Hg12  1  0.063395  0.246243  0.589332  1
  Hg  Hg13  1  0.250000  0.750000  0.500000  1
  Hg  Hg14  1  0.750000  0.250000  0.500000  1
  Hg  Hg15  1  0.298044  0.390735  0.252514  1
  Hg  Hg16  1  0.045530  0.298044  0.907309  1
  Hg  Hg17  1  0.390735  0.138221  0.092691  1
  Hg  Hg18  1  0.138221  0.045530  0.747486  1
  Hg  Hg19  1  0.701956  0.609265  0.747486  1
  Hg  Hg20  1  0.954470  0.701956  0.092691  1
  Hg  Hg21  1  0.609265  0.861779  0.907309  1
  Hg  Hg22  1  0.861779  0.954470  0.252514  1
  Hg  Hg23  1  0.000000  0.000000  0.000000  1
