# generated using pymatgen
data_AlPO4
_symmetry_space_group_name_H-M   'P 1'
_cell_length_a   5.16057129
_cell_length_b   5.16057129
_cell_length_c   11.36091088
_cell_angle_alpha   90.00000000
_cell_angle_beta   90.00000000
_cell_angle_gamma   120.00000000
_symmetry_Int_Tables_number   1
_chemical_formula_structural   AlPO4
_chemical_formula_sum   'Al3 P3 O12'
_cell_volume   262.02296018
_cell_formula_units_Z   3
loop_
 _symmetry_equiv_pos_site_id
 _symmetry_equiv_pos_as_xyz
  1  'x, y, z'
loop_
 _atom_site_type_symbol
 _atom_site_label
 _atom_site_symmetry_multiplicity
 _atom_site_fract_x
 _atom_site_fract_y
 _atom_site_fract_z
 _atom_site_occupancy
  Al  Al0  1  0.000000  0.500000  0.833333  1
  Al  Al1  1  0.500000  0.000000  0.500000  1
  Al  Al2  1  0.500000  0.500000  0.166667  1
  P  P3  1  0.500000  0.500000  0.666667  1
  P  P4  1  0.000000  0.500000  0.333333  1
  P  P5  1  0.500000  0.000000  0.000000  1
  O  O6  1  0.193530  0.773702  0.410749  1
  O  O7  1  0.226298  0.806470  0.922585  1
  O  O8  1  0.806470  0.226298  0.410749  1
  O  O9  1  0.226298  0.419828  0.744082  1
  O  O10  1  0.193530  0.419828  0.255918  1
  O  O11  1  0.580172  0.806470  0.077415  1
  O  O12  1  0.773702  0.193530  0.922585  1
  O  O13  1  0.419828  0.193530  0.077415  1
  O  O14  1  0.580172  0.773702  0.589251  1
  O  O15  1  0.806470  0.580172  0.255918  1
  O  O16  1  0.773702  0.580172  0.744082  1
  O  O17  1  0.419828  0.226298  0.589251  1
