# generated using pymatgen
data_PbCClO2
_symmetry_space_group_name_H-M   'P 1'
_cell_length_a   4.24401786
_cell_length_b   4.24401786
_cell_length_c   9.51729224
_cell_angle_alpha   86.48857556
_cell_angle_beta   93.51142444
_cell_angle_gamma   90.61314918
_symmetry_Int_Tables_number   1
_chemical_formula_structural   PbCClO2
_chemical_formula_sum   'Pb2 C2 Cl2 O4'
_cell_volume   170.77528821
_cell_formula_units_Z   2
loop_
 _symmetry_equiv_pos_site_id
 _symmetry_equiv_pos_as_xyz
  1  'x, y, z'
loop_
 _atom_site_type_symbol
 _atom_site_label
 _atom_site_symmetry_multiplicity
 _atom_site_fract_x
 _atom_site_fract_y
 _atom_site_fract_z
 _atom_site_occupancy
  Pb  Pb0  1  0.228502  0.771498  0.777150  1
  Pb  Pb1  1  0.771498  0.228502  0.222850  1
  C  C2  1  0.369576  0.369576  0.500000  1
  C  C3  1  0.630424  0.630424  0.500000  1
  Cl  Cl4  1  0.272923  0.727077  0.116245  1
  Cl  Cl5  1  0.727077  0.272923  0.883755  1
  O  O6  1  0.671145  0.785873  0.609472  1
  O  O7  1  0.785873  0.671145  0.390528  1
  O  O8  1  0.214127  0.328855  0.609472  1
  O  O9  1  0.328855  0.214127  0.390528  1
