# generated using pymatgen
data_K2Th(MoO4)3
_symmetry_space_group_name_H-M   'P 1'
_cell_length_a   11.14043885
_cell_length_b   11.14043885
_cell_length_c   5.54003878
_cell_angle_alpha   79.67516698
_cell_angle_beta   100.32483302
_cell_angle_gamma   113.96522380
_symmetry_Int_Tables_number   1
_chemical_formula_structural   K2Th(MoO4)3
_chemical_formula_sum   'K4 Th2 Mo6 O24'
_cell_volume   613.77613535
_cell_formula_units_Z   2
loop_
 _symmetry_equiv_pos_site_id
 _symmetry_equiv_pos_as_xyz
  1  'x, y, z'
loop_
 _atom_site_type_symbol
 _atom_site_label
 _atom_site_symmetry_multiplicity
 _atom_site_fract_x
 _atom_site_fract_y
 _atom_site_fract_z
 _atom_site_occupancy
  K  K0  1  0.431188  0.801641  0.511126  1
  K  K1  1  0.801641  0.431188  0.988874  1
  K  K2  1  0.568812  0.198359  0.488874  1
  K  K3  1  0.198359  0.568812  0.011126  1
  Th  Th4  1  0.131504  0.131504  0.250000  1
  Th  Th5  1  0.868496  0.868496  0.750000  1
  Mo  Mo6  1  0.402840  0.402840  0.250000  1
  Mo  Mo7  1  0.597160  0.597160  0.750000  1
  Mo  Mo8  1  0.253688  0.958045  0.873170  1
  Mo  Mo9  1  0.958045  0.253688  0.626830  1
  Mo  Mo10  1  0.746312  0.041955  0.126830  1
  Mo  Mo11  1  0.041955  0.746312  0.373170  1
  O  O12  1  0.114680  0.979411  0.632075  1
  O  O13  1  0.979411  0.114680  0.867925  1
  O  O14  1  0.885320  0.020589  0.367925  1
  O  O15  1  0.020589  0.885320  0.132075  1
  O  O16  1  0.545004  0.406958  0.136346  1
  O  O17  1  0.406958  0.545004  0.363654  1
  O  O18  1  0.454996  0.593042  0.863654  1
  O  O19  1  0.593042  0.454996  0.636346  1
  O  O20  1  0.225936  0.810376  0.083160  1
  O  O21  1  0.810376  0.225936  0.416840  1
  O  O22  1  0.774064  0.189624  0.916840  1
  O  O23  1  0.189624  0.774064  0.583160  1
  O  O24  1  0.401737  0.000580  0.750837  1
  O  O25  1  0.000580  0.401737  0.749163  1
  O  O26  1  0.598263  0.999420  0.249163  1
  O  O27  1  0.999420  0.598263  0.250837  1
  O  O28  1  0.338500  0.248767  0.463123  1
  O  O29  1  0.248767  0.338500  0.036877  1
  O  O30  1  0.661500  0.751233  0.536877  1
  O  O31  1  0.751233  0.661500  0.963123  1
  O  O32  1  0.716936  0.919022  0.924549  1
  O  O33  1  0.919022  0.716936  0.575451  1
  O  O34  1  0.283064  0.080978  0.075451  1
  O  O35  1  0.080978  0.283064  0.424549  1
