# generated using pymatgen
data_BeZnO2
_symmetry_space_group_name_H-M   'P 1'
_cell_length_a   5.03368773
_cell_length_b   5.03368773
_cell_length_c   5.03368773
_cell_angle_alpha   129.31906598
_cell_angle_beta   129.31906598
_cell_angle_gamma   74.49772204
_symmetry_Int_Tables_number   1
_chemical_formula_structural   BeZnO2
_chemical_formula_sum   'Be2 Zn2 O4'
_cell_volume   74.39085391
_cell_formula_units_Z   2
loop_
 _symmetry_equiv_pos_site_id
 _symmetry_equiv_pos_as_xyz
  1  'x, y, z'
loop_
 _atom_site_type_symbol
 _atom_site_label
 _atom_site_symmetry_multiplicity
 _atom_site_fract_x
 _atom_site_fract_y
 _atom_site_fract_z
 _atom_site_occupancy
  Be  Be0  1  0.500000  0.500000  0.000000  1
  Be  Be1  1  0.250000  0.750000  0.500000  1
  Zn  Zn2  1  0.000000  0.000000  0.000000  1
  Zn  Zn3  1  0.750000  0.250000  0.500000  1
  O  O4  1  0.375000  0.810293  0.935293  1
  O  O5  1  0.189707  0.125000  0.564707  1
  O  O6  1  0.560293  0.625000  0.435293  1
  O  O7  1  0.875000  0.439707  0.064707  1
