# generated using pymatgen
data_K5Ag2(AsSe3)3
_symmetry_space_group_name_H-M   'P 1'
_cell_length_a   12.81368865
_cell_length_b   12.84957747
_cell_length_c   14.34079996
_cell_angle_alpha   90.00000000
_cell_angle_beta   90.00000000
_cell_angle_gamma   90.00000000
_symmetry_Int_Tables_number   1
_chemical_formula_structural   K5Ag2(AsSe3)3
_chemical_formula_sum   'K20 Ag8 As12 Se36'
_cell_volume   2361.21966848
_cell_formula_units_Z   4
loop_
 _symmetry_equiv_pos_site_id
 _symmetry_equiv_pos_as_xyz
  1  'x, y, z'
loop_
 _atom_site_type_symbol
 _atom_site_label
 _atom_site_symmetry_multiplicity
 _atom_site_fract_x
 _atom_site_fract_y
 _atom_site_fract_z
 _atom_site_occupancy
  K  K0  1  0.920973  0.019295  0.672851  1
  K  K1  1  0.079027  0.480705  0.172851  1
  K  K2  1  0.750000  0.826919  0.991503  1
  K  K3  1  0.250000  0.173081  0.008497  1
  K  K4  1  0.923794  0.676961  0.496022  1
  K  K5  1  0.076206  0.323039  0.503978  1
  K  K6  1  0.250000  0.673081  0.491503  1
  K  K7  1  0.923794  0.176961  0.003978  1
  K  K8  1  0.079027  0.980705  0.327149  1
  K  K9  1  0.423794  0.323039  0.503978  1
  K  K10  1  0.750000  0.326919  0.508497  1
  K  K11  1  0.420973  0.980705  0.327149  1
  K  K12  1  0.576206  0.676961  0.496022  1
  K  K13  1  0.420973  0.480705  0.172851  1
  K  K14  1  0.076206  0.823039  0.996022  1
  K  K15  1  0.579027  0.519295  0.827149  1
  K  K16  1  0.920973  0.519295  0.827149  1
  K  K17  1  0.579027  0.019295  0.672851  1
  K  K18  1  0.423794  0.823039  0.996022  1
  K  K19  1  0.576206  0.176961  0.003978  1
  Ag  Ag20  1  0.588930  0.762754  0.212698  1
  Ag  Ag21  1  0.088930  0.237246  0.787302  1
  Ag  Ag22  1  0.088930  0.737246  0.712698  1
  Ag  Ag23  1  0.411070  0.237246  0.787302  1
  Ag  Ag24  1  0.588930  0.262754  0.287302  1
  Ag  Ag25  1  0.411070  0.737246  0.712698  1
  Ag  Ag26  1  0.911070  0.762754  0.212698  1
  Ag  Ag27  1  0.911070  0.262754  0.287302  1
  As  As28  1  0.750000  0.020448  0.407230  1
  As  As29  1  0.250000  0.467836  0.718012  1
  As  As30  1  0.750000  0.532164  0.281988  1
  As  As31  1  0.250000  0.250905  0.296473  1
  As  As32  1  0.750000  0.032164  0.218012  1
  As  As33  1  0.250000  0.967836  0.781988  1
  As  As34  1  0.250000  0.479552  0.907230  1
  As  As35  1  0.750000  0.520448  0.092770  1
  As  As36  1  0.250000  0.750905  0.203527  1
  As  As37  1  0.250000  0.979552  0.592770  1
  As  As38  1  0.750000  0.749095  0.703527  1
  As  As39  1  0.750000  0.249095  0.796473  1
  Se  Se40  1  0.750000  0.214397  0.177032  1
  Se  Se41  1  0.596079  0.961192  0.148431  1
  Se  Se42  1  0.903921  0.461192  0.351569  1
  Se  Se43  1  0.101176  0.875613  0.567952  1
  Se  Se44  1  0.596079  0.461192  0.351569  1
  Se  Se45  1  0.250000  0.924688  0.153982  1
  Se  Se46  1  0.098899  0.214975  0.204391  1
  Se  Se47  1  0.403921  0.038808  0.851569  1
  Se  Se48  1  0.401101  0.214975  0.204391  1
  Se  Se49  1  0.250000  0.143339  0.431347  1
  Se  Se50  1  0.750000  0.356661  0.931347  1
  Se  Se51  1  0.750000  0.575312  0.653982  1
  Se  Se52  1  0.598899  0.285025  0.704391  1
  Se  Se53  1  0.250000  0.643339  0.068653  1
  Se  Se54  1  0.750000  0.714397  0.322968  1
  Se  Se55  1  0.398824  0.875613  0.567952  1
  Se  Se56  1  0.750000  0.856661  0.568653  1
  Se  Se57  1  0.250000  0.424688  0.346018  1
  Se  Se58  1  0.601176  0.624387  0.067952  1
  Se  Se59  1  0.750000  0.075312  0.846018  1
  Se  Se60  1  0.898824  0.124387  0.432048  1
  Se  Se61  1  0.098899  0.714975  0.295609  1
  Se  Se62  1  0.903921  0.961192  0.148431  1
  Se  Se63  1  0.898824  0.624387  0.067952  1
  Se  Se64  1  0.398824  0.375613  0.932048  1
  Se  Se65  1  0.403921  0.538808  0.648431  1
  Se  Se66  1  0.901101  0.285025  0.704391  1
  Se  Se67  1  0.101176  0.375613  0.932048  1
  Se  Se68  1  0.601176  0.124387  0.432048  1
  Se  Se69  1  0.096080  0.538808  0.648431  1
  Se  Se70  1  0.901101  0.785025  0.795609  1
  Se  Se71  1  0.598899  0.785025  0.795609  1
  Se  Se72  1  0.250000  0.285603  0.677032  1
  Se  Se73  1  0.096080  0.038808  0.851569  1
  Se  Se74  1  0.250000  0.785603  0.822968  1
  Se  Se75  1  0.401101  0.714975  0.295609  1
