# generated using pymatgen
data_Sr5(GeN3)2
_symmetry_space_group_name_H-M   'P 1'
_cell_length_a   6.19298682
_cell_length_b   6.19298682
_cell_length_c   13.67404228
_cell_angle_alpha   81.42195552
_cell_angle_beta   98.57804448
_cell_angle_gamma   115.78565650
_symmetry_Int_Tables_number   1
_chemical_formula_structural   Sr5(GeN3)2
_chemical_formula_sum   'Sr10 Ge4 N12'
_cell_volume   464.84309695
_cell_formula_units_Z   2
loop_
 _symmetry_equiv_pos_site_id
 _symmetry_equiv_pos_as_xyz
  1  'x, y, z'
loop_
 _atom_site_type_symbol
 _atom_site_label
 _atom_site_symmetry_multiplicity
 _atom_site_fract_x
 _atom_site_fract_y
 _atom_site_fract_z
 _atom_site_occupancy
  Sr  Sr0  1  0.932613  0.242314  0.284737  1
  Sr  Sr1  1  0.323781  0.203343  0.497425  1
  Sr  Sr2  1  0.757686  0.067387  0.784737  1
  Sr  Sr3  1  0.619589  0.619589  0.250000  1
  Sr  Sr4  1  0.796657  0.676219  0.997425  1
  Sr  Sr5  1  0.380411  0.380411  0.750000  1
  Sr  Sr6  1  0.676219  0.796657  0.502575  1
  Sr  Sr7  1  0.203343  0.323781  0.002575  1
  Sr  Sr8  1  0.242314  0.932613  0.215263  1
  Sr  Sr9  1  0.067387  0.757686  0.715263  1
  Ge  Ge10  1  0.651230  0.096936  0.076567  1
  Ge  Ge11  1  0.096936  0.651230  0.423433  1
  Ge  Ge12  1  0.903064  0.348770  0.576567  1
  Ge  Ge13  1  0.348770  0.903064  0.923433  1
  N  N14  1  0.351673  0.790128  0.063385  1
  N  N15  1  0.691125  0.394257  0.648613  1
  N  N16  1  0.209872  0.648327  0.563385  1
  N  N17  1  0.096328  0.984004  0.872340  1
  N  N18  1  0.790128  0.351673  0.436615  1
  N  N19  1  0.648327  0.209872  0.936615  1
  N  N20  1  0.903672  0.015996  0.127660  1
  N  N21  1  0.984004  0.096328  0.627660  1
  N  N22  1  0.308875  0.605743  0.351387  1
  N  N23  1  0.394257  0.691125  0.851387  1
  N  N24  1  0.605743  0.308875  0.148613  1
  N  N25  1  0.015996  0.903672  0.372340  1
