# generated using pymatgen
data_PrScO3
_symmetry_space_group_name_H-M   'P 1'
_cell_length_a   5.64312994
_cell_length_b   5.85553593
_cell_length_c   8.11186509
_cell_angle_alpha   90.00000000
_cell_angle_beta   90.00000000
_cell_angle_gamma   90.00000000
_symmetry_Int_Tables_number   1
_chemical_formula_structural   PrScO3
_chemical_formula_sum   'Pr4 Sc4 O12'
_cell_volume   268.04482068
_cell_formula_units_Z   4
loop_
 _symmetry_equiv_pos_site_id
 _symmetry_equiv_pos_as_xyz
  1  'x, y, z'
loop_
 _atom_site_type_symbol
 _atom_site_label
 _atom_site_symmetry_multiplicity
 _atom_site_fract_x
 _atom_site_fract_y
 _atom_site_fract_z
 _atom_site_occupancy
  Pr  Pr0  1  0.985229  0.054550  0.750000  1
  Pr  Pr1  1  0.514771  0.554550  0.750000  1
  Pr  Pr2  1  0.485229  0.445450  0.250000  1
  Pr  Pr3  1  0.014771  0.945450  0.250000  1
  Sc  Sc4  1  0.000000  0.500000  0.500000  1
  Sc  Sc5  1  0.500000  0.000000  0.000000  1
  Sc  Sc6  1  0.500000  0.000000  0.500000  1
  Sc  Sc7  1  0.000000  0.500000  0.000000  1
  O  O8  1  0.699914  0.299438  0.556433  1
  O  O9  1  0.893429  0.539454  0.250000  1
  O  O10  1  0.800086  0.799438  0.943567  1
  O  O11  1  0.106571  0.460546  0.750000  1
  O  O12  1  0.300086  0.700562  0.056433  1
  O  O13  1  0.199914  0.200562  0.443567  1
  O  O14  1  0.800086  0.799438  0.556433  1
  O  O15  1  0.393429  0.960546  0.750000  1
  O  O16  1  0.300086  0.700562  0.443567  1
  O  O17  1  0.199914  0.200562  0.056433  1
  O  O18  1  0.699914  0.299438  0.943567  1
  O  O19  1  0.606571  0.039454  0.250000  1
