# generated using pymatgen
data_CsLu2Cu3Se5
_symmetry_space_group_name_H-M   'P 1'
_cell_length_a   7.61379718
_cell_length_b   7.61379718
_cell_length_c   17.12074273
_cell_angle_alpha   90.00000000
_cell_angle_beta   90.00000000
_cell_angle_gamma   148.85946007
_symmetry_Int_Tables_number   1
_chemical_formula_structural   CsLu2Cu3Se5
_chemical_formula_sum   'Cs2 Lu4 Cu6 Se10'
_cell_volume   513.25424133
_cell_formula_units_Z   2
loop_
 _symmetry_equiv_pos_site_id
 _symmetry_equiv_pos_as_xyz
  1  'x, y, z'
loop_
 _atom_site_type_symbol
 _atom_site_label
 _atom_site_symmetry_multiplicity
 _atom_site_fract_x
 _atom_site_fract_y
 _atom_site_fract_z
 _atom_site_occupancy
  Cs  Cs0  1  0.061105  0.938895  0.750000  1
  Cs  Cs1  1  0.938895  0.061105  0.250000  1
  Lu  Lu2  1  0.192552  0.807448  0.408091  1
  Lu  Lu3  1  0.192552  0.807448  0.091909  1
  Lu  Lu4  1  0.807448  0.192552  0.591909  1
  Lu  Lu5  1  0.807448  0.192552  0.908091  1
  Cu  Cu6  1  0.654968  0.345032  0.250000  1
  Cu  Cu7  1  0.582226  0.417774  0.966637  1
  Cu  Cu8  1  0.417774  0.582226  0.033363  1
  Cu  Cu9  1  0.345032  0.654968  0.750000  1
  Cu  Cu10  1  0.417774  0.582226  0.466637  1
  Cu  Cu11  1  0.582226  0.417774  0.533363  1
  Se  Se12  1  0.238893  0.761107  0.250000  1
  Se  Se13  1  0.829553  0.170447  0.069528  1
  Se  Se14  1  0.761107  0.238893  0.750000  1
  Se  Se15  1  0.170447  0.829553  0.569528  1
  Se  Se16  1  0.170447  0.829553  0.930472  1
  Se  Se17  1  0.436344  0.563656  0.887305  1
  Se  Se18  1  0.563656  0.436344  0.112695  1
  Se  Se19  1  0.436344  0.563656  0.612695  1
  Se  Se20  1  0.563656  0.436344  0.387305  1
  Se  Se21  1  0.829553  0.170447  0.430472  1
