# generated using pymatgen
data_Ba3Fe2Br2O5
_symmetry_space_group_name_H-M   'P 1'
_cell_length_a   8.88231422
_cell_length_b   8.88231422
_cell_length_c   8.88231422
_cell_angle_alpha   109.47122063
_cell_angle_beta   109.47122063
_cell_angle_gamma   109.47122063
_symmetry_Int_Tables_number   1
_chemical_formula_structural   Ba3Fe2Br2O5
_chemical_formula_sum   'Ba6 Fe4 Br4 O10'
_cell_volume   539.45659475
_cell_formula_units_Z   2
loop_
 _symmetry_equiv_pos_site_id
 _symmetry_equiv_pos_as_xyz
  1  'x, y, z'
loop_
 _atom_site_type_symbol
 _atom_site_label
 _atom_site_symmetry_multiplicity
 _atom_site_fract_x
 _atom_site_fract_y
 _atom_site_fract_z
 _atom_site_occupancy
  Ba  Ba0  1  0.653025  0.403025  0.250000  1
  Ba  Ba1  1  0.250000  0.653025  0.403025  1
  Ba  Ba2  1  0.846975  0.096975  0.750000  1
  Ba  Ba3  1  0.403025  0.250000  0.653025  1
  Ba  Ba4  1  0.096975  0.750000  0.846975  1
  Ba  Ba5  1  0.750000  0.846975  0.096975  1
  Fe  Fe6  1  1.000000  0.310614  0.500000  1
  Fe  Fe7  1  0.189386  0.189386  0.189386  1
  Fe  Fe8  1  0.500000  1.000000  0.310614  1
  Fe  Fe9  1  0.310614  0.500000  1.000000  1
  Br  Br10  1  1.000000  0.882578  0.500000  1
  Br  Br11  1  0.617422  0.617422  0.617422  1
  Br  Br12  1  0.882578  0.500000  0.000000  1
  Br  Br13  1  0.500000  1.000000  0.882578  1
  O  O14  1  0.980279  0.980279  0.980279  1
  O  O15  1  0.110488  0.360488  0.750000  1
  O  O16  1  1.000000  0.519721  0.500000  1
  O  O17  1  0.750000  0.110488  0.360488  1
  O  O18  1  0.519721  0.500000  1.000000  1
  O  O19  1  0.139512  0.250000  0.389512  1
  O  O20  1  0.250000  0.389512  0.139512  1
  O  O21  1  0.389512  0.139512  0.250000  1
  O  O22  1  0.360488  0.750000  0.110488  1
  O  O23  1  0.500000  1.000000  0.519721  1
