# generated using pymatgen
data_BaUTiO6
_symmetry_space_group_name_H-M   'P 1'
_cell_length_a   6.62332285
_cell_length_b   8.65235707
_cell_length_c   10.29983763
_cell_angle_alpha   90.00000000
_cell_angle_beta   103.11277290
_cell_angle_gamma   90.00000000
_symmetry_Int_Tables_number   1
_chemical_formula_structural   BaUTiO6
_chemical_formula_sum   'Ba4 U4 Ti4 O24'
_cell_volume   574.86575267
_cell_formula_units_Z   4
loop_
 _symmetry_equiv_pos_site_id
 _symmetry_equiv_pos_as_xyz
  1  'x, y, z'
loop_
 _atom_site_type_symbol
 _atom_site_label
 _atom_site_symmetry_multiplicity
 _atom_site_fract_x
 _atom_site_fract_y
 _atom_site_fract_z
 _atom_site_occupancy
  Ba  Ba0  1  0.464751  0.234179  0.657781  1
  Ba  Ba1  1  0.535249  0.765821  0.342219  1
  Ba  Ba2  1  0.535249  0.734179  0.842219  1
  Ba  Ba3  1  0.464751  0.265821  0.157781  1
  U  U4  1  0.977436  0.518289  0.678049  1
  U  U5  1  0.977436  0.981711  0.178049  1
  U  U6  1  0.022564  0.481711  0.321951  1
  U  U7  1  0.022564  0.018289  0.821951  1
  Ti  Ti8  1  0.885157  0.150684  0.450069  1
  Ti  Ti9  1  0.114843  0.650684  0.049931  1
  Ti  Ti10  1  0.114843  0.849316  0.549931  1
  Ti  Ti11  1  0.885157  0.349316  0.950069  1
  O  O12  1  0.266003  0.010346  0.236337  1
  O  O13  1  0.928430  0.562391  0.887249  1
  O  O14  1  0.310829  0.044603  0.873469  1
  O  O15  1  0.689171  0.544603  0.626531  1
  O  O16  1  0.917723  0.286169  0.776482  1
  O  O17  1  0.733997  0.989654  0.763663  1
  O  O18  1  0.003932  0.149834  0.012069  1
  O  O19  1  0.996068  0.649834  0.487931  1
  O  O20  1  0.917723  0.213831  0.276482  1
  O  O21  1  0.071570  0.062391  0.612751  1
  O  O22  1  0.996068  0.850166  0.987931  1
  O  O23  1  0.928430  0.937609  0.387249  1
  O  O24  1  0.376964  0.659405  0.054334  1
  O  O25  1  0.689171  0.955397  0.126531  1
  O  O26  1  0.376964  0.840595  0.554334  1
  O  O27  1  0.623036  0.340595  0.945666  1
  O  O28  1  0.623036  0.159405  0.445666  1
  O  O29  1  0.003932  0.350166  0.512069  1
  O  O30  1  0.082277  0.713831  0.223518  1
  O  O31  1  0.310829  0.455397  0.373469  1
  O  O32  1  0.071570  0.437609  0.112751  1
  O  O33  1  0.082277  0.786169  0.723518  1
  O  O34  1  0.733997  0.510346  0.263663  1
  O  O35  1  0.266003  0.489654  0.736337  1
