# generated using pymatgen
data_CsSn
_symmetry_space_group_name_H-M   'P 1'
_cell_length_a   14.79198601
_cell_length_b   14.79198601
_cell_length_c   14.79198601
_cell_angle_alpha   90.00000000
_cell_angle_beta   90.00000000
_cell_angle_gamma   90.00000000
_symmetry_Int_Tables_number   1
_chemical_formula_structural   CsSn
_chemical_formula_sum   'Cs32 Sn32'
_cell_volume   3236.52869792
_cell_formula_units_Z   32
loop_
 _symmetry_equiv_pos_site_id
 _symmetry_equiv_pos_as_xyz
  1  'x, y, z'
loop_
 _atom_site_type_symbol
 _atom_site_label
 _atom_site_symmetry_multiplicity
 _atom_site_fract_x
 _atom_site_fract_y
 _atom_site_fract_z
 _atom_site_occupancy
  Cs  Cs0  1  0.663422  0.933857  0.141140  1
  Cs  Cs1  1  0.333339  0.333339  0.333339  1
  Cs  Cs2  1  0.336578  0.933857  0.858860  1
  Cs  Cs3  1  0.666661  0.333339  0.666661  1
  Cs  Cs4  1  0.641140  0.566143  0.836578  1
  Cs  Cs5  1  0.833339  0.833339  0.833339  1
  Cs  Cs6  1  0.833339  0.166661  0.166661  1
  Cs  Cs7  1  0.566143  0.836578  0.641140  1
  Cs  Cs8  1  0.166661  0.833339  0.166661  1
  Cs  Cs9  1  0.663422  0.066143  0.858860  1
  Cs  Cs10  1  0.336578  0.066143  0.141140  1
  Cs  Cs11  1  0.163422  0.641140  0.433857  1
  Cs  Cs12  1  0.166661  0.166661  0.833339  1
  Cs  Cs13  1  0.358860  0.433857  0.836578  1
  Cs  Cs14  1  0.333339  0.666661  0.666661  1
  Cs  Cs15  1  0.641140  0.433857  0.163422  1
  Cs  Cs16  1  0.666661  0.666661  0.333339  1
  Cs  Cs17  1  0.141140  0.336578  0.066143  1
  Cs  Cs18  1  0.066143  0.858860  0.663422  1
  Cs  Cs19  1  0.433857  0.163422  0.641140  1
  Cs  Cs20  1  0.433857  0.836578  0.358860  1
  Cs  Cs21  1  0.858860  0.663422  0.066143  1
  Cs  Cs22  1  0.933857  0.141140  0.663422  1
  Cs  Cs23  1  0.566143  0.163422  0.358860  1
  Cs  Cs24  1  0.933857  0.858860  0.336578  1
  Cs  Cs25  1  0.358860  0.566143  0.163422  1
  Cs  Cs26  1  0.836578  0.641140  0.566143  1
  Cs  Cs27  1  0.066143  0.141140  0.336578  1
  Cs  Cs28  1  0.836578  0.358860  0.433857  1
  Cs  Cs29  1  0.141140  0.663422  0.933857  1
  Cs  Cs30  1  0.163422  0.358860  0.566143  1
  Cs  Cs31  1  0.858860  0.336578  0.933857  1
  Sn  Sn32  1  0.422939  0.679775  0.933368  1
  Sn  Sn33  1  0.071393  0.928607  0.928607  1
  Sn  Sn34  1  0.922939  0.566632  0.820225  1
  Sn  Sn35  1  0.571393  0.428607  0.428607  1
  Sn  Sn36  1  0.077061  0.566632  0.179775  1
  Sn  Sn37  1  0.428607  0.571393  0.428607  1
  Sn  Sn38  1  0.320225  0.066632  0.422939  1
  Sn  Sn39  1  0.179775  0.922939  0.433368  1
  Sn  Sn40  1  0.071393  0.071393  0.071393  1
  Sn  Sn41  1  0.179775  0.077061  0.566632  1
  Sn  Sn42  1  0.922939  0.433368  0.179775  1
  Sn  Sn43  1  0.933368  0.422939  0.679775  1
  Sn  Sn44  1  0.077061  0.433368  0.820225  1
  Sn  Sn45  1  0.566632  0.179775  0.077061  1
  Sn  Sn46  1  0.571393  0.571393  0.571393  1
  Sn  Sn47  1  0.820225  0.077061  0.433368  1
  Sn  Sn48  1  0.577061  0.679775  0.066632  1
  Sn  Sn49  1  0.679775  0.933368  0.422939  1
  Sn  Sn50  1  0.679775  0.066632  0.577061  1
  Sn  Sn51  1  0.422939  0.320225  0.066632  1
  Sn  Sn52  1  0.820225  0.922939  0.566632  1
  Sn  Sn53  1  0.928607  0.071393  0.928607  1
  Sn  Sn54  1  0.566632  0.820225  0.922939  1
  Sn  Sn55  1  0.428607  0.428607  0.571393  1
  Sn  Sn56  1  0.577061  0.320225  0.933368  1
  Sn  Sn57  1  0.433368  0.179775  0.922939  1
  Sn  Sn58  1  0.933368  0.577061  0.320225  1
  Sn  Sn59  1  0.066632  0.422939  0.320225  1
  Sn  Sn60  1  0.320225  0.933368  0.577061  1
  Sn  Sn61  1  0.928607  0.928607  0.071393  1
  Sn  Sn62  1  0.066632  0.577061  0.679775  1
  Sn  Sn63  1  0.433368  0.820225  0.077061  1
