# generated using pymatgen
data_LiFePO4
_symmetry_space_group_name_H-M   'P 1'
_cell_length_a   5.05467605
_cell_length_b   6.83897625
_cell_length_c   10.23476576
_cell_angle_alpha   90.00000000
_cell_angle_beta   90.00000000
_cell_angle_gamma   90.00000000
_symmetry_Int_Tables_number   1
_chemical_formula_structural   LiFePO4
_chemical_formula_sum   'Li4 Fe4 P4 O16'
_cell_volume   353.80366740
_cell_formula_units_Z   4
loop_
 _symmetry_equiv_pos_site_id
 _symmetry_equiv_pos_as_xyz
  1  'x, y, z'
loop_
 _atom_site_type_symbol
 _atom_site_label
 _atom_site_symmetry_multiplicity
 _atom_site_fract_x
 _atom_site_fract_y
 _atom_site_fract_z
 _atom_site_occupancy
  Li  Li0  1  0.310904  0.785059  0.847775  1
  Li  Li1  1  0.189096  0.785059  0.347775  1
  Li  Li2  1  0.689096  0.285059  0.152225  1
  Li  Li3  1  0.810904  0.285059  0.652225  1
  Fe  Fe4  1  0.187586  0.287512  0.345784  1
  Fe  Fe5  1  0.312414  0.287512  0.845784  1
  Fe  Fe6  1  0.812414  0.787512  0.654216  1
  Fe  Fe7  1  0.687586  0.787512  0.154216  1
  P  P8  1  0.316493  0.536707  0.594034  1
  P  P9  1  0.816493  0.036707  0.905966  1
  P  P10  1  0.683507  0.036707  0.405966  1
  P  P11  1  0.183507  0.536707  0.094034  1
  O  O12  1  0.378401  0.031608  0.384301  1
  O  O13  1  0.806760  0.850651  0.343113  1
  O  O14  1  0.306760  0.350651  0.156887  1
  O  O15  1  0.193240  0.350651  0.656887  1
  O  O16  1  0.256258  0.540037  0.945890  1
  O  O17  1  0.121599  0.031608  0.884301  1
  O  O18  1  0.789955  0.226601  0.339996  1
  O  O19  1  0.243742  0.540037  0.445890  1
  O  O20  1  0.621599  0.531608  0.615699  1
  O  O21  1  0.210045  0.726601  0.660004  1
  O  O22  1  0.693240  0.850651  0.843113  1
  O  O23  1  0.743742  0.040037  0.054110  1
  O  O24  1  0.878401  0.531608  0.115699  1
  O  O25  1  0.710045  0.226601  0.839996  1
  O  O26  1  0.756258  0.040037  0.554110  1
  O  O27  1  0.289955  0.726601  0.160004  1
