# generated using pymatgen
data_Na2Si2O5
_symmetry_space_group_name_H-M   'P 1'
_cell_length_a   5.65116500
_cell_length_b   8.46353400
_cell_length_c   9.53623100
_cell_angle_alpha   90.00000000
_cell_angle_beta   90.00000000
_cell_angle_gamma   90.00000000
_symmetry_Int_Tables_number   1
_chemical_formula_structural   Na2Si2O5
_chemical_formula_sum   'Na8 Si8 O20'
_cell_volume   456.10674385
_cell_formula_units_Z   4
loop_
 _symmetry_equiv_pos_site_id
 _symmetry_equiv_pos_as_xyz
  1  'x, y, z'
loop_
 _atom_site_type_symbol
 _atom_site_label
 _atom_site_symmetry_multiplicity
 _atom_site_fract_x
 _atom_site_fract_y
 _atom_site_fract_z
 _atom_site_occupancy
  Na  Na0  1  0.062343  0.478302  0.010987  1
  Na  Na1  1  0.086958  0.753170  0.754401  1
  Na  Na2  1  0.913042  0.753170  0.254401  1
  Na  Na3  1  0.913042  0.253170  0.245599  1
  Na  Na4  1  0.937657  0.478302  0.510987  1
  Na  Na5  1  0.062343  0.978302  0.489013  1
  Na  Na6  1  0.937657  0.978302  0.989013  1
  Na  Na7  1  0.086958  0.253170  0.745599  1
  Si  Si8  1  0.549272  0.248908  0.952712  1
  Si  Si9  1  0.369876  0.056761  0.191737  1
  Si  Si10  1  0.369876  0.556761  0.308263  1
  Si  Si11  1  0.630124  0.556761  0.808263  1
  Si  Si12  1  0.450728  0.248908  0.452712  1
  Si  Si13  1  0.549272  0.748908  0.547288  1
  Si  Si14  1  0.630124  0.056761  0.691737  1
  Si  Si15  1  0.450728  0.748908  0.047288  1
  O  O16  1  0.891026  0.001897  0.732780  1
  O  O17  1  0.181154  0.746693  0.999116  1
  O  O18  1  0.642252  0.708778  0.920423  1
  O  O19  1  0.818846  0.246693  0.000884  1
  O  O20  1  0.357748  0.708778  0.420423  1
  O  O21  1  0.457902  0.421152  0.885441  1
  O  O22  1  0.108974  0.001897  0.232780  1
  O  O23  1  0.473217  0.619640  0.672290  1
  O  O24  1  0.357748  0.208778  0.079577  1
  O  O25  1  0.526783  0.119640  0.327710  1
  O  O26  1  0.473217  0.119640  0.827710  1
  O  O27  1  0.891026  0.501897  0.767220  1
  O  O28  1  0.108974  0.501897  0.267220  1
  O  O29  1  0.542098  0.421152  0.385441  1
  O  O30  1  0.181154  0.246693  0.500884  1
  O  O31  1  0.526783  0.619640  0.172290  1
  O  O32  1  0.818846  0.746693  0.499116  1
  O  O33  1  0.542098  0.921152  0.114559  1
  O  O34  1  0.642252  0.208778  0.579577  1
  O  O35  1  0.457902  0.921152  0.614559  1
