# generated using pymatgen
data_Rb2Ga2B2O7
_symmetry_space_group_name_H-M   'P 1'
_cell_length_a   8.92748406
_cell_length_b   7.86720896
_cell_length_c   12.16763609
_cell_angle_alpha   90.00000000
_cell_angle_beta   104.45719911
_cell_angle_gamma   90.00000000
_symmetry_Int_Tables_number   1
_chemical_formula_structural   Rb2Ga2B2O7
_chemical_formula_sum   'Rb8 Ga8 B8 O28'
_cell_volume   827.52542376
_cell_formula_units_Z   4
loop_
 _symmetry_equiv_pos_site_id
 _symmetry_equiv_pos_as_xyz
  1  'x, y, z'
loop_
 _atom_site_type_symbol
 _atom_site_label
 _atom_site_symmetry_multiplicity
 _atom_site_fract_x
 _atom_site_fract_y
 _atom_site_fract_z
 _atom_site_occupancy
  Rb  Rb0  1  0.466951  0.372110  0.373034  1
  Rb  Rb1  1  0.946704  0.374511  0.848637  1
  Rb  Rb2  1  0.053296  0.625489  0.151363  1
  Rb  Rb3  1  0.053296  0.874511  0.651363  1
  Rb  Rb4  1  0.533049  0.872110  0.126966  1
  Rb  Rb5  1  0.466951  0.127890  0.873034  1
  Rb  Rb6  1  0.946704  0.125489  0.348637  1
  Rb  Rb7  1  0.533049  0.627890  0.626966  1
  Ga  Ga8  1  0.314669  0.568973  0.866640  1
  Ga  Ga9  1  0.154393  0.121520  0.114338  1
  Ga  Ga10  1  0.845607  0.621520  0.385662  1
  Ga  Ga11  1  0.154393  0.378480  0.614338  1
  Ga  Ga12  1  0.685331  0.068973  0.633360  1
  Ga  Ga13  1  0.845607  0.878480  0.885662  1
  Ga  Ga14  1  0.314669  0.931027  0.366640  1
  Ga  Ga15  1  0.685331  0.431027  0.133360  1
  B  B16  1  0.345465  0.092167  0.587023  1
  B  B17  1  0.184876  0.629388  0.439174  1
  B  B18  1  0.345465  0.407833  0.087023  1
  B  B19  1  0.815124  0.370612  0.560826  1
  B  B20  1  0.184876  0.870612  0.939174  1
  B  B21  1  0.654535  0.907833  0.412977  1
  B  B22  1  0.654535  0.592167  0.912977  1
  B  B23  1  0.815124  0.129388  0.060826  1
  O  O24  1  0.516187  0.991072  0.365880  1
  O  O25  1  0.716073  0.806926  0.341578  1
  O  O26  1  0.483813  0.008928  0.634120  1
  O  O27  1  0.955080  0.214153  0.081370  1
  O  O28  1  0.212795  0.027732  0.990793  1
  O  O29  1  0.176265  0.534238  0.729279  1
  O  O30  1  0.483813  0.491072  0.134120  1
  O  O31  1  0.787205  0.527732  0.509207  1
  O  O32  1  0.690853  0.201479  0.094267  1
  O  O33  1  0.516187  0.508928  0.865880  1
  O  O34  1  0.044920  0.714153  0.418630  1
  O  O35  1  0.309147  0.798521  0.905733  1
  O  O36  1  0.283927  0.193074  0.658422  1
  O  O37  1  0.176265  0.965762  0.229279  1
  O  O38  1  0.283927  0.306926  0.158422  1
  O  O39  1  0.212795  0.472268  0.490793  1
  O  O40  1  0.260657  0.432282  0.976571  1
  O  O41  1  0.690853  0.298521  0.594267  1
  O  O42  1  0.787205  0.972268  0.009207  1
  O  O43  1  0.716073  0.693074  0.841578  1
  O  O44  1  0.739343  0.567718  0.023429  1
  O  O45  1  0.823735  0.465762  0.270721  1
  O  O46  1  0.955080  0.285847  0.581370  1
  O  O47  1  0.260657  0.067718  0.476571  1
  O  O48  1  0.309147  0.701479  0.405733  1
  O  O49  1  0.044920  0.785847  0.918630  1
  O  O50  1  0.739343  0.932282  0.523429  1
  O  O51  1  0.823735  0.034238  0.770721  1
