# generated using pymatgen
data_Y2Fe14B
_symmetry_space_group_name_H-M   'P 1'
_cell_length_a   8.73603825
_cell_length_b   8.73603825
_cell_length_c   11.91957844
_cell_angle_alpha   90.00000000
_cell_angle_beta   90.00000000
_cell_angle_gamma   90.00000000
_symmetry_Int_Tables_number   1
_chemical_formula_structural   Y2Fe14B
_chemical_formula_sum   'Y8 Fe56 B4'
_cell_volume   909.68272975
_cell_formula_units_Z   4
loop_
 _symmetry_equiv_pos_site_id
 _symmetry_equiv_pos_as_xyz
  1  'x, y, z'
loop_
 _atom_site_type_symbol
 _atom_site_label
 _atom_site_symmetry_multiplicity
 _atom_site_fract_x
 _atom_site_fract_y
 _atom_site_fract_z
 _atom_site_occupancy
  Y  Y0  1  0.733187  0.266813  0.000000  1
  Y  Y1  1  0.233187  0.233187  0.500000  1
  Y  Y2  1  0.766813  0.766813  0.500000  1
  Y  Y3  1  0.266813  0.733187  0.000000  1
  Y  Y4  1  0.856682  0.856682  0.000000  1
  Y  Y5  1  0.643318  0.356682  0.500000  1
  Y  Y6  1  0.356682  0.643318  0.500000  1
  Y  Y7  1  0.143318  0.143318  0.000000  1
  Fe  Fe8  1  0.140966  0.463177  0.325119  1
  Fe  Fe9  1  0.859034  0.536823  0.325119  1
  Fe  Fe10  1  0.463177  0.140966  0.674881  1
  Fe  Fe11  1  0.963177  0.359034  0.825119  1
  Fe  Fe12  1  0.036823  0.640966  0.825119  1
  Fe  Fe13  1  0.359034  0.963177  0.174881  1
  Fe  Fe14  1  0.640966  0.036823  0.174881  1
  Fe  Fe15  1  0.536823  0.859034  0.674881  1
  Fe  Fe16  1  0.859034  0.536823  0.674881  1
  Fe  Fe17  1  0.140966  0.463177  0.674881  1
  Fe  Fe18  1  0.536823  0.859034  0.325119  1
  Fe  Fe19  1  0.036823  0.640966  0.174881  1
  Fe  Fe20  1  0.963177  0.359034  0.174881  1
  Fe  Fe21  1  0.640966  0.036823  0.825119  1
  Fe  Fe22  1  0.359034  0.963177  0.825119  1
  Fe  Fe23  1  0.463177  0.140966  0.325119  1
  Fe  Fe24  1  0.066162  0.724589  0.373656  1
  Fe  Fe25  1  0.933838  0.275411  0.373656  1
  Fe  Fe26  1  0.724589  0.066162  0.626344  1
  Fe  Fe27  1  0.224589  0.433838  0.873656  1
  Fe  Fe28  1  0.775411  0.566162  0.873656  1
  Fe  Fe29  1  0.433838  0.224589  0.126344  1
  Fe  Fe30  1  0.566162  0.775411  0.126344  1
  Fe  Fe31  1  0.275411  0.933838  0.626344  1
  Fe  Fe32  1  0.933838  0.275411  0.626344  1
  Fe  Fe33  1  0.066162  0.724589  0.626344  1
  Fe  Fe34  1  0.275411  0.933838  0.373656  1
  Fe  Fe35  1  0.775411  0.566162  0.126344  1
  Fe  Fe36  1  0.224589  0.433838  0.126344  1
  Fe  Fe37  1  0.566162  0.775411  0.873656  1
  Fe  Fe38  1  0.433838  0.224589  0.873656  1
  Fe  Fe39  1  0.724589  0.066162  0.373656  1
  Fe  Fe40  1  0.597385  0.597385  0.700970  1
  Fe  Fe41  1  0.402615  0.402615  0.700970  1
  Fe  Fe42  1  0.597385  0.597385  0.299030  1
  Fe  Fe43  1  0.097385  0.902615  0.200970  1
  Fe  Fe44  1  0.902615  0.097385  0.200970  1
  Fe  Fe45  1  0.902615  0.097385  0.799030  1
  Fe  Fe46  1  0.097385  0.902615  0.799030  1
  Fe  Fe47  1  0.402615  0.402615  0.299030  1
  Fe  Fe48  1  0.817057  0.817057  0.745880  1
  Fe  Fe49  1  0.182943  0.182943  0.745880  1
  Fe  Fe50  1  0.817057  0.817057  0.254120  1
  Fe  Fe51  1  0.317057  0.682943  0.245880  1
  Fe  Fe52  1  0.682943  0.317057  0.245880  1
  Fe  Fe53  1  0.682943  0.317057  0.754120  1
  Fe  Fe54  1  0.317057  0.682943  0.754120  1
  Fe  Fe55  1  0.182943  0.182943  0.254120  1
  Fe  Fe56  1  0.000000  0.000000  0.615752  1
  Fe  Fe57  1  0.500000  0.500000  0.115752  1
  Fe  Fe58  1  0.500000  0.500000  0.884248  1
  Fe  Fe59  1  0.000000  0.000000  0.384248  1
  Fe  Fe60  1  0.500000  0.000000  0.000000  1
  Fe  Fe61  1  0.500000  0.000000  0.500000  1
  Fe  Fe62  1  0.000000  0.500000  0.500000  1
  Fe  Fe63  1  0.000000  0.500000  0.000000  1
  B  B64  1  0.624567  0.624567  0.000000  1
  B  B65  1  0.875433  0.124567  0.500000  1
  B  B66  1  0.124567  0.875433  0.500000  1
  B  B67  1  0.375433  0.375433  0.000000  1
