# generated using pymatgen
data_In5B4Ir9
_symmetry_space_group_name_H-M   'P 1'
_cell_length_a   5.64561987
_cell_length_b   5.64561987
_cell_length_c   10.41326273
_cell_angle_alpha   90.00000000
_cell_angle_beta   90.00000000
_cell_angle_gamma   120.00000000
_symmetry_Int_Tables_number   1
_chemical_formula_structural   In5B4Ir9
_chemical_formula_sum   'In5 B4 Ir9'
_cell_volume   287.43571106
_cell_formula_units_Z   1
loop_
 _symmetry_equiv_pos_site_id
 _symmetry_equiv_pos_as_xyz
  1  'x, y, z'
loop_
 _atom_site_type_symbol
 _atom_site_label
 _atom_site_symmetry_multiplicity
 _atom_site_fract_x
 _atom_site_fract_y
 _atom_site_fract_z
 _atom_site_occupancy
  In  In0  1  0.000000  0.000000  0.000000  1
  In  In1  1  0.666667  0.333333  0.500000  1
  In  In2  1  0.000000  0.000000  0.656590  1
  In  In3  1  0.000000  0.000000  0.343410  1
  In  In4  1  0.333333  0.666667  0.500000  1
  B  B5  1  0.666667  0.333333  0.146246  1
  B  B6  1  0.333333  0.666667  0.853754  1
  B  B7  1  0.666667  0.333333  0.853754  1
  B  B8  1  0.333333  0.666667  0.146246  1
  Ir  Ir9  1  0.000000  0.481172  0.274803  1
  Ir  Ir10  1  0.481172  0.000000  0.725197  1
  Ir  Ir11  1  0.481172  0.000000  0.274803  1
  Ir  Ir12  1  0.000000  0.481467  0.000000  1
  Ir  Ir13  1  0.518828  0.518828  0.725197  1
  Ir  Ir14  1  0.000000  0.481172  0.725197  1
  Ir  Ir15  1  0.518533  0.518533  0.000000  1
  Ir  Ir16  1  0.481467  0.000000  0.000000  1
  Ir  Ir17  1  0.518828  0.518828  0.274803  1
