# generated using pymatgen
data_Ta2Hg2F11
_symmetry_space_group_name_H-M   'P 1'
_cell_length_a   12.55223434
_cell_length_b   12.55223434
_cell_length_c   15.03435585
_cell_angle_alpha   55.27519515
_cell_angle_beta   124.72480485
_cell_angle_gamma   144.12156678
_symmetry_Int_Tables_number   1
_chemical_formula_structural   Ta2Hg2F11
_chemical_formula_sum   'Ta8 Hg8 F44'
_cell_volume   1111.92292333
_cell_formula_units_Z   4
loop_
 _symmetry_equiv_pos_site_id
 _symmetry_equiv_pos_as_xyz
  1  'x, y, z'
loop_
 _atom_site_type_symbol
 _atom_site_label
 _atom_site_symmetry_multiplicity
 _atom_site_fract_x
 _atom_site_fract_y
 _atom_site_fract_z
 _atom_site_occupancy
  Ta  Ta0  1  0.375471  0.077127  0.516813  1
  Ta  Ta1  1  0.086800  0.298478  0.371319  1
  Ta  Ta2  1  0.077127  0.375471  0.983187  1
  Ta  Ta3  1  0.298478  0.086800  0.128681  1
  Ta  Ta4  1  0.701522  0.913200  0.871319  1
  Ta  Ta5  1  0.624529  0.922873  0.483187  1
  Ta  Ta6  1  0.922873  0.624529  0.016813  1
  Ta  Ta7  1  0.913200  0.701522  0.628681  1
  Hg  Hg8  1  0.057170  0.468342  0.626100  1
  Hg  Hg9  1  0.531658  0.942830  0.126100  1
  Hg  Hg10  1  0.332167  0.199231  0.785026  1
  Hg  Hg11  1  0.800769  0.667833  0.285026  1
  Hg  Hg12  1  0.667833  0.800769  0.214974  1
  Hg  Hg13  1  0.942830  0.531658  0.373900  1
  Hg  Hg14  1  0.468342  0.057170  0.873900  1
  Hg  Hg15  1  0.199231  0.332167  0.714974  1
  F  F16  1  0.883830  0.549751  0.595613  1
  F  F17  1  0.206580  0.599009  0.999960  1
  F  F18  1  0.599009  0.206580  0.500040  1
  F  F19  1  0.399715  0.277483  0.422840  1
  F  F20  1  0.216378  0.962541  0.393370  1
  F  F21  1  0.549751  0.883830  0.904387  1
  F  F22  1  0.478160  0.155987  0.645336  1
  F  F23  1  0.793420  0.400991  0.000040  1
  F  F24  1  0.244439  0.301314  0.513016  1
  F  F25  1  0.277483  0.399715  0.077160  1
  F  F26  1  0.491441  0.273775  0.208652  1
  F  F27  1  0.844013  0.521840  0.145336  1
  F  F28  1  0.100417  0.004254  0.146889  1
  F  F29  1  0.891100  0.262724  0.247613  1
  F  F30  1  0.899583  0.995746  0.853111  1
  F  F31  1  0.783622  0.037459  0.606630  1
  F  F32  1  0.108900  0.737276  0.752387  1
  F  F33  1  0.037459  0.783622  0.893370  1
  F  F34  1  0.962541  0.216378  0.106630  1
  F  F35  1  0.755561  0.698686  0.486984  1
  F  F36  1  0.995746  0.899583  0.646889  1
  F  F37  1  0.004254  0.100417  0.353111  1
  F  F38  1  0.273775  0.491441  0.291348  1
  F  F39  1  0.123844  0.922258  0.538036  1
  F  F40  1  0.116170  0.450249  0.404387  1
  F  F41  1  0.077742  0.876156  0.038036  1
  F  F42  1  0.600285  0.722517  0.577160  1
  F  F43  1  0.508559  0.726225  0.791348  1
  F  F44  1  0.698686  0.755561  0.013016  1
  F  F45  1  0.521840  0.844013  0.354664  1
  F  F46  1  0.301314  0.244439  0.986984  1
  F  F47  1  0.450249  0.116170  0.095613  1
  F  F48  1  0.143016  0.678273  0.110403  1
  F  F49  1  0.726225  0.508559  0.708652  1
  F  F50  1  0.922258  0.123844  0.961964  1
  F  F51  1  0.262724  0.891100  0.252387  1
  F  F52  1  0.321727  0.856984  0.610403  1
  F  F53  1  0.155987  0.478160  0.854664  1
  F  F54  1  0.876156  0.077742  0.461964  1
  F  F55  1  0.737276  0.108900  0.747613  1
  F  F56  1  0.722517  0.600285  0.922840  1
  F  F57  1  0.400991  0.793420  0.499960  1
  F  F58  1  0.678273  0.143016  0.389597  1
  F  F59  1  0.856984  0.321727  0.889597  1
