# generated using pymatgen
data_AlSeS2N2Cl5
_symmetry_space_group_name_H-M   'P 1'
_cell_length_a   9.59414674
_cell_length_b   11.06822080
_cell_length_c   14.88642763
_cell_angle_alpha   90.00000000
_cell_angle_beta   128.09272398
_cell_angle_gamma   90.00000000
_symmetry_Int_Tables_number   1
_chemical_formula_structural   AlSeS2N2Cl5
_chemical_formula_sum   'Al4 Se4 S8 N8 Cl20'
_cell_volume   1244.10424925
_cell_formula_units_Z   4
loop_
 _symmetry_equiv_pos_site_id
 _symmetry_equiv_pos_as_xyz
  1  'x, y, z'
loop_
 _atom_site_type_symbol
 _atom_site_label
 _atom_site_symmetry_multiplicity
 _atom_site_fract_x
 _atom_site_fract_y
 _atom_site_fract_z
 _atom_site_occupancy
  Al  Al0  1  0.716572  0.639842  0.191309  1
  Al  Al1  1  0.283428  0.139842  0.308691  1
  Al  Al2  1  0.716572  0.860158  0.691309  1
  Al  Al3  1  0.283428  0.360158  0.808691  1
  Se  Se4  1  0.825844  0.282420  0.388874  1
  Se  Se5  1  0.174156  0.782420  0.111126  1
  Se  Se6  1  0.825844  0.217580  0.888874  1
  Se  Se7  1  0.174156  0.717580  0.611126  1
  S  S8  1  0.821477  0.461712  0.813194  1
  S  S9  1  0.651960  0.248438  0.190909  1
  S  S10  1  0.348040  0.751562  0.809091  1
  S  S11  1  0.178523  0.538288  0.186806  1
  S  S12  1  0.348040  0.748438  0.309091  1
  S  S13  1  0.651960  0.251562  0.690909  1
  S  S14  1  0.821477  0.038288  0.313194  1
  S  S15  1  0.178523  0.961712  0.686806  1
  N  N16  1  0.875930  0.125753  0.415360  1
  N  N17  1  0.298510  0.609233  0.302280  1
  N  N18  1  0.701490  0.109233  0.197720  1
  N  N19  1  0.875930  0.374247  0.915360  1
  N  N20  1  0.298510  0.890767  0.802280  1
  N  N21  1  0.124070  0.625753  0.084640  1
  N  N22  1  0.701490  0.390767  0.697720  1
  N  N23  1  0.124070  0.874247  0.584640  1
  Cl  Cl24  1  0.930354  0.633667  0.575425  1
  Cl  Cl25  1  0.470270  0.286928  0.397304  1
  Cl  Cl26  1  0.383726  0.478420  0.742271  1
  Cl  Cl27  1  0.029894  0.287476  0.668305  1
  Cl  Cl28  1  0.970106  0.787476  0.831695  1
  Cl  Cl29  1  0.383726  0.021580  0.242271  1
  Cl  Cl30  1  0.616274  0.978420  0.757729  1
  Cl  Cl31  1  0.254671  0.039117  0.419338  1
  Cl  Cl32  1  0.470270  0.213072  0.897304  1
  Cl  Cl33  1  0.069646  0.133667  0.924575  1
  Cl  Cl34  1  0.970106  0.712524  0.331695  1
  Cl  Cl35  1  0.745329  0.960883  0.580662  1
  Cl  Cl36  1  0.930354  0.866333  0.075425  1
  Cl  Cl37  1  0.616274  0.521580  0.257729  1
  Cl  Cl38  1  0.069646  0.366333  0.424575  1
  Cl  Cl39  1  0.745329  0.539117  0.080662  1
  Cl  Cl40  1  0.529730  0.713072  0.602696  1
  Cl  Cl41  1  0.254671  0.460883  0.919338  1
  Cl  Cl42  1  0.029894  0.212524  0.168305  1
  Cl  Cl43  1  0.529730  0.786928  0.102696  1
