# generated using pymatgen
data_Sr2GeN2
_symmetry_space_group_name_H-M   'P 1'
_cell_length_a   6.35369716
_cell_length_b   6.35369716
_cell_length_c   12.26659105
_cell_angle_alpha   90.00000000
_cell_angle_beta   90.00000000
_cell_angle_gamma   129.06108169
_symmetry_Int_Tables_number   1
_chemical_formula_structural   Sr2GeN2
_chemical_formula_sum   'Sr8 Ge4 N8'
_cell_volume   384.50692954
_cell_formula_units_Z   4
loop_
 _symmetry_equiv_pos_site_id
 _symmetry_equiv_pos_as_xyz
  1  'x, y, z'
loop_
 _atom_site_type_symbol
 _atom_site_label
 _atom_site_symmetry_multiplicity
 _atom_site_fract_x
 _atom_site_fract_y
 _atom_site_fract_z
 _atom_site_occupancy
  Sr  Sr0  1  0.144024  0.855976  0.941676  1
  Sr  Sr1  1  0.547922  0.452078  0.142269  1
  Sr  Sr2  1  0.047922  0.952078  0.357731  1
  Sr  Sr3  1  0.452078  0.547922  0.857731  1
  Sr  Sr4  1  0.355976  0.644024  0.441676  1
  Sr  Sr5  1  0.952078  0.047922  0.642269  1
  Sr  Sr6  1  0.855976  0.144024  0.058324  1
  Sr  Sr7  1  0.644024  0.355976  0.558324  1
  Ge  Ge8  1  0.260257  0.739743  0.679967  1
  Ge  Ge9  1  0.739743  0.260257  0.320033  1
  Ge  Ge10  1  0.760257  0.239743  0.820033  1
  Ge  Ge11  1  0.239743  0.760257  0.179967  1
  N  N12  1  0.339944  0.660056  0.059649  1
  N  N13  1  0.921000  0.079000  0.858459  1
  N  N14  1  0.839944  0.160056  0.440351  1
  N  N15  1  0.421000  0.579000  0.641541  1
  N  N16  1  0.660056  0.339944  0.940351  1
  N  N17  1  0.160055  0.839944  0.559649  1
  N  N18  1  0.579000  0.421000  0.358459  1
  N  N19  1  0.079000  0.921000  0.141541  1
