# generated using pymatgen
data_As2W2O11
_symmetry_space_group_name_H-M   'P 1'
_cell_length_a   6.57607779
_cell_length_b   8.37263449
_cell_length_c   16.64248593
_cell_angle_alpha   90.00000000
_cell_angle_beta   90.00000000
_cell_angle_gamma   90.00000000
_symmetry_Int_Tables_number   1
_chemical_formula_structural   As2W2O11
_chemical_formula_sum   'As8 W8 O44'
_cell_volume   916.32022573
_cell_formula_units_Z   4
loop_
 _symmetry_equiv_pos_site_id
 _symmetry_equiv_pos_as_xyz
  1  'x, y, z'
loop_
 _atom_site_type_symbol
 _atom_site_label
 _atom_site_symmetry_multiplicity
 _atom_site_fract_x
 _atom_site_fract_y
 _atom_site_fract_z
 _atom_site_occupancy
  As  As0  1  0.750000  0.912387  0.910908  1
  As  As1  1  0.250000  0.087613  0.089092  1
  As  As2  1  0.250000  0.412387  0.589092  1
  As  As3  1  0.750000  0.587613  0.410908  1
  As  As4  1  0.750000  0.989032  0.243965  1
  As  As5  1  0.250000  0.010968  0.756035  1
  As  As6  1  0.250000  0.489032  0.256035  1
  As  As7  1  0.750000  0.510968  0.743965  1
  W  W8  1  0.750000  0.268787  0.562722  1
  W  W9  1  0.250000  0.731213  0.437278  1
  W  W10  1  0.250000  0.768787  0.937278  1
  W  W11  1  0.750000  0.231213  0.062722  1
  W  W12  1  0.750000  0.918943  0.696759  1
  W  W13  1  0.250000  0.081057  0.303241  1
  W  W14  1  0.250000  0.418943  0.803241  1
  W  W15  1  0.750000  0.581057  0.196759  1
  O  O16  1  0.549034  0.713679  0.429399  1
  O  O17  1  0.049034  0.286321  0.570601  1
  O  O18  1  0.450966  0.213679  0.070601  1
  O  O19  1  0.950966  0.786321  0.929399  1
  O  O20  1  0.450966  0.286321  0.570601  1
  O  O21  1  0.950966  0.713679  0.429399  1
  O  O22  1  0.549034  0.786321  0.929399  1
  O  O23  1  0.049034  0.213679  0.070601  1
  O  O24  1  0.549107  0.074679  0.294745  1
  O  O25  1  0.049107  0.925321  0.705255  1
  O  O26  1  0.450893  0.574679  0.205255  1
  O  O27  1  0.950893  0.425321  0.794745  1
  O  O28  1  0.450893  0.925321  0.705255  1
  O  O29  1  0.950893  0.074679  0.294745  1
  O  O30  1  0.750000  0.470411  0.645231  1
  O  O31  1  0.049107  0.574679  0.205255  1
  O  O32  1  0.750000  0.494527  0.320491  1
  O  O33  1  0.250000  0.505473  0.679509  1
  O  O34  1  0.250000  0.994527  0.179509  1
  O  O35  1  0.750000  0.005473  0.820491  1
  O  O36  1  0.750000  0.787803  0.263995  1
  O  O37  1  0.250000  0.212197  0.736005  1
  O  O38  1  0.250000  0.287803  0.236005  1
  O  O39  1  0.750000  0.712197  0.763995  1
  O  O40  1  0.750000  0.684516  0.106869  1
  O  O41  1  0.250000  0.315484  0.893131  1
  O  O42  1  0.250000  0.184516  0.393131  1
  O  O43  1  0.750000  0.815484  0.606869  1
  O  O44  1  0.750000  0.365257  0.158356  1
  O  O45  1  0.250000  0.634743  0.841644  1
  O  O46  1  0.250000  0.865257  0.341644  1
  O  O47  1  0.750000  0.134743  0.658356  1
  O  O48  1  0.750000  0.113338  0.494332  1
  O  O49  1  0.250000  0.886662  0.505668  1
  O  O50  1  0.250000  0.613338  0.005668  1
  O  O51  1  0.750000  0.386662  0.994332  1
  O  O52  1  0.750000  0.445486  0.484152  1
  O  O53  1  0.250000  0.554514  0.515848  1
  O  O54  1  0.250000  0.945486  0.015848  1
  O  O55  1  0.750000  0.054514  0.984152  1
  O  O56  1  0.750000  0.029589  0.145231  1
  O  O57  1  0.250000  0.970411  0.854769  1
  O  O58  1  0.250000  0.529589  0.354769  1
  O  O59  1  0.549107  0.425321  0.794745  1
