# generated using pymatgen
data_K(NiS)2
_symmetry_space_group_name_H-M   'P 1'
_cell_length_a   6.81717751
_cell_length_b   6.81717751
_cell_length_c   6.81717751
_cell_angle_alpha   147.49575387
_cell_angle_beta   147.49575387
_cell_angle_gamma   46.63029426
_symmetry_Int_Tables_number   1
_chemical_formula_structural   K(NiS)2
_chemical_formula_sum   'K1 Ni2 S2'
_cell_volume   91.15364547
_cell_formula_units_Z   1
loop_
 _symmetry_equiv_pos_site_id
 _symmetry_equiv_pos_as_xyz
  1  'x, y, z'
loop_
 _atom_site_type_symbol
 _atom_site_label
 _atom_site_symmetry_multiplicity
 _atom_site_fract_x
 _atom_site_fract_y
 _atom_site_fract_z
 _atom_site_occupancy
  K  K0  1  0.000000  0.000000  0.000000  1
  Ni  Ni1  1  0.750000  0.250000  0.500000  1
  Ni  Ni2  1  0.250000  0.750000  0.500000  1
  S  S3  1  0.346476  0.346476  0.000000  1
  S  S4  1  0.653524  0.653524  0.000000  1
