# generated using pymatgen
data_PrGeBO5
_symmetry_space_group_name_H-M   'P 1'
_cell_length_a   12.19363280
_cell_length_b   12.19363280
_cell_length_c   6.84627244
_cell_angle_alpha   90.00000000
_cell_angle_beta   90.00000000
_cell_angle_gamma   120.00000000
_symmetry_Int_Tables_number   1
_chemical_formula_structural   PrGeBO5
_chemical_formula_sum   'Pr9 Ge9 B9 O45'
_cell_volume   881.55829084
_cell_formula_units_Z   9
loop_
 _symmetry_equiv_pos_site_id
 _symmetry_equiv_pos_as_xyz
  1  'x, y, z'
loop_
 _atom_site_type_symbol
 _atom_site_label
 _atom_site_symmetry_multiplicity
 _atom_site_fract_x
 _atom_site_fract_y
 _atom_site_fract_z
 _atom_site_occupancy
  Pr  Pr0  1  0.528492  0.056641  0.659488  1
  Pr  Pr1  1  0.943359  0.471852  0.992821  1
  Pr  Pr2  1  0.861811  0.138099  0.330132  1
  Pr  Pr3  1  0.276287  0.138189  0.996799  1
  Pr  Pr4  1  0.194158  0.390488  0.659218  1
  Pr  Pr5  1  0.528148  0.471508  0.326154  1
  Pr  Pr6  1  0.196330  0.805842  0.325885  1
  Pr  Pr7  1  0.609512  0.803670  0.992551  1
  Pr  Pr8  1  0.861901  0.723713  0.663465  1
  Ge  Ge9  1  0.194424  0.386699  0.159178  1
  Ge  Ge10  1  0.613301  0.807725  0.492511  1
  Ge  Ge11  1  0.528212  0.053644  0.159078  1
  Ge  Ge12  1  0.525432  0.471788  0.825745  1
  Ge  Ge13  1  0.946356  0.474568  0.492412  1
  Ge  Ge14  1  0.858640  0.138525  0.831630  1
  Ge  Ge15  1  0.279885  0.141360  0.498297  1
  Ge  Ge16  1  0.861475  0.720115  0.164964  1
  Ge  Ge17  1  0.192275  0.805576  0.825844  1
  B  B18  1  0.028218  0.072234  0.633964  1
  B  B19  1  0.694807  0.288922  0.363181  1
  B  B20  1  0.927766  0.955984  0.967297  1
  B  B21  1  0.594115  0.305193  0.029847  1
  B  B22  1  0.260870  0.622319  0.958545  1
  B  B23  1  0.377681  0.638551  0.291878  1
  B  B24  1  0.044016  0.971782  0.300631  1
  B  B25  1  0.361449  0.739130  0.625212  1
  B  B26  1  0.711078  0.405885  0.696514  1
  O  O27  1  0.078814  0.769318  0.645331  1
  O  O28  1  0.749398  0.633420  0.342091  1
  O  O29  1  0.350931  0.256506  0.318326  1
  O  O30  1  0.650483  0.487395  0.667301  1
  O  O31  1  0.170446  0.153592  0.661436  1
  O  O32  1  0.884022  0.250602  0.008757  1
  O  O33  1  0.993193  0.029981  0.431791  1
  O  O34  1  0.655029  0.151612  0.324238  1
  O  O35  1  0.321218  0.836262  0.664298  1
  O  O36  1  0.225907  0.919784  0.002890  1
  O  O37  1  0.326997  0.697059  0.422732  1
  O  O38  1  0.693877  0.774093  0.669557  1
  O  O39  1  0.503660  0.821642  0.652821  1
  O  O40  1  0.515045  0.678782  0.330965  1
  O  O41  1  0.848388  0.503417  0.657571  1
  O  O42  1  0.181276  0.010781  0.339931  1
  O  O43  1  0.496583  0.344971  0.990904  1
  O  O44  1  0.036788  0.006807  0.098457  1
  O  O45  1  0.970019  0.963212  0.765124  1
  O  O46  1  0.512605  0.163088  0.000634  1
  O  O47  1  0.661703  0.296197  0.566842  1
  O  O48  1  0.564398  0.587474  0.002877  1
  O  O49  1  0.829505  0.818724  0.006598  1
  O  O50  1  0.743494  0.094425  0.651659  1
  O  O51  1  0.366580  0.115978  0.675424  1
  O  O52  1  0.302941  0.629938  0.756066  1
  O  O53  1  0.370062  0.673003  0.089399  1
  O  O54  1  0.846408  0.016854  0.994770  1
  O  O55  1  0.558038  0.971680  0.979011  1
  O  O56  1  0.983146  0.829554  0.328103  1
  O  O57  1  0.230682  0.309496  0.978665  1
  O  O58  1  0.989219  0.170495  0.673264  1
  O  O59  1  0.634494  0.338297  0.233509  1
  O  O60  1  0.023076  0.435602  0.669544  1
  O  O61  1  0.163738  0.484955  0.997631  1
  O  O62  1  0.413643  0.441962  0.645678  1
  O  O63  1  0.703803  0.365506  0.900175  1
  O  O64  1  0.028320  0.586357  0.312345  1
  O  O65  1  0.412526  0.976924  0.336210  1
  O  O66  1  0.690504  0.921186  0.311998  1
  O  O67  1  0.080216  0.306123  0.336224  1
  O  O68  1  0.905575  0.649069  0.984992  1
  O  O69  1  0.836912  0.349517  0.333968  1
  O  O70  1  0.317982  0.496340  0.319488  1
  O  O71  1  0.178358  0.682018  0.986155  1
