# generated using pymatgen
data_Mn2Ni6Te3PbO18
_symmetry_space_group_name_H-M   'P 1'
_cell_length_a   9.41064367
_cell_length_b   9.41064367
_cell_length_c   8.93088166
_cell_angle_alpha   90.00000000
_cell_angle_beta   90.00000000
_cell_angle_gamma   120.00000000
_symmetry_Int_Tables_number   1
_chemical_formula_structural   Mn2Ni6Te3PbO18
_chemical_formula_sum   'Mn4 Ni12 Te6 Pb2 O36'
_cell_volume   684.95749963
_cell_formula_units_Z   2
loop_
 _symmetry_equiv_pos_site_id
 _symmetry_equiv_pos_as_xyz
  1  'x, y, z'
loop_
 _atom_site_type_symbol
 _atom_site_label
 _atom_site_symmetry_multiplicity
 _atom_site_fract_x
 _atom_site_fract_y
 _atom_site_fract_z
 _atom_site_occupancy
  Mn  Mn0  1  0.666667  0.333333  0.560510  1
  Mn  Mn1  1  0.333333  0.666667  0.439490  1
  Mn  Mn2  1  0.333333  0.666667  0.060510  1
  Mn  Mn3  1  0.666667  0.333333  0.939490  1
  Ni  Ni4  1  0.988630  0.348693  0.588631  1
  Ni  Ni5  1  0.651307  0.639937  0.911369  1
  Ni  Ni6  1  0.360063  0.011370  0.588631  1
  Ni  Ni7  1  0.348693  0.360063  0.411369  1
  Ni  Ni8  1  0.348693  0.360063  0.088631  1
  Ni  Ni9  1  0.639937  0.988630  0.411369  1
  Ni  Ni10  1  0.011370  0.651307  0.088631  1
  Ni  Ni11  1  0.360063  0.011370  0.911369  1
  Ni  Ni12  1  0.651307  0.639937  0.588631  1
  Ni  Ni13  1  0.639937  0.988630  0.088631  1
  Ni  Ni14  1  0.988630  0.348693  0.911369  1
  Ni  Ni15  1  0.011370  0.651307  0.411369  1
  Te  Te16  1  0.362597  0.026114  0.250000  1
  Te  Te17  1  0.973886  0.336483  0.250000  1
  Te  Te18  1  0.336483  0.362597  0.750000  1
  Te  Te19  1  0.026114  0.663517  0.750000  1
  Te  Te20  1  0.637403  0.973886  0.750000  1
  Te  Te21  1  0.663517  0.637403  0.250000  1
  Pb  Pb22  1  0.000000  0.000000  0.000000  1
  Pb  Pb23  1  0.000000  0.000000  0.500000  1
  O  O24  1  0.447637  0.867180  0.250000  1
  O  O25  1  0.393444  0.522758  0.586934  1
  O  O26  1  0.477242  0.870686  0.586934  1
  O  O27  1  0.870686  0.393444  0.413066  1
  O  O28  1  0.204958  0.900771  0.408830  1
  O  O29  1  0.204958  0.900771  0.091170  1
  O  O30  1  0.900771  0.695813  0.908830  1
  O  O31  1  0.187741  0.894157  0.750000  1
  O  O32  1  0.706416  0.812259  0.750000  1
  O  O33  1  0.795042  0.099229  0.591170  1
  O  O34  1  0.522758  0.129314  0.413066  1
  O  O35  1  0.900771  0.695813  0.591170  1
  O  O36  1  0.099229  0.304187  0.091170  1
  O  O37  1  0.304187  0.204958  0.591170  1
  O  O38  1  0.870686  0.393444  0.086934  1
  O  O39  1  0.812259  0.105843  0.250000  1
  O  O40  1  0.606556  0.477242  0.413066  1
  O  O41  1  0.695813  0.795042  0.408830  1
  O  O42  1  0.129314  0.606556  0.586934  1
  O  O43  1  0.419543  0.552363  0.250000  1
  O  O44  1  0.129314  0.606556  0.913066  1
  O  O45  1  0.867180  0.419543  0.750000  1
  O  O46  1  0.132820  0.580457  0.250000  1
  O  O47  1  0.580457  0.447637  0.750000  1
  O  O48  1  0.304187  0.204958  0.908830  1
  O  O49  1  0.795042  0.099229  0.908830  1
  O  O50  1  0.606556  0.477242  0.086934  1
  O  O51  1  0.552363  0.132820  0.750000  1
  O  O52  1  0.522758  0.129314  0.086934  1
  O  O53  1  0.293584  0.187741  0.250000  1
  O  O54  1  0.099229  0.304187  0.408830  1
  O  O55  1  0.105843  0.293584  0.750000  1
  O  O56  1  0.894157  0.706416  0.250000  1
  O  O57  1  0.477242  0.870686  0.913066  1
  O  O58  1  0.393444  0.522758  0.913066  1
  O  O59  1  0.695813  0.795042  0.091170  1
