# generated using pymatgen
data_ZnS
_symmetry_space_group_name_H-M   'P 1'
_cell_length_a   3.85402291
_cell_length_b   3.85402291
_cell_length_c   50.39295088
_cell_angle_alpha   90.00000000
_cell_angle_beta   90.00000000
_cell_angle_gamma   120.00000000
_symmetry_Int_Tables_number   1
_chemical_formula_structural   ZnS
_chemical_formula_sum   'Zn16 S16'
_cell_volume   648.22982020
_cell_formula_units_Z   16
loop_
 _symmetry_equiv_pos_site_id
 _symmetry_equiv_pos_as_xyz
  1  'x, y, z'
loop_
 _atom_site_type_symbol
 _atom_site_label
 _atom_site_symmetry_multiplicity
 _atom_site_fract_x
 _atom_site_fract_y
 _atom_site_fract_z
 _atom_site_occupancy
  Zn  Zn0  1  0.333333  0.666667  0.625012  1
  Zn  Zn1  1  0.666667  0.333333  0.125013  1
  Zn  Zn2  1  0.000000  0.000000  0.375008  1
  Zn  Zn3  1  0.333333  0.666667  0.062527  1
  Zn  Zn4  1  0.666667  0.333333  0.500008  1
  Zn  Zn5  1  0.333333  0.666667  0.250004  1
  Zn  Zn6  1  0.666667  0.333333  0.312502  1
  Zn  Zn7  1  0.000000  0.000000  0.750003  1
  Zn  Zn8  1  0.666667  0.333333  0.687511  1
  Zn  Zn9  1  0.000000  0.000000  0.187511  1
  Zn  Zn10  1  0.333333  0.666667  0.437516  1
  Zn  Zn11  1  0.333333  0.666667  0.937523  1
  Zn  Zn12  1  0.000000  0.000000  0.562502  1
  Zn  Zn13  1  0.666667  0.333333  0.875003  1
  Zn  Zn14  1  0.333333  0.666667  0.812482  1
  Zn  Zn15  1  0.000000  0.000000  0.000005  1
  S  S16  1  0.000000  0.000000  0.234352  1
  S  S17  1  0.333333  0.666667  0.296855  1
  S  S18  1  0.666667  0.333333  0.359367  1
  S  S19  1  0.666667  0.333333  0.546866  1
  S  S20  1  0.333333  0.666667  0.109367  1
  S  S21  1  0.666667  0.333333  0.734352  1
  S  S22  1  0.333333  0.666667  0.984324  1
  S  S23  1  0.666667  0.333333  0.921905  1
  S  S24  1  0.000000  0.000000  0.796850  1
  S  S25  1  0.333333  0.666667  0.671867  1
  S  S26  1  0.000000  0.000000  0.421865  1
  S  S27  1  0.333333  0.666667  0.859314  1
  S  S28  1  0.000000  0.000000  0.609363  1
  S  S29  1  0.000000  0.000000  0.046909  1
  S  S30  1  0.666667  0.333333  0.171868  1
  S  S31  1  0.333333  0.666667  0.484365  1
