# generated using pymatgen
data_Ho(SiPt)2
_symmetry_space_group_name_H-M   'P 1'
_cell_length_a   5.74867206
_cell_length_b   5.74867206
_cell_length_c   5.74867206
_cell_angle_alpha   137.26830692
_cell_angle_beta   137.26830692
_cell_angle_gamma   62.02548918
_symmetry_Int_Tables_number   1
_chemical_formula_structural   Ho(SiPt)2
_chemical_formula_sum   'Ho1 Si2 Pt2'
_cell_volume   86.44507858
_cell_formula_units_Z   1
loop_
 _symmetry_equiv_pos_site_id
 _symmetry_equiv_pos_as_xyz
  1  'x, y, z'
loop_
 _atom_site_type_symbol
 _atom_site_label
 _atom_site_symmetry_multiplicity
 _atom_site_fract_x
 _atom_site_fract_y
 _atom_site_fract_z
 _atom_site_occupancy
  Ho  Ho0  1  0.000000  0.000000  0.000000  1
  Si  Si1  1  0.382584  0.382584  0.000000  1
  Si  Si2  1  0.617416  0.617416  0.000000  1
  Pt  Pt3  1  0.250000  0.750000  0.500000  1
  Pt  Pt4  1  0.750000  0.250000  0.500000  1
