# generated using pymatgen
data_SiAg6SO8
_symmetry_space_group_name_H-M   'P 1'
_cell_length_a   10.42680005
_cell_length_b   10.42680005
_cell_length_c   10.42680005
_cell_angle_alpha   140.46493241
_cell_angle_beta   140.46493241
_cell_angle_gamma   57.14804093
_symmetry_Int_Tables_number   1
_chemical_formula_structural   SiAg6SO8
_chemical_formula_sum   'Si2 Ag12 S2 O16'
_cell_volume   455.47638585
_cell_formula_units_Z   2
loop_
 _symmetry_equiv_pos_site_id
 _symmetry_equiv_pos_as_xyz
  1  'x, y, z'
loop_
 _atom_site_type_symbol
 _atom_site_label
 _atom_site_symmetry_multiplicity
 _atom_site_fract_x
 _atom_site_fract_y
 _atom_site_fract_z
 _atom_site_occupancy
  Si  Si0  1  0.500000  0.500000  0.000000  1
  Si  Si1  1  0.250000  0.750000  0.500000  1
  Ag  Ag2  1  0.580665  0.625000  0.455665  1
  Ag  Ag3  1  0.169335  0.625000  0.044335  1
  Ag  Ag4  1  0.875000  0.419335  0.044335  1
  Ag  Ag5  1  0.735905  0.735905  0.000000  1
  Ag  Ag6  1  0.169335  0.125000  0.544335  1
  Ag  Ag7  1  0.485905  0.985905  0.500000  1
  Ag  Ag8  1  0.014095  0.514095  0.500000  1
  Ag  Ag9  1  0.875000  0.830665  0.455665  1
  Ag  Ag10  1  0.264095  0.264095  0.000000  1
  Ag  Ag11  1  0.375000  0.419335  0.544335  1
  Ag  Ag12  1  0.375000  0.830665  0.955665  1
  Ag  Ag13  1  0.580665  0.125000  0.955665  1
  S  S14  1  0.750000  0.250000  0.500000  1
  S  S15  1  0.000000  0.000000  0.000000  1
  O  O16  1  0.797083  0.123785  0.326702  1
  O  O17  1  0.797083  0.470381  0.673298  1
  O  O18  1  0.952917  0.126215  0.173298  1
  O  O19  1  0.198538  0.504035  0.305497  1
  O  O20  1  0.495965  0.801462  0.694503  1
  O  O21  1  0.643041  0.448538  0.194503  1
  O  O22  1  0.254035  0.448538  0.805497  1
  O  O23  1  0.106959  0.801462  0.305497  1
  O  O24  1  0.551462  0.356959  0.805497  1
  O  O25  1  0.220381  0.047083  0.173298  1
  O  O26  1  0.198538  0.893041  0.694503  1
  O  O27  1  0.876215  0.202917  0.673298  1
  O  O28  1  0.551462  0.745965  0.194503  1
  O  O29  1  0.529619  0.202917  0.326702  1
  O  O30  1  0.873785  0.047083  0.826702  1
  O  O31  1  0.952917  0.779619  0.826702  1
