# generated using pymatgen
data_Gd2TiO5
_symmetry_space_group_name_H-M   'P 1'
_cell_length_a   3.77093926
_cell_length_b   10.56307670
_cell_length_c   11.41706072
_cell_angle_alpha   90.00000000
_cell_angle_beta   90.00000000
_cell_angle_gamma   90.00000000
_symmetry_Int_Tables_number   1
_chemical_formula_structural   Gd2TiO5
_chemical_formula_sum   'Gd8 Ti4 O20'
_cell_volume   454.77259013
_cell_formula_units_Z   4
loop_
 _symmetry_equiv_pos_site_id
 _symmetry_equiv_pos_as_xyz
  1  'x, y, z'
loop_
 _atom_site_type_symbol
 _atom_site_label
 _atom_site_symmetry_multiplicity
 _atom_site_fract_x
 _atom_site_fract_y
 _atom_site_fract_z
 _atom_site_occupancy
  Gd  Gd0  1  0.750000  0.863214  0.556082  1
  Gd  Gd1  1  0.250000  0.136786  0.443918  1
  Gd  Gd2  1  0.750000  0.388075  0.277325  1
  Gd  Gd3  1  0.750000  0.888075  0.222675  1
  Gd  Gd4  1  0.250000  0.611925  0.722675  1
  Gd  Gd5  1  0.250000  0.111925  0.777325  1
  Gd  Gd6  1  0.750000  0.363214  0.943918  1
  Gd  Gd7  1  0.250000  0.636786  0.056082  1
  Ti  Ti8  1  0.250000  0.676912  0.379286  1
  Ti  Ti9  1  0.750000  0.823088  0.879286  1
  Ti  Ti10  1  0.750000  0.323088  0.620714  1
  Ti  Ti11  1  0.250000  0.176912  0.120714  1
  O  O12  1  0.750000  0.739381  0.729995  1
  O  O13  1  0.250000  0.760619  0.229995  1
  O  O14  1  0.250000  0.724119  0.540929  1
  O  O15  1  0.750000  0.506483  0.104313  1
  O  O16  1  0.750000  0.487906  0.655602  1
  O  O17  1  0.250000  0.993517  0.604313  1
  O  O18  1  0.750000  0.006483  0.395687  1
  O  O19  1  0.750000  0.275881  0.459071  1
  O  O20  1  0.250000  0.265165  0.617868  1
  O  O21  1  0.750000  0.234835  0.117868  1
  O  O22  1  0.750000  0.775881  0.040929  1
  O  O23  1  0.750000  0.987906  0.844398  1
  O  O24  1  0.250000  0.765165  0.882132  1
  O  O25  1  0.250000  0.512094  0.344398  1
  O  O26  1  0.750000  0.734835  0.382132  1
  O  O27  1  0.250000  0.493517  0.895687  1
  O  O28  1  0.750000  0.239381  0.770005  1
  O  O29  1  0.250000  0.224119  0.959071  1
  O  O30  1  0.250000  0.012094  0.155602  1
  O  O31  1  0.250000  0.260619  0.270005  1
