# generated using pymatgen
data_K9Sm3Si12(O16F)2
_symmetry_space_group_name_H-M   'P 1'
_cell_length_a   6.99729860
_cell_length_b   11.54121661
_cell_length_c   11.63635241
_cell_angle_alpha   87.63283503
_cell_angle_beta   89.48081840
_cell_angle_gamma   80.16708250
_symmetry_Int_Tables_number   1
_chemical_formula_structural   K9Sm3Si12(O16F)2
_chemical_formula_sum   'K9 Sm3 Si12 O32 F2'
_cell_volume   925.12426387
_cell_formula_units_Z   1
loop_
 _symmetry_equiv_pos_site_id
 _symmetry_equiv_pos_as_xyz
  1  'x, y, z'
loop_
 _atom_site_type_symbol
 _atom_site_label
 _atom_site_symmetry_multiplicity
 _atom_site_fract_x
 _atom_site_fract_y
 _atom_site_fract_z
 _atom_site_occupancy
  K  K0  1  0.831514  0.153339  0.786599  1
  K  K1  1  0.265055  0.615379  0.017055  1
  K  K2  1  0.734945  0.384621  0.982945  1
  K  K3  1  0.168486  0.846661  0.213401  1
  K  K4  1  0.831552  0.190698  0.220921  1
  K  K5  1  0.983461  0.669139  0.490226  1
  K  K6  1  0.500000  0.000000  0.000000  1
  K  K7  1  0.168448  0.809302  0.779079  1
  K  K8  1  0.016539  0.330861  0.509774  1
  Sm  Sm9  1  0.485813  0.485927  0.334314  1
  Sm  Sm10  1  0.000000  0.000000  0.500000  1
  Sm  Sm11  1  0.514187  0.514073  0.665686  1
  Si  Si12  1  0.688530  0.695889  0.159465  1
  Si  Si13  1  0.552655  0.233013  0.511112  1
  Si  Si14  1  0.715244  0.666861  0.882679  1
  Si  Si15  1  0.338748  0.138373  0.310905  1
  Si  Si16  1  0.343060  0.090223  0.696090  1
  Si  Si17  1  0.017589  0.515383  0.743568  1
  Si  Si18  1  0.982411  0.484617  0.256432  1
  Si  Si19  1  0.311470  0.304111  0.840535  1
  Si  Si20  1  0.284756  0.333139  0.117321  1
  Si  Si21  1  0.656940  0.909777  0.303910  1
  Si  Si22  1  0.661252  0.861627  0.689095  1
  Si  Si23  1  0.447345  0.766987  0.488888  1
  O  O24  1  0.103014  0.375900  0.787424  1
  O  O25  1  0.716024  0.796433  0.816826  1
  O  O26  1  0.707870  0.690282  0.019845  1
  O  O27  1  0.511244  0.787911  0.625226  1
  O  O28  1  0.853985  0.872330  0.618142  1
  O  O29  1  0.843775  0.510681  0.654385  1
  O  O30  1  0.312583  0.163364  0.816496  1
  O  O31  1  0.499535  0.351174  0.790015  1
  O  O32  1  0.460210  0.008147  0.276623  1
  O  O33  1  0.473969  0.624420  0.482364  1
  O  O34  1  0.687417  0.836636  0.183504  1
  O  O35  1  0.067978  0.416002  0.136847  1
  O  O36  1  0.488756  0.212089  0.374774  1
  O  O37  1  0.844683  0.965882  0.330203  1
  O  O38  1  0.156225  0.489319  0.345615  1
  O  O39  1  0.292130  0.309718  0.980155  1
  O  O40  1  0.542190  0.602933  0.843698  1
  O  O41  1  0.614435  0.816404  0.407342  1
  O  O42  1  0.896986  0.624100  0.212576  1
  O  O43  1  0.187666  0.579685  0.690720  1
  O  O44  1  0.526031  0.375580  0.517636  1
  O  O45  1  0.146015  0.127670  0.381858  1
  O  O46  1  0.812334  0.420315  0.309280  1
  O  O47  1  0.539790  0.991853  0.723377  1
  O  O48  1  0.932022  0.583998  0.863153  1
  O  O49  1  0.385565  0.183596  0.592658  1
  O  O50  1  0.500465  0.648826  0.209985  1
  O  O51  1  0.155317  0.034118  0.669797  1
  O  O52  1  0.283976  0.203567  0.183174  1
  O  O53  1  0.767431  0.164108  0.540344  1
  O  O54  1  0.457810  0.397067  0.156302  1
  O  O55  1  0.232569  0.835892  0.459656  1
  F  F56  1  0.755024  0.156113  0.004115  1
  F  F57  1  0.244976  0.843887  0.995885  1
