# generated using pymatgen
data_Ba7B4Se13
_symmetry_space_group_name_H-M   'P 1'
_cell_length_a   13.84281252
_cell_length_b   13.84281252
_cell_length_c   10.66299933
_cell_angle_alpha   89.99170225
_cell_angle_beta   90.00829775
_cell_angle_gamma   45.33887796
_symmetry_Int_Tables_number   1
_chemical_formula_structural   Ba7B4Se13
_chemical_formula_sum   'Ba14 B8 Se26'
_cell_volume   1453.33771839
_cell_formula_units_Z   2
loop_
 _symmetry_equiv_pos_site_id
 _symmetry_equiv_pos_as_xyz
  1  'x, y, z'
loop_
 _atom_site_type_symbol
 _atom_site_label
 _atom_site_symmetry_multiplicity
 _atom_site_fract_x
 _atom_site_fract_y
 _atom_site_fract_z
 _atom_site_occupancy
  Ba  Ba0  1  0.064312  0.277920  0.472174  1
  Ba  Ba1  1  0.277920  0.064312  0.027826  1
  Ba  Ba2  1  0.451190  0.895354  0.643381  1
  Ba  Ba3  1  0.332253  0.332253  0.750000  1
  Ba  Ba4  1  0.667747  0.667747  0.250000  1
  Ba  Ba5  1  0.548810  0.104646  0.356619  1
  Ba  Ba6  1  0.996163  0.996163  0.250000  1
  Ba  Ba7  1  0.935688  0.722080  0.527826  1
  Ba  Ba8  1  0.895354  0.451190  0.856619  1
  Ba  Ba9  1  0.003837  0.003837  0.750000  1
  Ba  Ba10  1  0.104646  0.548810  0.143381  1
  Ba  Ba11  1  0.503865  0.503865  0.750000  1
  Ba  Ba12  1  0.496135  0.496135  0.250000  1
  Ba  Ba13  1  0.722080  0.935688  0.972174  1
  B  B14  1  0.516981  0.716193  0.931704  1
  B  B15  1  0.067237  0.708032  0.850485  1
  B  B16  1  0.483019  0.283807  0.068296  1
  B  B17  1  0.932763  0.291968  0.149515  1
  B  B18  1  0.283807  0.483019  0.431704  1
  B  B19  1  0.291968  0.932763  0.350485  1
  B  B20  1  0.716193  0.516981  0.568296  1
  B  B21  1  0.708032  0.067237  0.649515  1
  Se  Se22  1  0.376455  0.004574  0.347071  1
  Se  Se23  1  0.205796  0.205796  0.750000  1
  Se  Se24  1  0.341122  0.817528  0.849234  1
  Se  Se25  1  0.596984  0.792256  0.937253  1
  Se  Se26  1  0.207744  0.403016  0.437253  1
  Se  Se27  1  0.658878  0.182472  0.150766  1
  Se  Se28  1  0.817528  0.341122  0.650766  1
  Se  Se29  1  0.321538  0.831506  0.201882  1
  Se  Se30  1  0.794204  0.794204  0.250000  1
  Se  Se31  1  0.828101  0.021068  0.510543  1
  Se  Se32  1  0.466819  0.370468  0.500730  1
  Se  Se33  1  0.978932  0.171899  0.010543  1
  Se  Se34  1  0.021068  0.828101  0.989457  1
  Se  Se35  1  0.629532  0.533181  0.000730  1
  Se  Se36  1  0.831506  0.321538  0.298118  1
  Se  Se37  1  0.678462  0.168494  0.798118  1
  Se  Se38  1  0.004574  0.376455  0.152929  1
  Se  Se39  1  0.403016  0.207744  0.062747  1
  Se  Se40  1  0.533181  0.629532  0.499270  1
  Se  Se41  1  0.995426  0.623545  0.847071  1
  Se  Se42  1  0.168494  0.678462  0.701882  1
  Se  Se43  1  0.623545  0.995426  0.652929  1
  Se  Se44  1  0.370468  0.466819  0.999270  1
  Se  Se45  1  0.171899  0.978932  0.489457  1
  Se  Se46  1  0.182472  0.658878  0.349234  1
  Se  Se47  1  0.792256  0.596984  0.562747  1
