# generated using pymatgen
data_Y6Ni20P13
_symmetry_space_group_name_H-M   'P 1'
_cell_length_a   12.64763643
_cell_length_b   12.64763643
_cell_length_c   3.75471311
_cell_angle_alpha   90.00000000
_cell_angle_beta   90.00000000
_cell_angle_gamma   120.00000000
_symmetry_Int_Tables_number   1
_chemical_formula_structural   Y6Ni20P13
_chemical_formula_sum   'Y6 Ni20 P13'
_cell_volume   520.14704612
_cell_formula_units_Z   1
loop_
 _symmetry_equiv_pos_site_id
 _symmetry_equiv_pos_as_xyz
  1  'x, y, z'
loop_
 _atom_site_type_symbol
 _atom_site_label
 _atom_site_symmetry_multiplicity
 _atom_site_fract_x
 _atom_site_fract_y
 _atom_site_fract_z
 _atom_site_occupancy
  Y  Y0  1  0.470325  0.188129  0.000000  1
  Y  Y1  1  0.717804  0.529675  0.000000  1
  Y  Y2  1  0.811871  0.282196  0.000000  1
  Y  Y3  1  0.530653  0.812166  0.500000  1
  Y  Y4  1  0.281514  0.469347  0.500000  1
  Y  Y5  1  0.187834  0.718486  0.500000  1
  Ni  Ni6  1  0.333333  0.666667  0.000000  1
  Ni  Ni7  1  0.666667  0.333333  0.500000  1
  Ni  Ni8  1  0.195566  0.090516  0.000000  1
  Ni  Ni9  1  0.894950  0.804434  0.000000  1
  Ni  Ni10  1  0.909484  0.105050  0.000000  1
  Ni  Ni11  1  0.848148  0.927510  0.500000  1
  Ni  Ni12  1  0.079362  0.151852  0.500000  1
  Ni  Ni13  1  0.072490  0.920638  0.500000  1
  Ni  Ni14  1  0.437793  0.416306  0.000000  1
  Ni  Ni15  1  0.978513  0.562207  0.000000  1
  Ni  Ni16  1  0.583694  0.021487  0.000000  1
  Ni  Ni17  1  0.564831  0.586802  0.500000  1
  Ni  Ni18  1  0.021971  0.435169  0.500000  1
  Ni  Ni19  1  0.413198  0.978029  0.500000  1
  Ni  Ni20  1  0.078022  0.320199  0.000000  1
  Ni  Ni21  1  0.242176  0.921978  0.000000  1
  Ni  Ni22  1  0.679801  0.757824  0.000000  1
  Ni  Ni23  1  0.929117  0.683036  0.500000  1
  Ni  Ni24  1  0.753919  0.070883  0.500000  1
  Ni  Ni25  1  0.316964  0.246081  0.500000  1
  P  P26  1  0.234296  0.281942  0.000000  1
  P  P27  1  0.047646  0.765704  0.000000  1
  P  P28  1  0.718058  0.952354  0.000000  1
  P  P29  1  0.767416  0.721497  0.500000  1
  P  P30  1  0.954081  0.232584  0.500000  1
  P  P31  1  0.278503  0.045919  0.500000  1
  P  P32  1  0.476756  0.614257  0.000000  1
  P  P33  1  0.137501  0.523244  0.000000  1
  P  P34  1  0.385743  0.862499  0.000000  1
  P  P35  1  0.523472  0.386516  0.500000  1
  P  P36  1  0.863044  0.476528  0.500000  1
  P  P37  1  0.613484  0.136956  0.500000  1
  P  P38  1  0.000000  0.000000  0.000000  1
