# generated using pymatgen
data_Cs2Na3TlO4
_symmetry_space_group_name_H-M   'P 1'
_cell_length_a   6.50598612
_cell_length_b   10.33736868
_cell_length_c   12.79587407
_cell_angle_alpha   90.00000000
_cell_angle_beta   110.65926116
_cell_angle_gamma   90.00000000
_symmetry_Int_Tables_number   1
_chemical_formula_structural   Cs2Na3TlO4
_chemical_formula_sum   'Cs8 Na12 Tl4 O16'
_cell_volume   805.24393420
_cell_formula_units_Z   4
loop_
 _symmetry_equiv_pos_site_id
 _symmetry_equiv_pos_as_xyz
  1  'x, y, z'
loop_
 _atom_site_type_symbol
 _atom_site_label
 _atom_site_symmetry_multiplicity
 _atom_site_fract_x
 _atom_site_fract_y
 _atom_site_fract_z
 _atom_site_occupancy
  Cs  Cs0  1  0.285015  0.728899  0.391570  1
  Cs  Cs1  1  0.714985  0.228899  0.108430  1
  Cs  Cs2  1  0.714985  0.271101  0.608430  1
  Cs  Cs3  1  0.721518  0.001661  0.865379  1
  Cs  Cs4  1  0.285015  0.771101  0.891570  1
  Cs  Cs5  1  0.278482  0.998339  0.134621  1
  Cs  Cs6  1  0.721518  0.498339  0.365379  1
  Cs  Cs7  1  0.278482  0.501661  0.634621  1
  Na  Na8  1  0.612050  0.744090  0.198789  1
  Na  Na9  1  0.912888  0.974021  0.293970  1
  Na  Na10  1  0.912888  0.525979  0.793970  1
  Na  Na11  1  0.387950  0.255910  0.801211  1
  Na  Na12  1  0.360169  0.991580  0.568441  1
  Na  Na13  1  0.387950  0.244090  0.301211  1
  Na  Na14  1  0.360169  0.508420  0.068441  1
  Na  Na15  1  0.087112  0.474021  0.206030  1
  Na  Na16  1  0.639831  0.491580  0.931559  1
  Na  Na17  1  0.087112  0.025979  0.706030  1
  Na  Na18  1  0.639831  0.008420  0.431559  1
  Na  Na19  1  0.612050  0.755910  0.698789  1
  Tl  Tl20  1  0.099326  0.280741  0.936625  1
  Tl  Tl21  1  0.099326  0.219259  0.436625  1
  Tl  Tl22  1  0.900674  0.719259  0.063375  1
  Tl  Tl23  1  0.900674  0.780741  0.563375  1
  O  O24  1  0.222727  0.309436  0.118949  1
  O  O25  1  0.222727  0.190564  0.618949  1
  O  O26  1  0.777273  0.809436  0.381051  1
  O  O27  1  0.222670  0.097784  0.891833  1
  O  O28  1  0.750880  0.322369  0.843930  1
  O  O29  1  0.777330  0.902216  0.108167  1
  O  O30  1  0.777330  0.597784  0.608167  1
  O  O31  1  0.750880  0.177631  0.343930  1
  O  O32  1  0.249120  0.677631  0.156070  1
  O  O33  1  0.266904  0.058814  0.376768  1
  O  O34  1  0.266904  0.441186  0.876768  1
  O  O35  1  0.249120  0.822369  0.656070  1
  O  O36  1  0.777273  0.690564  0.881051  1
  O  O37  1  0.733096  0.941186  0.623232  1
  O  O38  1  0.222670  0.402216  0.391833  1
  O  O39  1  0.733096  0.558814  0.123232  1
