# generated using pymatgen
data_Sc44Os7
_symmetry_space_group_name_H-M   'P 1'
_cell_length_a   14.68609412
_cell_length_b   14.68609412
_cell_length_c   14.68609412
_cell_angle_alpha   60.00000000
_cell_angle_beta   60.00000000
_cell_angle_gamma   60.00000000
_symmetry_Int_Tables_number   1
_chemical_formula_structural   Sc44Os7
_chemical_formula_sum   'Sc88 Os14'
_cell_volume   2239.77257903
_cell_formula_units_Z   2
loop_
 _symmetry_equiv_pos_site_id
 _symmetry_equiv_pos_as_xyz
  1  'x, y, z'
loop_
 _atom_site_type_symbol
 _atom_site_label
 _atom_site_symmetry_multiplicity
 _atom_site_fract_x
 _atom_site_fract_y
 _atom_site_fract_z
 _atom_site_occupancy
  Sc  Sc0  1  0.211377  0.211377  0.575122  1
  Sc  Sc1  1  0.836280  0.836280  0.836280  1
  Sc  Sc2  1  0.908265  0.485445  0.485445  1
  Sc  Sc3  1  0.356933  0.143067  0.143067  1
  Sc  Sc4  1  0.143067  0.356933  0.356933  1
  Sc  Sc5  1  0.926860  0.691047  0.691047  1
  Sc  Sc6  1  0.485445  0.908265  0.120844  1
  Sc  Sc7  1  0.211377  0.575122  0.211377  1
  Sc  Sc8  1  0.485445  0.485445  0.908265  1
  Sc  Sc9  1  0.701822  0.341194  0.978492  1
  Sc  Sc10  1  0.106609  0.715240  0.715240  1
  Sc  Sc11  1  0.559477  0.321568  0.559477  1
  Sc  Sc12  1  0.341194  0.978492  0.978492  1
  Sc  Sc13  1  0.701822  0.978492  0.341194  1
  Sc  Sc14  1  0.106609  0.715240  0.462911  1
  Sc  Sc15  1  0.776850  0.549933  0.336609  1
  Sc  Sc16  1  0.810732  0.189268  0.810732  1
  Sc  Sc17  1  0.575122  0.211377  0.002123  1
  Sc  Sc18  1  0.321568  0.559477  0.559477  1
  Sc  Sc19  1  0.336609  0.549933  0.336609  1
  Sc  Sc20  1  0.978492  0.701822  0.978492  1
  Sc  Sc21  1  0.978492  0.978492  0.701822  1
  Sc  Sc22  1  0.485445  0.120844  0.908265  1
  Sc  Sc23  1  0.836280  0.491159  0.836280  1
  Sc  Sc24  1  0.189268  0.189268  0.810732  1
  Sc  Sc25  1  0.978492  0.701822  0.341194  1
  Sc  Sc26  1  0.810732  0.810732  0.189268  1
  Sc  Sc27  1  0.002123  0.575122  0.211377  1
  Sc  Sc28  1  0.143067  0.143067  0.356933  1
  Sc  Sc29  1  0.715240  0.715240  0.462911  1
  Sc  Sc30  1  0.356933  0.356933  0.143067  1
  Sc  Sc31  1  0.715240  0.462911  0.106609  1
  Sc  Sc32  1  0.462911  0.106609  0.715240  1
  Sc  Sc33  1  0.691047  0.691047  0.691047  1
  Sc  Sc34  1  0.485445  0.485445  0.120844  1
  Sc  Sc35  1  0.211377  0.002123  0.575122  1
  Sc  Sc36  1  0.908265  0.120844  0.485445  1
  Sc  Sc37  1  0.336609  0.336609  0.776850  1
  Sc  Sc38  1  0.189268  0.810732  0.189268  1
  Sc  Sc39  1  0.978492  0.341194  0.701822  1
  Sc  Sc40  1  0.120844  0.908265  0.485445  1
  Sc  Sc41  1  0.575122  0.002123  0.211377  1
  Sc  Sc42  1  0.170889  0.943037  0.943037  1
  Sc  Sc43  1  0.549933  0.336609  0.336609  1
  Sc  Sc44  1  0.120844  0.485445  0.485445  1
  Sc  Sc45  1  0.559477  0.559477  0.559477  1
  Sc  Sc46  1  0.776850  0.336609  0.336609  1
  Sc  Sc47  1  0.715240  0.106609  0.462911  1
  Sc  Sc48  1  0.211377  0.002123  0.211377  1
  Sc  Sc49  1  0.691047  0.691047  0.926860  1
  Sc  Sc50  1  0.002123  0.211377  0.211377  1
  Sc  Sc51  1  0.211377  0.211377  0.002123  1
  Sc  Sc52  1  0.485445  0.120844  0.485445  1
  Sc  Sc53  1  0.462911  0.715240  0.715240  1
  Sc  Sc54  1  0.336609  0.776850  0.549933  1
  Sc  Sc55  1  0.715240  0.106609  0.715240  1
  Sc  Sc56  1  0.908265  0.485445  0.120844  1
  Sc  Sc57  1  0.836280  0.836280  0.491159  1
  Sc  Sc58  1  0.143067  0.356933  0.143067  1
  Sc  Sc59  1  0.715240  0.462911  0.715240  1
  Sc  Sc60  1  0.341194  0.701822  0.978492  1
  Sc  Sc61  1  0.336609  0.549933  0.776850  1
  Sc  Sc62  1  0.189268  0.810732  0.810732  1
  Sc  Sc63  1  0.549933  0.336609  0.776850  1
  Sc  Sc64  1  0.715240  0.715240  0.106609  1
  Sc  Sc65  1  0.943037  0.943037  0.170889  1
  Sc  Sc66  1  0.559477  0.559477  0.321568  1
  Sc  Sc67  1  0.485445  0.908265  0.485445  1
  Sc  Sc68  1  0.549933  0.776850  0.336609  1
  Sc  Sc69  1  0.943037  0.170889  0.943037  1
  Sc  Sc70  1  0.810732  0.189268  0.189268  1
  Sc  Sc71  1  0.978492  0.978492  0.341194  1
  Sc  Sc72  1  0.943037  0.943037  0.943037  1
  Sc  Sc73  1  0.336609  0.776850  0.336609  1
  Sc  Sc74  1  0.106609  0.462911  0.715240  1
  Sc  Sc75  1  0.336609  0.336609  0.549933  1
  Sc  Sc76  1  0.462911  0.715240  0.106609  1
  Sc  Sc77  1  0.211377  0.575122  0.002123  1
  Sc  Sc78  1  0.002123  0.211377  0.575122  1
  Sc  Sc79  1  0.120844  0.485445  0.908265  1
  Sc  Sc80  1  0.701822  0.978492  0.978492  1
  Sc  Sc81  1  0.341194  0.978492  0.701822  1
  Sc  Sc82  1  0.776850  0.336609  0.549933  1
  Sc  Sc83  1  0.978492  0.341194  0.978492  1
  Sc  Sc84  1  0.491159  0.836280  0.836280  1
  Sc  Sc85  1  0.575122  0.211377  0.211377  1
  Sc  Sc86  1  0.691047  0.926860  0.691047  1
  Sc  Sc87  1  0.356933  0.143067  0.356933  1
  Os  Os88  1  0.590331  0.590331  0.909669  1
  Os  Os89  1  0.081082  0.081082  0.756753  1
  Os  Os90  1  0.590331  0.909669  0.590331  1
  Os  Os91  1  0.909669  0.909669  0.590331  1
  Os  Os92  1  0.756753  0.081082  0.081082  1
  Os  Os93  1  0.951317  0.349561  0.349561  1
  Os  Os94  1  0.349561  0.349561  0.951317  1
  Os  Os95  1  0.909669  0.590331  0.590331  1
  Os  Os96  1  0.349561  0.349561  0.349561  1
  Os  Os97  1  0.081082  0.081082  0.081082  1
  Os  Os98  1  0.349561  0.951317  0.349561  1
  Os  Os99  1  0.909669  0.590331  0.909669  1
  Os  Os100  1  0.590331  0.909669  0.909669  1
  Os  Os101  1  0.081082  0.756753  0.081082  1
