# generated using pymatgen
data_Na4TiSe4
_symmetry_space_group_name_H-M   'P 1'
_cell_length_a   14.60421798
_cell_length_b   14.60421798
_cell_length_c   21.71078950
_cell_angle_alpha   57.52998901
_cell_angle_beta   122.47001099
_cell_angle_gamma   150.62051314
_symmetry_Int_Tables_number   1
_chemical_formula_structural   Na4TiSe4
_chemical_formula_sum   'Na32 Ti8 Se32'
_cell_volume   1889.72226085
_cell_formula_units_Z   8
loop_
 _symmetry_equiv_pos_site_id
 _symmetry_equiv_pos_as_xyz
  1  'x, y, z'
loop_
 _atom_site_type_symbol
 _atom_site_label
 _atom_site_symmetry_multiplicity
 _atom_site_fract_x
 _atom_site_fract_y
 _atom_site_fract_z
 _atom_site_occupancy
  Na  Na0  1  0.655431  0.326496  0.184518  1
  Na  Na1  1  0.326496  0.655431  0.315482  1
  Na  Na2  1  0.344569  0.673504  0.815482  1
  Na  Na3  1  0.673504  0.344569  0.684518  1
  Na  Na4  1  0.822173  0.132871  0.326334  1
  Na  Na5  1  0.132871  0.822173  0.173666  1
  Na  Na6  1  0.177827  0.867129  0.673666  1
  Na  Na7  1  0.867129  0.177827  0.826334  1
  Na  Na8  1  0.579731  0.881635  0.063327  1
  Na  Na9  1  0.881635  0.579731  0.436673  1
  Na  Na10  1  0.420269  0.118365  0.936673  1
  Na  Na11  1  0.118365  0.420269  0.563327  1
  Na  Na12  1  0.567617  0.197394  0.364024  1
  Na  Na13  1  0.197394  0.567617  0.135976  1
  Na  Na14  1  0.432383  0.802606  0.635976  1
  Na  Na15  1  0.802606  0.432383  0.864024  1
  Na  Na16  1  0.066483  0.407036  0.979888  1
  Na  Na17  1  0.407036  0.066483  0.520112  1
  Na  Na18  1  0.933517  0.592964  0.020112  1
  Na  Na19  1  0.592964  0.933517  0.479888  1
  Na  Na20  1  0.030024  0.884830  0.776784  1
  Na  Na21  1  0.884830  0.030024  0.723216  1
  Na  Na22  1  0.969976  0.115170  0.223216  1
  Na  Na23  1  0.115170  0.969976  0.276784  1
  Na  Na24  1  0.616128  0.539391  0.211022  1
  Na  Na25  1  0.539391  0.616128  0.288978  1
  Na  Na26  1  0.383872  0.460609  0.788978  1
  Na  Na27  1  0.460609  0.383872  0.711022  1
  Na  Na28  1  0.687259  0.785086  0.992876  1
  Na  Na29  1  0.785086  0.687259  0.507124  1
  Na  Na30  1  0.312741  0.214914  0.007124  1
  Na  Na31  1  0.214914  0.312741  0.492876  1
  Ti  Ti32  1  0.168552  0.225285  0.096802  1
  Ti  Ti33  1  0.225285  0.168552  0.403198  1
  Ti  Ti34  1  0.831448  0.774715  0.903198  1
  Ti  Ti35  1  0.774715  0.831448  0.596802  1
  Ti  Ti36  1  0.325316  0.845115  0.871932  1
  Ti  Ti37  1  0.845115  0.325316  0.628068  1
  Ti  Ti38  1  0.674684  0.154885  0.128068  1
  Ti  Ti39  1  0.154885  0.674684  0.371932  1
  Se  Se40  1  0.803097  0.660418  0.662957  1
  Se  Se41  1  0.660418  0.803097  0.837043  1
  Se  Se42  1  0.196903  0.339582  0.337043  1
  Se  Se43  1  0.339582  0.196903  0.162957  1
  Se  Se44  1  0.074661  0.143794  0.630212  1
  Se  Se45  1  0.143794  0.074661  0.869788  1
  Se  Se46  1  0.925339  0.856206  0.369788  1
  Se  Se47  1  0.856206  0.925339  0.130212  1
  Se  Se48  1  0.168808  0.310974  0.967213  1
  Se  Se49  1  0.310974  0.168808  0.532787  1
  Se  Se50  1  0.831192  0.689026  0.032787  1
  Se  Se51  1  0.689026  0.831192  0.467213  1
  Se  Se52  1  0.304658  0.458917  0.137467  1
  Se  Se53  1  0.458917  0.304658  0.362533  1
  Se  Se54  1  0.695342  0.541083  0.862533  1
  Se  Se55  1  0.541083  0.695342  0.637467  1
  Se  Se56  1  0.223947  0.745621  0.975585  1
  Se  Se57  1  0.745621  0.223947  0.524415  1
  Se  Se58  1  0.776053  0.254379  0.024415  1
  Se  Se59  1  0.254379  0.776053  0.475585  1
  Se  Se60  1  0.430629  0.940147  0.312805  1
  Se  Se61  1  0.940147  0.430629  0.187195  1
  Se  Se62  1  0.569371  0.059853  0.687195  1
  Se  Se63  1  0.059853  0.569371  0.812805  1
  Se  Se64  1  0.900552  0.595867  0.288538  1
  Se  Se65  1  0.595867  0.900552  0.211462  1
  Se  Se66  1  0.099448  0.404133  0.711462  1
  Se  Se67  1  0.404133  0.099448  0.788538  1
  Se  Se68  1  0.057071  0.412485  0.412841  1
  Se  Se69  1  0.412485  0.057071  0.087159  1
  Se  Se70  1  0.942929  0.587515  0.587159  1
  Se  Se71  1  0.587515  0.942929  0.912841  1
