# generated using pymatgen
data_Sr17(Ta5S21)2
_symmetry_space_group_name_H-M   'P 1'
_cell_length_a   12.31903255
_cell_length_b   12.36066369
_cell_length_c   12.37403468
_cell_angle_alpha   96.32883452
_cell_angle_beta   96.50422107
_cell_angle_gamma   96.31732006
_symmetry_Int_Tables_number   1
_chemical_formula_structural   Sr17(Ta5S21)2
_chemical_formula_sum   'Sr17 Ta10 S42'
_cell_volume   1846.29794997
_cell_formula_units_Z   1
loop_
 _symmetry_equiv_pos_site_id
 _symmetry_equiv_pos_as_xyz
  1  'x, y, z'
loop_
 _atom_site_type_symbol
 _atom_site_label
 _atom_site_symmetry_multiplicity
 _atom_site_fract_x
 _atom_site_fract_y
 _atom_site_fract_z
 _atom_site_occupancy
  Sr  Sr0  1  0.078555  0.937706  0.700782  1
  Sr  Sr1  1  0.046017  0.270981  0.900833  1
  Sr  Sr2  1  0.049912  0.418125  0.286635  1
  Sr  Sr3  1  0.268149  0.903434  0.041531  1
  Sr  Sr4  1  0.366506  0.730659  0.603158  1
  Sr  Sr5  1  0.285087  0.053977  0.421530  1
  Sr  Sr6  1  0.370053  0.606700  0.233061  1
  Sr  Sr7  1  0.418402  0.285749  0.051652  1
  Sr  Sr8  1  0.580386  0.718108  0.950655  1
  Sr  Sr9  1  0.589804  0.367584  0.733068  1
  Sr  Sr10  1  0.715697  0.952168  0.581083  1
  Sr  Sr11  1  0.608783  0.238736  0.366609  1
  Sr  Sr12  1  0.702180  0.076476  0.937527  1
  Sr  Sr13  1  0.731433  0.599470  0.369231  1
  Sr  Sr14  1  0.951647  0.574680  0.714860  1
  Sr  Sr15  1  0.938266  0.699297  0.073609  1
  Sr  Sr16  1  0.905124  0.044017  0.269324  1
  Ta  Ta17  1  0.042746  0.721901  0.380302  1
  Ta  Ta18  1  0.219250  0.544871  0.883702  1
  Ta  Ta19  1  0.168567  0.167248  0.165272  1
  Ta  Ta20  1  0.347858  0.355528  0.364472  1
  Ta  Ta21  1  0.382732  0.040949  0.722187  1
  Ta  Ta22  1  0.544472  0.884508  0.219289  1
  Ta  Ta23  1  0.667062  0.666220  0.666820  1
  Ta  Ta24  1  0.854673  0.853996  0.853254  1
  Ta  Ta25  1  0.721541  0.382235  0.042675  1
  Ta  Ta26  1  0.884205  0.220190  0.546372  1
  S  S27  1  0.037147  0.814684  0.895221  1
  S  S28  1  0.048493  0.519468  0.942113  1
  S  S29  1  0.974897  0.576477  0.460987  1
  S  S30  1  0.002982  0.336381  0.669417  1
  S  S31  1  0.123460  0.987197  0.209153  1
  S  S32  1  0.125146  0.656187  0.233976  1
  S  S33  1  0.168756  0.839501  0.500562  1
  S  S34  1  0.195551  0.607176  0.717723  1
  S  S35  1  0.210247  0.122639  0.984993  1
  S  S36  1  0.167771  0.242428  0.369682  1
  S  S37  1  0.279039  0.378086  0.865379  1
  S  S38  1  0.237920  0.123422  0.658993  1
  S  S39  1  0.313467  0.891107  0.798139  1
  S  S40  1  0.240339  0.374419  0.165950  1
  S  S41  1  0.293820  0.519419  0.434139  1
  S  S42  1  0.375650  0.859353  0.277500  1
  S  S43  1  0.338648  0.671343  0.004678  1
  S  S44  1  0.375678  0.164892  0.241135  1
  S  S45  1  0.438112  0.289674  0.513405  1
  S  S46  1  0.506766  0.590623  0.728781  1
  S  S47  1  0.461498  0.974020  0.573922  1
  S  S48  1  0.503208  0.167776  0.840910  1
  S  S49  1  0.520071  0.943650  0.050724  1
  S  S50  1  0.587584  0.726498  0.505696  1
  S  S51  1  0.511016  0.433025  0.287341  1
  S  S52  1  0.648247  0.858004  0.780269  1
  S  S53  1  0.602247  0.714505  0.197089  1
  S  S54  1  0.574542  0.463501  0.977412  1
  S  S55  1  0.781321  0.648607  0.856158  1
  S  S56  1  0.711428  0.198405  0.600323  1
  S  S57  1  0.658331  0.234593  0.124559  1
  S  S58  1  0.723405  0.503799  0.587438  1
  S  S59  1  0.669674  0.004735  0.337792  1
  S  S60  1  0.795969  0.313929  0.892743  1
  S  S61  1  0.857240  0.779445  0.649039  1
  S  S62  1  0.811411  0.891850  0.035332  1
  S  S63  1  0.892805  0.797496  0.310796  1
  S  S64  1  0.838981  0.502956  0.169030  1
  S  S65  1  0.860647  0.278811  0.376482  1
  S  S66  1  0.893398  0.035880  0.811363  1
  S  S67  1  0.942353  0.049727  0.520886  1
  S  S68  1  0.986329  0.207500  0.120977  1
