# generated using pymatgen
data_Ni3B7IO13
_symmetry_space_group_name_H-M   'P 1'
_cell_length_a   8.59676732
_cell_length_b   8.59676732
_cell_length_c   8.59676732
_cell_angle_alpha   60.00000000
_cell_angle_beta   60.00000000
_cell_angle_gamma   60.00000000
_symmetry_Int_Tables_number   1
_chemical_formula_structural   Ni3B7IO13
_chemical_formula_sum   'Ni6 B14 I2 O26'
_cell_volume   449.25251740
_cell_formula_units_Z   2
loop_
 _symmetry_equiv_pos_site_id
 _symmetry_equiv_pos_as_xyz
  1  'x, y, z'
loop_
 _atom_site_type_symbol
 _atom_site_label
 _atom_site_symmetry_multiplicity
 _atom_site_fract_x
 _atom_site_fract_y
 _atom_site_fract_z
 _atom_site_occupancy
  Ni  Ni0  1  1.000000  0.500000  1.000000  1
  Ni  Ni1  1  0.000000  0.500000  0.500000  1
  Ni  Ni2  1  0.500000  0.000000  1.000000  1
  Ni  Ni3  1  1.000000  1.000000  0.500000  1
  Ni  Ni4  1  0.500000  0.500000  1.000000  1
  Ni  Ni5  1  0.500000  0.000000  0.500000  1
  B  B6  1  0.750000  0.250000  0.250000  1
  B  B7  1  0.250000  0.750000  0.250000  1
  B  B8  1  0.750000  0.250000  0.750000  1
  B  B9  1  0.750000  0.750000  0.250000  1
  B  B10  1  0.250000  0.250000  0.750000  1
  B  B11  1  0.250000  0.750000  0.750000  1
  B  B12  1  0.919730  0.240811  0.919730  1
  B  B13  1  0.419730  0.419730  0.419730  1
  B  B14  1  0.419730  0.419730  0.740811  1
  B  B15  1  0.740811  0.419730  0.419730  1
  B  B16  1  0.919730  0.919730  0.240811  1
  B  B17  1  0.240811  0.919730  0.919730  1
  B  B18  1  0.919730  0.919730  0.919730  1
  B  B19  1  0.419730  0.740811  0.419730  1
  I  I20  1  0.750000  0.750000  0.750000  1
  I  I21  1  0.250000  0.250000  0.250000  1
  O  O22  1  0.000000  0.000000  0.000000  1
  O  O23  1  0.500000  0.500000  0.500000  1
  O  O24  1  0.741186  0.296487  0.063822  1
  O  O25  1  0.398505  0.563822  0.241186  1
  O  O26  1  0.563822  0.398505  0.796487  1
  O  O27  1  0.796487  0.398505  0.241186  1
  O  O28  1  0.563822  0.241186  0.398505  1
  O  O29  1  0.796487  0.563822  0.398505  1
  O  O30  1  0.398505  0.241186  0.796487  1
  O  O31  1  0.063822  0.296487  0.898505  1
  O  O32  1  0.898505  0.296487  0.741186  1
  O  O33  1  0.063822  0.741186  0.296487  1
  O  O34  1  0.296487  0.063822  0.741186  1
  O  O35  1  0.741186  0.898505  0.296487  1
  O  O36  1  0.741186  0.063822  0.898505  1
  O  O37  1  0.898505  0.741186  0.063822  1
  O  O38  1  0.296487  0.898505  0.063822  1
  O  O39  1  0.296487  0.741186  0.898505  1
  O  O40  1  0.898505  0.063822  0.296487  1
  O  O41  1  0.063822  0.898505  0.741186  1
  O  O42  1  0.241186  0.563822  0.796487  1
  O  O43  1  0.796487  0.241186  0.563822  1
  O  O44  1  0.241186  0.398505  0.563822  1
  O  O45  1  0.563822  0.796487  0.241186  1
  O  O46  1  0.241186  0.796487  0.398505  1
  O  O47  1  0.398505  0.796487  0.563822  1
