# generated using pymatgen
data_FeP2O7
_symmetry_space_group_name_H-M   'P 1'
_cell_length_a   6.98461375
_cell_length_b   8.25071455
_cell_length_c   9.53759717
_cell_angle_alpha   90.00000000
_cell_angle_beta   108.67348453
_cell_angle_gamma   90.00000000
_symmetry_Int_Tables_number   1
_chemical_formula_structural   FeP2O7
_chemical_formula_sum   'Fe4 P8 O28'
_cell_volume   520.69968083
_cell_formula_units_Z   4
loop_
 _symmetry_equiv_pos_site_id
 _symmetry_equiv_pos_as_xyz
  1  'x, y, z'
loop_
 _atom_site_type_symbol
 _atom_site_label
 _atom_site_symmetry_multiplicity
 _atom_site_fract_x
 _atom_site_fract_y
 _atom_site_fract_z
 _atom_site_occupancy
  Fe  Fe0  1  0.276835  0.269078  0.493118  1
  Fe  Fe1  1  0.276835  0.230922  0.993118  1
  Fe  Fe2  1  0.723165  0.769078  0.006882  1
  Fe  Fe3  1  0.723165  0.730922  0.506882  1
  P  P4  1  0.464361  0.916689  0.205777  1
  P  P5  1  0.535639  0.083311  0.794223  1
  P  P6  1  0.931790  0.532844  0.295394  1
  P  P7  1  0.068210  0.467156  0.704606  1
  P  P8  1  0.931790  0.967156  0.795394  1
  P  P9  1  0.464361  0.583311  0.705777  1
  P  P10  1  0.535639  0.416689  0.294223  1
  P  P11  1  0.068210  0.032844  0.204606  1
  O  O12  1  0.475242  0.084716  0.140359  1
  O  O13  1  0.524758  0.584716  0.359641  1
  O  O14  1  0.107876  0.099032  0.360915  1
  O  O15  1  0.764821  0.394861  0.293016  1
  O  O16  1  0.080215  0.169807  0.098693  1
  O  O17  1  0.493723  0.219202  0.890804  1
  O  O18  1  0.602380  0.907868  0.366352  1
  O  O19  1  0.764821  0.105139  0.793016  1
  O  O20  1  0.919785  0.669807  0.401307  1
  O  O21  1  0.866621  0.943775  0.152270  1
  O  O22  1  0.524758  0.915284  0.859641  1
  O  O23  1  0.133379  0.443775  0.347730  1
  O  O24  1  0.506277  0.719202  0.609196  1
  O  O25  1  0.107876  0.400968  0.860915  1
  O  O26  1  0.475242  0.415284  0.640359  1
  O  O27  1  0.133379  0.056225  0.847730  1
  O  O28  1  0.235179  0.605139  0.706984  1
  O  O29  1  0.866621  0.556225  0.652270  1
  O  O30  1  0.397620  0.407868  0.133648  1
  O  O31  1  0.919785  0.830193  0.901307  1
  O  O32  1  0.506277  0.780798  0.109196  1
  O  O33  1  0.892124  0.599032  0.139085  1
  O  O34  1  0.493723  0.280798  0.390804  1
  O  O35  1  0.080215  0.330193  0.598693  1
  O  O36  1  0.397620  0.092132  0.633648  1
  O  O37  1  0.235179  0.894861  0.206984  1
  O  O38  1  0.602380  0.592132  0.866352  1
  O  O39  1  0.892124  0.900968  0.639085  1
