# generated using pymatgen
data_Li6ZrBeF12
_symmetry_space_group_name_H-M   'P 1'
_cell_length_a   10.53301983
_cell_length_b   10.53301983
_cell_length_c   10.53301983
_cell_angle_alpha   143.02084768
_cell_angle_beta   143.02084768
_cell_angle_gamma   53.29401698
_symmetry_Int_Tables_number   1
_chemical_formula_structural   Li6ZrBeF12
_chemical_formula_sum   'Li12 Zr2 Be2 F24'
_cell_volume   420.17769104
_cell_formula_units_Z   2
loop_
 _symmetry_equiv_pos_site_id
 _symmetry_equiv_pos_as_xyz
  1  'x, y, z'
loop_
 _atom_site_type_symbol
 _atom_site_label
 _atom_site_symmetry_multiplicity
 _atom_site_fract_x
 _atom_site_fract_y
 _atom_site_fract_z
 _atom_site_occupancy
  Li  Li0  1  0.978152  0.478152  0.500000  1
  Li  Li1  1  0.875000  0.358585  0.983585  1
  Li  Li2  1  0.521848  0.021848  0.500000  1
  Li  Li3  1  0.375000  0.891415  0.016415  1
  Li  Li4  1  0.641415  0.125000  0.016415  1
  Li  Li5  1  0.375000  0.358585  0.483585  1
  Li  Li6  1  0.641415  0.625000  0.516415  1
  Li  Li7  1  0.108585  0.625000  0.983585  1
  Li  Li8  1  0.875000  0.891415  0.516415  1
  Li  Li9  1  0.108585  0.125000  0.483585  1
  Li  Li10  1  0.228152  0.228152  0.000000  1
  Li  Li11  1  0.771848  0.771848  0.000000  1
  Zr  Zr12  1  0.250000  0.750000  0.500000  1
  Zr  Zr13  1  0.500000  0.500000  0.000000  1
  Be  Be14  1  0.000000  0.000000  0.000000  1
  Be  Be15  1  0.750000  0.250000  0.500000  1
  F  F16  1  0.949724  0.759186  0.809462  1
  F  F17  1  0.240814  0.050276  0.190538  1
  F  F18  1  0.890261  0.199724  0.690538  1
  F  F19  1  0.452941  0.168707  0.715766  1
  F  F20  1  0.645024  0.415557  0.229467  1
  F  F21  1  0.563911  0.834443  0.729467  1
  F  F22  1  0.584443  0.813911  0.229467  1
  F  F23  1  0.165557  0.436089  0.270533  1
  F  F24  1  0.584443  0.354976  0.770533  1
  F  F25  1  0.297059  0.081293  0.784234  1
  F  F26  1  0.165557  0.895024  0.729467  1
  F  F27  1  0.452941  0.737176  0.284234  1
  F  F28  1  0.859739  0.050276  0.809462  1
  F  F29  1  0.800276  0.109739  0.309462  1
  F  F30  1  0.297059  0.512824  0.215766  1
  F  F31  1  0.509186  0.199724  0.309462  1
  F  F32  1  0.800276  0.490814  0.690538  1
  F  F33  1  0.949724  0.140261  0.190538  1
  F  F34  1  0.186089  0.415557  0.770533  1
  F  F35  1  0.104976  0.834443  0.270533  1
  F  F36  1  0.831293  0.547059  0.284234  1
  F  F37  1  0.262824  0.547059  0.715766  1
  F  F38  1  0.487176  0.702941  0.784234  1
  F  F39  1  0.918707  0.702941  0.215766  1
