# generated using pymatgen
data_Li4CrP2O9
_symmetry_space_group_name_H-M   'P 1'
_cell_length_a   7.99690922
_cell_length_b   7.99690922
_cell_length_c   7.08165614
_cell_angle_alpha   89.77679770
_cell_angle_beta   90.22320230
_cell_angle_gamma   129.91923407
_symmetry_Int_Tables_number   1
_chemical_formula_structural   Li4CrP2O9
_chemical_formula_sum   'Li8 Cr2 P4 O18'
_cell_volume   347.32982500
_cell_formula_units_Z   2
loop_
 _symmetry_equiv_pos_site_id
 _symmetry_equiv_pos_as_xyz
  1  'x, y, z'
loop_
 _atom_site_type_symbol
 _atom_site_label
 _atom_site_symmetry_multiplicity
 _atom_site_fract_x
 _atom_site_fract_y
 _atom_site_fract_z
 _atom_site_occupancy
  Li  Li0  1  0.902106  0.097894  0.261603  1
  Li  Li1  1  0.245953  0.245953  0.500000  1
  Li  Li2  1  0.754047  0.754047  0.500000  1
  Li  Li3  1  0.375089  0.624911  0.803744  1
  Li  Li4  1  0.000000  0.500000  0.000000  1
  Li  Li5  1  0.500000  1.000000  0.000000  1
  Li  Li6  1  0.624911  0.375089  0.196256  1
  Li  Li7  1  0.097894  0.902106  0.738397  1
  Cr  Cr8  1  0.500000  1.000000  0.500000  1
  Cr  Cr9  1  1.000000  0.500000  0.500000  1
  P  P10  1  0.872870  0.127130  0.795589  1
  P  P11  1  0.127130  0.872870  0.204411  1
  P  P12  1  0.397637  0.602363  0.258141  1
  P  P13  1  0.602363  0.397637  0.741859  1
  O  O14  1  0.561706  0.821235  0.375487  1
  O  O15  1  0.502591  0.497409  0.263694  1
  O  O16  1  0.964796  0.035204  0.688487  1
  O  O17  1  0.870543  0.129457  0.010278  1
  O  O18  1  0.011036  0.376659  0.739136  1
  O  O19  1  0.178765  0.438294  0.375487  1
  O  O20  1  0.035204  0.964796  0.311513  1
  O  O21  1  0.623342  0.988964  0.739136  1
  O  O22  1  0.497409  0.502591  0.736306  1
  O  O23  1  0.762090  0.237910  0.417895  1
  O  O24  1  0.237910  0.762090  0.582105  1
  O  O25  1  0.988964  0.623341  0.260864  1
  O  O26  1  0.376659  0.011036  0.260864  1
  O  O27  1  0.653267  0.346733  0.932039  1
  O  O28  1  0.821235  0.561706  0.624513  1
  O  O29  1  0.438294  0.178765  0.624513  1
  O  O30  1  0.129457  0.870543  0.989722  1
  O  O31  1  0.346733  0.653267  0.067961  1
