# generated using pymatgen
data_Bi2WO6
_symmetry_space_group_name_H-M   'P 1'
_cell_length_a   8.46341046
_cell_length_b   8.46341046
_cell_length_c   8.34198074
_cell_angle_alpha   78.60599961
_cell_angle_beta   101.39400039
_cell_angle_gamma   153.66924327
_symmetry_Int_Tables_number   1
_chemical_formula_structural   Bi2WO6
_chemical_formula_sum   'Bi4 W2 O12'
_cell_volume   259.52382344
_cell_formula_units_Z   2
loop_
 _symmetry_equiv_pos_site_id
 _symmetry_equiv_pos_as_xyz
  1  'x, y, z'
loop_
 _atom_site_type_symbol
 _atom_site_label
 _atom_site_symmetry_multiplicity
 _atom_site_fract_x
 _atom_site_fract_y
 _atom_site_fract_z
 _atom_site_occupancy
  Bi  Bi0  1  0.319009  0.680991  0.394596  1
  Bi  Bi1  1  0.680991  0.319009  0.605404  1
  Bi  Bi2  1  0.667488  0.332512  0.071399  1
  Bi  Bi3  1  0.332512  0.667488  0.928601  1
  W  W4  1  0.996030  0.003970  0.297208  1
  W  W5  1  0.003970  0.996030  0.702792  1
  O  O6  1  0.248885  0.751115  0.119641  1
  O  O7  1  0.267567  0.732433  0.634460  1
  O  O8  1  0.078516  0.921484  0.514827  1
  O  O9  1  0.732433  0.267567  0.365540  1
  O  O10  1  0.926466  0.073534  0.827889  1
  O  O11  1  0.107509  0.892491  0.846630  1
  O  O12  1  0.921484  0.078516  0.485173  1
  O  O13  1  0.892491  0.107509  0.153370  1
  O  O14  1  0.751115  0.248885  0.880359  1
  O  O15  1  0.073534  0.926466  0.172111  1
  O  O16  1  0.493963  0.506037  0.313879  1
  O  O17  1  0.506037  0.493963  0.686121  1
