# generated using pymatgen
data_Np2Si4Mo3
_symmetry_space_group_name_H-M   'P 1'
_cell_length_a   6.78087464
_cell_length_b   6.88846774
_cell_length_c   6.87022907
_cell_angle_alpha   90.00000000
_cell_angle_beta   109.74765084
_cell_angle_gamma   90.00000000
_symmetry_Int_Tables_number   1
_chemical_formula_structural   Np2Si4Mo3
_chemical_formula_sum   'Np4 Si8 Mo6'
_cell_volume   302.03467589
_cell_formula_units_Z   2
loop_
 _symmetry_equiv_pos_site_id
 _symmetry_equiv_pos_as_xyz
  1  'x, y, z'
loop_
 _atom_site_type_symbol
 _atom_site_label
 _atom_site_symmetry_multiplicity
 _atom_site_fract_x
 _atom_site_fract_y
 _atom_site_fract_z
 _atom_site_occupancy
  Np  Np0  1  0.444358  0.839361  0.317572  1
  Np  Np1  1  0.055642  0.339361  0.682428  1
  Np  Np2  1  0.944358  0.660639  0.317572  1
  Np  Np3  1  0.555642  0.160639  0.682428  1
  Si  Si4  1  0.372293  0.543868  0.590522  1
  Si  Si5  1  0.872293  0.956132  0.590522  1
  Si  Si6  1  0.132980  0.633215  0.000559  1
  Si  Si7  1  0.632980  0.866785  0.000559  1
  Si  Si8  1  0.127707  0.043868  0.409478  1
  Si  Si9  1  0.867020  0.366785  0.999441  1
  Si  Si10  1  0.627707  0.456132  0.409478  1
  Si  Si11  1  0.367020  0.133215  0.999441  1
  Mo  Mo12  1  0.752467  0.664224  0.748978  1
  Mo  Mo13  1  0.247533  0.335776  0.251022  1
  Mo  Mo14  1  0.252467  0.835776  0.748978  1
  Mo  Mo15  1  0.500000  0.500000  0.000000  1
  Mo  Mo16  1  0.000000  0.000000  0.000000  1
  Mo  Mo17  1  0.747533  0.164224  0.251022  1
