# generated using pymatgen
data_DyPO4
_symmetry_space_group_name_H-M   'P 1'
_cell_length_a   5.78268946
_cell_length_b   5.78268946
_cell_length_c   5.78268946
_cell_angle_alpha   105.94148555
_cell_angle_beta   105.94148555
_cell_angle_gamma   116.78789747
_symmetry_Int_Tables_number   1
_chemical_formula_structural   DyPO4
_chemical_formula_sum   'Dy2 P2 O8'
_cell_volume   147.01379240
_cell_formula_units_Z   2
loop_
 _symmetry_equiv_pos_site_id
 _symmetry_equiv_pos_as_xyz
  1  'x, y, z'
loop_
 _atom_site_type_symbol
 _atom_site_label
 _atom_site_symmetry_multiplicity
 _atom_site_fract_x
 _atom_site_fract_y
 _atom_site_fract_z
 _atom_site_occupancy
  Dy  Dy0  1  0.000000  0.000000  0.000000  1
  Dy  Dy1  1  0.250000  0.750000  0.500000  1
  P  P2  1  0.750000  0.250000  0.500000  1
  P  P3  1  0.500000  0.500000  0.000000  1
  O  O4  1  0.485818  0.660180  0.825638  1
  O  O5  1  0.910180  0.584542  0.674362  1
  O  O6  1  0.910180  0.235818  0.325638  1
  O  O7  1  0.834542  0.660180  0.174362  1
  O  O8  1  0.339820  0.165458  0.825638  1
  O  O9  1  0.764182  0.089820  0.674362  1
  O  O10  1  0.415458  0.089820  0.325638  1
  O  O11  1  0.339820  0.514182  0.174362  1
