# generated using pymatgen
data_Ce6B2(CBr)3
_symmetry_space_group_name_H-M   'P 1'
_cell_length_a   8.62788317
_cell_length_b   3.67577424
_cell_length_c   10.16685348
_cell_angle_alpha   90.00000000
_cell_angle_beta   114.42548015
_cell_angle_gamma   90.00000000
_symmetry_Int_Tables_number   1
_chemical_formula_structural   Ce6B2(CBr)3
_chemical_formula_sum   'Ce6 B2 C3 Br3'
_cell_volume   293.57531293
_cell_formula_units_Z   1
loop_
 _symmetry_equiv_pos_site_id
 _symmetry_equiv_pos_as_xyz
  1  'x, y, z'
loop_
 _atom_site_type_symbol
 _atom_site_label
 _atom_site_symmetry_multiplicity
 _atom_site_fract_x
 _atom_site_fract_y
 _atom_site_fract_z
 _atom_site_occupancy
  Ce  Ce0  1  0.710374  0.000000  0.516197  1
  Ce  Ce1  1  0.057726  0.500000  0.841878  1
  Ce  Ce2  1  0.631135  0.500000  0.780030  1
  Ce  Ce3  1  0.289626  0.000000  0.483803  1
  Ce  Ce4  1  0.942274  0.500000  0.158122  1
  Ce  Ce5  1  0.368865  0.500000  0.219970  1
  B  B6  1  0.898520  0.000000  0.935617  1
  B  B7  1  0.101480  0.000000  0.064383  1
  C  C8  1  0.833753  0.000000  0.770556  1
  C  C9  1  0.166247  0.000000  0.229444  1
  C  C10  1  0.500000  0.500000  0.500000  1
  Br  Br11  1  0.648378  0.000000  0.186021  1
  Br  Br12  1  0.000000  0.500000  0.500000  1
  Br  Br13  1  0.351622  0.000000  0.813979  1
