# generated using pymatgen
data_KNaSi2O5
_symmetry_space_group_name_H-M   'P 1'
_cell_length_a   4.91333464
_cell_length_b   13.76190044
_cell_length_c   7.58399390
_cell_angle_alpha   90.00000000
_cell_angle_beta   91.25636486
_cell_angle_gamma   90.00000000
_symmetry_Int_Tables_number   1
_chemical_formula_structural   KNaSi2O5
_chemical_formula_sum   'K4 Na4 Si8 O20'
_cell_volume   512.68228655
_cell_formula_units_Z   4
loop_
 _symmetry_equiv_pos_site_id
 _symmetry_equiv_pos_as_xyz
  1  'x, y, z'
loop_
 _atom_site_type_symbol
 _atom_site_label
 _atom_site_symmetry_multiplicity
 _atom_site_fract_x
 _atom_site_fract_y
 _atom_site_fract_z
 _atom_site_occupancy
  K  K0  1  0.800599  0.200622  0.712035  1
  K  K1  1  0.199401  0.799378  0.287965  1
  K  K2  1  0.199401  0.700622  0.787965  1
  K  K3  1  0.800599  0.299378  0.212035  1
  Na  Na4  1  0.723423  0.594001  0.028192  1
  Na  Na5  1  0.276577  0.405999  0.971808  1
  Na  Na6  1  0.723423  0.905999  0.528192  1
  Na  Na7  1  0.276577  0.094001  0.471808  1
  Si  Si8  1  0.197975  0.951397  0.784239  1
  Si  Si9  1  0.197975  0.548603  0.284239  1
  Si  Si10  1  0.802025  0.048603  0.215761  1
  Si  Si11  1  0.704260  0.630295  0.485274  1
  Si  Si12  1  0.704260  0.869705  0.985274  1
  Si  Si13  1  0.802025  0.451397  0.715761  1
  Si  Si14  1  0.295740  0.369705  0.514726  1
  Si  Si15  1  0.295740  0.130295  0.014726  1
  O  O16  1  0.125264  0.429945  0.667311  1
  O  O17  1  0.781138  0.758928  0.008493  1
  O  O18  1  0.251074  0.927010  0.582836  1
  O  O19  1  0.874736  0.570055  0.332689  1
  O  O20  1  0.622550  0.114667  0.071259  1
  O  O21  1  0.125264  0.070055  0.167311  1
  O  O22  1  0.748170  0.569275  0.675658  1
  O  O23  1  0.251074  0.572990  0.082836  1
  O  O24  1  0.218862  0.241072  0.991507  1
  O  O25  1  0.748926  0.427010  0.917164  1
  O  O26  1  0.251830  0.069275  0.824342  1
  O  O27  1  0.622550  0.385333  0.571259  1
  O  O28  1  0.377450  0.885333  0.928741  1
  O  O29  1  0.218862  0.258928  0.491507  1
  O  O30  1  0.377450  0.614667  0.428741  1
  O  O31  1  0.748926  0.072990  0.417164  1
  O  O32  1  0.781138  0.741072  0.508493  1
  O  O33  1  0.251830  0.430725  0.324342  1
  O  O34  1  0.874736  0.929945  0.832689  1
  O  O35  1  0.748170  0.930725  0.175658  1
