# generated using pymatgen
data_Gd3Sb5O12
_symmetry_space_group_name_H-M   'P 1'
_cell_length_a   9.52504102
_cell_length_b   9.52504102
_cell_length_c   9.52504102
_cell_angle_alpha   109.47122063
_cell_angle_beta   109.47122063
_cell_angle_gamma   109.47122063
_symmetry_Int_Tables_number   1
_chemical_formula_structural   Gd3Sb5O12
_chemical_formula_sum   'Gd6 Sb10 O24'
_cell_volume   665.24048763
_cell_formula_units_Z   2
loop_
 _symmetry_equiv_pos_site_id
 _symmetry_equiv_pos_as_xyz
  1  'x, y, z'
loop_
 _atom_site_type_symbol
 _atom_site_label
 _atom_site_symmetry_multiplicity
 _atom_site_fract_x
 _atom_site_fract_y
 _atom_site_fract_z
 _atom_site_occupancy
  Gd  Gd0  1  0.500000  0.250000  0.750000  1
  Gd  Gd1  1  0.750000  0.500000  0.250000  1
  Gd  Gd2  1  0.250000  0.500000  0.750000  1
  Gd  Gd3  1  0.750000  0.250000  0.500000  1
  Gd  Gd4  1  0.250000  0.750000  0.500000  1
  Gd  Gd5  1  0.500000  0.750000  0.250000  1
  Sb  Sb6  1  0.282503  0.282503  0.000000  1
  Sb  Sb7  1  0.717497  0.717497  0.000000  1
  Sb  Sb8  1  1.000000  0.717497  0.717497  1
  Sb  Sb9  1  1.000000  0.282503  0.282503  1
  Sb  Sb10  1  0.282503  0.000000  0.282503  1
  Sb  Sb11  1  0.717497  0.000000  0.717497  1
  Sb  Sb12  1  0.489504  0.489504  0.489504  1
  Sb  Sb13  1  0.510496  0.000000  1.000000  1
  Sb  Sb14  1  0.000000  0.510496  0.000000  1
  Sb  Sb15  1  0.000000  0.000000  0.510496  1
  O  O16  1  0.200519  0.495114  0.495114  1
  O  O17  1  0.504886  0.000000  0.705405  1
  O  O18  1  0.294595  0.799481  0.294595  1
  O  O19  1  0.294595  0.294595  0.799481  1
  O  O20  1  0.504886  0.705405  0.000000  1
  O  O21  1  0.000000  0.504886  0.705405  1
  O  O22  1  0.000000  0.705405  0.504886  1
  O  O23  1  0.705405  0.504886  1.000000  1
  O  O24  1  0.705405  0.000000  0.504886  1
  O  O25  1  0.495114  0.200519  0.495114  1
  O  O26  1  0.495114  0.495114  0.200519  1
  O  O27  1  0.799481  0.294595  0.294595  1
  O  O28  1  0.723907  0.524166  0.524166  1
  O  O29  1  0.475834  1.000000  0.199741  1
  O  O30  1  0.800259  0.276093  0.800259  1
  O  O31  1  0.800259  0.800259  0.276093  1
  O  O32  1  0.475834  0.199741  0.000000  1
  O  O33  1  0.000000  0.475834  0.199741  1
  O  O34  1  0.000000  0.199741  0.475834  1
  O  O35  1  0.199741  0.475834  0.000000  1
  O  O36  1  0.199741  0.000000  0.475834  1
  O  O37  1  0.524166  0.723907  0.524166  1
  O  O38  1  0.524166  0.524166  0.723907  1
  O  O39  1  0.276093  0.800259  0.800259  1
