# generated using pymatgen
data_Ca3SiO5
_symmetry_space_group_name_H-M   'P 1'
_cell_length_a   9.59495209
_cell_length_b   9.59495209
_cell_length_c   9.59495209
_cell_angle_alpha   43.81892791
_cell_angle_beta   43.81892791
_cell_angle_gamma   43.81892791
_symmetry_Int_Tables_number   1
_chemical_formula_structural   Ca3SiO5
_chemical_formula_sum   'Ca9 Si3 O15'
_cell_volume   384.47826146
_cell_formula_units_Z   3
loop_
 _symmetry_equiv_pos_site_id
 _symmetry_equiv_pos_as_xyz
  1  'x, y, z'
loop_
 _atom_site_type_symbol
 _atom_site_label
 _atom_site_symmetry_multiplicity
 _atom_site_fract_x
 _atom_site_fract_y
 _atom_site_fract_z
 _atom_site_occupancy
  Ca  Ca0  1  0.496411  0.013408  0.496411  1
  Ca  Ca1  1  0.716431  0.716431  0.239793  1
  Ca  Ca2  1  0.740401  0.287148  0.287148  1
  Ca  Ca3  1  0.287148  0.287148  0.740401  1
  Ca  Ca4  1  0.287148  0.740401  0.287148  1
  Ca  Ca5  1  0.239793  0.716431  0.716431  1
  Ca  Ca6  1  0.013408  0.496411  0.496411  1
  Ca  Ca7  1  0.716431  0.239793  0.716431  1
  Ca  Ca8  1  0.496411  0.496411  0.013408  1
  Si  Si9  1  0.779224  0.779224  0.779224  1
  Si  Si10  1  0.213828  0.213828  0.213828  1
  Si  Si11  1  0.998607  0.998607  0.998607  1
  O  O12  1  0.149216  0.149216  0.149216  1
  O  O13  1  0.145234  0.768981  0.145234  1
  O  O14  1  0.628755  0.628755  0.628755  1
  O  O15  1  0.987056  0.360934  0.360934  1
  O  O16  1  0.500266  0.500266  0.500266  1
  O  O17  1  0.381511  0.381511  0.381511  1
  O  O18  1  0.145234  0.145234  0.768981  1
  O  O19  1  0.633434  0.633434  0.009947  1
  O  O20  1  0.935931  0.935931  0.935931  1
  O  O21  1  0.009947  0.633434  0.633434  1
  O  O22  1  0.633434  0.009947  0.633434  1
  O  O23  1  0.360934  0.360934  0.987056  1
  O  O24  1  0.360934  0.987056  0.360934  1
  O  O25  1  0.842080  0.842080  0.842080  1
  O  O26  1  0.768981  0.145234  0.145234  1
