# generated using pymatgen
data_Rb3AgO2
_symmetry_space_group_name_H-M   'P 1'
_cell_length_a   12.99647333
_cell_length_b   13.03424678
_cell_length_c   14.75043545
_cell_angle_alpha   90.00000000
_cell_angle_beta   90.00000000
_cell_angle_gamma   90.00000000
_symmetry_Int_Tables_number   1
_chemical_formula_structural   Rb3AgO2
_chemical_formula_sum   'Rb48 Ag16 O32'
_cell_volume   2498.71256453
_cell_formula_units_Z   16
loop_
 _symmetry_equiv_pos_site_id
 _symmetry_equiv_pos_as_xyz
  1  'x, y, z'
loop_
 _atom_site_type_symbol
 _atom_site_label
 _atom_site_symmetry_multiplicity
 _atom_site_fract_x
 _atom_site_fract_y
 _atom_site_fract_z
 _atom_site_occupancy
  Rb  Rb0  1  0.793341  0.511667  0.489605  1
  Rb  Rb1  1  0.203367  0.301620  0.144358  1
  Rb  Rb2  1  0.716783  0.021207  0.508841  1
  Rb  Rb3  1  0.514938  0.799546  0.505964  1
  Rb  Rb4  1  0.255000  0.043648  0.763160  1
  Rb  Rb5  1  0.562223  0.577369  0.369077  1
  Rb  Rb6  1  0.485062  0.299546  0.994036  1
  Rb  Rb7  1  0.021871  0.783385  0.004630  1
  Rb  Rb8  1  0.510621  0.996060  0.924904  1
  Rb  Rb9  1  0.264094  0.543971  0.254192  1
  Rb  Rb10  1  0.783217  0.978793  0.008841  1
  Rb  Rb11  1  0.698499  0.299567  0.639449  1
  Rb  Rb12  1  0.764094  0.956029  0.745808  1
  Rb  Rb13  1  0.735906  0.043971  0.245808  1
  Rb  Rb14  1  0.995814  0.711042  0.774674  1
  Rb  Rb15  1  0.489379  0.496060  0.575096  1
  Rb  Rb16  1  0.293341  0.988333  0.510395  1
  Rb  Rb17  1  0.245000  0.956352  0.263160  1
  Rb  Rb18  1  0.504186  0.288958  0.274674  1
  Rb  Rb19  1  0.004186  0.211042  0.725326  1
  Rb  Rb20  1  0.937777  0.422631  0.869077  1
  Rb  Rb21  1  0.235906  0.456029  0.754192  1
  Rb  Rb22  1  0.014938  0.700454  0.494036  1
  Rb  Rb23  1  0.052732  0.748631  0.255301  1
  Rb  Rb24  1  0.198499  0.200433  0.360551  1
  Rb  Rb25  1  0.706659  0.488333  0.989605  1
  Rb  Rb26  1  0.283217  0.521207  0.991159  1
  Rb  Rb27  1  0.206659  0.011667  0.010395  1
  Rb  Rb28  1  0.216783  0.478793  0.491159  1
  Rb  Rb29  1  0.447268  0.251369  0.755301  1
  Rb  Rb30  1  0.745000  0.543648  0.736840  1
  Rb  Rb31  1  0.296633  0.698380  0.644358  1
  Rb  Rb32  1  0.796633  0.801620  0.355642  1
  Rb  Rb33  1  0.495814  0.788958  0.225326  1
  Rb  Rb34  1  0.801501  0.700433  0.139449  1
  Rb  Rb35  1  0.478129  0.216615  0.504630  1
  Rb  Rb36  1  0.755000  0.456352  0.236840  1
  Rb  Rb37  1  0.947268  0.248631  0.244699  1
  Rb  Rb38  1  0.062223  0.922631  0.630923  1
  Rb  Rb39  1  0.521871  0.716615  0.995370  1
  Rb  Rb40  1  0.437777  0.077369  0.130923  1
  Rb  Rb41  1  0.552732  0.751369  0.744699  1
  Rb  Rb42  1  0.989379  0.003940  0.424904  1
  Rb  Rb43  1  0.978129  0.283385  0.495370  1
  Rb  Rb44  1  0.703367  0.198380  0.855642  1
  Rb  Rb45  1  0.010621  0.503940  0.075096  1
  Rb  Rb46  1  0.301501  0.799567  0.860551  1
  Rb  Rb47  1  0.985062  0.200454  0.005964  1
  Ag  Ag48  1  0.271822  0.766409  0.092192  1
  Ag  Ag49  1  0.728178  0.266409  0.407808  1
  Ag  Ag50  1  0.499188  0.502986  0.824207  1
  Ag  Ag51  1  0.999321  0.989800  0.850157  1
  Ag  Ag52  1  0.266698  0.743133  0.420534  1
  Ag  Ag53  1  0.000679  0.489800  0.649843  1
  Ag  Ag54  1  0.766698  0.756867  0.579466  1
  Ag  Ag55  1  0.500679  0.010200  0.350157  1
  Ag  Ag56  1  0.999188  0.997014  0.175793  1
  Ag  Ag57  1  0.500812  0.002986  0.675793  1
  Ag  Ag58  1  0.733302  0.243133  0.079466  1
  Ag  Ag59  1  0.499321  0.510200  0.149843  1
  Ag  Ag60  1  0.233302  0.256867  0.920534  1
  Ag  Ag61  1  0.228178  0.233591  0.592192  1
  Ag  Ag62  1  0.000812  0.497014  0.324207  1
  Ag  Ag63  1  0.771822  0.733591  0.907808  1
  O  O64  1  0.119495  0.120299  0.568817  1
  O  O65  1  0.660818  0.843966  0.893515  1
  O  O66  1  0.839182  0.156034  0.393515  1
  O  O67  1  0.614058  0.901861  0.356479  1
  O  O68  1  0.111175  0.109238  0.177522  1
  O  O69  1  0.619495  0.379701  0.431183  1
  O  O70  1  0.160818  0.656034  0.106485  1
  O  O71  1  0.885942  0.098139  0.856479  1
  O  O72  1  0.380505  0.879701  0.068817  1
  O  O73  1  0.385696  0.116675  0.337785  1
  O  O74  1  0.388825  0.890762  0.677522  1
  O  O75  1  0.385942  0.401861  0.143521  1
  O  O76  1  0.876708  0.868050  0.557587  1
  O  O77  1  0.153263  0.853935  0.414686  1
  O  O78  1  0.346737  0.146065  0.914686  1
  O  O79  1  0.653263  0.646065  0.585314  1
  O  O80  1  0.388886  0.615450  0.822929  1
  O  O81  1  0.376708  0.631950  0.442413  1
  O  O82  1  0.846737  0.353935  0.085314  1
  O  O83  1  0.114304  0.883325  0.837785  1
  O  O84  1  0.614304  0.616675  0.162215  1
  O  O85  1  0.888886  0.884550  0.177071  1
  O  O86  1  0.339182  0.343966  0.606485  1
  O  O87  1  0.114058  0.598139  0.643521  1
  O  O88  1  0.880505  0.620299  0.931183  1
  O  O89  1  0.111114  0.384550  0.322929  1
  O  O90  1  0.123292  0.368050  0.942413  1
  O  O91  1  0.611114  0.115450  0.677071  1
  O  O92  1  0.885696  0.383325  0.662215  1
  O  O93  1  0.611175  0.390762  0.822478  1
  O  O94  1  0.623292  0.131950  0.057587  1
  O  O95  1  0.888825  0.609238  0.322478  1
