# generated using pymatgen
data_Ho3CuSiSe7
_symmetry_space_group_name_H-M   'P 1'
_cell_length_a   10.30603467
_cell_length_b   10.30603467
_cell_length_c   6.03340886
_cell_angle_alpha   90.00000000
_cell_angle_beta   90.00000000
_cell_angle_gamma   120.00000000
_symmetry_Int_Tables_number   1
_chemical_formula_structural   Ho3CuSiSe7
_chemical_formula_sum   'Ho6 Cu2 Si2 Se14'
_cell_volume   554.97904681
_cell_formula_units_Z   2
loop_
 _symmetry_equiv_pos_site_id
 _symmetry_equiv_pos_as_xyz
  1  'x, y, z'
loop_
 _atom_site_type_symbol
 _atom_site_label
 _atom_site_symmetry_multiplicity
 _atom_site_fract_x
 _atom_site_fract_y
 _atom_site_fract_z
 _atom_site_occupancy
  Ho  Ho0  1  0.777892  0.134074  0.229717  1
  Ho  Ho1  1  0.643817  0.777892  0.729717  1
  Ho  Ho2  1  0.134074  0.356183  0.729717  1
  Ho  Ho3  1  0.865926  0.643817  0.229717  1
  Ho  Ho4  1  0.356183  0.222108  0.229717  1
  Ho  Ho5  1  0.222108  0.865926  0.729717  1
  Cu  Cu6  1  0.000000  0.000000  0.177877  1
  Cu  Cu7  1  0.000000  0.000000  0.677877  1
  Si  Si8  1  0.666667  0.333333  0.819978  1
  Si  Si9  1  0.333333  0.666667  0.319978  1
  Se  Se10  1  0.422062  0.521367  0.474691  1
  Se  Se11  1  0.478633  0.900694  0.474691  1
  Se  Se12  1  0.099306  0.577938  0.474691  1
  Se  Se13  1  0.899045  0.737590  0.694786  1
  Se  Se14  1  0.666667  0.333333  0.442365  1
  Se  Se15  1  0.900694  0.422062  0.974691  1
  Se  Se16  1  0.838545  0.100955  0.694786  1
  Se  Se17  1  0.577938  0.478633  0.974691  1
  Se  Se18  1  0.100955  0.262410  0.194786  1
  Se  Se19  1  0.521367  0.099306  0.974691  1
  Se  Se20  1  0.262410  0.161455  0.694786  1
  Se  Se21  1  0.333333  0.666667  0.942365  1
  Se  Se22  1  0.161455  0.899045  0.194786  1
  Se  Se23  1  0.737590  0.838545  0.194786  1
