# generated using pymatgen
data_CsHoZnTe3
_symmetry_space_group_name_H-M   'P 1'
_cell_length_a   9.00359143
_cell_length_b   9.00359143
_cell_length_c   11.70792019
_cell_angle_alpha   90.00000000
_cell_angle_beta   90.00000000
_cell_angle_gamma   151.55634787
_symmetry_Int_Tables_number   1
_chemical_formula_structural   CsHoZnTe3
_chemical_formula_sum   'Cs2 Ho2 Zn2 Te6'
_cell_volume   452.05018588
_cell_formula_units_Z   2
loop_
 _symmetry_equiv_pos_site_id
 _symmetry_equiv_pos_as_xyz
  1  'x, y, z'
loop_
 _atom_site_type_symbol
 _atom_site_label
 _atom_site_symmetry_multiplicity
 _atom_site_fract_x
 _atom_site_fract_y
 _atom_site_fract_z
 _atom_site_occupancy
  Cs  Cs0  1  0.252855  0.747145  0.750000  1
  Cs  Cs1  1  0.747145  0.252855  0.250000  1
  Ho  Ho2  1  0.000000  0.000000  0.000000  1
  Ho  Ho3  1  0.000000  0.000000  0.500000  1
  Zn  Zn4  1  0.463031  0.536969  0.250000  1
  Zn  Zn5  1  0.536969  0.463031  0.750000  1
  Te  Te6  1  0.941521  0.058479  0.750000  1
  Te  Te7  1  0.617520  0.382480  0.942955  1
  Te  Te8  1  0.382480  0.617520  0.442955  1
  Te  Te9  1  0.382480  0.617520  0.057045  1
  Te  Te10  1  0.058479  0.941521  0.250000  1
  Te  Te11  1  0.617520  0.382480  0.557045  1
