# generated using pymatgen
data_Ba2BiRuO6
_symmetry_space_group_name_H-M   'P 1'
_cell_length_a   6.12949290
_cell_length_b   6.12949290
_cell_length_c   20.60001906
_cell_angle_alpha   90.00000000
_cell_angle_beta   90.00000000
_cell_angle_gamma   120.00000000
_symmetry_Int_Tables_number   1
_chemical_formula_structural   Ba2BiRuO6
_chemical_formula_sum   'Ba8 Bi4 Ru4 O24'
_cell_volume   670.26624223
_cell_formula_units_Z   4
loop_
 _symmetry_equiv_pos_site_id
 _symmetry_equiv_pos_as_xyz
  1  'x, y, z'
loop_
 _atom_site_type_symbol
 _atom_site_label
 _atom_site_symmetry_multiplicity
 _atom_site_fract_x
 _atom_site_fract_y
 _atom_site_fract_z
 _atom_site_occupancy
  Ba  Ba0  1  0.333333  0.666667  0.355435  1
  Ba  Ba1  1  0.333333  0.666667  0.750000  1
  Ba  Ba2  1  0.666667  0.333333  0.250000  1
  Ba  Ba3  1  0.000000  0.000000  0.500000  1
  Ba  Ba4  1  0.666667  0.333333  0.855435  1
  Ba  Ba5  1  0.666667  0.333333  0.644565  1
  Ba  Ba6  1  0.333333  0.666667  0.144565  1
  Ba  Ba7  1  0.000000  0.000000  0.000000  1
  Bi  Bi8  1  0.333333  0.666667  0.561132  1
  Bi  Bi9  1  0.666667  0.333333  0.438868  1
  Bi  Bi10  1  0.333333  0.666667  0.938868  1
  Bi  Bi11  1  0.666667  0.333333  0.061132  1
  Ru  Ru12  1  0.000000  0.000000  0.316659  1
  Ru  Ru13  1  0.000000  0.000000  0.683341  1
  Ru  Ru14  1  0.000000  0.000000  0.183341  1
  Ru  Ru15  1  0.000000  0.000000  0.816659  1
  O  O16  1  0.841647  0.683295  0.363395  1
  O  O17  1  0.150577  0.849423  0.250000  1
  O  O18  1  0.841647  0.158353  0.136605  1
  O  O19  1  0.158353  0.316705  0.636605  1
  O  O20  1  0.841647  0.158353  0.363395  1
  O  O21  1  0.500000  0.500000  0.000000  1
  O  O22  1  0.316705  0.158353  0.363395  1
  O  O23  1  0.849423  0.150577  0.750000  1
  O  O24  1  0.849423  0.698846  0.750000  1
  O  O25  1  0.158353  0.841647  0.863395  1
  O  O26  1  0.698846  0.849423  0.250000  1
  O  O27  1  0.683295  0.841647  0.863395  1
  O  O28  1  0.500000  0.500000  0.500000  1
  O  O29  1  0.301154  0.150577  0.750000  1
  O  O30  1  0.683295  0.841647  0.636605  1
  O  O31  1  0.158353  0.316705  0.863395  1
  O  O32  1  0.158353  0.841647  0.636605  1
  O  O33  1  0.000000  0.500000  0.500000  1
  O  O34  1  0.500000  0.000000  0.500000  1
  O  O35  1  0.316705  0.158353  0.136605  1
  O  O36  1  0.150577  0.301154  0.250000  1
  O  O37  1  0.000000  0.500000  0.000000  1
  O  O38  1  0.841647  0.683295  0.136605  1
  O  O39  1  0.500000  0.000000  0.000000  1
