# generated using pymatgen
data_SrTa4O11
_symmetry_space_group_name_H-M   'P 1'
_cell_length_a   6.31871005
_cell_length_b   6.31871005
_cell_length_c   12.46075418
_cell_angle_alpha   90.00000000
_cell_angle_beta   90.00000000
_cell_angle_gamma   120.00000000
_symmetry_Int_Tables_number   1
_chemical_formula_structural   SrTa4O11
_chemical_formula_sum   'Sr2 Ta8 O22'
_cell_volume   430.85567238
_cell_formula_units_Z   2
loop_
 _symmetry_equiv_pos_site_id
 _symmetry_equiv_pos_as_xyz
  1  'x, y, z'
loop_
 _atom_site_type_symbol
 _atom_site_label
 _atom_site_symmetry_multiplicity
 _atom_site_fract_x
 _atom_site_fract_y
 _atom_site_fract_z
 _atom_site_occupancy
  Sr  Sr0  1  0.666667  0.333333  0.250000  1
  Sr  Sr1  1  0.333333  0.666667  0.750000  1
  Ta  Ta2  1  0.333333  0.666667  0.250000  1
  Ta  Ta3  1  0.666667  0.333333  0.750000  1
  Ta  Ta4  1  0.356362  0.000000  0.000000  1
  Ta  Ta5  1  0.356362  0.356362  0.500000  1
  Ta  Ta6  1  0.000000  0.643638  0.500000  1
  Ta  Ta7  1  0.000000  0.356362  0.000000  1
  Ta  Ta8  1  0.643638  0.643638  0.000000  1
  Ta  Ta9  1  0.643638  0.000000  0.500000  1
  O  O10  1  0.333333  0.666667  0.534415  1
  O  O11  1  0.666667  0.333333  0.034415  1
  O  O12  1  0.666667  0.333333  0.465585  1
  O  O13  1  0.333333  0.666667  0.965585  1
  O  O14  1  0.755389  0.000000  0.000000  1
  O  O15  1  0.755389  0.755389  0.500000  1
  O  O16  1  0.000000  0.244611  0.500000  1
  O  O17  1  0.000000  0.755389  0.000000  1
  O  O18  1  0.244611  0.244611  0.000000  1
  O  O19  1  0.244611  0.000000  0.500000  1
  O  O20  1  0.370225  0.432989  0.345670  1
  O  O21  1  0.937236  0.370225  0.845670  1
  O  O22  1  0.432989  0.062764  0.845670  1
  O  O23  1  0.567011  0.937236  0.345670  1
  O  O24  1  0.062764  0.629775  0.345670  1
  O  O25  1  0.937236  0.567011  0.654330  1
  O  O26  1  0.629775  0.062764  0.654330  1
  O  O27  1  0.629775  0.567011  0.845670  1
  O  O28  1  0.432989  0.370225  0.654330  1
  O  O29  1  0.567011  0.629775  0.154330  1
  O  O30  1  0.062764  0.432989  0.154330  1
  O  O31  1  0.370225  0.937236  0.154330  1
