# generated using pymatgen
data_Ba(SbAu)2
_symmetry_space_group_name_H-M   'P 1'
_cell_length_a   4.99508179
_cell_length_b   4.87505712
_cell_length_c   11.30465274
_cell_angle_alpha   90.00000000
_cell_angle_beta   91.24250946
_cell_angle_gamma   90.00000000
_symmetry_Int_Tables_number   1
_chemical_formula_structural   Ba(SbAu)2
_chemical_formula_sum   'Ba2 Sb4 Au4'
_cell_volume   275.21836535
_cell_formula_units_Z   2
loop_
 _symmetry_equiv_pos_site_id
 _symmetry_equiv_pos_as_xyz
  1  'x, y, z'
loop_
 _atom_site_type_symbol
 _atom_site_label
 _atom_site_symmetry_multiplicity
 _atom_site_fract_x
 _atom_site_fract_y
 _atom_site_fract_z
 _atom_site_occupancy
  Ba  Ba0  1  0.737721  0.250000  0.244075  1
  Ba  Ba1  1  0.262279  0.750000  0.755925  1
  Sb  Sb2  1  0.752690  0.750000  0.498915  1
  Sb  Sb3  1  0.247310  0.250000  0.501085  1
  Sb  Sb4  1  0.804880  0.250000  0.876349  1
  Sb  Sb5  1  0.195120  0.750000  0.123651  1
  Au  Au6  1  0.689727  0.750000  0.999285  1
  Au  Au7  1  0.251810  0.750000  0.366219  1
  Au  Au8  1  0.748190  0.250000  0.633781  1
  Au  Au9  1  0.310273  0.250000  0.000715  1
