# generated using pymatgen
data_Li3U7(PO7)5
_symmetry_space_group_name_H-M   'P 1'
_cell_length_a   10.05756644
_cell_length_b   10.05756644
_cell_length_c   14.77228827
_cell_angle_alpha   90.00000000
_cell_angle_beta   90.00000000
_cell_angle_gamma   90.00000000
_symmetry_Int_Tables_number   1
_chemical_formula_structural   Li3U7(PO7)5
_chemical_formula_sum   'Li6 U14 P10 O70'
_cell_volume   1494.28554174
_cell_formula_units_Z   2
loop_
 _symmetry_equiv_pos_site_id
 _symmetry_equiv_pos_as_xyz
  1  'x, y, z'
loop_
 _atom_site_type_symbol
 _atom_site_label
 _atom_site_symmetry_multiplicity
 _atom_site_fract_x
 _atom_site_fract_y
 _atom_site_fract_z
 _atom_site_occupancy
  Li  Li0  1  0.000000  0.500000  0.700020  1
  Li  Li1  1  0.295725  0.204275  0.867476  1
  Li  Li2  1  0.795725  0.295725  0.132524  1
  Li  Li3  1  0.204275  0.704275  0.132524  1
  Li  Li4  1  0.704275  0.795725  0.867476  1
  Li  Li5  1  0.500000  0.000000  0.299980  1
  U  U6  1  0.238171  0.261829  0.281108  1
  U  U7  1  0.251838  0.248162  0.568815  1
  U  U8  1  0.000000  0.000000  0.143235  1
  U  U9  1  0.500000  0.500000  0.856765  1
  U  U10  1  0.000000  0.000000  0.856765  1
  U  U11  1  0.500000  0.500000  0.143235  1
  U  U12  1  0.738171  0.238171  0.718892  1
  U  U13  1  0.261829  0.761829  0.718892  1
  U  U14  1  0.000000  0.500000  0.988015  1
  U  U15  1  0.761829  0.738171  0.281108  1
  U  U16  1  0.748162  0.751838  0.568815  1
  U  U17  1  0.248162  0.748162  0.431185  1
  U  U18  1  0.500000  0.000000  0.011985  1
  U  U19  1  0.751838  0.251838  0.431185  1
  P  P20  1  0.500000  0.500000  0.363473  1
  P  P21  1  0.254680  0.754680  0.937492  1
  P  P22  1  0.000000  0.000000  0.363473  1
  P  P23  1  0.500000  0.000000  0.486844  1
  P  P24  1  0.745320  0.245320  0.937492  1
  P  P25  1  0.754680  0.745320  0.062508  1
  P  P26  1  0.245320  0.254680  0.062508  1
  P  P27  1  0.500000  0.500000  0.636527  1
  P  P28  1  0.000000  0.000000  0.636527  1
  P  P29  1  0.000000  0.500000  0.513156  1
  O  O30  1  0.237528  0.262472  0.440995  1
  O  O31  1  0.112687  0.387313  0.279390  1
  O  O32  1  0.335388  0.164612  0.003704  1
  O  O33  1  0.595227  0.584577  0.579032  1
  O  O34  1  0.339306  0.839306  0.001726  1
  O  O35  1  0.365595  0.134405  0.282654  1
  O  O36  1  0.762472  0.737528  0.440995  1
  O  O37  1  0.588094  0.088094  0.422786  1
  O  O38  1  0.633010  0.623544  0.851625  1
  O  O39  1  0.887313  0.612687  0.279390  1
  O  O40  1  0.584577  0.404773  0.420968  1
  O  O41  1  0.095227  0.915423  0.420968  1
  O  O42  1  0.079456  0.091125  0.296409  1
  O  O43  1  0.415423  0.595227  0.420968  1
  O  O44  1  0.876456  0.866990  0.851625  1
  O  O45  1  0.664612  0.835388  0.003704  1
  O  O46  1  0.623544  0.366990  0.148375  1
  O  O47  1  0.764532  0.264532  0.309365  1
  O  O48  1  0.839306  0.660694  0.998274  1
  O  O49  1  0.612687  0.112687  0.720610  1
  O  O50  1  0.366990  0.376456  0.851625  1
  O  O51  1  0.920544  0.908875  0.296409  1
  O  O52  1  0.387313  0.887313  0.720610  1
  O  O53  1  0.634405  0.865595  0.282654  1
  O  O54  1  0.735468  0.764532  0.690635  1
  O  O55  1  0.865595  0.365595  0.717346  1
  O  O56  1  0.500000  0.000000  0.134758  1
  O  O57  1  0.827367  0.159223  0.869595  1
  O  O58  1  0.160694  0.339306  0.998274  1
  O  O59  1  0.500000  0.500000  0.000000  1
  O  O60  1  0.262472  0.762472  0.559005  1
  O  O61  1  0.088094  0.411906  0.577214  1
  O  O62  1  0.264532  0.235468  0.690635  1
  O  O63  1  0.327367  0.340777  0.130405  1
  O  O64  1  0.590345  0.909655  0.545584  1
  O  O65  1  0.091125  0.920544  0.703591  1
  O  O66  1  0.090345  0.590345  0.454416  1
  O  O67  1  0.672633  0.659223  0.130405  1
  O  O68  1  0.660694  0.160694  0.001726  1
  O  O69  1  0.084577  0.095227  0.579032  1
  O  O70  1  0.409655  0.090345  0.545584  1
  O  O71  1  0.340777  0.672633  0.869595  1
  O  O72  1  0.659223  0.327367  0.869595  1
  O  O73  1  0.908875  0.079456  0.703591  1
  O  O74  1  0.904773  0.084577  0.420968  1
  O  O75  1  0.000000  0.500000  0.865242  1
  O  O76  1  0.866990  0.123544  0.148375  1
  O  O77  1  0.579456  0.408875  0.703591  1
  O  O78  1  0.737528  0.237528  0.559005  1
  O  O79  1  0.835388  0.335388  0.996296  1
  O  O80  1  0.172633  0.840777  0.869595  1
  O  O81  1  0.134405  0.634405  0.717346  1
  O  O82  1  0.159223  0.172633  0.130405  1
  O  O83  1  0.235468  0.735468  0.309365  1
  O  O84  1  0.840777  0.827367  0.130405  1
  O  O85  1  0.408875  0.420544  0.296409  1
  O  O86  1  0.500000  0.000000  0.889526  1
  O  O87  1  0.404773  0.415423  0.579032  1
  O  O88  1  0.909655  0.409655  0.454416  1
  O  O89  1  0.591125  0.579456  0.296409  1
  O  O90  1  0.000000  0.000000  0.000000  1
  O  O91  1  0.376456  0.633010  0.148375  1
  O  O92  1  0.915423  0.904773  0.579032  1
  O  O93  1  0.411906  0.911906  0.422786  1
  O  O94  1  0.420544  0.591125  0.703591  1
  O  O95  1  0.911906  0.588094  0.577214  1
  O  O96  1  0.123544  0.133010  0.851625  1
  O  O97  1  0.133010  0.876456  0.148375  1
  O  O98  1  0.000000  0.500000  0.110474  1
  O  O99  1  0.164612  0.664612  0.996296  1
