# generated using pymatgen
data_RuOF4
_symmetry_space_group_name_H-M   'P 1'
_cell_length_a   6.26700064
_cell_length_b   8.84944860
_cell_length_c   8.90844176
_cell_angle_alpha   90.00000000
_cell_angle_beta   133.36395527
_cell_angle_gamma   90.00000000
_symmetry_Int_Tables_number   1
_chemical_formula_structural   RuOF4
_chemical_formula_sum   'Ru4 O4 F16'
_cell_volume   359.18331332
_cell_formula_units_Z   4
loop_
 _symmetry_equiv_pos_site_id
 _symmetry_equiv_pos_as_xyz
  1  'x, y, z'
loop_
 _atom_site_type_symbol
 _atom_site_label
 _atom_site_symmetry_multiplicity
 _atom_site_fract_x
 _atom_site_fract_y
 _atom_site_fract_z
 _atom_site_occupancy
  Ru  Ru0  1  0.305316  0.822194  0.850928  1
  Ru  Ru1  1  0.305316  0.677806  0.350928  1
  Ru  Ru2  1  0.694684  0.322194  0.649072  1
  Ru  Ru3  1  0.694684  0.177806  0.149072  1
  O  O4  1  0.676591  0.363200  0.139262  1
  O  O5  1  0.323409  0.863200  0.360738  1
  O  O6  1  0.676591  0.136800  0.639262  1
  O  O7  1  0.323409  0.636800  0.860738  1
  F  F8  1  0.338270  0.111557  0.880678  1
  F  F9  1  0.047716  0.123194  0.411619  1
  F  F10  1  0.115034  0.879183  0.937408  1
  F  F11  1  0.952284  0.623194  0.088381  1
  F  F12  1  0.115034  0.620817  0.437408  1
  F  F13  1  0.952284  0.876806  0.588381  1
  F  F14  1  0.481160  0.614705  0.255576  1
  F  F15  1  0.338270  0.388443  0.380678  1
  F  F16  1  0.047716  0.376806  0.911619  1
  F  F17  1  0.661730  0.888443  0.119322  1
  F  F18  1  0.518840  0.385295  0.744424  1
  F  F19  1  0.661730  0.611557  0.619322  1
  F  F20  1  0.884966  0.120817  0.062592  1
  F  F21  1  0.884966  0.379183  0.562592  1
  F  F22  1  0.481160  0.885295  0.755576  1
  F  F23  1  0.518840  0.114705  0.244424  1
