# generated using pymatgen
data_ZnBi6P2(O7F)2
_symmetry_space_group_name_H-M   'P 1'
_cell_length_a   8.96778606
_cell_length_b   8.96778606
_cell_length_c   16.90520034
_cell_angle_alpha   72.09123800
_cell_angle_beta   107.90876200
_cell_angle_gamma   142.92415980
_symmetry_Int_Tables_number   1
_chemical_formula_structural   ZnBi6P2(O7F)2
_chemical_formula_sum   'Zn2 Bi12 P4 O28 F4'
_cell_volume   775.31999027
_cell_formula_units_Z   2
loop_
 _symmetry_equiv_pos_site_id
 _symmetry_equiv_pos_as_xyz
  1  'x, y, z'
loop_
 _atom_site_type_symbol
 _atom_site_label
 _atom_site_symmetry_multiplicity
 _atom_site_fract_x
 _atom_site_fract_y
 _atom_site_fract_z
 _atom_site_occupancy
  Zn  Zn0  1  0.000000  0.000000  0.000000  1
  Zn  Zn1  1  0.000000  0.000000  0.500000  1
  Bi  Bi2  1  0.269744  0.860465  0.171468  1
  Bi  Bi3  1  0.860465  0.269744  0.328532  1
  Bi  Bi4  1  0.455160  0.327785  0.669678  1
  Bi  Bi5  1  0.730256  0.139535  0.828532  1
  Bi  Bi6  1  0.139535  0.730256  0.671468  1
  Bi  Bi7  1  0.973357  0.178599  0.174959  1
  Bi  Bi8  1  0.672215  0.544840  0.169678  1
  Bi  Bi9  1  0.327785  0.455160  0.830322  1
  Bi  Bi10  1  0.544840  0.672215  0.330322  1
  Bi  Bi11  1  0.178599  0.973357  0.325041  1
  Bi  Bi12  1  0.026643  0.821401  0.825041  1
  Bi  Bi13  1  0.821401  0.026643  0.674959  1
  P  P14  1  0.388738  0.643431  0.009290  1
  P  P15  1  0.611262  0.356569  0.990710  1
  P  P16  1  0.643431  0.388738  0.490710  1
  P  P17  1  0.356569  0.611262  0.509290  1
  O  O18  1  0.343428  0.167008  0.948829  1
  O  O19  1  0.868939  0.527177  0.757290  1
  O  O20  1  0.624211  0.771960  0.545369  1
  O  O21  1  0.635563  0.311796  0.086584  1
  O  O22  1  0.967920  0.106425  0.888099  1
  O  O23  1  0.131061  0.472823  0.242710  1
  O  O24  1  0.815782  0.815782  0.250000  1
  O  O25  1  0.228040  0.375789  0.045369  1
  O  O26  1  0.364437  0.688204  0.913416  1
  O  O27  1  0.641610  0.978252  0.240634  1
  O  O28  1  0.032080  0.893575  0.111901  1
  O  O29  1  0.375789  0.228040  0.454631  1
  O  O30  1  0.472823  0.131061  0.257290  1
  O  O31  1  0.688204  0.364437  0.586584  1
  O  O32  1  0.527177  0.868939  0.742710  1
  O  O33  1  0.167008  0.343428  0.551171  1
  O  O34  1  0.978252  0.641610  0.259366  1
  O  O35  1  0.771960  0.624211  0.954631  1
  O  O36  1  0.893575  0.032080  0.388099  1
  O  O37  1  0.832992  0.656572  0.448829  1
  O  O38  1  0.656572  0.832992  0.051171  1
  O  O39  1  0.021748  0.358390  0.740634  1
  O  O40  1  0.106425  0.967920  0.611901  1
  O  O41  1  0.358390  0.021748  0.759366  1
  O  O42  1  0.184218  0.184218  0.750000  1
  O  O43  1  0.298762  0.298762  0.250000  1
  O  O44  1  0.311796  0.635563  0.413416  1
  O  O45  1  0.701238  0.701238  0.750000  1
  F  F46  1  0.691275  0.272782  0.462633  1
  F  F47  1  0.727218  0.308725  0.962633  1
  F  F48  1  0.272782  0.691275  0.037367  1
  F  F49  1  0.308725  0.727218  0.537367  1
