# generated using pymatgen
data_Hf5Sb9
_symmetry_space_group_name_H-M   'P 1'
_cell_length_a   8.84360619
_cell_length_b   8.84360619
_cell_length_c   8.73503523
_cell_angle_alpha   90.00000000
_cell_angle_beta   90.00000000
_cell_angle_gamma   90.00000000
_symmetry_Int_Tables_number   1
_chemical_formula_structural   Hf5Sb9
_chemical_formula_sum   'Hf10 Sb18'
_cell_volume   683.16160614
_cell_formula_units_Z   2
loop_
 _symmetry_equiv_pos_site_id
 _symmetry_equiv_pos_as_xyz
  1  'x, y, z'
loop_
 _atom_site_type_symbol
 _atom_site_label
 _atom_site_symmetry_multiplicity
 _atom_site_fract_x
 _atom_site_fract_y
 _atom_site_fract_z
 _atom_site_occupancy
  Hf  Hf0  1  0.500000  0.000000  0.254834  1
  Hf  Hf1  1  0.000000  0.500000  0.745166  1
  Hf  Hf2  1  0.105344  0.792679  0.266471  1
  Hf  Hf3  1  0.394656  0.707321  0.733529  1
  Hf  Hf4  1  0.292679  0.394656  0.266471  1
  Hf  Hf5  1  0.894656  0.207321  0.266471  1
  Hf  Hf6  1  0.605344  0.292679  0.733529  1
  Hf  Hf7  1  0.207321  0.105344  0.733529  1
  Hf  Hf8  1  0.707321  0.605344  0.266471  1
  Hf  Hf9  1  0.792679  0.894656  0.733529  1
  Sb  Sb10  1  0.419895  0.231346  0.001949  1
  Sb  Sb11  1  0.768654  0.419895  0.998051  1
  Sb  Sb12  1  0.196516  0.096760  0.381786  1
  Sb  Sb13  1  0.096760  0.803484  0.618214  1
  Sb  Sb14  1  0.303484  0.403240  0.618214  1
  Sb  Sb15  1  0.403240  0.696516  0.381786  1
  Sb  Sb16  1  0.580105  0.768654  0.001949  1
  Sb  Sb17  1  0.000000  0.500000  0.392244  1
  Sb  Sb18  1  0.696516  0.596760  0.618214  1
  Sb  Sb19  1  0.919895  0.731346  0.998051  1
  Sb  Sb20  1  0.231346  0.580105  0.998051  1
  Sb  Sb21  1  0.080105  0.268654  0.998051  1
  Sb  Sb22  1  0.596760  0.303484  0.381786  1
  Sb  Sb23  1  0.500000  0.000000  0.607756  1
  Sb  Sb24  1  0.731346  0.080105  0.001949  1
  Sb  Sb25  1  0.903240  0.196516  0.618214  1
  Sb  Sb26  1  0.268654  0.919895  0.001949  1
  Sb  Sb27  1  0.803484  0.903240  0.381786  1
