# generated using pymatgen
data_ThBC
_symmetry_space_group_name_H-M   'P 1'
_cell_length_a   3.78376776
_cell_length_b   3.78376776
_cell_length_c   25.29993393
_cell_angle_alpha   90.00000000
_cell_angle_beta   90.00000000
_cell_angle_gamma   90.00000000
_symmetry_Int_Tables_number   1
_chemical_formula_structural   ThBC
_chemical_formula_sum   'Th8 B8 C8'
_cell_volume   362.21658516
_cell_formula_units_Z   8
loop_
 _symmetry_equiv_pos_site_id
 _symmetry_equiv_pos_as_xyz
  1  'x, y, z'
loop_
 _atom_site_type_symbol
 _atom_site_label
 _atom_site_symmetry_multiplicity
 _atom_site_fract_x
 _atom_site_fract_y
 _atom_site_fract_z
 _atom_site_occupancy
  Th  Th0  1  0.303642  0.202290  0.570466  1
  Th  Th1  1  0.797710  0.303642  0.820466  1
  Th  Th2  1  0.696358  0.202290  0.429534  1
  Th  Th3  1  0.202290  0.303642  0.179534  1
  Th  Th4  1  0.696358  0.797710  0.070466  1
  Th  Th5  1  0.303642  0.797710  0.929534  1
  Th  Th6  1  0.202290  0.696358  0.320466  1
  Th  Th7  1  0.797710  0.696358  0.679534  1
  B  B8  1  0.157521  0.293608  0.022629  1
  B  B9  1  0.293608  0.157521  0.727371  1
  B  B10  1  0.706392  0.157521  0.272629  1
  B  B11  1  0.842479  0.293608  0.977371  1
  B  B12  1  0.157521  0.706392  0.477371  1
  B  B13  1  0.293608  0.842479  0.772629  1
  B  B14  1  0.706392  0.842479  0.227371  1
  B  B15  1  0.842479  0.706392  0.522629  1
  C  C16  1  0.304985  0.203107  0.668424  1
  C  C17  1  0.796893  0.304985  0.918424  1
  C  C18  1  0.203107  0.304985  0.081576  1
  C  C19  1  0.304985  0.796893  0.831576  1
  C  C20  1  0.203107  0.695015  0.418424  1
  C  C21  1  0.796893  0.695015  0.581576  1
  C  C22  1  0.695015  0.796893  0.168424  1
  C  C23  1  0.695015  0.203107  0.331576  1
