# generated using pymatgen
data_In5Br7
_symmetry_space_group_name_H-M   'P 1'
_cell_length_a   13.46401020
_cell_length_b   13.46401020
_cell_length_c   19.86303606
_cell_angle_alpha   79.85414188
_cell_angle_beta   100.14585812
_cell_angle_gamma   90.01028563
_symmetry_Int_Tables_number   1
_chemical_formula_structural   In5Br7
_chemical_formula_sum   'In40 Br56'
_cell_volume   3487.26044191
_cell_formula_units_Z   8
loop_
 _symmetry_equiv_pos_site_id
 _symmetry_equiv_pos_as_xyz
  1  'x, y, z'
loop_
 _atom_site_type_symbol
 _atom_site_label
 _atom_site_symmetry_multiplicity
 _atom_site_fract_x
 _atom_site_fract_y
 _atom_site_fract_z
 _atom_site_occupancy
  In  In0  1  0.569543  0.304296  0.752362  1
  In  In1  1  0.013614  0.503920  0.863261  1
  In  In2  1  0.927582  0.927582  0.250000  1
  In  In3  1  0.974028  0.185514  0.413247  1
  In  In4  1  0.986386  0.496080  0.136739  1
  In  In5  1  0.807479  0.807479  0.750000  1
  In  In6  1  0.304355  0.261749  0.901817  1
  In  In7  1  0.359838  0.474253  0.085361  1
  In  In8  1  0.025972  0.814486  0.586753  1
  In  In9  1  0.304296  0.569543  0.747638  1
  In  In10  1  0.185514  0.974028  0.086753  1
  In  In11  1  0.143875  0.761976  0.900518  1
  In  In12  1  0.738251  0.695645  0.401817  1
  In  In13  1  0.998024  0.581220  0.365769  1
  In  In14  1  0.695645  0.738251  0.098183  1
  In  In15  1  0.695704  0.430457  0.252362  1
  In  In16  1  0.761976  0.143875  0.599482  1
  In  In17  1  0.816506  0.508742  0.637132  1
  In  In18  1  0.418780  0.001976  0.865769  1
  In  In19  1  0.076296  0.682831  0.134913  1
  In  In20  1  0.192521  0.192521  0.250000  1
  In  In21  1  0.923704  0.317169  0.865087  1
  In  In22  1  0.508742  0.816506  0.862868  1
  In  In23  1  0.581220  0.998024  0.134231  1
  In  In24  1  0.072418  0.072418  0.750000  1
  In  In25  1  0.001976  0.418780  0.634231  1
  In  In26  1  0.640162  0.525747  0.914639  1
  In  In27  1  0.238024  0.856125  0.400518  1
  In  In28  1  0.317169  0.923704  0.634913  1
  In  In29  1  0.261749  0.304355  0.598183  1
  In  In30  1  0.491258  0.183494  0.137132  1
  In  In31  1  0.496080  0.986386  0.363261  1
  In  In32  1  0.474253  0.359838  0.414639  1
  In  In33  1  0.814486  0.025972  0.913247  1
  In  In34  1  0.503920  0.013614  0.636739  1
  In  In35  1  0.856125  0.238024  0.099482  1
  In  In36  1  0.430457  0.695704  0.247638  1
  In  In37  1  0.525747  0.640162  0.585361  1
  In  In38  1  0.682831  0.076296  0.365087  1
  In  In39  1  0.183494  0.491258  0.362868  1
  Br  Br40  1  0.795147  0.700382  0.576365  1
  Br  Br41  1  0.299618  0.204853  0.076365  1
  Br  Br42  1  0.763166  0.297198  0.925716  1
  Br  Br43  1  0.735711  0.517950  0.747118  1
  Br  Br44  1  0.628198  0.945167  0.568009  1
  Br  Br45  1  0.355412  0.136041  0.751273  1
  Br  Br46  1  0.235450  0.855738  0.744341  1
  Br  Br47  1  0.208646  0.497142  0.912825  1
  Br  Br48  1  0.144262  0.764550  0.244341  1
  Br  Br49  1  0.161367  0.031515  0.561040  1
  Br  Br50  1  0.363356  0.984057  0.247964  1
  Br  Br51  1  0.371802  0.054833  0.431991  1
  Br  Br52  1  0.702802  0.236834  0.425716  1
  Br  Br53  1  0.994672  0.248103  0.586071  1
  Br  Br54  1  0.872317  0.478605  0.433767  1
  Br  Br55  1  0.031515  0.161367  0.938960  1
  Br  Br56  1  0.751897  0.005328  0.086071  1
  Br  Br57  1  0.248103  0.994672  0.913929  1
  Br  Br58  1  0.478605  0.872317  0.066233  1
  Br  Br59  1  0.054833  0.371802  0.068009  1
  Br  Br60  1  0.127683  0.521395  0.566233  1
  Br  Br61  1  0.968485  0.838633  0.061040  1
  Br  Br62  1  0.236834  0.702802  0.074284  1
  Br  Br63  1  0.338951  0.561761  0.436962  1
  Br  Br64  1  0.764550  0.144262  0.255659  1
  Br  Br65  1  0.015943  0.636644  0.747964  1
  Br  Br66  1  0.561761  0.338951  0.063038  1
  Br  Br67  1  0.005328  0.751897  0.413929  1
  Br  Br68  1  0.461476  0.415831  0.849062  1
  Br  Br69  1  0.916569  0.960072  0.651029  1
  Br  Br70  1  0.497142  0.208646  0.587175  1
  Br  Br71  1  0.863959  0.644588  0.251273  1
  Br  Br72  1  0.538524  0.584169  0.150938  1
  Br  Br73  1  0.700382  0.795147  0.923635  1
  Br  Br74  1  0.984057  0.363356  0.252036  1
  Br  Br75  1  0.521395  0.127683  0.933767  1
  Br  Br76  1  0.415831  0.461476  0.650938  1
  Br  Br77  1  0.644588  0.863959  0.248727  1
  Br  Br78  1  0.083431  0.039928  0.348971  1
  Br  Br79  1  0.039928  0.083431  0.151029  1
  Br  Br80  1  0.945167  0.628198  0.931991  1
  Br  Br81  1  0.791354  0.502858  0.087175  1
  Br  Br82  1  0.855738  0.235450  0.755659  1
  Br  Br83  1  0.136041  0.355412  0.748727  1
  Br  Br84  1  0.661049  0.438239  0.563038  1
  Br  Br85  1  0.204853  0.299618  0.423635  1
  Br  Br86  1  0.502858  0.791354  0.412825  1
  Br  Br87  1  0.297198  0.763166  0.574284  1
  Br  Br88  1  0.636644  0.015943  0.752036  1
  Br  Br89  1  0.838633  0.968485  0.438960  1
  Br  Br90  1  0.264289  0.482050  0.252882  1
  Br  Br91  1  0.438239  0.661049  0.936962  1
  Br  Br92  1  0.960072  0.916569  0.848971  1
  Br  Br93  1  0.584169  0.538524  0.349062  1
  Br  Br94  1  0.517950  0.735711  0.752882  1
  Br  Br95  1  0.482050  0.264289  0.247118  1
