# generated using pymatgen
data_Sr2MnClO3
_symmetry_space_group_name_H-M   'P 1'
_cell_length_a   3.93623910
_cell_length_b   3.93623910
_cell_length_c   14.77689547
_cell_angle_alpha   90.00000000
_cell_angle_beta   90.00000000
_cell_angle_gamma   90.00000000
_symmetry_Int_Tables_number   1
_chemical_formula_structural   Sr2MnClO3
_chemical_formula_sum   'Sr4 Mn2 Cl2 O6'
_cell_volume   228.95289705
_cell_formula_units_Z   2
loop_
 _symmetry_equiv_pos_site_id
 _symmetry_equiv_pos_as_xyz
  1  'x, y, z'
loop_
 _atom_site_type_symbol
 _atom_site_label
 _atom_site_symmetry_multiplicity
 _atom_site_fract_x
 _atom_site_fract_y
 _atom_site_fract_z
 _atom_site_occupancy
  Sr  Sr0  1  0.500000  0.000000  0.091624  1
  Sr  Sr1  1  0.000000  0.500000  0.908376  1
  Sr  Sr2  1  0.500000  0.000000  0.342063  1
  Sr  Sr3  1  0.000000  0.500000  0.657937  1
  Mn  Mn4  1  0.000000  0.500000  0.210590  1
  Mn  Mn5  1  0.500000  0.000000  0.789410  1
  Cl  Cl6  1  0.000000  0.500000  0.423136  1
  Cl  Cl7  1  0.500000  0.000000  0.576864  1
  O  O8  1  0.000000  0.000000  0.230580  1
  O  O9  1  0.500000  0.500000  0.230580  1
  O  O10  1  0.500000  0.500000  0.769420  1
  O  O11  1  0.000000  0.000000  0.769420  1
  O  O12  1  0.000000  0.500000  0.073739  1
  O  O13  1  0.500000  0.000000  0.926261  1
