# generated using pymatgen
data_RbU2SbS8
_symmetry_space_group_name_H-M   'P 1'
_cell_length_a   6.86095003
_cell_length_b   6.86095003
_cell_length_c   7.82768962
_cell_angle_alpha   81.39369730
_cell_angle_beta   98.60630270
_cell_angle_gamma   70.87999327
_symmetry_Int_Tables_number   1
_chemical_formula_structural   RbU2SbS8
_chemical_formula_sum   'Rb1 U2 Sb1 S8'
_cell_volume   336.34990427
_cell_formula_units_Z   1
loop_
 _symmetry_equiv_pos_site_id
 _symmetry_equiv_pos_as_xyz
  1  'x, y, z'
loop_
 _atom_site_type_symbol
 _atom_site_label
 _atom_site_symmetry_multiplicity
 _atom_site_fract_x
 _atom_site_fract_y
 _atom_site_fract_z
 _atom_site_occupancy
  Rb  Rb0  1  0.458567  0.541433  0.839828  1
  U  U1  1  0.076990  0.423506  0.306638  1
  U  U2  1  0.576494  0.923010  0.306638  1
  Sb  Sb3  1  0.008155  0.991845  0.032712  1
  S  S4  1  0.484254  0.216123  0.524464  1
  S  S5  1  0.967733  0.702603  0.533196  1
  S  S6  1  0.773028  0.744412  0.061590  1
  S  S7  1  0.303890  0.696110  0.231744  1
  S  S8  1  0.297397  0.032267  0.533196  1
  S  S9  1  0.810728  0.189272  0.228638  1
  S  S10  1  0.783877  0.515746  0.524464  1
  S  S11  1  0.255588  0.226972  0.061590  1
