# generated using pymatgen
data_Yb2Zn17
_symmetry_space_group_name_H-M   'P 1'
_cell_length_a   6.82710799
_cell_length_b   6.82710799
_cell_length_c   6.82710799
_cell_angle_alpha   83.25347358
_cell_angle_beta   83.25347358
_cell_angle_gamma   83.25347358
_symmetry_Int_Tables_number   1
_chemical_formula_structural   Yb2Zn17
_chemical_formula_sum   'Yb2 Zn17'
_cell_volume   312.07696525
_cell_formula_units_Z   1
loop_
 _symmetry_equiv_pos_site_id
 _symmetry_equiv_pos_as_xyz
  1  'x, y, z'
loop_
 _atom_site_type_symbol
 _atom_site_label
 _atom_site_symmetry_multiplicity
 _atom_site_fract_x
 _atom_site_fract_y
 _atom_site_fract_z
 _atom_site_occupancy
  Yb  Yb0  1  0.336983  0.336983  0.336983  1
  Yb  Yb1  1  0.663017  0.663017  0.663017  1
  Zn  Zn2  1  0.500000  0.000000  1.000000  1
  Zn  Zn3  1  0.000000  0.000000  0.500000  1
  Zn  Zn4  1  0.000000  0.500000  0.000000  1
  Zn  Zn5  1  1.000000  0.700823  0.299177  1
  Zn  Zn6  1  0.700823  0.299177  0.000000  1
  Zn  Zn7  1  0.299177  0.000000  0.700823  1
  Zn  Zn8  1  0.299177  0.700823  0.000000  1
  Zn  Zn9  1  0.700823  0.000000  0.299177  1
  Zn  Zn10  1  0.000000  0.299177  0.700823  1
  Zn  Zn11  1  0.161811  0.649503  0.649503  1
  Zn  Zn12  1  0.649503  0.649503  0.161811  1
  Zn  Zn13  1  0.649503  0.161811  0.649503  1
  Zn  Zn14  1  0.838189  0.350497  0.350497  1
  Zn  Zn15  1  0.350497  0.350497  0.838189  1
  Zn  Zn16  1  0.350497  0.838189  0.350497  1
  Zn  Zn17  1  0.103879  0.103879  0.103879  1
  Zn  Zn18  1  0.896121  0.896121  0.896121  1
