# generated using pymatgen
data_TbInPt
_symmetry_space_group_name_H-M   'P 1'
_cell_length_a   7.73105873
_cell_length_b   7.73105873
_cell_length_c   3.85500832
_cell_angle_alpha   90.00000000
_cell_angle_beta   90.00000000
_cell_angle_gamma   120.00000000
_symmetry_Int_Tables_number   1
_chemical_formula_structural   TbInPt
_chemical_formula_sum   'Tb3 In3 Pt3'
_cell_volume   199.54180494
_cell_formula_units_Z   3
loop_
 _symmetry_equiv_pos_site_id
 _symmetry_equiv_pos_as_xyz
  1  'x, y, z'
loop_
 _atom_site_type_symbol
 _atom_site_label
 _atom_site_symmetry_multiplicity
 _atom_site_fract_x
 _atom_site_fract_y
 _atom_site_fract_z
 _atom_site_occupancy
  Tb  Tb0  1  0.406213  0.000000  0.000000  1
  Tb  Tb1  1  0.000000  0.406213  0.000000  1
  Tb  Tb2  1  0.593787  0.593787  0.000000  1
  In  In3  1  0.260935  0.260935  0.500000  1
  In  In4  1  0.000000  0.739065  0.500000  1
  In  In5  1  0.739065  0.000000  0.500000  1
  Pt  Pt6  1  0.000000  0.000000  0.000000  1
  Pt  Pt7  1  0.666667  0.333333  0.500000  1
  Pt  Pt8  1  0.333333  0.666667  0.500000  1
