# generated using pymatgen
data_BaCO3
_symmetry_space_group_name_H-M   'P 1'
_cell_length_a   5.37774023
_cell_length_b   6.59571539
_cell_length_c   9.01356166
_cell_angle_alpha   90.00000000
_cell_angle_beta   90.00000000
_cell_angle_gamma   90.00000000
_symmetry_Int_Tables_number   1
_chemical_formula_structural   BaCO3
_chemical_formula_sum   'Ba4 C4 O12'
_cell_volume   319.71142866
_cell_formula_units_Z   4
loop_
 _symmetry_equiv_pos_site_id
 _symmetry_equiv_pos_as_xyz
  1  'x, y, z'
loop_
 _atom_site_type_symbol
 _atom_site_label
 _atom_site_symmetry_multiplicity
 _atom_site_fract_x
 _atom_site_fract_y
 _atom_site_fract_z
 _atom_site_occupancy
  Ba  Ba0  1  0.250000  0.254164  0.916289  1
  Ba  Ba1  1  0.750000  0.745836  0.083711  1
  Ba  Ba2  1  0.250000  0.754164  0.583711  1
  Ba  Ba3  1  0.750000  0.245836  0.416289  1
  C  C4  1  0.250000  0.421646  0.256094  1
  C  C5  1  0.750000  0.578354  0.743906  1
  C  C6  1  0.250000  0.921646  0.243906  1
  C  C7  1  0.750000  0.078354  0.756094  1
  O  O8  1  0.459801  0.921079  0.316269  1
  O  O9  1  0.959801  0.078921  0.683731  1
  O  O10  1  0.040199  0.421079  0.183731  1
  O  O11  1  0.540199  0.578921  0.816269  1
  O  O12  1  0.750000  0.085243  0.900490  1
  O  O13  1  0.250000  0.914757  0.099510  1
  O  O14  1  0.750000  0.585243  0.599510  1
  O  O15  1  0.250000  0.414757  0.400490  1
  O  O16  1  0.540199  0.078921  0.683731  1
  O  O17  1  0.040199  0.921079  0.316269  1
  O  O18  1  0.959801  0.578921  0.816269  1
  O  O19  1  0.459801  0.421079  0.183731  1
