# generated using pymatgen
data_Na2Zn2O3
_symmetry_space_group_name_H-M   'P 1'
_cell_length_a   6.26362749
_cell_length_b   6.26362749
_cell_length_c   9.54417291
_cell_angle_alpha   90.00000000
_cell_angle_beta   90.00000000
_cell_angle_gamma   90.00000000
_symmetry_Int_Tables_number   1
_chemical_formula_structural   Na2Zn2O3
_chemical_formula_sum   'Na8 Zn8 O12'
_cell_volume   374.44681574
_cell_formula_units_Z   4
loop_
 _symmetry_equiv_pos_site_id
 _symmetry_equiv_pos_as_xyz
  1  'x, y, z'
loop_
 _atom_site_type_symbol
 _atom_site_label
 _atom_site_symmetry_multiplicity
 _atom_site_fract_x
 _atom_site_fract_y
 _atom_site_fract_z
 _atom_site_occupancy
  Na  Na0  1  0.746322  0.533815  0.644711  1
  Na  Na1  1  0.966185  0.246322  0.394711  1
  Na  Na2  1  0.466185  0.253678  0.855289  1
  Na  Na3  1  0.253678  0.466185  0.144711  1
  Na  Na4  1  0.033815  0.753678  0.894711  1
  Na  Na5  1  0.753678  0.033815  0.105289  1
  Na  Na6  1  0.533815  0.746322  0.355289  1
  Na  Na7  1  0.246322  0.966185  0.605289  1
  Zn  Zn8  1  0.256848  0.455710  0.614848  1
  Zn  Zn9  1  0.044290  0.756848  0.364848  1
  Zn  Zn10  1  0.455710  0.256848  0.385152  1
  Zn  Zn11  1  0.756848  0.044290  0.635152  1
  Zn  Zn12  1  0.243152  0.955710  0.135152  1
  Zn  Zn13  1  0.544290  0.743152  0.885152  1
  Zn  Zn14  1  0.955710  0.243152  0.864848  1
  Zn  Zn15  1  0.743152  0.544290  0.114848  1
  O  O16  1  0.323088  0.676912  0.750000  1
  O  O17  1  0.241723  0.514374  0.408266  1
  O  O18  1  0.485626  0.758277  0.091734  1
  O  O19  1  0.758277  0.485626  0.908266  1
  O  O20  1  0.676912  0.323088  0.250000  1
  O  O21  1  0.985626  0.741723  0.158266  1
  O  O22  1  0.823088  0.823088  0.500000  1
  O  O23  1  0.514374  0.241723  0.591734  1
  O  O24  1  0.014374  0.258277  0.658266  1
  O  O25  1  0.258277  0.014374  0.341734  1
  O  O26  1  0.741723  0.985626  0.841734  1
  O  O27  1  0.176912  0.176912  0.000000  1
