# generated using pymatgen
data_SrIn2Rh
_symmetry_space_group_name_H-M   'P 1'
_cell_length_a   5.94454288
_cell_length_b   5.94454288
_cell_length_c   8.08933217
_cell_angle_alpha   90.00000000
_cell_angle_beta   90.00000000
_cell_angle_gamma   136.27937605
_symmetry_Int_Tables_number   1
_chemical_formula_structural   SrIn2Rh
_chemical_formula_sum   'Sr2 In4 Rh2'
_cell_volume   197.56829948
_cell_formula_units_Z   2
loop_
 _symmetry_equiv_pos_site_id
 _symmetry_equiv_pos_as_xyz
  1  'x, y, z'
loop_
 _atom_site_type_symbol
 _atom_site_label
 _atom_site_symmetry_multiplicity
 _atom_site_fract_x
 _atom_site_fract_y
 _atom_site_fract_z
 _atom_site_occupancy
  Sr  Sr0  1  0.940470  0.059530  0.750000  1
  Sr  Sr1  1  0.059530  0.940470  0.250000  1
  In  In2  1  0.654780  0.345220  0.946178  1
  In  In3  1  0.345220  0.654780  0.053822  1
  In  In4  1  0.345220  0.654780  0.446178  1
  In  In5  1  0.654780  0.345220  0.553822  1
  Rh  Rh6  1  0.218230  0.781770  0.750000  1
  Rh  Rh7  1  0.781770  0.218230  0.250000  1
