# generated using pymatgen
data_HgI2
_symmetry_space_group_name_H-M   'P 1'
_cell_length_a   14.72197251
_cell_length_b   14.72197251
_cell_length_c   14.72197251
_cell_angle_alpha   143.72051371
_cell_angle_beta   143.72051371
_cell_angle_gamma   52.24542743
_symmetry_Int_Tables_number   1
_chemical_formula_structural   HgI2
_chemical_formula_sum   'Hg8 I16'
_cell_volume   1110.76215005
_cell_formula_units_Z   8
loop_
 _symmetry_equiv_pos_site_id
 _symmetry_equiv_pos_as_xyz
  1  'x, y, z'
loop_
 _atom_site_type_symbol
 _atom_site_label
 _atom_site_symmetry_multiplicity
 _atom_site_fract_x
 _atom_site_fract_y
 _atom_site_fract_z
 _atom_site_occupancy
  Hg  Hg0  1  0.561119  0.806567  0.245447  1
  Hg  Hg1  1  0.556567  0.811119  0.745447  1
  Hg  Hg2  1  0.561119  0.315672  0.754553  1
  Hg  Hg3  1  0.188881  0.934328  0.745447  1
  Hg  Hg4  1  0.193433  0.438881  0.754553  1
  Hg  Hg5  1  0.065672  0.811119  0.254553  1
  Hg  Hg6  1  0.188881  0.443433  0.254553  1
  Hg  Hg7  1  0.684328  0.438881  0.245447  1
  I  I8  1  0.625687  0.125687  0.500000  1
  I  I9  1  0.627739  0.627739  0.000000  1
  I  I10  1  0.992111  0.007889  0.500000  1
  I  I11  1  0.122261  0.622261  0.500000  1
  I  I12  1  0.507889  0.007889  0.015778  1
  I  I13  1  0.242111  0.757889  0.000000  1
  I  I14  1  0.992111  0.492111  0.984222  1
  I  I15  1  0.875687  0.875687  0.000000  1
  I  I16  1  0.757889  0.242111  0.000000  1
  I  I17  1  0.757889  0.757889  0.515778  1
  I  I18  1  0.874313  0.374313  0.500000  1
  I  I19  1  0.372261  0.372261  0.000000  1
  I  I20  1  0.242111  0.242111  0.484222  1
  I  I21  1  0.124313  0.124313  0.000000  1
  I  I22  1  0.377739  0.877739  0.500000  1
  I  I23  1  0.507889  0.492111  0.500000  1
