# generated using pymatgen
data_Tb2Ti3Si4
_symmetry_space_group_name_H-M   'P 1'
_cell_length_a   7.06980453
_cell_length_b   7.06980453
_cell_length_c   12.99919499
_cell_angle_alpha   90.00000000
_cell_angle_beta   90.00000000
_cell_angle_gamma   90.00000000
_symmetry_Int_Tables_number   1
_chemical_formula_structural   Tb2Ti3Si4
_chemical_formula_sum   'Tb8 Ti12 Si16'
_cell_volume   649.72753308
_cell_formula_units_Z   4
loop_
 _symmetry_equiv_pos_site_id
 _symmetry_equiv_pos_as_xyz
  1  'x, y, z'
loop_
 _atom_site_type_symbol
 _atom_site_label
 _atom_site_symmetry_multiplicity
 _atom_site_fract_x
 _atom_site_fract_y
 _atom_site_fract_z
 _atom_site_occupancy
  Tb  Tb0  1  0.339878  0.002509  0.466556  1
  Tb  Tb1  1  0.497491  0.839878  0.716556  1
  Tb  Tb2  1  0.502509  0.160122  0.216556  1
  Tb  Tb3  1  0.839878  0.497491  0.283444  1
  Tb  Tb4  1  0.160122  0.502509  0.783444  1
  Tb  Tb5  1  0.660122  0.997491  0.966556  1
  Tb  Tb6  1  0.002509  0.339878  0.533444  1
  Tb  Tb7  1  0.997491  0.660122  0.033444  1
  Ti  Ti8  1  0.327379  0.327379  0.000000  1
  Ti  Ti9  1  0.172621  0.827379  0.250000  1
  Ti  Ti10  1  0.827379  0.172621  0.750000  1
  Ti  Ti11  1  0.672621  0.672621  0.500000  1
  Ti  Ti12  1  0.152934  0.008766  0.876520  1
  Ti  Ti13  1  0.491234  0.652934  0.126520  1
  Ti  Ti14  1  0.508766  0.347066  0.626520  1
  Ti  Ti15  1  0.652934  0.491234  0.873480  1
  Ti  Ti16  1  0.347066  0.508766  0.373480  1
  Ti  Ti17  1  0.847066  0.991234  0.376520  1
  Ti  Ti18  1  0.008766  0.152934  0.123480  1
  Ti  Ti19  1  0.991234  0.847066  0.623480  1
  Si  Si20  1  0.202500  0.129278  0.685062  1
  Si  Si21  1  0.370722  0.702500  0.935062  1
  Si  Si22  1  0.629278  0.297500  0.435062  1
  Si  Si23  1  0.702500  0.370722  0.064938  1
  Si  Si24  1  0.297500  0.629278  0.564938  1
  Si  Si25  1  0.797500  0.870722  0.185062  1
  Si  Si26  1  0.129278  0.202500  0.314938  1
  Si  Si27  1  0.870722  0.797500  0.814938  1
  Si  Si28  1  0.290522  0.953501  0.064904  1
  Si  Si29  1  0.546499  0.790522  0.314904  1
  Si  Si30  1  0.453501  0.209478  0.814904  1
  Si  Si31  1  0.790522  0.546499  0.685096  1
  Si  Si32  1  0.209478  0.453501  0.185096  1
  Si  Si33  1  0.709478  0.046499  0.564904  1
  Si  Si34  1  0.953501  0.290522  0.935096  1
  Si  Si35  1  0.046499  0.709478  0.435096  1
