# generated using pymatgen
data_Mo2P3O13
_symmetry_space_group_name_H-M   'P 1'
_cell_length_a   6.43607137
_cell_length_b   19.23403834
_cell_length_c   9.90514770
_cell_angle_alpha   90.00000000
_cell_angle_beta   106.49221629
_cell_angle_gamma   90.00000000
_symmetry_Int_Tables_number   1
_chemical_formula_structural   Mo2P3O13
_chemical_formula_sum   'Mo8 P12 O52'
_cell_volume   1175.72762045
_cell_formula_units_Z   4
loop_
 _symmetry_equiv_pos_site_id
 _symmetry_equiv_pos_as_xyz
  1  'x, y, z'
loop_
 _atom_site_type_symbol
 _atom_site_label
 _atom_site_symmetry_multiplicity
 _atom_site_fract_x
 _atom_site_fract_y
 _atom_site_fract_z
 _atom_site_occupancy
  Mo  Mo0  1  0.063075  0.212943  0.388975  1
  Mo  Mo1  1  0.370488  0.183511  0.938546  1
  Mo  Mo2  1  0.131529  0.498499  0.068207  1
  Mo  Mo3  1  0.438861  0.467810  0.619389  1
  Mo  Mo4  1  0.561139  0.967810  0.380611  1
  Mo  Mo5  1  0.868471  0.998499  0.931793  1
  Mo  Mo6  1  0.629512  0.683511  0.061454  1
  Mo  Mo7  1  0.936925  0.712943  0.611025  1
  P  P8  1  0.088822  0.663896  0.962352  1
  P  P9  1  0.015991  0.931075  0.288392  1
  P  P10  1  0.239646  0.306874  0.696969  1
  P  P11  1  0.261668  0.374485  0.310337  1
  P  P12  1  0.590332  0.516941  0.967854  1
  P  P13  1  0.482372  0.750054  0.703533  1
  P  P14  1  0.517628  0.250054  0.296467  1
  P  P15  1  0.409668  0.016941  0.032146  1
  P  P16  1  0.738332  0.874485  0.689663  1
  P  P17  1  0.760354  0.806874  0.303031  1
  P  P18  1  0.984009  0.431075  0.711608  1
  P  P19  1  0.911178  0.163896  0.037648  1
  O  O20  1  0.036521  0.449055  0.868189  1
  O  O21  1  0.069430  0.186097  0.953427  1
  O  O22  1  0.076898  0.583878  0.940842  1
  O  O23  1  0.038564  0.702145  0.824111  1
  O  O24  1  0.027481  0.347979  0.705977  1
  O  O25  1  0.178344  0.998709  0.938528  1
  O  O26  1  0.125423  0.467896  0.633640  1
  O  O27  1  0.058028  0.127933  0.431838  1
  O  O28  1  0.164057  0.247508  0.594927  1
  O  O29  1  0.096334  0.325364  0.337474  1
  O  O30  1  0.298454  0.135595  0.788533  1
  O  O31  1  0.328697  0.274479  0.849716  1
  O  O32  1  0.245283  0.742435  0.620611  1
  O  O33  1  0.252797  0.938881  0.371704  1
  O  O34  1  0.202548  0.547610  0.216633  1
  O  O35  1  0.173751  0.407814  0.158329  1
  O  O36  1  0.404578  0.355699  0.668492  1
  O  O37  1  0.534915  0.731382  0.859787  1
  O  O38  1  0.566898  0.996482  0.945973  1
  O  O39  1  0.337155  0.433651  0.413143  1
  O  O40  1  0.575822  0.596437  0.938884  1
  O  O41  1  0.541057  0.475713  0.833014  1
  O  O42  1  0.445191  0.553262  0.580040  1
  O  O43  1  0.376644  0.213551  0.375189  1
  O  O44  1  0.526351  0.833230  0.699061  1
  O  O45  1  0.680423  0.183915  0.945616  1
  O  O46  1  0.319577  0.683915  0.054384  1
  O  O47  1  0.473649  0.333230  0.300939  1
  O  O48  1  0.623356  0.713551  0.624811  1
  O  O49  1  0.554809  0.053262  0.419960  1
  O  O50  1  0.458943  0.975713  0.166986  1
  O  O51  1  0.424178  0.096437  0.061116  1
  O  O52  1  0.662845  0.933651  0.586857  1
  O  O53  1  0.433102  0.496482  0.054027  1
  O  O54  1  0.465085  0.231382  0.140213  1
  O  O55  1  0.595422  0.855699  0.331508  1
  O  O56  1  0.826249  0.907814  0.841671  1
  O  O57  1  0.797452  0.047610  0.783367  1
  O  O58  1  0.747203  0.438881  0.628296  1
  O  O59  1  0.754717  0.242435  0.379389  1
  O  O60  1  0.671303  0.774479  0.150284  1
  O  O61  1  0.701546  0.635595  0.211467  1
  O  O62  1  0.903666  0.825364  0.662526  1
  O  O63  1  0.835943  0.747508  0.405073  1
  O  O64  1  0.941972  0.627933  0.568162  1
  O  O65  1  0.874577  0.967896  0.366360  1
  O  O66  1  0.821656  0.498709  0.061472  1
  O  O67  1  0.972519  0.847979  0.294023  1
  O  O68  1  0.961436  0.202145  0.175889  1
  O  O69  1  0.923102  0.083878  0.059158  1
  O  O70  1  0.930570  0.686097  0.046573  1
  O  O71  1  0.963479  0.949055  0.131811  1
