# generated using pymatgen
data_MoF5
_symmetry_space_group_name_H-M   'P 1'
_cell_length_a   8.85699916
_cell_length_b   8.85699916
_cell_length_c   5.47163667
_cell_angle_alpha   88.67643702
_cell_angle_beta   91.32356298
_cell_angle_gamma   68.68542484
_symmetry_Int_Tables_number   1
_chemical_formula_structural   MoF5
_chemical_formula_sum   'Mo4 F20'
_cell_volume   399.53518623
_cell_formula_units_Z   4
loop_
 _symmetry_equiv_pos_site_id
 _symmetry_equiv_pos_as_xyz
  1  'x, y, z'
loop_
 _atom_site_type_symbol
 _atom_site_label
 _atom_site_symmetry_multiplicity
 _atom_site_fract_x
 _atom_site_fract_y
 _atom_site_fract_z
 _atom_site_occupancy
  Mo  Mo0  1  0.798274  0.798274  0.000000  1
  Mo  Mo1  1  0.201726  0.201726  0.000000  1
  Mo  Mo2  1  0.255912  0.744088  0.737594  1
  Mo  Mo3  1  0.744088  0.255912  0.262406  1
  F  F4  1  0.137375  0.862625  0.466948  1
  F  F5  1  0.862625  0.137375  0.533052  1
  F  F6  1  0.331907  0.668093  0.053171  1
  F  F7  1  0.668093  0.331907  0.946829  1
  F  F8  1  0.272359  0.541573  0.620364  1
  F  F9  1  0.541573  0.272359  0.379636  1
  F  F10  1  0.727641  0.458427  0.379636  1
  F  F11  1  0.458427  0.727641  0.620364  1
  F  F12  1  0.027220  0.773609  0.872492  1
  F  F13  1  0.773609  0.027220  0.127508  1
  F  F14  1  0.972780  0.226391  0.127508  1
  F  F15  1  0.226391  0.972780  0.872492  1
  F  F16  1  0.721385  0.910487  0.704616  1
  F  F17  1  0.910487  0.721385  0.295384  1
  F  F18  1  0.278615  0.089513  0.295384  1
  F  F19  1  0.089513  0.278615  0.704616  1
  F  F20  1  0.826098  0.592738  0.882100  1
  F  F21  1  0.592738  0.826098  0.117900  1
  F  F22  1  0.173902  0.407262  0.117900  1
  F  F23  1  0.407262  0.173902  0.882100  1
