# generated using pymatgen
data_Y4CdRu
_symmetry_space_group_name_H-M   'P 1'
_cell_length_a   9.66520690
_cell_length_b   9.66520690
_cell_length_c   9.66520690
_cell_angle_alpha   60.00000000
_cell_angle_beta   60.00000000
_cell_angle_gamma   60.00000000
_symmetry_Int_Tables_number   1
_chemical_formula_structural   Y4CdRu
_chemical_formula_sum   'Y16 Cd4 Ru4'
_cell_volume   638.43761620
_cell_formula_units_Z   4
loop_
 _symmetry_equiv_pos_site_id
 _symmetry_equiv_pos_as_xyz
  1  'x, y, z'
loop_
 _atom_site_type_symbol
 _atom_site_label
 _atom_site_symmetry_multiplicity
 _atom_site_fract_x
 _atom_site_fract_y
 _atom_site_fract_z
 _atom_site_occupancy
  Y  Y0  1  0.188953  0.188953  0.811047  1
  Y  Y1  1  0.811047  0.811047  0.188953  1
  Y  Y2  1  0.188953  0.811047  0.188953  1
  Y  Y3  1  0.402886  0.791342  0.402886  1
  Y  Y4  1  0.939452  0.560548  0.939452  1
  Y  Y5  1  0.811047  0.188953  0.811047  1
  Y  Y6  1  0.560548  0.939452  0.560548  1
  Y  Y7  1  0.560548  0.560548  0.939452  1
  Y  Y8  1  0.791342  0.402886  0.402886  1
  Y  Y9  1  0.939452  0.939452  0.560548  1
  Y  Y10  1  0.402886  0.402886  0.402886  1
  Y  Y11  1  0.188953  0.811047  0.811047  1
  Y  Y12  1  0.402886  0.402886  0.791342  1
  Y  Y13  1  0.811047  0.188953  0.188953  1
  Y  Y14  1  0.939452  0.560548  0.560548  1
  Y  Y15  1  0.560548  0.939452  0.939452  1
  Cd  Cd16  1  0.170012  0.170012  0.489964  1
  Cd  Cd17  1  0.489964  0.170012  0.170012  1
  Cd  Cd18  1  0.170012  0.170012  0.170012  1
  Cd  Cd19  1  0.170012  0.489964  0.170012  1
  Ru  Ru20  1  0.610319  0.610319  0.169044  1
  Ru  Ru21  1  0.610319  0.169044  0.610319  1
  Ru  Ru22  1  0.169044  0.610319  0.610319  1
  Ru  Ru23  1  0.610319  0.610319  0.610319  1
