# generated using pymatgen
data_Sr25Cl52
_symmetry_space_group_name_H-M   'P 1'
_cell_length_a   8.65363687
_cell_length_b   13.23776204
_cell_length_c   20.64530728
_cell_angle_alpha   108.65260745
_cell_angle_beta   94.03264632
_cell_angle_gamma   96.25082510
_symmetry_Int_Tables_number   1
_chemical_formula_structural   Sr25Cl52
_chemical_formula_sum   'Sr25 Cl52'
_cell_volume   2213.54960658
_cell_formula_units_Z   1
loop_
 _symmetry_equiv_pos_site_id
 _symmetry_equiv_pos_as_xyz
  1  'x, y, z'
loop_
 _atom_site_type_symbol
 _atom_site_label
 _atom_site_symmetry_multiplicity
 _atom_site_fract_x
 _atom_site_fract_y
 _atom_site_fract_z
 _atom_site_occupancy
  Sr  Sr0  1  0.760023  0.600511  0.980060  1
  Sr  Sr1  1  0.839241  0.399002  0.819803  1
  Sr  Sr2  1  0.327916  0.199974  0.860628  1
  Sr  Sr3  1  0.440686  0.399429  0.620235  1
  Sr  Sr4  1  0.799784  0.000574  0.899827  1
  Sr  Sr5  1  0.911859  0.199871  0.659763  1
  Sr  Sr6  1  0.275645  0.796351  0.939127  1
  Sr  Sr7  1  0.037170  0.396556  0.422025  1
  Sr  Sr8  1  0.400793  0.001818  0.699815  1
  Sr  Sr9  1  0.518802  0.199986  0.457303  1
  Sr  Sr10  1  0.881887  0.796463  0.739788  1
  Sr  Sr11  1  0.642017  0.397172  0.219673  1
  Sr  Sr12  1  0.000000  0.000000  0.500000  1
  Sr  Sr13  1  0.357983  0.602828  0.780327  1
  Sr  Sr14  1  0.118113  0.203537  0.260212  1
  Sr  Sr15  1  0.481198  0.800014  0.542697  1
  Sr  Sr16  1  0.599207  0.998182  0.300185  1
  Sr  Sr17  1  0.239977  0.399489  0.019940  1
  Sr  Sr18  1  0.962830  0.603444  0.577975  1
  Sr  Sr19  1  0.088141  0.800129  0.340237  1
  Sr  Sr20  1  0.724355  0.203649  0.060873  1
  Sr  Sr21  1  0.559314  0.600571  0.379765  1
  Sr  Sr22  1  0.200216  0.999426  0.100173  1
  Sr  Sr23  1  0.672084  0.800026  0.139372  1
  Sr  Sr24  1  0.160759  0.600998  0.180197  1
  Cl  Cl25  1  0.890876  0.401234  0.969560  1
  Cl  Cl26  1  0.189504  0.400046  0.870132  1
  Cl  Cl27  1  0.485846  0.407009  0.770321  1
  Cl  Cl28  1  0.673417  0.200030  0.915758  1
  Cl  Cl29  1  0.981349  0.199919  0.811836  1
  Cl  Cl30  1  0.149346  0.000429  0.950040  1
  Cl  Cl31  1  0.444370  0.993009  0.852992  1
  Cl  Cl32  1  0.795599  0.407186  0.666859  1
  Cl  Cl33  1  0.090224  0.399859  0.570014  1
  Cl  Cl34  1  0.620187  0.200118  0.759860  1
  Cl  Cl35  1  0.566700  0.200128  0.604031  1
  Cl  Cl36  1  0.258570  0.200066  0.708158  1
  Cl  Cl37  1  0.929530  0.799726  0.890032  1
  Cl  Cl38  1  0.689885  0.399839  0.370099  1
  Cl  Cl39  1  0.050398  0.999954  0.649884  1
  Cl  Cl40  1  0.390172  0.400334  0.470004  1
  Cl  Cl41  1  0.754191  0.992922  0.749682  1
  Cl  Cl42  1  0.409792  0.599687  0.930002  1
  Cl  Cl43  1  0.529581  0.800187  0.690518  1
  Cl  Cl44  1  0.869841  0.199178  0.510324  1
  Cl  Cl45  1  0.169574  0.199891  0.409925  1
  Cl  Cl46  1  0.229565  0.800541  0.789275  1
  Cl  Cl47  1  0.650351  0.000365  0.449768  1
  Cl  Cl48  1  0.349649  0.999635  0.550232  1
  Cl  Cl49  1  0.289435  0.400257  0.169844  1
  Cl  Cl50  1  0.989689  0.400544  0.269850  1
  Cl  Cl51  1  0.010311  0.599456  0.730150  1
  Cl  Cl52  1  0.710565  0.599743  0.830156  1
  Cl  Cl53  1  0.770435  0.199459  0.210725  1
  Cl  Cl54  1  0.470419  0.199813  0.309482  1
  Cl  Cl55  1  0.130159  0.800822  0.489676  1
  Cl  Cl56  1  0.830426  0.800109  0.590075  1
  Cl  Cl57  1  0.949602  0.000046  0.350116  1
  Cl  Cl58  1  0.609828  0.599666  0.529996  1
  Cl  Cl59  1  0.245809  0.007078  0.250318  1
  Cl  Cl60  1  0.310115  0.600161  0.629901  1
  Cl  Cl61  1  0.590208  0.400313  0.069998  1
  Cl  Cl62  1  0.741430  0.799934  0.291842  1
  Cl  Cl63  1  0.433300  0.799872  0.395969  1
  Cl  Cl64  1  0.369088  0.200101  0.009964  1
  Cl  Cl65  1  0.070470  0.200274  0.109968  1
  Cl  Cl66  1  0.379813  0.799882  0.240140  1
  Cl  Cl67  1  0.204401  0.592814  0.333141  1
  Cl  Cl68  1  0.909776  0.600141  0.429986  1
  Cl  Cl69  1  0.850654  0.999571  0.049960  1
  Cl  Cl70  1  0.555630  0.006991  0.147008  1
  Cl  Cl71  1  0.326583  0.799970  0.084242  1
  Cl  Cl72  1  0.018651  0.800081  0.188164  1
  Cl  Cl73  1  0.810496  0.599954  0.129868  1
  Cl  Cl74  1  0.514154  0.592991  0.229679  1
  Cl  Cl75  1  0.630912  0.799899  0.990036  1
  Cl  Cl76  1  0.109124  0.598766  0.030440  1
