# generated using pymatgen
data_HgPb2(ClO)2
_symmetry_space_group_name_H-M   'P 1'
_cell_length_a   6.31572933
_cell_length_b   6.31572933
_cell_length_c   7.91108441
_cell_angle_alpha   59.38930872
_cell_angle_beta   120.61069128
_cell_angle_gamma   143.14819358
_symmetry_Int_Tables_number   1
_chemical_formula_structural   HgPb2(ClO)2
_chemical_formula_sum   'Hg1 Pb2 Cl2 O2'
_cell_volume   159.68762070
_cell_formula_units_Z   1
loop_
 _symmetry_equiv_pos_site_id
 _symmetry_equiv_pos_as_xyz
  1  'x, y, z'
loop_
 _atom_site_type_symbol
 _atom_site_label
 _atom_site_symmetry_multiplicity
 _atom_site_fract_x
 _atom_site_fract_y
 _atom_site_fract_z
 _atom_site_occupancy
  Hg  Hg0  1  0.000000  0.000000  0.500000  1
  Pb  Pb1  1  0.182725  0.817275  0.254824  1
  Pb  Pb2  1  0.817275  0.182725  0.745176  1
  Cl  Cl3  1  0.566682  0.433318  0.834100  1
  Cl  Cl4  1  0.433318  0.566682  0.165900  1
  O  O5  1  0.806588  0.193412  0.433287  1
  O  O6  1  0.193412  0.806588  0.566713  1
