# generated using pymatgen
data_KBi6IO9
_symmetry_space_group_name_H-M   'P 1'
_cell_length_a   15.26866175
_cell_length_b   15.26866175
_cell_length_c   15.26866175
_cell_angle_alpha   109.47122063
_cell_angle_beta   109.47122063
_cell_angle_gamma   109.47122063
_symmetry_Int_Tables_number   1
_chemical_formula_structural   KBi6IO9
_chemical_formula_sum   'K8 Bi48 I8 O72'
_cell_volume   2740.19223593
_cell_formula_units_Z   8
loop_
 _symmetry_equiv_pos_site_id
 _symmetry_equiv_pos_as_xyz
  1  'x, y, z'
loop_
 _atom_site_type_symbol
 _atom_site_label
 _atom_site_symmetry_multiplicity
 _atom_site_fract_x
 _atom_site_fract_y
 _atom_site_fract_z
 _atom_site_occupancy
  K  K0  1  1.000000  0.000000  0.500000  1
  K  K1  1  0.500000  0.500000  0.000000  1
  K  K2  1  0.500000  1.000000  0.500000  1
  K  K3  1  0.000000  0.000000  0.000000  1
  K  K4  1  1.000000  0.500000  0.500000  1
  K  K5  1  0.500000  0.500000  0.500000  1
  K  K6  1  0.500000  0.000000  0.000000  1
  K  K7  1  0.000000  0.500000  0.000000  1
  Bi  Bi8  1  0.750000  0.739511  0.989511  1
  Bi  Bi9  1  0.730410  0.769590  0.250000  1
  Bi  Bi10  1  0.250000  0.989511  0.739511  1
  Bi  Bi11  1  0.980410  0.519590  0.750000  1
  Bi  Bi12  1  0.250000  0.760489  0.510489  1
  Bi  Bi13  1  0.750000  0.269590  0.230410  1
  Bi  Bi14  1  0.760489  0.750000  0.510489  1
  Bi  Bi15  1  0.019590  0.039180  0.769590  1
  Bi  Bi16  1  0.230410  0.980410  0.960820  1
  Bi  Bi17  1  0.480410  0.730410  0.460820  1
  Bi  Bi18  1  0.010489  0.250000  0.260489  1
  Bi  Bi19  1  0.250000  0.489511  0.239511  1
  Bi  Bi20  1  0.269590  0.539180  0.519590  1
  Bi  Bi21  1  0.260489  0.750000  0.010489  1
  Bi  Bi22  1  0.519590  0.269590  0.539180  1
  Bi  Bi23  1  0.489511  0.239511  0.250000  1
  Bi  Bi24  1  0.989511  0.739511  0.250000  1
  Bi  Bi25  1  0.750000  0.239511  0.489511  1
  Bi  Bi26  1  0.750000  0.980410  0.519590  1
  Bi  Bi27  1  0.260489  0.010489  0.250000  1
  Bi  Bi28  1  0.269590  0.230410  0.750000  1
  Bi  Bi29  1  0.010489  0.260489  0.750000  1
  Bi  Bi30  1  0.519590  0.750000  0.980410  1
  Bi  Bi31  1  0.489511  0.750000  0.239511  1
  Bi  Bi32  1  0.250000  0.019590  0.480410  1
  Bi  Bi33  1  0.739511  0.989511  0.750000  1
  Bi  Bi34  1  0.019590  0.480410  0.250000  1
  Bi  Bi35  1  0.960820  0.230410  0.980410  1
  Bi  Bi36  1  0.230410  0.750000  0.269590  1
  Bi  Bi37  1  0.760489  0.510489  0.250000  1
  Bi  Bi38  1  0.989511  0.750000  0.739511  1
  Bi  Bi39  1  0.460820  0.480410  0.730410  1
  Bi  Bi40  1  0.510489  0.250000  0.760489  1
  Bi  Bi41  1  0.250000  0.730410  0.769590  1
  Bi  Bi42  1  0.769590  0.250000  0.730410  1
  Bi  Bi43  1  0.539180  0.519590  0.269590  1
  Bi  Bi44  1  0.239511  0.250000  0.489511  1
  Bi  Bi45  1  0.250000  0.260489  0.010489  1
  Bi  Bi46  1  0.039180  0.769590  0.019590  1
  Bi  Bi47  1  0.739511  0.250000  0.989511  1
  Bi  Bi48  1  0.750000  0.510489  0.760489  1
  Bi  Bi49  1  0.980410  0.960820  0.230410  1
  Bi  Bi50  1  0.480410  0.250000  0.019590  1
  Bi  Bi51  1  0.769590  0.019590  0.039180  1
  Bi  Bi52  1  0.239511  0.489511  0.750000  1
  Bi  Bi53  1  0.510489  0.760489  0.750000  1
  Bi  Bi54  1  0.750000  0.010489  0.260489  1
  Bi  Bi55  1  0.730410  0.460820  0.480410  1
  I  I56  1  0.500000  0.000000  0.250000  1
  I  I57  1  0.250000  0.500000  0.000000  1
  I  I58  1  0.750000  0.750000  0.750000  1
  I  I59  1  1.000000  0.250000  0.500000  1
  I  I60  1  0.500000  1.000000  0.750000  1
  I  I61  1  1.000000  0.750000  0.500000  1
  I  I62  1  0.750000  0.500000  0.000000  1
  I  I63  1  0.250000  0.250000  0.250000  1
  O  O64  1  0.144595  0.750000  0.355405  1
  O  O65  1  0.588138  0.435774  0.150585  1
  O  O66  1  0.652364  0.714811  0.064226  1
  O  O67  1  0.714811  0.064226  0.652364  1
  O  O68  1  0.855405  0.250000  0.644595  1
  O  O69  1  0.105405  0.394595  0.250000  1
  O  O70  1  0.650585  0.214811  0.562447  1
  O  O71  1  0.750000  0.894595  0.605405  1
  O  O72  1  0.894595  0.605405  0.750000  1
  O  O73  1  0.564226  0.214811  0.152364  1
  O  O74  1  0.588138  0.652364  0.437553  1
  O  O75  1  0.849415  0.411862  0.564226  1
  O  O76  1  0.088138  0.650585  0.935774  1
  O  O77  1  0.437553  0.588138  0.652364  1
  O  O78  1  0.411862  0.347636  0.562447  1
  O  O79  1  0.285189  0.849415  0.937553  1
  O  O80  1  0.062447  0.714811  0.150585  1
  O  O81  1  0.088138  0.937553  0.152364  1
  O  O82  1  0.150585  0.062447  0.714811  1
  O  O83  1  0.214811  0.562447  0.650585  1
  O  O84  1  0.710809  0.605405  0.355405  1
  O  O85  1  0.650585  0.935774  0.088138  1
  O  O86  1  0.564226  0.849415  0.411862  1
  O  O87  1  0.347636  0.562447  0.411862  1
  O  O88  1  0.894595  0.789191  0.144595  1
  O  O89  1  0.937553  0.152364  0.088138  1
  O  O90  1  0.750000  0.355405  0.144595  1
  O  O91  1  0.911862  0.349415  0.064226  1
  O  O92  1  0.411862  0.564226  0.849415  1
  O  O93  1  0.652364  0.437553  0.588138  1
  O  O94  1  0.105405  0.210809  0.855405  1
  O  O95  1  0.062447  0.847636  0.911862  1
  O  O96  1  0.064226  0.652364  0.714811  1
  O  O97  1  0.847636  0.435774  0.785189  1
  O  O98  1  0.935774  0.088138  0.650585  1
  O  O99  1  0.605405  0.750000  0.894595  1
  O  O100  1  0.714811  0.150585  0.062447  1
  O  O101  1  0.644595  0.855405  0.250000  1
  O  O102  1  0.064226  0.911862  0.349415  1
  O  O103  1  0.605405  0.355405  0.710809  1
  O  O104  1  0.855405  0.105405  0.210809  1
  O  O105  1  0.394595  0.644595  0.289191  1
  O  O106  1  0.935774  0.347636  0.285189  1
  O  O107  1  0.250000  0.105405  0.394595  1
  O  O108  1  0.847636  0.911862  0.062447  1
  O  O109  1  0.562447  0.650585  0.214811  1
  O  O110  1  0.214811  0.152364  0.564226  1
  O  O111  1  0.289191  0.394595  0.644595  1
  O  O112  1  0.210809  0.855405  0.105405  1
  O  O113  1  0.437553  0.349415  0.785189  1
  O  O114  1  0.150585  0.588138  0.435774  1
  O  O115  1  0.785189  0.437553  0.349415  1
  O  O116  1  0.911862  0.062447  0.847636  1
  O  O117  1  0.144595  0.894595  0.789191  1
  O  O118  1  0.849415  0.937553  0.285189  1
  O  O119  1  0.152364  0.564226  0.214811  1
  O  O120  1  0.355405  0.144595  0.750000  1
  O  O121  1  0.349415  0.064226  0.911862  1
  O  O122  1  0.355405  0.710809  0.605405  1
  O  O123  1  0.937553  0.285189  0.849415  1
  O  O124  1  0.394595  0.250000  0.105405  1
  O  O125  1  0.285189  0.935774  0.347636  1
  O  O126  1  0.347636  0.285189  0.935774  1
  O  O127  1  0.152364  0.088138  0.937553  1
  O  O128  1  0.435774  0.150585  0.588138  1
  O  O129  1  0.644595  0.289191  0.394595  1
  O  O130  1  0.250000  0.644595  0.855405  1
  O  O131  1  0.435774  0.785189  0.847636  1
  O  O132  1  0.562447  0.411862  0.347636  1
  O  O133  1  0.785189  0.847636  0.435774  1
  O  O134  1  0.349415  0.785189  0.437553  1
  O  O135  1  0.789191  0.144595  0.894595  1
