# generated using pymatgen
data_Ni5(Mo3Se4)8
_symmetry_space_group_name_H-M   'P 1'
_cell_length_a   6.83186964
_cell_length_b   6.83865784
_cell_length_c   27.24580265
_cell_angle_alpha   91.61176040
_cell_angle_beta   90.93565024
_cell_angle_gamma   90.78370749
_symmetry_Int_Tables_number   1
_chemical_formula_structural   Ni5(Mo3Se4)8
_chemical_formula_sum   'Ni5 Mo24 Se32'
_cell_volume   1272.14564788
_cell_formula_units_Z   1
loop_
 _symmetry_equiv_pos_site_id
 _symmetry_equiv_pos_as_xyz
  1  'x, y, z'
loop_
 _atom_site_type_symbol
 _atom_site_label
 _atom_site_symmetry_multiplicity
 _atom_site_fract_x
 _atom_site_fract_y
 _atom_site_fract_z
 _atom_site_occupancy
  Ni  Ni0  1  0.065321  0.502528  0.291251  1
  Ni  Ni1  1  0.498535  0.160874  0.015347  1
  Ni  Ni2  1  0.939623  0.496230  0.460092  1
  Ni  Ni3  1  0.842915  0.928043  0.874412  1
  Ni  Ni4  1  0.845377  0.931368  0.625184  1
  Mo  Mo5  1  0.242884  0.412247  0.888115  1
  Mo  Mo6  1  0.249108  0.412847  0.638374  1
  Mo  Mo7  1  0.217865  0.416892  0.384933  1
  Mo  Mo8  1  0.236922  0.416881  0.140090  1
  Mo  Mo9  1  0.429129  0.532217  0.807873  1
  Mo  Mo10  1  0.432051  0.536481  0.558452  1
  Mo  Mo11  1  0.462411  0.761638  0.894459  1
  Mo  Mo12  1  0.432175  0.554504  0.309364  1
  Mo  Mo13  1  0.467734  0.765671  0.645855  1
  Mo  Mo14  1  0.413441  0.541198  0.057430  1
  Mo  Mo15  1  0.449313  0.757486  0.396791  1
  Mo  Mo16  1  0.439002  0.767143  0.145601  1
  Mo  Mo17  1  0.555293  0.217754  0.854003  1
  Mo  Mo18  1  0.559226  0.218282  0.604810  1
  Mo  Mo19  1  0.585970  0.434249  0.940063  1
  Mo  Mo20  1  0.556118  0.240381  0.354481  1
  Mo  Mo21  1  0.592163  0.434372  0.690150  1
  Mo  Mo22  1  0.548188  0.230260  0.107673  1
  Mo  Mo23  1  0.573447  0.442493  0.441587  1
  Mo  Mo24  1  0.578985  0.455072  0.193159  1
  Mo  Mo25  1  0.776998  0.559303  0.861234  1
  Mo  Mo26  1  0.781464  0.562657  0.612188  1
  Mo  Mo27  1  0.786630  0.581241  0.366136  1
  Mo  Mo28  1  0.758826  0.580364  0.114317  1
  Se  Se29  1  0.129079  0.736460  0.846945  1
  Se  Se30  1  0.133935  0.739461  0.598792  1
  Se  Se31  1  0.125997  0.758252  0.348492  1
  Se  Se32  1  0.119546  0.733173  0.094369  1
  Se  Se33  1  0.231676  0.215043  0.806398  1
  Se  Se34  1  0.266935  0.621984  0.967486  1
  Se  Se35  1  0.237185  0.216540  0.557044  1
  Se  Se36  1  0.275349  0.620698  0.718700  1
  Se  Se37  1  0.229567  0.207548  0.306511  1
  Se  Se38  1  0.262410  0.620111  0.472108  1
  Se  Se39  1  0.205952  0.229569  0.056171  1
  Se  Se40  1  0.251497  0.622276  0.221033  1
  Se  Se41  1  0.372587  0.111413  0.934402  1
  Se  Se42  1  0.384660  0.120057  0.685130  1
  Se  Se43  1  0.367809  0.128575  0.432820  1
  Se  Se44  1  0.380623  0.127434  0.187101  1
  Se  Se45  1  0.616253  0.862802  0.810954  1
  Se  Se46  1  0.618502  0.867105  0.561672  1
  Se  Se47  1  0.635791  0.869707  0.318432  1
  Se  Se48  1  0.600859  0.875194  0.063755  1
  Se  Se49  1  0.746263  0.356563  0.780934  1
  Se  Se50  1  0.774541  0.765973  0.947125  1
  Se  Se51  1  0.756763  0.369590  0.529938  1
  Se  Se52  1  0.779708  0.767342  0.698285  1
  Se  Se53  1  0.743898  0.376585  0.279834  1
  Se  Se54  1  0.775780  0.791043  0.444536  1
  Se  Se55  1  0.749978  0.388902  0.030942  1
  Se  Se56  1  0.762401  0.781765  0.194392  1
  Se  Se57  1  0.888766  0.250212  0.906352  1
  Se  Se58  1  0.895149  0.252756  0.656563  1
  Se  Se59  1  0.879398  0.239642  0.402717  1
  Se  Se60  1  0.871227  0.263149  0.156498  1
