# generated using pymatgen
data_Fe7(PO4)6
_symmetry_space_group_name_H-M   'P 1'
_cell_length_a   6.44715916
_cell_length_b   8.06710286
_cell_length_c   9.43540209
_cell_angle_alpha   104.97769646
_cell_angle_beta   108.42212202
_cell_angle_gamma   101.44565274
_symmetry_Int_Tables_number   1
_chemical_formula_structural   Fe7(PO4)6
_chemical_formula_sum   'Fe7 P6 O24'
_cell_volume   428.24826546
_cell_formula_units_Z   1
loop_
 _symmetry_equiv_pos_site_id
 _symmetry_equiv_pos_as_xyz
  1  'x, y, z'
loop_
 _atom_site_type_symbol
 _atom_site_label
 _atom_site_symmetry_multiplicity
 _atom_site_fract_x
 _atom_site_fract_y
 _atom_site_fract_z
 _atom_site_occupancy
  Fe  Fe0  1  0.044699  0.724172  0.029942  1
  Fe  Fe1  1  0.955301  0.275828  0.970058  1
  Fe  Fe2  1  0.385056  0.453723  0.614350  1
  Fe  Fe3  1  0.614944  0.546277  0.385650  1
  Fe  Fe4  1  0.281793  0.810978  0.788279  1
  Fe  Fe5  1  0.718207  0.189022  0.211721  1
  Fe  Fe6  1  0.000000  0.000000  0.500000  1
  P  P7  1  0.601567  0.769872  0.132018  1
  P  P8  1  0.398433  0.230128  0.867982  1
  P  P9  1  0.090725  0.593909  0.332676  1
  P  P10  1  0.909275  0.406091  0.667324  1
  P  P11  1  0.770882  0.848552  0.731144  1
  P  P12  1  0.229118  0.151448  0.268856  1
  O  O13  1  0.368014  0.765740  0.010033  1
  O  O14  1  0.631986  0.234260  0.989967  1
  O  O15  1  0.749545  0.722637  0.038412  1
  O  O16  1  0.250455  0.277363  0.961588  1
  O  O17  1  0.551043  0.634553  0.214370  1
  O  O18  1  0.448957  0.365447  0.785630  1
  O  O19  1  0.724397  0.960861  0.262689  1
  O  O20  1  0.275603  0.039139  0.737311  1
  O  O21  1  0.063908  0.550293  0.154442  1
  O  O22  1  0.936092  0.449707  0.845558  1
  O  O23  1  0.307481  0.539752  0.415618  1
  O  O24  1  0.692519  0.460248  0.584382  1
  O  O25  1  0.113146  0.786926  0.416715  1
  O  O26  1  0.886854  0.213074  0.583285  1
  O  O27  1  0.876198  0.466654  0.337586  1
  O  O28  1  0.123802  0.533346  0.662414  1
  O  O29  1  0.544025  0.730910  0.726007  1
  O  O30  1  0.455975  0.269090  0.273993  1
  O  O31  1  0.790453  0.046829  0.794099  1
  O  O32  1  0.209547  0.953171  0.205901  1
  O  O33  1  0.773096  0.798678  0.559300  1
  O  O34  1  0.226904  0.201322  0.440700  1
  O  O35  1  0.979385  0.809238  0.841877  1
  O  O36  1  0.020615  0.190762  0.158123  1
