# generated using pymatgen
data_K2Na(B3O5)3
_symmetry_space_group_name_H-M   'P 1'
_cell_length_a   9.21396453
_cell_length_b   6.70760652
_cell_length_c   20.92673133
_cell_angle_alpha   90.00000000
_cell_angle_beta   94.08052527
_cell_angle_gamma   90.00000000
_symmetry_Int_Tables_number   1
_chemical_formula_structural   K2Na(B3O5)3
_chemical_formula_sum   'K8 Na4 B36 O60'
_cell_volume   1290.06974524
_cell_formula_units_Z   4
loop_
 _symmetry_equiv_pos_site_id
 _symmetry_equiv_pos_as_xyz
  1  'x, y, z'
loop_
 _atom_site_type_symbol
 _atom_site_label
 _atom_site_symmetry_multiplicity
 _atom_site_fract_x
 _atom_site_fract_y
 _atom_site_fract_z
 _atom_site_occupancy
  K  K0  1  0.411044  0.813966  0.880546  1
  K  K1  1  0.778416  0.303513  0.466988  1
  K  K2  1  0.588956  0.313966  0.619454  1
  K  K3  1  0.588956  0.186034  0.119454  1
  K  K4  1  0.778416  0.196487  0.966988  1
  K  K5  1  0.411044  0.686034  0.380546  1
  K  K6  1  0.221584  0.803513  0.033012  1
  K  K7  1  0.221584  0.696487  0.533012  1
  Na  Na8  1  0.065070  0.487331  0.754342  1
  Na  Na9  1  0.934930  0.987331  0.745658  1
  Na  Na10  1  0.934930  0.512669  0.245658  1
  Na  Na11  1  0.065070  0.012669  0.254342  1
  B  B12  1  0.245678  0.256375  0.076801  1
  B  B13  1  0.804198  0.929371  0.325201  1
  B  B14  1  0.324589  0.249108  0.965490  1
  B  B15  1  0.509851  0.717293  0.124465  1
  B  B16  1  0.153701  0.005566  0.411442  1
  B  B17  1  0.887301  0.642339  0.610331  1
  B  B18  1  0.651071  0.221022  0.284526  1
  B  B19  1  0.586207  0.962917  0.722112  1
  B  B20  1  0.348929  0.778978  0.715474  1
  B  B21  1  0.112699  0.357661  0.389669  1
  B  B22  1  0.754322  0.756375  0.423199  1
  B  B23  1  0.413793  0.037083  0.277888  1
  B  B24  1  0.651071  0.278978  0.784526  1
  B  B25  1  0.675411  0.750892  0.034510  1
  B  B26  1  0.846299  0.994434  0.588558  1
  B  B27  1  0.348929  0.721022  0.215474  1
  B  B28  1  0.846299  0.505566  0.088558  1
  B  B29  1  0.006639  0.299899  0.624257  1
  B  B30  1  0.195802  0.070629  0.674799  1
  B  B31  1  0.675411  0.749108  0.534510  1
  B  B32  1  0.993361  0.799899  0.875743  1
  B  B33  1  0.324589  0.250892  0.465490  1
  B  B34  1  0.804198  0.570629  0.825201  1
  B  B35  1  0.754322  0.743625  0.923199  1
  B  B36  1  0.413793  0.462917  0.777888  1
  B  B37  1  0.153701  0.494434  0.911442  1
  B  B38  1  0.509851  0.782707  0.624465  1
  B  B39  1  0.112699  0.142339  0.889669  1
  B  B40  1  0.490149  0.217293  0.375535  1
  B  B41  1  0.586207  0.537083  0.222112  1
  B  B42  1  0.006639  0.200101  0.124257  1
  B  B43  1  0.993361  0.700101  0.375743  1
  B  B44  1  0.245678  0.243625  0.576801  1
  B  B45  1  0.887301  0.857661  0.110331  1
  B  B46  1  0.195802  0.429371  0.174799  1
  B  B47  1  0.490149  0.282707  0.875535  1
  O  O48  1  0.968481  0.997269  0.144780  1
  O  O49  1  0.224579  0.095917  0.933448  1
  O  O50  1  0.652910  0.791926  0.965619  1
  O  O51  1  0.533526  0.769943  0.062937  1
  O  O52  1  0.386840  0.102822  0.339604  1
  O  O53  1  0.613387  0.218344  0.849208  1
  O  O54  1  0.386613  0.781656  0.150792  1
  O  O55  1  0.261436  0.451286  0.957662  1
  O  O56  1  0.613160  0.897178  0.660396  1
  O  O57  1  0.290790  0.116210  0.627348  1
  O  O58  1  0.738564  0.951286  0.542338  1
  O  O59  1  0.738564  0.548714  0.042338  1
  O  O60  1  0.613387  0.281656  0.349208  1
  O  O61  1  0.782653  0.091521  0.286983  1
  O  O62  1  0.533526  0.730057  0.562937  1
  O  O63  1  0.685428  0.398732  0.246630  1
  O  O64  1  0.031519  0.002731  0.855220  1
  O  O65  1  0.347090  0.291926  0.534381  1
  O  O66  1  0.922694  0.694964  0.818106  1
  O  O67  1  0.782653  0.408479  0.786983  1
  O  O68  1  0.290790  0.383790  0.127348  1
  O  O69  1  0.876600  0.308598  0.099000  1
  O  O70  1  0.224579  0.404083  0.433448  1
  O  O71  1  0.466474  0.269943  0.437063  1
  O  O72  1  0.652910  0.708074  0.465619  1
  O  O73  1  0.075430  0.156483  0.377594  1
  O  O74  1  0.968481  0.502731  0.644780  1
  O  O75  1  0.217347  0.591521  0.213017  1
  O  O76  1  0.123400  0.808598  0.401000  1
  O  O77  1  0.530475  0.392233  0.748675  1
  O  O78  1  0.613160  0.602822  0.160396  1
  O  O79  1  0.108059  0.319688  0.572444  1
  O  O80  1  0.709210  0.883790  0.372652  1
  O  O81  1  0.924570  0.656483  0.122406  1
  O  O82  1  0.685428  0.101268  0.746630  1
  O  O83  1  0.077306  0.305036  0.181894  1
  O  O84  1  0.891941  0.819688  0.927556  1
  O  O85  1  0.466474  0.230057  0.937063  1
  O  O86  1  0.314572  0.601268  0.753370  1
  O  O87  1  0.924570  0.843517  0.622406  1
  O  O88  1  0.314572  0.898732  0.253370  1
  O  O89  1  0.530475  0.107767  0.248675  1
  O  O90  1  0.775421  0.595917  0.566552  1
  O  O91  1  0.386613  0.718344  0.650792  1
  O  O92  1  0.469525  0.607767  0.251325  1
  O  O93  1  0.261436  0.048714  0.457662  1
  O  O94  1  0.386840  0.397178  0.839604  1
  O  O95  1  0.031519  0.497269  0.355220  1
  O  O96  1  0.775421  0.904083  0.066552  1
  O  O97  1  0.108059  0.180312  0.072444  1
  O  O98  1  0.217347  0.908479  0.713017  1
  O  O99  1  0.876600  0.191402  0.599000  1
  O  O100  1  0.891941  0.680312  0.427556  1
  O  O101  1  0.709210  0.616210  0.872652  1
  O  O102  1  0.469525  0.892233  0.751325  1
  O  O103  1  0.077306  0.194964  0.681894  1
  O  O104  1  0.347090  0.208074  0.034381  1
  O  O105  1  0.922694  0.805036  0.318106  1
  O  O106  1  0.075430  0.343517  0.877594  1
  O  O107  1  0.123400  0.691402  0.901000  1
