# generated using pymatgen
data_Y(BH4)3
_symmetry_space_group_name_H-M   'P 1'
_cell_length_a   10.87267381
_cell_length_b   10.87267381
_cell_length_c   10.87267381
_cell_angle_alpha   90.00000000
_cell_angle_beta   90.00000000
_cell_angle_gamma   90.00000000
_symmetry_Int_Tables_number   1
_chemical_formula_structural   Y(BH4)3
_chemical_formula_sum   'Y8 B24 H96'
_cell_volume   1285.31352346
_cell_formula_units_Z   8
loop_
 _symmetry_equiv_pos_site_id
 _symmetry_equiv_pos_as_xyz
  1  'x, y, z'
loop_
 _atom_site_type_symbol
 _atom_site_label
 _atom_site_symmetry_multiplicity
 _atom_site_fract_x
 _atom_site_fract_y
 _atom_site_fract_z
 _atom_site_occupancy
  Y  Y0  1  0.783075  0.716925  0.283075  1
  Y  Y1  1  0.716925  0.216925  0.283075  1
  Y  Y2  1  0.283075  0.716925  0.216925  1
  Y  Y3  1  0.216925  0.216925  0.216925  1
  Y  Y4  1  0.216925  0.283075  0.716925  1
  Y  Y5  1  0.283075  0.783075  0.716925  1
  Y  Y6  1  0.783075  0.783075  0.783075  1
  Y  Y7  1  0.716925  0.283075  0.783075  1
  B  B8  1  0.252559  0.032790  0.692164  1
  B  B9  1  0.247441  0.967210  0.192164  1
  B  B10  1  0.252559  0.467210  0.192164  1
  B  B11  1  0.467210  0.307836  0.752559  1
  B  B12  1  0.807836  0.747441  0.532790  1
  B  B13  1  0.032790  0.807836  0.752559  1
  B  B14  1  0.747441  0.967210  0.307836  1
  B  B15  1  0.032790  0.692164  0.252559  1
  B  B16  1  0.752559  0.467210  0.307836  1
  B  B17  1  0.967210  0.307836  0.747441  1
  B  B18  1  0.247441  0.532790  0.692164  1
  B  B19  1  0.532790  0.807836  0.747441  1
  B  B20  1  0.692164  0.247441  0.532790  1
  B  B21  1  0.967210  0.192164  0.247441  1
  B  B22  1  0.192164  0.252559  0.467210  1
  B  B23  1  0.747441  0.532790  0.807836  1
  B  B24  1  0.192164  0.247441  0.967210  1
  B  B25  1  0.532790  0.692164  0.247441  1
  B  B26  1  0.307836  0.747441  0.967210  1
  B  B27  1  0.307836  0.752559  0.467210  1
  B  B28  1  0.692164  0.252559  0.032790  1
  B  B29  1  0.467210  0.192164  0.252559  1
  B  B30  1  0.807836  0.752559  0.032790  1
  B  B31  1  0.752559  0.032790  0.807836  1
  H  H32  1  0.275198  0.533645  0.103292  1
  H  H33  1  0.337398  0.107030  0.701305  1
  H  H34  1  0.918735  0.326230  0.847831  1
  H  H35  1  0.326230  0.847831  0.918735  1
  H  H36  1  0.826230  0.652169  0.081265  1
  H  H37  1  0.746151  0.523423  0.209905  1
  H  H38  1  0.081265  0.673770  0.152169  1
  H  H39  1  0.724802  0.466355  0.896708  1
  H  H40  1  0.724802  0.033645  0.396708  1
  H  H41  1  0.162602  0.892970  0.201305  1
  H  H42  1  0.918735  0.173770  0.347831  1
  H  H43  1  0.701305  0.162602  0.607030  1
  H  H44  1  0.673770  0.152169  0.081265  1
  H  H45  1  0.081265  0.826230  0.652169  1
  H  H46  1  0.418735  0.326230  0.652169  1
  H  H47  1  0.246151  0.523423  0.290095  1
  H  H48  1  0.290095  0.253849  0.023423  1
  H  H49  1  0.107030  0.701305  0.337398  1
  H  H50  1  0.347831  0.581265  0.673770  1
  H  H51  1  0.790095  0.246151  0.976577  1
  H  H52  1  0.290095  0.246151  0.523423  1
  H  H53  1  0.896708  0.724802  0.466355  1
  H  H54  1  0.396708  0.724802  0.033645  1
  H  H55  1  0.798695  0.837398  0.107030  1
  H  H56  1  0.607030  0.798695  0.662602  1
  H  H57  1  0.753849  0.023423  0.209905  1
  H  H58  1  0.476577  0.790095  0.253849  1
  H  H59  1  0.523423  0.290095  0.246151  1
  H  H60  1  0.152169  0.081265  0.673770  1
  H  H61  1  0.162602  0.607030  0.701305  1
  H  H62  1  0.246151  0.976577  0.790095  1
  H  H63  1  0.152169  0.418735  0.173770  1
  H  H64  1  0.533645  0.396708  0.775198  1
  H  H65  1  0.201305  0.337398  0.392970  1
  H  H66  1  0.253849  0.476577  0.790095  1
  H  H67  1  0.701305  0.337398  0.107030  1
  H  H68  1  0.652169  0.081265  0.826230  1
  H  H69  1  0.837398  0.107030  0.798695  1
  H  H70  1  0.966355  0.896708  0.775198  1
  H  H71  1  0.326230  0.652169  0.418735  1
  H  H72  1  0.775198  0.533645  0.396708  1
  H  H73  1  0.753849  0.476577  0.709905  1
  H  H74  1  0.523423  0.209905  0.746151  1
  H  H75  1  0.581265  0.673770  0.347831  1
  H  H76  1  0.662602  0.892970  0.298695  1
  H  H77  1  0.253849  0.023423  0.290095  1
  H  H78  1  0.533645  0.103292  0.275198  1
  H  H79  1  0.466355  0.896708  0.724802  1
  H  H80  1  0.603292  0.275198  0.966355  1
  H  H81  1  0.709905  0.746151  0.976577  1
  H  H82  1  0.892970  0.201305  0.162602  1
  H  H83  1  0.224802  0.466355  0.603292  1
  H  H84  1  0.662602  0.607030  0.798695  1
  H  H85  1  0.033645  0.103292  0.224802  1
  H  H86  1  0.107030  0.798695  0.837398  1
  H  H87  1  0.847831  0.918735  0.326230  1
  H  H88  1  0.603292  0.224802  0.466355  1
  H  H89  1  0.103292  0.224802  0.033645  1
  H  H90  1  0.775198  0.966355  0.896708  1
  H  H91  1  0.709905  0.753849  0.476577  1
  H  H92  1  0.847831  0.581265  0.826230  1
  H  H93  1  0.392970  0.201305  0.337398  1
  H  H94  1  0.798695  0.662602  0.607030  1
  H  H95  1  0.418735  0.173770  0.152169  1
  H  H96  1  0.966355  0.603292  0.275198  1
  H  H97  1  0.023423  0.290095  0.253849  1
  H  H98  1  0.023423  0.209905  0.753849  1
  H  H99  1  0.201305  0.162602  0.892970  1
  H  H100  1  0.396708  0.775198  0.533645  1
  H  H101  1  0.976577  0.790095  0.246151  1
  H  H102  1  0.746151  0.976577  0.709905  1
  H  H103  1  0.652169  0.418735  0.326230  1
  H  H104  1  0.581265  0.826230  0.847831  1
  H  H105  1  0.298695  0.662602  0.892970  1
  H  H106  1  0.103292  0.275198  0.533645  1
  H  H107  1  0.298695  0.837398  0.392970  1
  H  H108  1  0.826230  0.847831  0.581265  1
  H  H109  1  0.790095  0.253849  0.476577  1
  H  H110  1  0.466355  0.603292  0.224802  1
  H  H111  1  0.209905  0.753849  0.023423  1
  H  H112  1  0.976577  0.709905  0.746151  1
  H  H113  1  0.607030  0.701305  0.162602  1
  H  H114  1  0.224802  0.033645  0.103292  1
  H  H115  1  0.209905  0.746151  0.523423  1
  H  H116  1  0.347831  0.918735  0.173770  1
  H  H117  1  0.392970  0.298695  0.837398  1
  H  H118  1  0.892970  0.298695  0.662602  1
  H  H119  1  0.476577  0.709905  0.753849  1
  H  H120  1  0.275198  0.966355  0.603292  1
  H  H121  1  0.837398  0.392970  0.298695  1
  H  H122  1  0.173770  0.347831  0.918735  1
  H  H123  1  0.673770  0.347831  0.581265  1
  H  H124  1  0.896708  0.775198  0.966355  1
  H  H125  1  0.173770  0.152169  0.418735  1
  H  H126  1  0.337398  0.392970  0.201305  1
  H  H127  1  0.033645  0.396708  0.724802  1
