# generated using pymatgen
data_MoOF4
_symmetry_space_group_name_H-M   'P 1'
_cell_length_a   5.65044789
_cell_length_b   17.86693946
_cell_length_c   8.19136311
_cell_angle_alpha   90.00000000
_cell_angle_beta   91.38549337
_cell_angle_gamma   90.00000000
_symmetry_Int_Tables_number   1
_chemical_formula_structural   MoOF4
_chemical_formula_sum   'Mo8 O8 F32'
_cell_volume   826.72720847
_cell_formula_units_Z   8
loop_
 _symmetry_equiv_pos_site_id
 _symmetry_equiv_pos_as_xyz
  1  'x, y, z'
loop_
 _atom_site_type_symbol
 _atom_site_label
 _atom_site_symmetry_multiplicity
 _atom_site_fract_x
 _atom_site_fract_y
 _atom_site_fract_z
 _atom_site_occupancy
  Mo  Mo0  1  0.741785  0.641498  0.515723  1
  Mo  Mo1  1  0.258215  0.141498  0.984277  1
  Mo  Mo2  1  0.258215  0.358502  0.484277  1
  Mo  Mo3  1  0.741785  0.858502  0.015723  1
  Mo  Mo4  1  0.259215  0.611580  0.899524  1
  Mo  Mo5  1  0.740785  0.111580  0.600476  1
  Mo  Mo6  1  0.740785  0.388420  0.100476  1
  Mo  Mo7  1  0.259215  0.888420  0.399524  1
  O  O8  1  0.563387  0.637324  0.348713  1
  O  O9  1  0.436613  0.137324  0.151287  1
  O  O10  1  0.436613  0.362676  0.651287  1
  O  O11  1  0.563387  0.862676  0.848713  1
  O  O12  1  0.096530  0.579694  0.054064  1
  O  O13  1  0.903470  0.079694  0.445936  1
  O  O14  1  0.903470  0.420306  0.945936  1
  O  O15  1  0.096530  0.920306  0.554064  1
  F  F16  1  0.305549  0.787909  0.458196  1
  F  F17  1  0.694451  0.287909  0.041804  1
  F  F18  1  0.694451  0.212091  0.541804  1
  F  F19  1  0.305549  0.712091  0.958196  1
  F  F20  1  0.261417  0.971272  0.258467  1
  F  F21  1  0.738583  0.471272  0.241533  1
  F  F22  1  0.738583  0.028728  0.741533  1
  F  F23  1  0.261417  0.528728  0.758467  1
  F  F24  1  0.563406  0.913405  0.477184  1
  F  F25  1  0.436594  0.413405  0.022816  1
  F  F26  1  0.436594  0.086595  0.522816  1
  F  F27  1  0.563406  0.586595  0.977184  1
  F  F28  1  0.005418  0.850846  0.254617  1
  F  F29  1  0.994582  0.350846  0.245383  1
  F  F30  1  0.994582  0.149154  0.745383  1
  F  F31  1  0.005418  0.649154  0.754617  1
  F  F32  1  0.798544  0.755353  0.037188  1
  F  F33  1  0.201456  0.255353  0.462812  1
  F  F34  1  0.201456  0.244647  0.962812  1
  F  F35  1  0.798544  0.744647  0.537188  1
  F  F36  1  0.745368  0.957914  0.089398  1
  F  F37  1  0.254632  0.457914  0.410602  1
  F  F38  1  0.254632  0.042086  0.910602  1
  F  F39  1  0.745368  0.542086  0.589398  1
  F  F40  1  0.036289  0.871672  0.921108  1
  F  F41  1  0.963711  0.371672  0.578892  1
  F  F42  1  0.963711  0.128328  0.078892  1
  F  F43  1  0.036289  0.628328  0.421108  1
  F  F44  1  0.502287  0.843055  0.182401  1
  F  F45  1  0.497713  0.343055  0.317599  1
  F  F46  1  0.497713  0.156945  0.817599  1
  F  F47  1  0.502287  0.656945  0.682401  1
