# generated using pymatgen
data_Ga
_symmetry_space_group_name_H-M   'P 1'
_cell_length_a   8.67872348
_cell_length_b   8.67872348
_cell_length_c   5.27563170
_cell_angle_alpha   90.00000000
_cell_angle_beta   90.00000000
_cell_angle_gamma   104.27256386
_symmetry_Int_Tables_number   1
_chemical_formula_structural   Ga
_chemical_formula_sum   Ga20
_cell_volume   385.09684023
_cell_formula_units_Z   20
loop_
 _symmetry_equiv_pos_site_id
 _symmetry_equiv_pos_as_xyz
  1  'x, y, z'
loop_
 _atom_site_type_symbol
 _atom_site_label
 _atom_site_symmetry_multiplicity
 _atom_site_fract_x
 _atom_site_fract_y
 _atom_site_fract_z
 _atom_site_occupancy
  Ga  Ga0  1  0.328379  0.226486  0.750000  1
  Ga  Ga1  1  0.606967  0.393033  0.497386  1
  Ga  Ga2  1  0.671621  0.773514  0.250000  1
  Ga  Ga3  1  0.911665  0.633188  0.250000  1
  Ga  Ga4  1  0.331826  0.919343  0.750000  1
  Ga  Ga5  1  0.668174  0.080657  0.250000  1
  Ga  Ga6  1  0.080657  0.668174  0.750000  1
  Ga  Ga7  1  0.000528  0.999472  0.750000  1
  Ga  Ga8  1  0.088335  0.366812  0.750000  1
  Ga  Ga9  1  0.366812  0.088335  0.250000  1
  Ga  Ga10  1  0.606967  0.393033  0.002614  1
  Ga  Ga11  1  0.214029  0.785971  0.250000  1
  Ga  Ga12  1  0.226486  0.328379  0.250000  1
  Ga  Ga13  1  0.785971  0.214029  0.750000  1
  Ga  Ga14  1  0.393033  0.606967  0.997386  1
  Ga  Ga15  1  0.919343  0.331826  0.250000  1
  Ga  Ga16  1  0.999472  0.000528  0.250000  1
  Ga  Ga17  1  0.773514  0.671621  0.750000  1
  Ga  Ga18  1  0.393033  0.606967  0.502614  1
  Ga  Ga19  1  0.633188  0.911665  0.750000  1
