# generated using pymatgen
data_HoCoSi
_symmetry_space_group_name_H-M   'P 1'
_cell_length_a   4.17832997
_cell_length_b   6.87221711
_cell_length_c   6.88214400
_cell_angle_alpha   90.00000000
_cell_angle_beta   90.00000000
_cell_angle_gamma   90.00000000
_symmetry_Int_Tables_number   1
_chemical_formula_structural   HoCoSi
_chemical_formula_sum   'Ho4 Co4 Si4'
_cell_volume   197.61657175
_cell_formula_units_Z   4
loop_
 _symmetry_equiv_pos_site_id
 _symmetry_equiv_pos_as_xyz
  1  'x, y, z'
loop_
 _atom_site_type_symbol
 _atom_site_label
 _atom_site_symmetry_multiplicity
 _atom_site_fract_x
 _atom_site_fract_y
 _atom_site_fract_z
 _atom_site_occupancy
  Ho  Ho0  1  0.250000  0.187656  0.981684  1
  Ho  Ho1  1  0.750000  0.812344  0.018316  1
  Ho  Ho2  1  0.250000  0.312344  0.481684  1
  Ho  Ho3  1  0.750000  0.687656  0.518316  1
  Co  Co4  1  0.250000  0.565692  0.145115  1
  Co  Co5  1  0.750000  0.434308  0.854885  1
  Co  Co6  1  0.250000  0.934308  0.645115  1
  Co  Co7  1  0.750000  0.065692  0.354885  1
  Si  Si8  1  0.250000  0.606977  0.805176  1
  Si  Si9  1  0.750000  0.393023  0.194824  1
  Si  Si10  1  0.250000  0.893023  0.305176  1
  Si  Si11  1  0.750000  0.106977  0.694824  1
