# generated using pymatgen
data_Cs2Al(NO3)5
_symmetry_space_group_name_H-M   'P 1'
_cell_length_a   11.29777716
_cell_length_b   11.29777716
_cell_length_c   10.17580290
_cell_angle_alpha   90.00000000
_cell_angle_beta   90.00000000
_cell_angle_gamma   120.00000000
_symmetry_Int_Tables_number   1
_chemical_formula_structural   Cs2Al(NO3)5
_chemical_formula_sum   'Cs6 Al3 N15 O45'
_cell_volume   1124.82594964
_cell_formula_units_Z   3
loop_
 _symmetry_equiv_pos_site_id
 _symmetry_equiv_pos_as_xyz
  1  'x, y, z'
loop_
 _atom_site_type_symbol
 _atom_site_label
 _atom_site_symmetry_multiplicity
 _atom_site_fract_x
 _atom_site_fract_y
 _atom_site_fract_z
 _atom_site_occupancy
  Cs  Cs0  1  0.000000  0.705006  0.666667  1
  Cs  Cs1  1  0.457996  0.457996  0.500000  1
  Cs  Cs2  1  0.000000  0.542004  0.166667  1
  Cs  Cs3  1  0.705006  0.000000  0.333333  1
  Cs  Cs4  1  0.542004  0.000000  0.833333  1
  Cs  Cs5  1  0.294994  0.294994  0.000000  1
  Al  Al6  1  0.686091  0.686091  0.000000  1
  Al  Al7  1  0.313909  0.000000  0.333333  1
  Al  Al8  1  0.000000  0.313909  0.666667  1
  N  N9  1  0.747379  0.654671  0.273156  1
  N  N10  1  0.252621  0.907292  0.060178  1
  N  N11  1  0.757320  0.316383  0.578813  1
  N  N12  1  0.900304  0.900304  0.000000  1
  N  N13  1  0.316383  0.757320  0.421187  1
  N  N14  1  0.099696  0.000000  0.333333  1
  N  N15  1  0.242680  0.559062  0.754521  1
  N  N16  1  0.345329  0.092708  0.606489  1
  N  N17  1  0.440938  0.683617  0.087854  1
  N  N18  1  0.092708  0.345329  0.393511  1
  N  N19  1  0.654671  0.747379  0.726844  1
  N  N20  1  0.683617  0.440938  0.912146  1
  N  N21  1  0.000000  0.099696  0.666667  1
  N  N22  1  0.907292  0.252621  0.939822  1
  N  N23  1  0.559062  0.242680  0.245479  1
  O  O24  1  0.188837  0.377241  0.316233  1
  O  O25  1  0.124014  0.362078  0.520768  1
  O  O26  1  0.489628  0.107808  0.263699  1
  O  O27  1  0.008092  0.008092  0.000000  1
  O  O28  1  0.207972  0.088485  0.269779  1
  O  O29  1  0.610749  0.315828  0.901079  1
  O  O30  1  0.088485  0.207972  0.730221  1
  O  O31  1  0.300611  0.971902  0.640839  1
  O  O32  1  0.328709  0.028098  0.025828  1
  O  O33  1  0.362078  0.124014  0.479232  1
  O  O34  1  0.315828  0.610749  0.098921  1
  O  O35  1  0.892192  0.381820  0.597032  1
  O  O36  1  0.637922  0.761936  0.854101  1
  O  O37  1  0.618180  0.510372  0.930366  1
  O  O38  1  0.811597  0.622759  0.350434  1
  O  O39  1  0.377241  0.188837  0.683767  1
  O  O40  1  0.381820  0.892192  0.402968  1
  O  O41  1  0.107808  0.489628  0.736301  1
  O  O42  1  0.971902  0.300611  0.359161  1
  O  O43  1  0.119487  0.911515  0.396888  1
  O  O44  1  0.761936  0.637922  0.145899  1
  O  O45  1  0.810702  0.504739  0.906141  1
  O  O46  1  0.694037  0.189298  0.572808  1
  O  O47  1  0.189298  0.694037  0.427192  1
  O  O48  1  0.699389  0.671291  0.692494  1
  O  O49  1  0.880513  0.792028  0.936445  1
  O  O50  1  0.238064  0.875986  0.187435  1
  O  O51  1  0.294922  0.684172  0.765588  1
  O  O52  1  0.671291  0.699389  0.307506  1
  O  O53  1  0.705078  0.389251  0.567745  1
  O  O54  1  0.510372  0.618180  0.069634  1
  O  O55  1  0.622759  0.811597  0.649566  1
  O  O56  1  0.811163  0.188403  0.017100  1
  O  O57  1  0.000000  0.991908  0.666667  1
  O  O58  1  0.389251  0.705078  0.432255  1
  O  O59  1  0.504739  0.810702  0.093859  1
  O  O60  1  0.875986  0.238064  0.812565  1
  O  O61  1  0.305963  0.495261  0.760525  1
  O  O62  1  0.792028  0.880513  0.063555  1
  O  O63  1  0.188403  0.811163  0.982900  1
  O  O64  1  0.911515  0.119487  0.603112  1
  O  O65  1  0.495261  0.305963  0.239475  1
  O  O66  1  0.684172  0.294922  0.234412  1
  O  O67  1  0.991908  0.000000  0.333333  1
  O  O68  1  0.028098  0.328709  0.974172  1
