# generated using pymatgen
data_LuNiGe
_symmetry_space_group_name_H-M   'P 1'
_cell_length_a   11.18535403
_cell_length_b   11.18535403
_cell_length_c   9.16136765
_cell_angle_alpha   90.00000000
_cell_angle_beta   90.00000000
_cell_angle_gamma   158.75362119
_symmetry_Int_Tables_number   1
_chemical_formula_structural   LuNiGe
_chemical_formula_sum   'Lu8 Ni8 Ge8'
_cell_volume   415.35836619
_cell_formula_units_Z   8
loop_
 _symmetry_equiv_pos_site_id
 _symmetry_equiv_pos_as_xyz
  1  'x, y, z'
loop_
 _atom_site_type_symbol
 _atom_site_label
 _atom_site_symmetry_multiplicity
 _atom_site_fract_x
 _atom_site_fract_y
 _atom_site_fract_z
 _atom_site_occupancy
  Lu  Lu0  1  0.115038  0.884962  0.250000  1
  Lu  Lu1  1  0.583329  0.416671  0.559609  1
  Lu  Lu2  1  0.725811  0.274189  0.750000  1
  Lu  Lu3  1  0.416671  0.583329  0.440391  1
  Lu  Lu4  1  0.416671  0.583329  0.059609  1
  Lu  Lu5  1  0.274189  0.725811  0.250000  1
  Lu  Lu6  1  0.884962  0.115038  0.750000  1
  Lu  Lu7  1  0.583329  0.416671  0.940391  1
  Ni  Ni8  1  0.028052  0.971948  0.750000  1
  Ni  Ni9  1  0.809274  0.190726  0.482662  1
  Ni  Ni10  1  0.190726  0.809274  0.982662  1
  Ni  Ni11  1  0.971948  0.028052  0.250000  1
  Ni  Ni12  1  0.809274  0.190726  0.017338  1
  Ni  Ni13  1  0.190726  0.809274  0.517338  1
  Ni  Ni14  1  0.000000  0.000000  0.500000  1
  Ni  Ni15  1  0.000000  0.000000  0.000000  1
  Ge  Ge16  1  0.474638  0.525362  0.750000  1
  Ge  Ge17  1  0.863629  0.136371  0.250000  1
  Ge  Ge18  1  0.699612  0.300388  0.397158  1
  Ge  Ge19  1  0.136371  0.863629  0.750000  1
  Ge  Ge20  1  0.300388  0.699612  0.897158  1
  Ge  Ge21  1  0.300388  0.699612  0.602842  1
  Ge  Ge22  1  0.699612  0.300388  0.102842  1
  Ge  Ge23  1  0.525362  0.474638  0.250000  1
