# generated using pymatgen
data_BaBiIO2
_symmetry_space_group_name_H-M   'P 1'
_cell_length_a   7.89432809
_cell_length_b   7.89432809
_cell_length_c   5.92634570
_cell_angle_alpha   90.00000000
_cell_angle_beta   90.00000000
_cell_angle_gamma   133.97804934
_symmetry_Int_Tables_number   1
_chemical_formula_structural   BaBiIO2
_chemical_formula_sum   'Ba2 Bi2 I2 O4'
_cell_volume   265.77371531
_cell_formula_units_Z   2
loop_
 _symmetry_equiv_pos_site_id
 _symmetry_equiv_pos_as_xyz
  1  'x, y, z'
loop_
 _atom_site_type_symbol
 _atom_site_label
 _atom_site_symmetry_multiplicity
 _atom_site_fract_x
 _atom_site_fract_y
 _atom_site_fract_z
 _atom_site_occupancy
  Ba  Ba0  1  0.601322  0.398678  0.750000  1
  Ba  Ba1  1  0.398678  0.601322  0.250000  1
  Bi  Bi2  1  0.067257  0.932743  0.250000  1
  Bi  Bi3  1  0.932743  0.067257  0.750000  1
  I  I4  1  0.251990  0.748010  0.750000  1
  I  I5  1  0.748010  0.251990  0.250000  1
  O  O6  1  0.776432  0.776432  0.500000  1
  O  O7  1  0.223568  0.223568  0.500000  1
  O  O8  1  0.223568  0.223568  1.000000  1
  O  O9  1  0.776432  0.776432  1.000000  1
