# generated using pymatgen
data_Sr8Mn2FeN8
_symmetry_space_group_name_H-M   'P 1'
_cell_length_a   9.80522006
_cell_length_b   9.80522006
_cell_length_c   7.56478003
_cell_angle_alpha   74.45141005
_cell_angle_beta   105.54858995
_cell_angle_gamma   148.41253383
_symmetry_Int_Tables_number   1
_chemical_formula_structural   Sr8Mn2FeN8
_chemical_formula_sum   'Sr8 Mn2 Fe1 N8'
_cell_volume   365.87707409
_cell_formula_units_Z   1
loop_
 _symmetry_equiv_pos_site_id
 _symmetry_equiv_pos_as_xyz
  1  'x, y, z'
loop_
 _atom_site_type_symbol
 _atom_site_label
 _atom_site_symmetry_multiplicity
 _atom_site_fract_x
 _atom_site_fract_y
 _atom_site_fract_z
 _atom_site_occupancy
  Sr  Sr0  1  0.403830  0.596170  0.034280  1
  Sr  Sr1  1  0.332858  0.667142  0.533448  1
  Sr  Sr2  1  0.970941  0.029059  0.741411  1
  Sr  Sr3  1  0.199306  0.800694  0.806508  1
  Sr  Sr4  1  0.800694  0.199306  0.193492  1
  Sr  Sr5  1  0.029059  0.970941  0.258589  1
  Sr  Sr6  1  0.667142  0.332858  0.466552  1
  Sr  Sr7  1  0.596170  0.403830  0.965720  1
  Mn  Mn8  1  0.812211  0.187789  0.793663  1
  Mn  Mn9  1  0.187789  0.812211  0.206337  1
  Fe  Fe10  1  0.500000  0.500000  0.500000  1
  N  N11  1  0.275691  0.724309  0.172036  1
  N  N12  1  0.822237  0.177763  0.573576  1
  N  N13  1  0.107753  0.892247  0.014956  1
  N  N14  1  0.892247  0.107753  0.985044  1
  N  N15  1  0.177763  0.822237  0.426424  1
  N  N16  1  0.474643  0.525357  0.717508  1
  N  N17  1  0.724309  0.275691  0.827964  1
  N  N18  1  0.525357  0.474643  0.282492  1
