# generated using pymatgen
data_NaLiCO3
_symmetry_space_group_name_H-M   'P 1'
_cell_length_a   3.35889900
_cell_length_b   14.47471372
_cell_length_c   14.48366307
_cell_angle_alpha   60.07048586
_cell_angle_beta   88.22806212
_cell_angle_gamma   88.33308578
_symmetry_Int_Tables_number   1
_chemical_formula_structural   NaLiCO3
_chemical_formula_sum   'Na9 Li9 C9 O27'
_cell_volume   609.90509504
_cell_formula_units_Z   9
loop_
 _symmetry_equiv_pos_site_id
 _symmetry_equiv_pos_as_xyz
  1  'x, y, z'
loop_
 _atom_site_type_symbol
 _atom_site_label
 _atom_site_symmetry_multiplicity
 _atom_site_fract_x
 _atom_site_fract_y
 _atom_site_fract_z
 _atom_site_occupancy
  Na  Na0  1  0.526470  0.224915  0.868503  1
  Na  Na1  1  0.566942  0.877612  0.544237  1
  Na  Na2  1  0.479277  0.551161  0.193035  1
  Na  Na3  1  0.530168  0.867538  0.906990  1
  Na  Na4  1  0.515731  0.191712  0.257013  1
  Na  Na5  1  0.481277  0.575946  0.879106  1
  Na  Na6  1  0.469301  0.907713  0.225670  1
  Na  Na7  1  0.441867  0.545649  0.577434  1
  Na  Na8  1  0.493137  0.255998  0.551810  1
  Li  Li9  1  0.003816  0.431392  0.822128  1
  Li  Li10  1  0.011239  0.124539  0.101210  1
  Li  Li11  1  0.986666  0.419119  0.106170  1
  Li  Li12  1  0.011144  0.100822  0.774523  1
  Li  Li13  1  0.055088  0.820571  0.746905  1
  Li  Li14  1  0.970737  0.475169  0.420019  1
  Li  Li15  1  0.028560  0.105037  0.475513  1
  Li  Li16  1  0.983346  0.774387  0.125181  1
  Li  Li17  1  0.950614  0.747581  0.432574  1
  C  C18  1  0.990087  0.346120  0.664137  1
  C  C19  1  0.998425  0.667100  0.667132  1
  C  C20  1  0.529372  0.012823  0.668434  1
  C  C21  1  0.000562  0.663075  0.991024  1
  C  C22  1  0.007132  0.999715  0.000323  1
  C  C23  1  0.467622  0.668499  0.319213  1
  C  C24  1  0.011834  0.990545  0.346467  1
  C  C25  1  0.503191  0.318159  0.014064  1
  C  C26  1  0.996644  0.333086  0.333954  1
  O  O27  1  0.072942  0.746970  0.898809  1
  O  O28  1  0.551356  0.911538  0.699062  1
  O  O29  1  0.467947  0.567279  0.349653  1
  O  O30  1  0.517916  0.083313  0.567348  1
  O  O31  1  0.518919  0.042806  0.739766  1
  O  O32  1  0.919372  0.899588  0.355399  1
  O  O33  1  0.461981  0.699194  0.389971  1
  O  O34  1  0.472764  0.739889  0.218181  1
  O  O35  1  0.498410  0.388780  0.912876  1
  O  O36  1  0.916974  0.659320  0.584193  1
  O  O37  1  0.003364  0.582505  0.760800  1
  O  O38  1  0.006505  0.913258  0.993772  1
  O  O39  1  0.055789  0.353506  0.748342  1
  O  O40  1  0.046545  0.074459  0.252780  1
  O  O41  1  0.029983  0.092410  0.914049  1
  O  O42  1  0.988268  0.418894  0.240827  1
  O  O43  1  0.068106  0.997098  0.431466  1
  O  O44  1  0.953505  0.432235  0.571825  1
  O  O45  1  0.512471  0.217050  0.043582  1
  O  O46  1  0.961224  0.570683  0.997799  1
  O  O47  1  0.999440  0.239749  0.341372  1
  O  O48  1  0.002045  0.340633  0.419709  1
  O  O49  1  0.498804  0.348716  0.084806  1
  O  O50  1  0.968466  0.671711  0.075933  1
  O  O51  1  0.074542  0.759369  0.656404  1
  O  O52  1  0.962307  0.252989  0.672469  1
  O  O53  1  0.984805  0.993479  0.093138  1
