# generated using pymatgen
data_Nd5Si3
_symmetry_space_group_name_H-M   'P 1'
_cell_length_a   8.88965916
_cell_length_b   8.88965916
_cell_length_c   8.88965916
_cell_angle_alpha   127.79026207
_cell_angle_beta   127.79026207
_cell_angle_gamma   76.96504230
_symmetry_Int_Tables_number   1
_chemical_formula_structural   Nd5Si3
_chemical_formula_sum   'Nd10 Si6'
_cell_volume   425.89344771
_cell_formula_units_Z   2
loop_
 _symmetry_equiv_pos_site_id
 _symmetry_equiv_pos_as_xyz
  1  'x, y, z'
loop_
 _atom_site_type_symbol
 _atom_site_label
 _atom_site_symmetry_multiplicity
 _atom_site_fract_x
 _atom_site_fract_y
 _atom_site_fract_z
 _atom_site_occupancy
  Nd  Nd0  1  0.176379  0.676379  0.144408  1
  Nd  Nd1  1  0.031971  0.176379  0.500000  1
  Nd  Nd2  1  0.531971  0.031971  0.855592  1
  Nd  Nd3  1  0.323621  0.468029  0.500000  1
  Nd  Nd4  1  0.823621  0.323621  0.855592  1
  Nd  Nd5  1  0.676379  0.531971  0.500000  1
  Nd  Nd6  1  0.968029  0.823621  0.500000  1
  Nd  Nd7  1  0.000000  0.000000  0.000000  1
  Nd  Nd8  1  0.468029  0.968029  0.144408  1
  Nd  Nd9  1  0.500000  0.500000  0.000000  1
  Si  Si10  1  0.384920  0.115080  0.500000  1
  Si  Si11  1  0.115080  0.615080  0.730160  1
  Si  Si12  1  0.884920  0.384920  0.269840  1
  Si  Si13  1  0.615080  0.884920  0.500000  1
  Si  Si14  1  0.250000  0.250000  0.000000  1
  Si  Si15  1  0.750000  0.750000  0.000000  1
