# generated using pymatgen
data_BeF2
_symmetry_space_group_name_H-M   'P 1'
_cell_length_a   4.91690619
_cell_length_b   4.91690619
_cell_length_c   5.39057264
_cell_angle_alpha   90.00000000
_cell_angle_beta   90.00000000
_cell_angle_gamma   120.00000000
_symmetry_Int_Tables_number   1
_chemical_formula_structural   BeF2
_chemical_formula_sum   'Be3 F6'
_cell_volume   112.86242557
_cell_formula_units_Z   3
loop_
 _symmetry_equiv_pos_site_id
 _symmetry_equiv_pos_as_xyz
  1  'x, y, z'
loop_
 _atom_site_type_symbol
 _atom_site_label
 _atom_site_symmetry_multiplicity
 _atom_site_fract_x
 _atom_site_fract_y
 _atom_site_fract_z
 _atom_site_occupancy
  Be  Be0  1  0.000000  0.500000  0.666667  1
  Be  Be1  1  0.500000  0.000000  0.000000  1
  Be  Be2  1  0.500000  0.500000  0.333333  1
  F  F3  1  0.790110  0.580221  0.500000  1
  F  F4  1  0.209890  0.790110  0.833333  1
  F  F5  1  0.790110  0.209890  0.833333  1
  F  F6  1  0.419779  0.209890  0.166667  1
  F  F7  1  0.580221  0.790110  0.166667  1
  F  F8  1  0.209890  0.419779  0.500000  1
