# generated using pymatgen
data_Ce2Zn17
_symmetry_space_group_name_H-M   'P 1'
_cell_length_a   6.84784572
_cell_length_b   6.84784572
_cell_length_c   6.84784572
_cell_angle_alpha   82.70786837
_cell_angle_beta   82.70786837
_cell_angle_gamma   82.70786837
_symmetry_Int_Tables_number   1
_chemical_formula_structural   Ce2Zn17
_chemical_formula_sum   'Ce2 Zn17'
_cell_volume   313.93210658
_cell_formula_units_Z   1
loop_
 _symmetry_equiv_pos_site_id
 _symmetry_equiv_pos_as_xyz
  1  'x, y, z'
loop_
 _atom_site_type_symbol
 _atom_site_label
 _atom_site_symmetry_multiplicity
 _atom_site_fract_x
 _atom_site_fract_y
 _atom_site_fract_z
 _atom_site_occupancy
  Ce  Ce0  1  0.663376  0.663376  0.663376  1
  Ce  Ce1  1  0.336624  0.336624  0.336624  1
  Zn  Zn2  1  0.900093  0.900093  0.900093  1
  Zn  Zn3  1  0.099907  0.099907  0.099907  1
  Zn  Zn4  1  0.500000  0.000000  0.000000  1
  Zn  Zn5  1  1.000000  0.500000  1.000000  1
  Zn  Zn6  1  0.000000  1.000000  0.500000  1
  Zn  Zn7  1  0.000000  0.294178  0.705822  1
  Zn  Zn8  1  0.705822  0.000000  0.294178  1
  Zn  Zn9  1  0.294178  0.705822  0.000000  1
  Zn  Zn10  1  0.000000  0.705822  0.294178  1
  Zn  Zn11  1  0.294178  0.000000  0.705822  1
  Zn  Zn12  1  0.705822  0.294178  0.000000  1
  Zn  Zn13  1  0.351188  0.351188  0.839430  1
  Zn  Zn14  1  0.839430  0.351188  0.351188  1
  Zn  Zn15  1  0.351188  0.839430  0.351188  1
  Zn  Zn16  1  0.648812  0.160570  0.648812  1
  Zn  Zn17  1  0.648812  0.648812  0.160570  1
  Zn  Zn18  1  0.160570  0.648812  0.648812  1
