# generated using pymatgen
data_Tb(BO2)3
_symmetry_space_group_name_H-M   'P 1'
_cell_length_a   6.16315934
_cell_length_b   7.81389313
_cell_length_c   8.34097347
_cell_angle_alpha   90.00000000
_cell_angle_beta   90.00000000
_cell_angle_gamma   90.00000000
_symmetry_Int_Tables_number   1
_chemical_formula_structural   Tb(BO2)3
_chemical_formula_sum   'Tb4 B12 O24'
_cell_volume   401.68683916
_cell_formula_units_Z   4
loop_
 _symmetry_equiv_pos_site_id
 _symmetry_equiv_pos_as_xyz
  1  'x, y, z'
loop_
 _atom_site_type_symbol
 _atom_site_label
 _atom_site_symmetry_multiplicity
 _atom_site_fract_x
 _atom_site_fract_y
 _atom_site_fract_z
 _atom_site_occupancy
  Tb  Tb0  1  0.991445  0.250000  0.000000  1
  Tb  Tb1  1  0.008555  0.750000  0.000000  1
  Tb  Tb2  1  0.508555  0.750000  0.500000  1
  Tb  Tb3  1  0.491445  0.250000  0.500000  1
  B  B4  1  0.383389  0.493627  0.184493  1
  B  B5  1  0.511287  0.750000  0.000000  1
  B  B6  1  0.011287  0.750000  0.500000  1
  B  B7  1  0.116611  0.993627  0.315507  1
  B  B8  1  0.116611  0.506373  0.684493  1
  B  B9  1  0.383389  0.006373  0.815507  1
  B  B10  1  0.883389  0.493627  0.315507  1
  B  B11  1  0.883389  0.006373  0.684493  1
  B  B12  1  0.488713  0.250000  0.000000  1
  B  B13  1  0.988713  0.250000  0.500000  1
  B  B14  1  0.616611  0.993627  0.184493  1
  B  B15  1  0.616611  0.506373  0.815507  1
  O  O16  1  0.441542  0.992496  0.662619  1
  O  O17  1  0.358396  0.865827  0.920348  1
  O  O18  1  0.858396  0.634173  0.420348  1
  O  O19  1  0.659682  0.832603  0.117049  1
  O  O20  1  0.141604  0.365827  0.579652  1
  O  O21  1  0.159682  0.832603  0.382951  1
  O  O22  1  0.659682  0.667397  0.882951  1
  O  O23  1  0.340318  0.167397  0.882951  1
  O  O24  1  0.840318  0.167397  0.617049  1
  O  O25  1  0.840318  0.332603  0.382951  1
  O  O26  1  0.641604  0.134173  0.079652  1
  O  O27  1  0.858396  0.865827  0.579652  1
  O  O28  1  0.441542  0.507504  0.337381  1
  O  O29  1  0.558458  0.007504  0.337381  1
  O  O30  1  0.941542  0.507504  0.162619  1
  O  O31  1  0.058458  0.492496  0.837381  1
  O  O32  1  0.340318  0.332603  0.117049  1
  O  O33  1  0.941542  0.992496  0.837381  1
  O  O34  1  0.558458  0.492496  0.662619  1
  O  O35  1  0.159682  0.667397  0.617049  1
  O  O36  1  0.641604  0.365827  0.920348  1
  O  O37  1  0.358396  0.634173  0.079652  1
  O  O38  1  0.141604  0.134173  0.420348  1
  O  O39  1  0.058458  0.007504  0.162619  1
