# generated using pymatgen
data_LiTaGeO5
_symmetry_space_group_name_H-M   'P 1'
_cell_length_a   7.60534653
_cell_length_b   8.18259208
_cell_length_c   7.68250417
_cell_angle_alpha   90.00000000
_cell_angle_beta   119.66085790
_cell_angle_gamma   90.00000000
_symmetry_Int_Tables_number   1
_chemical_formula_structural   LiTaGeO5
_chemical_formula_sum   'Li4 Ta4 Ge4 O20'
_cell_volume   415.44868697
_cell_formula_units_Z   4
loop_
 _symmetry_equiv_pos_site_id
 _symmetry_equiv_pos_as_xyz
  1  'x, y, z'
loop_
 _atom_site_type_symbol
 _atom_site_label
 _atom_site_symmetry_multiplicity
 _atom_site_fract_x
 _atom_site_fract_y
 _atom_site_fract_z
 _atom_site_occupancy
  Li  Li0  1  0.709060  0.558851  0.250225  1
  Li  Li1  1  0.290940  0.441149  0.749775  1
  Li  Li2  1  0.790940  0.058851  0.749775  1
  Li  Li3  1  0.209060  0.941149  0.250225  1
  Ta  Ta4  1  0.007354  0.742077  0.749410  1
  Ta  Ta5  1  0.492646  0.242077  0.250590  1
  Ta  Ta6  1  0.507354  0.757923  0.749410  1
  Ta  Ta7  1  0.992646  0.257923  0.250590  1
  Ge  Ge8  1  0.757001  0.888997  0.250286  1
  Ge  Ge9  1  0.257001  0.611003  0.250286  1
  Ge  Ge10  1  0.242999  0.111003  0.749714  1
  Ge  Ge11  1  0.742999  0.388997  0.749714  1
  O  O12  1  0.448195  0.487529  0.251854  1
  O  O13  1  0.051805  0.987529  0.748146  1
  O  O14  1  0.431732  0.985945  0.748809  1
  O  O15  1  0.349847  0.252781  0.949131  1
  O  O16  1  0.251996  0.682241  0.750885  1
  O  O17  1  0.568268  0.014055  0.251191  1
  O  O18  1  0.751996  0.817759  0.750885  1
  O  O19  1  0.748004  0.317759  0.249115  1
  O  O20  1  0.348756  0.753895  0.448409  1
  O  O21  1  0.931732  0.514055  0.748809  1
  O  O22  1  0.068268  0.485945  0.251191  1
  O  O23  1  0.849847  0.247219  0.949131  1
  O  O24  1  0.948195  0.012471  0.251854  1
  O  O25  1  0.248004  0.182241  0.249115  1
  O  O26  1  0.151244  0.253895  0.551591  1
  O  O27  1  0.150153  0.752781  0.050869  1
  O  O28  1  0.551805  0.512471  0.748146  1
  O  O29  1  0.650153  0.747219  0.050869  1
  O  O30  1  0.651244  0.246105  0.551591  1
  O  O31  1  0.848756  0.746105  0.448409  1
