# generated using pymatgen
data_RbS
_symmetry_space_group_name_H-M   'P 1'
_cell_length_a   6.13435148
_cell_length_b   6.13435148
_cell_length_c   6.13435148
_cell_angle_alpha   131.11278906
_cell_angle_beta   111.66295322
_cell_angle_gamma   88.47063145
_symmetry_Int_Tables_number   1
_chemical_formula_structural   RbS
_chemical_formula_sum   'Rb2 S2'
_cell_volume   153.74737319
_cell_formula_units_Z   2
loop_
 _symmetry_equiv_pos_site_id
 _symmetry_equiv_pos_as_xyz
  1  'x, y, z'
loop_
 _atom_site_type_symbol
 _atom_site_label
 _atom_site_symmetry_multiplicity
 _atom_site_fract_x
 _atom_site_fract_y
 _atom_site_fract_z
 _atom_site_occupancy
  Rb  Rb0  1  0.222581  0.722581  0.500000  1
  Rb  Rb1  1  0.777419  0.277419  0.500000  1
  S  S2  1  0.154742  0.000000  0.154742  1
  S  S3  1  0.845258  0.000000  0.845258  1
