# generated using pymatgen
data_Tl4CrI6
_symmetry_space_group_name_H-M   'P 1'
_cell_length_a   9.32967072
_cell_length_b   9.32967072
_cell_length_c   9.94190389
_cell_angle_alpha   90.00000000
_cell_angle_beta   90.00000000
_cell_angle_gamma   90.00000000
_symmetry_Int_Tables_number   1
_chemical_formula_structural   Tl4CrI6
_chemical_formula_sum   'Tl8 Cr2 I12'
_cell_volume   865.37071192
_cell_formula_units_Z   2
loop_
 _symmetry_equiv_pos_site_id
 _symmetry_equiv_pos_as_xyz
  1  'x, y, z'
loop_
 _atom_site_type_symbol
 _atom_site_label
 _atom_site_symmetry_multiplicity
 _atom_site_fract_x
 _atom_site_fract_y
 _atom_site_fract_z
 _atom_site_occupancy
  Tl  Tl0  1  0.351287  0.148713  0.250000  1
  Tl  Tl1  1  0.148713  0.648713  0.750000  1
  Tl  Tl2  1  0.648713  0.851287  0.750000  1
  Tl  Tl3  1  0.851287  0.351287  0.750000  1
  Tl  Tl4  1  0.351287  0.148713  0.750000  1
  Tl  Tl5  1  0.148713  0.648713  0.250000  1
  Tl  Tl6  1  0.851287  0.351287  0.250000  1
  Tl  Tl7  1  0.648713  0.851287  0.250000  1
  Cr  Cr8  1  0.500000  0.500000  0.000000  1
  Cr  Cr9  1  0.000000  0.000000  0.500000  1
  I  I10  1  0.293589  0.864329  0.500000  1
  I  I11  1  0.793589  0.635671  0.000000  1
  I  I12  1  0.635671  0.206411  0.000000  1
  I  I13  1  0.135671  0.293589  0.500000  1
  I  I14  1  0.000000  0.000000  0.224117  1
  I  I15  1  0.500000  0.500000  0.275883  1
  I  I16  1  0.364329  0.793589  0.000000  1
  I  I17  1  0.000000  0.000000  0.775883  1
  I  I18  1  0.206411  0.364329  0.000000  1
  I  I19  1  0.500000  0.500000  0.724117  1
  I  I20  1  0.864329  0.706411  0.500000  1
  I  I21  1  0.706411  0.135671  0.500000  1
