# generated using pymatgen
data_LiCu2P5O16
_symmetry_space_group_name_H-M   'P 1'
_cell_length_a   4.96534070
_cell_length_b   6.71882446
_cell_length_c   18.54339661
_cell_angle_alpha   90.00000000
_cell_angle_beta   90.46248196
_cell_angle_gamma   90.00000000
_symmetry_Int_Tables_number   1
_chemical_formula_structural   LiCu2P5O16
_chemical_formula_sum   'Li2 Cu4 P10 O32'
_cell_volume   618.61078406
_cell_formula_units_Z   2
loop_
 _symmetry_equiv_pos_site_id
 _symmetry_equiv_pos_as_xyz
  1  'x, y, z'
loop_
 _atom_site_type_symbol
 _atom_site_label
 _atom_site_symmetry_multiplicity
 _atom_site_fract_x
 _atom_site_fract_y
 _atom_site_fract_z
 _atom_site_occupancy
  Li  Li0  1  0.264378  0.624172  0.471979  1
  Li  Li1  1  0.264378  0.375828  0.971979  1
  Cu  Cu2  1  0.255506  0.178460  0.408331  1
  Cu  Cu3  1  0.255506  0.821540  0.908331  1
  Cu  Cu4  1  0.745500  0.179264  0.092295  1
  Cu  Cu5  1  0.745500  0.820736  0.592295  1
  P  P6  1  0.265503  0.462996  0.130414  1
  P  P7  1  0.767373  0.875605  0.420790  1
  P  P8  1  0.265503  0.537004  0.630414  1
  P  P9  1  0.994919  0.753473  0.749988  1
  P  P10  1  0.229041  0.873297  0.077651  1
  P  P11  1  0.229041  0.126703  0.577651  1
  P  P12  1  0.739537  0.533229  0.869416  1
  P  P13  1  0.767373  0.124395  0.920790  1
  P  P14  1  0.994919  0.246527  0.249988  1
  P  P15  1  0.739537  0.466771  0.369416  1
  O  O16  1  0.563976  0.566637  0.618329  1
  O  O17  1  0.189046  0.597234  0.711095  1
  O  O18  1  0.935260  0.064909  0.567245  1
  O  O19  1  0.082323  0.634192  0.574337  1
  O  O20  1  0.347808  0.226678  0.510403  1
  O  O21  1  0.607574  0.955218  0.886915  1
  O  O22  1  0.156293  0.132805  0.305041  1
  O  O23  1  0.843024  0.123598  0.195546  1
  O  O24  1  0.444259  0.441629  0.389169  1
  O  O25  1  0.607574  0.044782  0.386915  1
  O  O26  1  0.402300  0.965989  0.612854  1
  O  O27  1  0.069125  0.081342  0.931835  1
  O  O28  1  0.783198  0.393706  0.288710  1
  O  O29  1  0.634445  0.223441  0.986553  1
  O  O30  1  0.783198  0.606294  0.788710  1
  O  O31  1  0.773004  0.299154  0.858742  1
  O  O32  1  0.948960  0.385536  0.421418  1
  O  O33  1  0.935260  0.935091  0.067245  1
  O  O34  1  0.069125  0.918658  0.431835  1
  O  O35  1  0.948960  0.614464  0.921418  1
  O  O36  1  0.402300  0.034011  0.112854  1
  O  O37  1  0.347808  0.773322  0.010403  1
  O  O38  1  0.773004  0.700846  0.358742  1
  O  O39  1  0.082323  0.365808  0.074337  1
  O  O40  1  0.563976  0.433363  0.118329  1
  O  O41  1  0.843024  0.876402  0.695546  1
  O  O42  1  0.634445  0.776559  0.486553  1
  O  O43  1  0.216176  0.304794  0.637527  1
  O  O44  1  0.216176  0.695206  0.137527  1
  O  O45  1  0.189046  0.402766  0.211095  1
  O  O46  1  0.444259  0.558371  0.889169  1
  O  O47  1  0.156293  0.867195  0.805041  1
