# generated using pymatgen
data_Ta4Te16Pd3
_symmetry_space_group_name_H-M   'P 1'
_cell_length_a   11.11121122
_cell_length_b   11.11121122
_cell_length_c   18.10775873
_cell_angle_alpha   61.35583017
_cell_angle_beta   118.64416983
_cell_angle_gamma   160.36809683
_symmetry_Int_Tables_number   1
_chemical_formula_structural   Ta4Te16Pd3
_chemical_formula_sum   'Ta4 Te16 Pd3'
_cell_volume   656.22254650
_cell_formula_units_Z   1
loop_
 _symmetry_equiv_pos_site_id
 _symmetry_equiv_pos_as_xyz
  1  'x, y, z'
loop_
 _atom_site_type_symbol
 _atom_site_label
 _atom_site_symmetry_multiplicity
 _atom_site_fract_x
 _atom_site_fract_y
 _atom_site_fract_z
 _atom_site_occupancy
  Ta  Ta0  1  0.917219  0.082781  0.151079  1
  Ta  Ta1  1  0.082781  0.917219  0.848921  1
  Ta  Ta2  1  0.791837  0.208163  0.417063  1
  Ta  Ta3  1  0.208163  0.791837  0.582937  1
  Te  Te4  1  0.378972  0.621028  0.018288  1
  Te  Te5  1  0.621028  0.378972  0.981712  1
  Te  Te6  1  0.038463  0.961537  0.121182  1
  Te  Te7  1  0.961537  0.038463  0.878818  1
  Te  Te8  1  0.517549  0.482451  0.265222  1
  Te  Te9  1  0.482451  0.517549  0.734778  1
  Te  Te10  1  0.922848  0.077152  0.315475  1
  Te  Te11  1  0.077152  0.922848  0.684525  1
  Te  Te12  1  0.313752  0.686248  0.134998  1
  Te  Te13  1  0.686248  0.313752  0.865002  1
  Te  Te14  1  0.725335  0.274665  0.248115  1
  Te  Te15  1  0.274665  0.725335  0.751885  1
  Te  Te16  1  0.398516  0.601484  0.482125  1
  Te  Te17  1  0.601484  0.398516  0.517875  1
  Te  Te18  1  0.807566  0.192434  0.588380  1
  Te  Te19  1  0.192434  0.807566  0.411620  1
  Pd  Pd20  1  0.500000  0.500000  0.000000  1
  Pd  Pd21  1  0.329031  0.670969  0.307575  1
  Pd  Pd22  1  0.670969  0.329031  0.692425  1
