# generated using pymatgen
data_K2Mo(SO5)2
_symmetry_space_group_name_H-M   'P 1'
_cell_length_a   9.10479158
_cell_length_b   12.76045127
_cell_length_c   9.16318497
_cell_angle_alpha   90.00000000
_cell_angle_beta   112.31876286
_cell_angle_gamma   90.00000000
_symmetry_Int_Tables_number   1
_chemical_formula_structural   K2Mo(SO5)2
_chemical_formula_sum   'K8 Mo4 S8 O40'
_cell_volume   984.83692975
_cell_formula_units_Z   4
loop_
 _symmetry_equiv_pos_site_id
 _symmetry_equiv_pos_as_xyz
  1  'x, y, z'
loop_
 _atom_site_type_symbol
 _atom_site_label
 _atom_site_symmetry_multiplicity
 _atom_site_fract_x
 _atom_site_fract_y
 _atom_site_fract_z
 _atom_site_occupancy
  K  K0  1  0.199522  0.015883  0.804464  1
  K  K1  1  0.294145  0.880459  0.321769  1
  K  K2  1  0.800478  0.984117  0.195536  1
  K  K3  1  0.699522  0.484117  0.804464  1
  K  K4  1  0.705855  0.119541  0.678231  1
  K  K5  1  0.794145  0.619541  0.321769  1
  K  K6  1  0.300478  0.515883  0.195536  1
  K  K7  1  0.205855  0.380459  0.678231  1
  Mo  Mo8  1  0.846247  0.332452  0.221582  1
  Mo  Mo9  1  0.346247  0.167548  0.221582  1
  Mo  Mo10  1  0.153753  0.667548  0.778418  1
  Mo  Mo11  1  0.653753  0.832452  0.778418  1
  S  S12  1  0.472992  0.799867  0.036706  1
  S  S13  1  0.027008  0.299867  0.963294  1
  S  S14  1  0.373873  0.642123  0.569104  1
  S  S15  1  0.972992  0.700133  0.036706  1
  S  S16  1  0.527008  0.200133  0.963294  1
  S  S17  1  0.126127  0.142123  0.430896  1
  S  S18  1  0.873873  0.857877  0.569104  1
  S  S19  1  0.626127  0.357877  0.430896  1
  O  O20  1  0.981146  0.602803  0.663928  1
  O  O21  1  0.139606  0.181132  0.584866  1
  O  O22  1  0.825145  0.704770  0.888688  1
  O  O23  1  0.786914  0.933325  0.860036  1
  O  O24  1  0.325145  0.795230  0.888688  1
  O  O25  1  0.268587  0.191695  0.399961  1
  O  O26  1  0.365694  0.528057  0.577817  1
  O  O27  1  0.731413  0.808305  0.600039  1
  O  O28  1  0.970823  0.604366  0.123541  1
  O  O29  1  0.174855  0.295230  0.111312  1
  O  O30  1  0.976178  0.179395  0.301102  1
  O  O31  1  0.499127  0.296140  0.871390  1
  O  O32  1  0.023822  0.820605  0.698898  1
  O  O33  1  0.612728  0.812910  0.979555  1
  O  O34  1  0.134306  0.028057  0.422183  1
  O  O35  1  0.634306  0.471943  0.422183  1
  O  O36  1  0.887272  0.312910  0.020445  1
  O  O37  1  0.999127  0.203860  0.871390  1
  O  O38  1  0.470823  0.895634  0.123541  1
  O  O39  1  0.112728  0.687090  0.979555  1
  O  O40  1  0.231413  0.691695  0.600039  1
  O  O41  1  0.213086  0.066675  0.139964  1
  O  O42  1  0.865694  0.971943  0.577817  1
  O  O43  1  0.000873  0.796140  0.128610  1
  O  O44  1  0.768587  0.308305  0.399961  1
  O  O45  1  0.018854  0.397197  0.336072  1
  O  O46  1  0.481146  0.897197  0.663928  1
  O  O47  1  0.476178  0.320605  0.301102  1
  O  O48  1  0.029177  0.395634  0.876459  1
  O  O49  1  0.523822  0.679395  0.698898  1
  O  O50  1  0.518854  0.102803  0.336072  1
  O  O51  1  0.674855  0.204770  0.111312  1
  O  O52  1  0.713086  0.433325  0.139964  1
  O  O53  1  0.860394  0.818868  0.415134  1
  O  O54  1  0.639606  0.318868  0.584866  1
  O  O55  1  0.387272  0.187090  0.020445  1
  O  O56  1  0.360394  0.681132  0.415134  1
  O  O57  1  0.529177  0.104366  0.876459  1
  O  O58  1  0.500873  0.703860  0.128610  1
  O  O59  1  0.286914  0.566675  0.860036  1
