# generated using pymatgen
data_Ba2Ti9O20
_symmetry_space_group_name_H-M   'P 1'
_cell_length_a   7.54871743
_cell_length_b   14.28853137
_cell_length_c   14.51507793
_cell_angle_alpha   89.89245266
_cell_angle_beta   100.43695537
_cell_angle_gamma   95.41771337
_symmetry_Int_Tables_number   1
_chemical_formula_structural   Ba2Ti9O20
_chemical_formula_sum   'Ba8 Ti36 O80'
_cell_volume   1532.63100299
_cell_formula_units_Z   4
loop_
 _symmetry_equiv_pos_site_id
 _symmetry_equiv_pos_as_xyz
  1  'x, y, z'
loop_
 _atom_site_type_symbol
 _atom_site_label
 _atom_site_symmetry_multiplicity
 _atom_site_fract_x
 _atom_site_fract_y
 _atom_site_fract_z
 _atom_site_occupancy
  Ba  Ba0  1  0.490333  0.751541  0.726452  1
  Ba  Ba1  1  0.761465  0.439860  0.076100  1
  Ba  Ba2  1  0.250859  0.061620  0.022546  1
  Ba  Ba3  1  0.749141  0.938380  0.977454  1
  Ba  Ba4  1  0.506320  0.750358  0.371905  1
  Ba  Ba5  1  0.509667  0.248459  0.273548  1
  Ba  Ba6  1  0.238535  0.560140  0.923900  1
  Ba  Ba7  1  0.493680  0.249642  0.628095  1
  Ti  Ti8  1  0.317056  0.998849  0.319555  1
  Ti  Ti9  1  0.951981  0.836417  0.810143  1
  Ti  Ti10  1  0.678694  0.510325  0.565799  1
  Ti  Ti11  1  0.983971  0.342357  0.287770  1
  Ti  Ti12  1  0.689868  0.498085  0.354013  1
  Ti  Ti13  1  0.016029  0.657643  0.712230  1
  Ti  Ti14  1  0.336227  0.837499  0.136734  1
  Ti  Ti15  1  0.698716  0.671223  0.949942  1
  Ti  Ti16  1  0.050415  0.662369  0.508583  1
  Ti  Ti17  1  0.321991  0.501118  0.216685  1
  Ti  Ti18  1  0.682944  0.001151  0.680445  1
  Ti  Ti19  1  0.320342  0.992226  0.533626  1
  Ti  Ti20  1  0.321306  0.489675  0.434201  1
  Ti  Ti21  1  0.048019  0.163583  0.189857  1
  Ti  Ti22  1  0.331747  0.331851  0.837028  1
  Ti  Ti23  1  0.683715  0.012348  0.246851  1
  Ti  Ti24  1  0.679658  0.007774  0.466374  1
  Ti  Ti25  1  0.955005  0.844258  0.599879  1
  Ti  Ti26  1  0.055325  0.666909  0.096798  1
  Ti  Ti27  1  0.310132  0.501915  0.645987  1
  Ti  Ti28  1  0.043618  0.653159  0.304656  1
  Ti  Ti29  1  0.961731  0.844649  0.394551  1
  Ti  Ti30  1  0.044995  0.155742  0.400121  1
  Ti  Ti31  1  0.949585  0.337631  0.491417  1
  Ti  Ti32  1  0.964002  0.848710  0.189248  1
  Ti  Ti33  1  0.678009  0.498882  0.783315  1
  Ti  Ti34  1  0.663773  0.162501  0.863266  1
  Ti  Ti35  1  0.038269  0.155351  0.605449  1
  Ti  Ti36  1  0.035998  0.151290  0.810752  1
  Ti  Ti37  1  0.302032  0.819227  0.929456  1
  Ti  Ti38  1  0.944675  0.333091  0.903202  1
  Ti  Ti39  1  0.956382  0.346841  0.695344  1
  Ti  Ti40  1  0.316285  0.987652  0.753149  1
  Ti  Ti41  1  0.301284  0.328777  0.050058  1
  Ti  Ti42  1  0.697968  0.180773  0.070544  1
  Ti  Ti43  1  0.668253  0.668149  0.162972  1
  O  O44  1  0.832906  0.753804  0.092135  1
  O  O45  1  0.841184  0.250691  0.788223  1
  O  O46  1  0.439851  0.925448  0.241444  1
  O  O47  1  0.508279  0.753443  0.179939  1
  O  O48  1  0.200122  0.236220  0.121466  1
  O  O49  1  0.903245  0.590764  0.386817  1
  O  O50  1  0.417579  0.393184  0.946496  1
  O  O51  1  0.909935  0.606044  0.993541  1
  O  O52  1  0.097339  0.907298  0.708427  1
  O  O53  1  0.754972  0.417987  0.676239  1
  O  O54  1  0.769548  0.426493  0.475994  1
  O  O55  1  0.148072  0.241312  0.315026  1
  O  O56  1  0.431464  0.931058  0.443141  1
  O  O57  1  0.799878  0.763780  0.878534  1
  O  O58  1  0.245028  0.582013  0.323761  1
  O  O59  1  0.859999  0.763684  0.485105  1
  O  O60  1  0.113393  0.906562  0.117136  1
  O  O61  1  0.430018  0.932511  0.648067  1
  O  O62  1  0.103248  0.907227  0.511095  1
  O  O63  1  0.518869  0.258498  0.071398  1
  O  O64  1  0.582421  0.606816  0.053504  1
  O  O65  1  0.090065  0.393956  0.006459  1
  O  O66  1  0.230452  0.573507  0.524006  1
  O  O67  1  0.096705  0.396701  0.810262  1
  O  O68  1  0.200024  0.747844  0.030026  1
  O  O69  1  0.590241  0.092683  0.157393  1
  O  O70  1  0.910207  0.100589  0.090785  1
  O  O71  1  0.428018  0.429697  0.542508  1
  O  O72  1  0.219908  0.073113  0.822327  1
  O  O73  1  0.105195  0.406872  0.410407  1
  O  O74  1  0.481131  0.741502  0.928602  1
  O  O75  1  0.799976  0.252156  0.969974  1
  O  O76  1  0.089793  0.899411  0.909215  1
  O  O77  1  0.139850  0.240455  0.713554  1
  O  O78  1  0.587535  0.585047  0.858193  1
  O  O79  1  0.902661  0.092702  0.291573  1
  O  O80  1  0.559722  0.565260  0.660009  1
  O  O81  1  0.780092  0.926887  0.177673  1
  O  O82  1  0.412465  0.414953  0.141807  1
  O  O83  1  0.577992  0.103232  0.962569  1
  O  O84  1  0.903295  0.603299  0.189738  1
  O  O85  1  0.568536  0.068942  0.556859  1
  O  O86  1  0.576119  0.577234  0.252956  1
  O  O87  1  0.894805  0.593128  0.589593  1
  O  O88  1  0.423881  0.422766  0.747044  1
  O  O89  1  0.569982  0.067489  0.351933  1
  O  O90  1  0.860150  0.759545  0.286446  1
  O  O91  1  0.778004  0.422431  0.876428  1
  O  O92  1  0.896752  0.092773  0.488905  1
  O  O93  1  0.762112  0.915742  0.768108  1
  O  O94  1  0.158816  0.749309  0.211777  1
  O  O95  1  0.851928  0.758688  0.684974  1
  O  O96  1  0.491721  0.246557  0.820061  1
  O  O97  1  0.886607  0.093438  0.882864  1
  O  O98  1  0.105908  0.421519  0.219379  1
  O  O99  1  0.140713  0.743104  0.819096  1
  O  O100  1  0.149521  0.735359  0.414189  1
  O  O101  1  0.409759  0.907317  0.842607  1
  O  O102  1  0.893606  0.091767  0.688879  1
  O  O103  1  0.096755  0.409236  0.613183  1
  O  O104  1  0.167094  0.246196  0.907865  1
  O  O105  1  0.237888  0.084258  0.231892  1
  O  O106  1  0.560149  0.074552  0.758556  1
  O  O107  1  0.422008  0.896768  0.037431  1
  O  O108  1  0.234276  0.075176  0.423762  1
  O  O109  1  0.440278  0.434740  0.339991  1
  O  O110  1  0.894092  0.578481  0.780621  1
  O  O111  1  0.858736  0.262001  0.386445  1
  O  O112  1  0.571982  0.570303  0.457492  1
  O  O113  1  0.229520  0.079198  0.620201  1
  O  O114  1  0.221996  0.577569  0.123572  1
  O  O115  1  0.765724  0.924824  0.576238  1
  O  O116  1  0.770480  0.920802  0.379799  1
  O  O117  1  0.859287  0.256896  0.180904  1
  O  O118  1  0.140001  0.236316  0.514895  1
  O  O119  1  0.850479  0.264641  0.585811  1
  O  O120  1  0.229780  0.587885  0.718831  1
  O  O121  1  0.770220  0.412115  0.281169  1
  O  O122  1  0.141264  0.737999  0.613555  1
  O  O123  1  0.106394  0.908233  0.311121  1
