# generated using pymatgen
data_NaMg3Al(MoO4)5
_symmetry_space_group_name_H-M   'P 1'
_cell_length_a   6.95782944
_cell_length_b   7.03199535
_cell_length_c   17.95398102
_cell_angle_alpha   87.74375041
_cell_angle_beta   87.80394821
_cell_angle_gamma   78.91831954
_symmetry_Int_Tables_number   1
_chemical_formula_structural   NaMg3Al(MoO4)5
_chemical_formula_sum   'Na2 Mg6 Al2 Mo10 O40'
_cell_volume   860.97076199
_cell_formula_units_Z   2
loop_
 _symmetry_equiv_pos_site_id
 _symmetry_equiv_pos_as_xyz
  1  'x, y, z'
loop_
 _atom_site_type_symbol
 _atom_site_label
 _atom_site_symmetry_multiplicity
 _atom_site_fract_x
 _atom_site_fract_y
 _atom_site_fract_z
 _atom_site_occupancy
  Na  Na0  1  0.889504  0.667648  0.690976  1
  Na  Na1  1  0.110496  0.332352  0.309024  1
  Mg  Mg2  1  0.814510  0.171320  0.507473  1
  Mg  Mg3  1  0.185490  0.828680  0.492527  1
  Mg  Mg4  1  0.220763  0.572656  0.873778  1
  Mg  Mg5  1  0.779237  0.427344  0.126222  1
  Mg  Mg6  1  0.830577  0.916860  0.886989  1
  Mg  Mg7  1  0.169423  0.083140  0.113011  1
  Al  Al8  1  0.250309  0.302261  0.735084  1
  Al  Al9  1  0.749691  0.697739  0.264916  1
  Mo  Mo10  1  0.272593  0.061820  0.902164  1
  Mo  Mo11  1  0.727407  0.938180  0.097836  1
  Mo  Mo12  1  0.783144  0.177741  0.716983  1
  Mo  Mo13  1  0.216856  0.822259  0.283017  1
  Mo  Mo14  1  0.269948  0.307101  0.531695  1
  Mo  Mo15  1  0.730052  0.692899  0.468305  1
  Mo  Mo16  1  0.752413  0.454000  0.914379  1
  Mo  Mo17  1  0.247587  0.546000  0.085621  1
  Mo  Mo18  1  0.318354  0.782854  0.692581  1
  Mo  Mo19  1  0.681646  0.217146  0.307419  1
  O  O20  1  0.144634  0.871541  0.879481  1
  O  O21  1  0.855366  0.128459  0.120519  1
  O  O22  1  0.516522  0.210039  0.508756  1
  O  O23  1  0.483478  0.789961  0.491244  1
  O  O24  1  0.246111  0.344925  0.631394  1
  O  O25  1  0.753889  0.655075  0.368606  1
  O  O26  1  0.182105  0.800551  0.610343  1
  O  O27  1  0.817895  0.199449  0.389657  1
  O  O28  1  0.806793  0.121784  0.622027  1
  O  O29  1  0.193207  0.878216  0.377973  1
  O  O30  1  0.519387  0.539536  0.875976  1
  O  O31  1  0.480613  0.460464  0.124024  1
  O  O32  1  0.748323  0.466628  0.012731  1
  O  O33  1  0.251677  0.533372  0.987269  1
  O  O34  1  0.123212  0.134087  0.504348  1
  O  O35  1  0.876788  0.865913  0.495652  1
  O  O36  1  0.201173  0.532316  0.481928  1
  O  O37  1  0.798827  0.467684  0.518072  1
  O  O38  1  0.529714  0.285007  0.735748  1
  O  O39  1  0.470286  0.714993  0.264252  1
  O  O40  1  0.961104  0.334873  0.732378  1
  O  O41  1  0.038896  0.665127  0.267622  1
  O  O42  1  0.226554  0.590316  0.751327  1
  O  O43  1  0.773446  0.409684  0.248673  1
  O  O44  1  0.282486  0.023459  0.731382  1
  O  O45  1  0.717514  0.976541  0.268618  1
  O  O46  1  0.233462  0.286590  0.841067  1
  O  O47  1  0.766538  0.713410  0.158933  1
  O  O48  1  0.206285  0.119975  0.995339  1
  O  O49  1  0.793715  0.880025  0.004661  1
  O  O50  1  0.839575  0.949405  0.767259  1
  O  O51  1  0.160425  0.050595  0.232741  1
  O  O52  1  0.525098  0.964425  0.894414  1
  O  O53  1  0.474902  0.035575  0.105586  1
  O  O54  1  0.912493  0.615423  0.876664  1
  O  O55  1  0.087507  0.384577  0.123336  1
  O  O56  1  0.838988  0.205970  0.889793  1
  O  O57  1  0.161012  0.794030  0.110207  1
  O  O58  1  0.565941  0.708889  0.668454  1
  O  O59  1  0.434059  0.291111  0.331546  1
