# generated using pymatgen
data_Bi8AsAuCl9
_symmetry_space_group_name_H-M   'P 1'
_cell_length_a   10.52038003
_cell_length_b   15.13707153
_cell_length_c   14.49625938
_cell_angle_alpha   90.00000000
_cell_angle_beta   93.52973895
_cell_angle_gamma   90.00000000
_symmetry_Int_Tables_number   1
_chemical_formula_structural   Bi8AsAuCl9
_chemical_formula_sum   'Bi32 As4 Au4 Cl36'
_cell_volume   2304.11734697
_cell_formula_units_Z   4
loop_
 _symmetry_equiv_pos_site_id
 _symmetry_equiv_pos_as_xyz
  1  'x, y, z'
loop_
 _atom_site_type_symbol
 _atom_site_label
 _atom_site_symmetry_multiplicity
 _atom_site_fract_x
 _atom_site_fract_y
 _atom_site_fract_z
 _atom_site_occupancy
  Bi  Bi0  1  0.618950  0.070104  0.323227  1
  Bi  Bi1  1  0.381050  0.570104  0.176773  1
  Bi  Bi2  1  0.584976  0.687129  0.067858  1
  Bi  Bi3  1  0.547539  0.861434  0.350112  1
  Bi  Bi4  1  0.221426  0.052483  0.525816  1
  Bi  Bi5  1  0.547539  0.638566  0.850112  1
  Bi  Bi6  1  0.328076  0.488413  0.550980  1
  Bi  Bi7  1  0.058435  0.639907  0.688055  1
  Bi  Bi8  1  0.671924  0.988413  0.949020  1
  Bi  Bi9  1  0.328076  0.011587  0.050980  1
  Bi  Bi10  1  0.941565  0.139907  0.811945  1
  Bi  Bi11  1  0.778574  0.552483  0.974184  1
  Bi  Bi12  1  0.300616  0.851133  0.474833  1
  Bi  Bi13  1  0.699384  0.148867  0.525167  1
  Bi  Bi14  1  0.381050  0.929896  0.676773  1
  Bi  Bi15  1  0.778574  0.947517  0.474184  1
  Bi  Bi16  1  0.671924  0.511587  0.449020  1
  Bi  Bi17  1  0.699384  0.351133  0.025167  1
  Bi  Bi18  1  0.452461  0.361434  0.149888  1
  Bi  Bi19  1  0.415024  0.187129  0.432142  1
  Bi  Bi20  1  0.058435  0.860093  0.188055  1
  Bi  Bi21  1  0.618950  0.429896  0.823227  1
  Bi  Bi22  1  0.957969  0.862184  0.806687  1
  Bi  Bi23  1  0.042031  0.137816  0.193313  1
  Bi  Bi24  1  0.584976  0.812871  0.567858  1
  Bi  Bi25  1  0.221426  0.447517  0.025816  1
  Bi  Bi26  1  0.957969  0.637816  0.306687  1
  Bi  Bi27  1  0.042031  0.362184  0.693313  1
  Bi  Bi28  1  0.941565  0.360093  0.311945  1
  Bi  Bi29  1  0.300616  0.648867  0.974833  1
  Bi  Bi30  1  0.452461  0.138566  0.649888  1
  Bi  Bi31  1  0.415024  0.312871  0.932142  1
  As  As32  1  0.218189  0.003859  0.219248  1
  As  As33  1  0.781811  0.503859  0.280752  1
  As  As34  1  0.781811  0.996141  0.780752  1
  As  As35  1  0.218189  0.496141  0.719248  1
  Au  Au36  1  0.367045  0.493254  0.867493  1
  Au  Au37  1  0.632955  0.506746  0.132507  1
  Au  Au38  1  0.367045  0.006746  0.367493  1
  Au  Au39  1  0.632955  0.993254  0.632507  1
  Cl  Cl40  1  0.744486  0.242290  0.748622  1
  Cl  Cl41  1  0.133128  0.494784  0.324796  1
  Cl  Cl42  1  0.775000  0.749444  0.739675  1
  Cl  Cl43  1  0.171454  0.856066  0.016227  1
  Cl  Cl44  1  0.507432  0.895870  0.124484  1
  Cl  Cl45  1  0.225000  0.249444  0.760325  1
  Cl  Cl46  1  0.171454  0.643934  0.516227  1
  Cl  Cl47  1  0.495049  0.370587  0.624716  1
  Cl  Cl48  1  0.830390  0.841779  0.979740  1
  Cl  Cl49  1  0.023027  0.863468  0.372199  1
  Cl  Cl50  1  0.495049  0.129413  0.124716  1
  Cl  Cl51  1  0.504951  0.870587  0.875284  1
  Cl  Cl52  1  0.866872  0.994784  0.175204  1
  Cl  Cl53  1  0.255514  0.757710  0.251378  1
  Cl  Cl54  1  0.005055  0.872521  0.628084  1
  Cl  Cl55  1  0.133128  0.005216  0.824796  1
  Cl  Cl56  1  0.504951  0.629413  0.375284  1
  Cl  Cl57  1  0.994945  0.372521  0.871916  1
  Cl  Cl58  1  0.255514  0.742290  0.751378  1
  Cl  Cl59  1  0.005055  0.627479  0.128084  1
  Cl  Cl60  1  0.169610  0.341779  0.520260  1
  Cl  Cl61  1  0.976973  0.136532  0.627801  1
  Cl  Cl62  1  0.225000  0.250556  0.260325  1
  Cl  Cl63  1  0.023027  0.636532  0.872199  1
  Cl  Cl64  1  0.492568  0.104130  0.875516  1
  Cl  Cl65  1  0.744486  0.257710  0.248622  1
  Cl  Cl66  1  0.976973  0.363468  0.127801  1
  Cl  Cl67  1  0.830390  0.658221  0.479740  1
  Cl  Cl68  1  0.828546  0.356066  0.483773  1
  Cl  Cl69  1  0.994945  0.127479  0.371916  1
  Cl  Cl70  1  0.507432  0.604130  0.624484  1
  Cl  Cl71  1  0.828546  0.143934  0.983773  1
  Cl  Cl72  1  0.492568  0.395870  0.375516  1
  Cl  Cl73  1  0.169610  0.158221  0.020260  1
  Cl  Cl74  1  0.775000  0.750556  0.239675  1
  Cl  Cl75  1  0.866872  0.505216  0.675204  1
