# generated using pymatgen
data_LaB2ClO4
_symmetry_space_group_name_H-M   'P 1'
_cell_length_a   4.26681721
_cell_length_b   6.66958186
_cell_length_c   8.26601233
_cell_angle_alpha   98.07179027
_cell_angle_beta   89.28994499
_cell_angle_gamma   107.84470057
_symmetry_Int_Tables_number   1
_chemical_formula_structural   LaB2ClO4
_chemical_formula_sum   'La2 B4 Cl2 O8'
_cell_volume   221.58079646
_cell_formula_units_Z   2
loop_
 _symmetry_equiv_pos_site_id
 _symmetry_equiv_pos_as_xyz
  1  'x, y, z'
loop_
 _atom_site_type_symbol
 _atom_site_label
 _atom_site_symmetry_multiplicity
 _atom_site_fract_x
 _atom_site_fract_y
 _atom_site_fract_z
 _atom_site_occupancy
  La  La0  1  0.788718  0.032847  0.777878  1
  La  La1  1  0.211282  0.967153  0.222122  1
  B  B2  1  0.835179  0.349904  0.147376  1
  B  B3  1  0.561533  0.437267  0.807151  1
  B  B4  1  0.164821  0.650096  0.852624  1
  B  B5  1  0.438467  0.562733  0.192849  1
  Cl  Cl6  1  0.852275  0.200230  0.456741  1
  Cl  Cl7  1  0.147725  0.799770  0.543259  1
  O  O8  1  0.100791  0.535070  0.177006  1
  O  O9  1  0.524591  0.375617  0.181584  1
  O  O10  1  0.365287  0.236225  0.791776  1
  O  O11  1  0.475409  0.624383  0.818416  1
  O  O12  1  0.634713  0.763775  0.208224  1
  O  O13  1  0.899209  0.464930  0.822994  1
  O  O14  1  0.161056  0.845597  0.920201  1
  O  O15  1  0.838944  0.154403  0.079799  1
