# generated using pymatgen
data_TcO3F
_symmetry_space_group_name_H-M   'P 1'
_cell_length_a   6.01755409
_cell_length_b   5.26265864
_cell_length_c   9.51785715
_cell_angle_alpha   90.00000000
_cell_angle_beta   93.24876959
_cell_angle_gamma   90.00000000
_symmetry_Int_Tables_number   1
_chemical_formula_structural   TcO3F
_chemical_formula_sum   'Tc4 O12 F4'
_cell_volume   300.93026273
_cell_formula_units_Z   4
loop_
 _symmetry_equiv_pos_site_id
 _symmetry_equiv_pos_as_xyz
  1  'x, y, z'
loop_
 _atom_site_type_symbol
 _atom_site_label
 _atom_site_symmetry_multiplicity
 _atom_site_fract_x
 _atom_site_fract_y
 _atom_site_fract_z
 _atom_site_occupancy
  Tc  Tc0  1  0.329926  0.083270  0.137683  1
  Tc  Tc1  1  0.670074  0.916730  0.862317  1
  Tc  Tc2  1  0.329926  0.416730  0.637683  1
  Tc  Tc3  1  0.670074  0.583270  0.362317  1
  O  O4  1  0.212613  0.165279  0.550166  1
  O  O5  1  0.541094  0.719788  0.211836  1
  O  O6  1  0.458906  0.280212  0.788164  1
  O  O7  1  0.111174  0.584998  0.694225  1
  O  O8  1  0.212613  0.334721  0.050166  1
  O  O9  1  0.458906  0.219788  0.288164  1
  O  O10  1  0.787387  0.834721  0.449834  1
  O  O11  1  0.888826  0.415002  0.305775  1
  O  O12  1  0.787387  0.665279  0.949834  1
  O  O13  1  0.111174  0.915002  0.194225  1
  O  O14  1  0.541094  0.780212  0.711836  1
  O  O15  1  0.888826  0.084998  0.805775  1
  F  F16  1  0.350566  0.633428  0.457903  1
  F  F17  1  0.649434  0.366572  0.542097  1
  F  F18  1  0.649434  0.133428  0.042097  1
  F  F19  1  0.350566  0.866572  0.957903  1
