# generated using pymatgen
data_Ba3Tb2(PS4)4
_symmetry_space_group_name_H-M   'P 1'
_cell_length_a   10.43538376
_cell_length_b   12.78381161
_cell_length_c   19.46190105
_cell_angle_alpha   90.00000000
_cell_angle_beta   90.00000000
_cell_angle_gamma   90.00000000
_symmetry_Int_Tables_number   1
_chemical_formula_structural   Ba3Tb2(PS4)4
_chemical_formula_sum   'Ba12 Tb8 P16 S64'
_cell_volume   2596.29505972
_cell_formula_units_Z   4
loop_
 _symmetry_equiv_pos_site_id
 _symmetry_equiv_pos_as_xyz
  1  'x, y, z'
loop_
 _atom_site_type_symbol
 _atom_site_label
 _atom_site_symmetry_multiplicity
 _atom_site_fract_x
 _atom_site_fract_y
 _atom_site_fract_z
 _atom_site_occupancy
  Ba  Ba0  1  0.289560  0.107261  0.272783  1
  Ba  Ba1  1  0.116566  0.250000  0.000000  1
  Ba  Ba2  1  0.210440  0.607261  0.227217  1
  Ba  Ba3  1  0.616566  0.250000  0.500000  1
  Ba  Ba4  1  0.710440  0.607261  0.272783  1
  Ba  Ba5  1  0.210440  0.892739  0.772783  1
  Ba  Ba6  1  0.789560  0.392739  0.772783  1
  Ba  Ba7  1  0.789560  0.107261  0.227217  1
  Ba  Ba8  1  0.883434  0.750000  0.000000  1
  Ba  Ba9  1  0.710440  0.892739  0.727217  1
  Ba  Ba10  1  0.289560  0.392739  0.727217  1
  Ba  Ba11  1  0.383434  0.750000  0.500000  1
  Tb  Tb12  1  0.371590  0.612592  0.926545  1
  Tb  Tb13  1  0.628410  0.387408  0.073455  1
  Tb  Tb14  1  0.128410  0.387408  0.426545  1
  Tb  Tb15  1  0.128410  0.112592  0.573455  1
  Tb  Tb16  1  0.871590  0.612592  0.573455  1
  Tb  Tb17  1  0.628410  0.112592  0.926545  1
  Tb  Tb18  1  0.371590  0.887408  0.073455  1
  Tb  Tb19  1  0.871590  0.887408  0.426545  1
  P  P20  1  0.996055  0.139914  0.397728  1
  P  P21  1  0.496055  0.360086  0.897728  1
  P  P22  1  0.996055  0.360086  0.602272  1
  P  P23  1  0.503945  0.860086  0.897728  1
  P  P24  1  0.437093  0.048589  0.631021  1
  P  P25  1  0.003945  0.860086  0.602272  1
  P  P26  1  0.003945  0.639914  0.397728  1
  P  P27  1  0.062907  0.548589  0.868979  1
  P  P28  1  0.937093  0.048589  0.868979  1
  P  P29  1  0.437093  0.451411  0.368979  1
  P  P30  1  0.503945  0.639914  0.102272  1
  P  P31  1  0.562907  0.951411  0.368979  1
  P  P32  1  0.062907  0.951411  0.131021  1
  P  P33  1  0.496055  0.139914  0.102272  1
  P  P34  1  0.937093  0.451411  0.131021  1
  P  P35  1  0.562907  0.548589  0.631021  1
  S  S36  1  0.564001  0.730313  0.848821  1
  S  S37  1  0.004808  0.014822  0.332894  1
  S  S38  1  0.385686  0.605875  0.649697  1
  S  S39  1  0.564001  0.769687  0.151179  1
  S  S40  1  0.708283  0.886760  0.308694  1
  S  S41  1  0.614314  0.394125  0.350303  1
  S  S42  1  0.888456  0.099152  0.482931  1
  S  S43  1  0.935999  0.230313  0.651179  1
  S  S44  1  0.179689  0.331107  0.568165  1
  S  S45  1  0.504808  0.014822  0.167106  1
  S  S46  1  0.880467  0.414334  0.032642  1
  S  S47  1  0.380467  0.414334  0.467358  1
  S  S48  1  0.208283  0.886760  0.191306  1
  S  S49  1  0.885686  0.894125  0.149697  1
  S  S50  1  0.569184  0.388337  0.647011  1
  S  S51  1  0.069184  0.111663  0.147011  1
  S  S52  1  0.930816  0.888337  0.852989  1
  S  S53  1  0.430816  0.888337  0.647011  1
  S  S54  1  0.614314  0.105875  0.649697  1
  S  S55  1  0.995192  0.514822  0.332894  1
  S  S56  1  0.619533  0.914334  0.467358  1
  S  S57  1  0.880467  0.085666  0.967358  1
  S  S58  1  0.679689  0.168893  0.068165  1
  S  S59  1  0.430816  0.611663  0.352989  1
  S  S60  1  0.291717  0.386760  0.308694  1
  S  S61  1  0.791717  0.386760  0.191306  1
  S  S62  1  0.888456  0.400848  0.517069  1
  S  S63  1  0.679689  0.331107  0.931835  1
  S  S64  1  0.179689  0.168893  0.431835  1
  S  S65  1  0.708283  0.613240  0.691306  1
  S  S66  1  0.495192  0.514822  0.167106  1
  S  S67  1  0.995192  0.985178  0.667106  1
  S  S68  1  0.111544  0.599152  0.482931  1
  S  S69  1  0.611544  0.599152  0.017069  1
  S  S70  1  0.064001  0.769687  0.348821  1
  S  S71  1  0.504808  0.485178  0.832894  1
  S  S72  1  0.119533  0.585666  0.967358  1
  S  S73  1  0.119533  0.914334  0.032642  1
  S  S74  1  0.111544  0.900848  0.517069  1
  S  S75  1  0.114314  0.394125  0.149697  1
  S  S76  1  0.435999  0.230313  0.848821  1
  S  S77  1  0.885686  0.605875  0.850303  1
  S  S78  1  0.208283  0.613240  0.808694  1
  S  S79  1  0.820311  0.668893  0.431835  1
  S  S80  1  0.935999  0.269687  0.348821  1
  S  S81  1  0.388456  0.400848  0.982931  1
  S  S82  1  0.004808  0.485178  0.667106  1
  S  S83  1  0.380467  0.085666  0.532642  1
  S  S84  1  0.495192  0.985178  0.832894  1
  S  S85  1  0.930816  0.611663  0.147011  1
  S  S86  1  0.320311  0.668893  0.068165  1
  S  S87  1  0.388456  0.099152  0.017069  1
  S  S88  1  0.619533  0.585666  0.532642  1
  S  S89  1  0.611544  0.900848  0.982931  1
  S  S90  1  0.291717  0.113240  0.691306  1
  S  S91  1  0.569184  0.111663  0.352989  1
  S  S92  1  0.435999  0.269687  0.151179  1
  S  S93  1  0.064001  0.730313  0.651179  1
  S  S94  1  0.114314  0.105875  0.850303  1
  S  S95  1  0.069184  0.388337  0.852989  1
  S  S96  1  0.385686  0.894125  0.350303  1
  S  S97  1  0.791717  0.113240  0.808694  1
  S  S98  1  0.320311  0.831107  0.931835  1
  S  S99  1  0.820311  0.831107  0.568165  1
