# generated using pymatgen
data_Na3ThP3O11
_symmetry_space_group_name_H-M   'P 1'
_cell_length_a   6.53376371
_cell_length_b   8.82073680
_cell_length_c   9.02145421
_cell_angle_alpha   109.80606391
_cell_angle_beta   93.27810991
_cell_angle_gamma   103.66344860
_symmetry_Int_Tables_number   1
_chemical_formula_structural   Na3ThP3O11
_chemical_formula_sum   'Na6 Th2 P6 O22'
_cell_volume   469.94491222
_cell_formula_units_Z   2
loop_
 _symmetry_equiv_pos_site_id
 _symmetry_equiv_pos_as_xyz
  1  'x, y, z'
loop_
 _atom_site_type_symbol
 _atom_site_label
 _atom_site_symmetry_multiplicity
 _atom_site_fract_x
 _atom_site_fract_y
 _atom_site_fract_z
 _atom_site_occupancy
  Na  Na0  1  0.400288  0.177692  0.562158  1
  Na  Na1  1  0.362029  0.990676  0.135523  1
  Na  Na2  1  0.637971  0.009324  0.864477  1
  Na  Na3  1  0.599712  0.822308  0.437842  1
  Na  Na4  1  0.295471  0.585518  0.035036  1
  Na  Na5  1  0.704529  0.414482  0.964964  1
  Th  Th6  1  0.925642  0.666551  0.709335  1
  Th  Th7  1  0.074358  0.333449  0.290665  1
  P  P8  1  0.907827  0.226829  0.641277  1
  P  P9  1  0.592241  0.379603  0.298689  1
  P  P10  1  0.407759  0.620397  0.701311  1
  P  P11  1  0.852538  0.860763  0.126859  1
  P  P12  1  0.092173  0.773171  0.358723  1
  P  P13  1  0.147462  0.139237  0.873141  1
  O  O14  1  0.230077  0.532074  0.552179  1
  O  O15  1  0.596401  0.742661  0.664991  1
  O  O16  1  0.291821  0.723072  0.829836  1
  O  O17  1  0.993406  0.966121  0.837687  1
  O  O18  1  0.082867  0.276976  0.005887  1
  O  O19  1  0.380954  0.147773  0.896641  1
  O  O20  1  0.296633  0.894217  0.352594  1
  O  O21  1  0.006594  0.033879  0.162313  1
  O  O22  1  0.619046  0.852227  0.103359  1
  O  O23  1  0.047249  0.792786  0.527649  1
  O  O24  1  0.952751  0.207214  0.472351  1
  O  O25  1  0.917133  0.723024  0.994113  1
  O  O26  1  0.403599  0.257339  0.335009  1
  O  O27  1  0.920566  0.408793  0.748404  1
  O  O28  1  0.113160  0.183801  0.712696  1
  O  O29  1  0.703367  0.105783  0.647406  1
  O  O30  1  0.708179  0.276928  0.170164  1
  O  O31  1  0.505517  0.501018  0.754044  1
  O  O32  1  0.886840  0.816199  0.287304  1
  O  O33  1  0.494483  0.498982  0.245956  1
  O  O34  1  0.079434  0.591207  0.251596  1
  O  O35  1  0.769923  0.467926  0.447821  1
