# generated using pymatgen
data_NaCa4(BO3)3
_symmetry_space_group_name_H-M   'P 1'
_cell_length_a   6.56002427
_cell_length_b   6.56002427
_cell_length_c   10.77737967
_cell_angle_alpha   90.00000000
_cell_angle_beta   90.00000000
_cell_angle_gamma   120.20677102
_symmetry_Int_Tables_number   1
_chemical_formula_structural   NaCa4(BO3)3
_chemical_formula_sum   'Na2 Ca8 B6 O18'
_cell_volume   400.81692476
_cell_formula_units_Z   2
loop_
 _symmetry_equiv_pos_site_id
 _symmetry_equiv_pos_as_xyz
  1  'x, y, z'
loop_
 _atom_site_type_symbol
 _atom_site_label
 _atom_site_symmetry_multiplicity
 _atom_site_fract_x
 _atom_site_fract_y
 _atom_site_fract_z
 _atom_site_occupancy
  Na  Na0  1  0.536191  0.386465  0.250000  1
  Na  Na1  1  0.386465  0.536191  0.750000  1
  Ca  Ca2  1  0.177309  0.605440  0.472097  1
  Ca  Ca3  1  0.605440  0.177309  0.527903  1
  Ca  Ca4  1  0.177309  0.605440  0.027903  1
  Ca  Ca5  1  0.605440  0.177309  0.972097  1
  Ca  Ca6  1  0.032738  0.032738  0.500000  1
  Ca  Ca7  1  0.032738  0.032738  0.000000  1
  Ca  Ca8  1  0.608438  0.907689  0.250000  1
  Ca  Ca9  1  0.907689  0.608438  0.750000  1
  B  B10  1  0.168049  0.924453  0.250000  1
  B  B11  1  0.924453  0.168049  0.750000  1
  B  B12  1  0.011776  0.356148  0.250000  1
  B  B13  1  0.356148  0.011776  0.750000  1
  B  B14  1  0.607680  0.607680  0.500000  1
  B  B15  1  0.607680  0.607680  0.000000  1
  O  O16  1  0.246263  0.529101  0.250000  1
  O  O17  1  0.529101  0.246263  0.750000  1
  O  O18  1  0.397008  0.397008  0.500000  1
  O  O19  1  0.397008  0.397008  0.000000  1
  O  O20  1  0.609946  0.815463  0.471296  1
  O  O21  1  0.815463  0.609946  0.528704  1
  O  O22  1  0.609946  0.815463  0.028704  1
  O  O23  1  0.815463  0.609946  0.971296  1
  O  O24  1  0.299502  0.976164  0.361007  1
  O  O25  1  0.976164  0.299502  0.638993  1
  O  O26  1  0.299502  0.976164  0.138993  1
  O  O27  1  0.976164  0.299502  0.861007  1
  O  O28  1  0.887859  0.268743  0.361140  1
  O  O29  1  0.268743  0.887859  0.638860  1
  O  O30  1  0.887859  0.268743  0.138860  1
  O  O31  1  0.268743  0.887859  0.861140  1
  O  O32  1  0.931167  0.842697  0.250000  1
  O  O33  1  0.842697  0.931167  0.750000  1
