# generated using pymatgen
data_BeSO4
_symmetry_space_group_name_H-M   'P 1'
_cell_length_a   4.76455224
_cell_length_b   4.76455224
_cell_length_c   4.76455224
_cell_angle_alpha   122.31600676
_cell_angle_beta   122.31600676
_cell_angle_gamma   86.03328526
_symmetry_Int_Tables_number   1
_chemical_formula_structural   BeSO4
_chemical_formula_sum   'Be1 S1 O4'
_cell_volume   73.61108271
_cell_formula_units_Z   1
loop_
 _symmetry_equiv_pos_site_id
 _symmetry_equiv_pos_as_xyz
  1  'x, y, z'
loop_
 _atom_site_type_symbol
 _atom_site_label
 _atom_site_symmetry_multiplicity
 _atom_site_fract_x
 _atom_site_fract_y
 _atom_site_fract_z
 _atom_site_occupancy
  Be  Be0  1  0.500000  0.500000  0.000000  1
  S  S1  1  0.250000  0.750000  0.500000  1
  O  O2  1  0.364166  0.757098  0.860889  1
  O  O3  1  0.496723  0.635834  0.392932  1
  O  O4  1  0.896209  0.503277  0.139111  1
  O  O5  1  0.242902  0.103791  0.607068  1
