# generated using pymatgen
data_Mg2SiO4
_symmetry_space_group_name_H-M   'P 1'
_cell_length_a   24.01213352
_cell_length_b   24.01213352
_cell_length_c   24.01213352
_cell_angle_alpha   13.80726855
_cell_angle_beta   13.80726855
_cell_angle_gamma   13.80726855
_symmetry_Int_Tables_number   1
_chemical_formula_structural   Mg2SiO4
_chemical_formula_sum   'Mg20 Si10 O40'
_cell_volume   686.22492608
_cell_formula_units_Z   10
loop_
 _symmetry_equiv_pos_site_id
 _symmetry_equiv_pos_as_xyz
  1  'x, y, z'
loop_
 _atom_site_type_symbol
 _atom_site_label
 _atom_site_symmetry_multiplicity
 _atom_site_fract_x
 _atom_site_fract_y
 _atom_site_fract_z
 _atom_site_occupancy
  Mg  Mg0  1  0.653091  0.653091  0.653091  1
  Mg  Mg1  1  0.617971  0.128154  0.128154  1
  Mg  Mg2  1  0.128154  0.617971  0.128154  1
  Mg  Mg3  1  0.250655  0.250655  0.250655  1
  Mg  Mg4  1  0.128154  0.128154  0.617971  1
  Mg  Mg5  1  0.219424  0.726238  0.726238  1
  Mg  Mg6  1  0.726238  0.219424  0.726238  1
  Mg  Mg7  1  0.726238  0.726238  0.219424  1
  Mg  Mg8  1  0.823923  0.324923  0.324923  1
  Mg  Mg9  1  0.324923  0.823923  0.324923  1
  Mg  Mg10  1  0.524557  0.524557  0.524557  1
  Mg  Mg11  1  0.324923  0.324923  0.823923  1
  Mg  Mg12  1  0.425252  0.925047  0.925047  1
  Mg  Mg13  1  0.925047  0.425252  0.925047  1
  Mg  Mg14  1  0.124841  0.124841  0.124841  1
  Mg  Mg15  1  0.925047  0.925047  0.425252  1
  Mg  Mg16  1  0.025377  0.526444  0.526444  1
  Mg  Mg17  1  0.725113  0.725113  0.725113  1
  Mg  Mg18  1  0.526444  0.025377  0.526444  1
  Mg  Mg19  1  0.526444  0.526444  0.025377  1
  Si  Si20  1  0.998839  0.998839  0.998839  1
  Si  Si21  1  0.598221  0.598221  0.598221  1
  Si  Si22  1  0.322003  0.322003  0.322003  1
  Si  Si23  1  0.199636  0.199636  0.199636  1
  Si  Si24  1  0.921302  0.921302  0.921302  1
  Si  Si25  1  0.849207  0.849207  0.849207  1
  Si  Si26  1  0.450026  0.450026  0.450026  1
  Si  Si27  1  0.400360  0.400360  0.400360  1
  Si  Si28  1  0.051201  0.051201  0.051201  1
  Si  Si29  1  0.799893  0.799893  0.799893  1
  O  O30  1  0.458088  0.458088  0.014192  1
  O  O31  1  0.458088  0.014192  0.458088  1
  O  O32  1  0.276851  0.276851  0.276851  1
  O  O33  1  0.278875  0.769923  0.769923  1
  O  O34  1  0.054031  0.054031  0.618656  1
  O  O35  1  0.014192  0.458088  0.458088  1
  O  O36  1  0.975423  0.975423  0.975423  1
  O  O37  1  0.769923  0.278875  0.769923  1
  O  O38  1  0.872494  0.872494  0.872494  1
  O  O39  1  0.054031  0.618656  0.054031  1
  O  O40  1  0.893287  0.365353  0.365353  1
  O  O41  1  0.682099  0.682099  0.160883  1
  O  O42  1  0.618656  0.054031  0.054031  1
  O  O43  1  0.769923  0.769923  0.278875  1
  O  O44  1  0.575024  0.575024  0.575024  1
  O  O45  1  0.365353  0.893287  0.365353  1
  O  O46  1  0.682099  0.160883  0.682099  1
  O  O47  1  0.473701  0.473701  0.473701  1
  O  O48  1  0.490828  0.966492  0.966492  1
  O  O49  1  0.283667  0.283667  0.759567  1
  O  O50  1  0.160883  0.682099  0.682099  1
  O  O51  1  0.365353  0.365353  0.893287  1
  O  O52  1  0.966492  0.490828  0.966492  1
  O  O53  1  0.176184  0.176184  0.176184  1
  O  O54  1  0.283667  0.759567  0.283667  1
  O  O55  1  0.074854  0.074854  0.074854  1
  O  O56  1  0.091385  0.566760  0.566760  1
  O  O57  1  0.887202  0.887202  0.355073  1
  O  O58  1  0.759567  0.283667  0.283667  1
  O  O59  1  0.966492  0.966492  0.490828  1
  O  O60  1  0.566760  0.091385  0.566760  1
  O  O61  1  0.776399  0.776399  0.776399  1
  O  O62  1  0.887202  0.355073  0.887202  1
  O  O63  1  0.679574  0.679574  0.679574  1
  O  O64  1  0.678019  0.171105  0.171105  1
  O  O65  1  0.355073  0.887202  0.887202  1
  O  O66  1  0.566760  0.566760  0.091385  1
  O  O67  1  0.376688  0.376688  0.376688  1
  O  O68  1  0.171105  0.678019  0.171105  1
  O  O69  1  0.171105  0.171105  0.678019  1
