# generated using pymatgen
data_Li2CrCl4
_symmetry_space_group_name_H-M   'P 1'
_cell_length_a   6.30811520
_cell_length_b   6.30811520
_cell_length_c   3.79776790
_cell_angle_alpha   86.75416007
_cell_angle_beta   93.24583993
_cell_angle_gamma   72.80478654
_symmetry_Int_Tables_number   1
_chemical_formula_structural   Li2CrCl4
_chemical_formula_sum   'Li2 Cr1 Cl4'
_cell_volume   143.70872389
_cell_formula_units_Z   1
loop_
 _symmetry_equiv_pos_site_id
 _symmetry_equiv_pos_as_xyz
  1  'x, y, z'
loop_
 _atom_site_type_symbol
 _atom_site_label
 _atom_site_symmetry_multiplicity
 _atom_site_fract_x
 _atom_site_fract_y
 _atom_site_fract_z
 _atom_site_occupancy
  Li  Li0  1  0.500000  0.000000  0.500000  1
  Li  Li1  1  0.000000  0.500000  0.500000  1
  Cr  Cr2  1  0.000000  0.000000  0.000000  1
  Cl  Cl3  1  0.241772  0.758228  0.464263  1
  Cl  Cl4  1  0.763231  0.763231  0.000000  1
  Cl  Cl5  1  0.758228  0.241772  0.535737  1
  Cl  Cl6  1  0.236769  0.236769  0.000000  1
