# generated using pymatgen
data_KFe2(PO4)2
_symmetry_space_group_name_H-M   'P 1'
_cell_length_a   8.00051688
_cell_length_b   10.22876940
_cell_length_c   9.27738382
_cell_angle_alpha   90.00000000
_cell_angle_beta   115.54092325
_cell_angle_gamma   90.00000000
_symmetry_Int_Tables_number   1
_chemical_formula_structural   KFe2(PO4)2
_chemical_formula_sum   'K4 Fe8 P8 O32'
_cell_volume   685.02609572
_cell_formula_units_Z   4
loop_
 _symmetry_equiv_pos_site_id
 _symmetry_equiv_pos_as_xyz
  1  'x, y, z'
loop_
 _atom_site_type_symbol
 _atom_site_label
 _atom_site_symmetry_multiplicity
 _atom_site_fract_x
 _atom_site_fract_y
 _atom_site_fract_z
 _atom_site_occupancy
  K  K0  1  0.353218  0.359450  0.427425  1
  K  K1  1  0.646782  0.859450  0.072575  1
  K  K2  1  0.646782  0.640550  0.572575  1
  K  K3  1  0.353218  0.140550  0.927425  1
  Fe  Fe4  1  0.935640  0.617706  0.054070  1
  Fe  Fe5  1  0.728895  0.121629  0.743550  1
  Fe  Fe6  1  0.271105  0.621629  0.756450  1
  Fe  Fe7  1  0.064360  0.117706  0.445930  1
  Fe  Fe8  1  0.935640  0.882294  0.554070  1
  Fe  Fe9  1  0.728895  0.378371  0.243550  1
  Fe  Fe10  1  0.064360  0.382294  0.945930  1
  Fe  Fe11  1  0.271105  0.878371  0.256450  1
  P  P12  1  0.007357  0.160401  0.135730  1
  P  P13  1  0.992643  0.839599  0.864270  1
  P  P14  1  0.386024  0.904352  0.647734  1
  P  P15  1  0.613976  0.095648  0.352266  1
  P  P16  1  0.613976  0.404352  0.852266  1
  P  P17  1  0.992643  0.660401  0.364270  1
  P  P18  1  0.007357  0.339599  0.635730  1
  P  P19  1  0.386024  0.595648  0.147734  1
  O  O20  1  0.058203  0.748954  0.761275  1
  O  O21  1  0.405586  0.871035  0.493654  1
  O  O22  1  0.893750  0.956009  0.745351  1
  O  O23  1  0.189788  0.965436  0.603904  1
  O  O24  1  0.941797  0.248954  0.738725  1
  O  O25  1  0.531744  0.495318  0.254046  1
  O  O26  1  0.106250  0.043991  0.254649  1
  O  O27  1  0.152888  0.234613  0.099342  1
  O  O28  1  0.845327  0.109651  0.984785  1
  O  O29  1  0.589625  0.219260  0.249779  1
  O  O30  1  0.468256  0.995318  0.245954  1
  O  O31  1  0.845327  0.390349  0.484785  1
  O  O32  1  0.154673  0.890349  0.015215  1
  O  O33  1  0.154673  0.609651  0.515215  1
  O  O34  1  0.941797  0.251046  0.238725  1
  O  O35  1  0.810212  0.034564  0.396096  1
  O  O36  1  0.405586  0.628965  0.993654  1
  O  O37  1  0.058203  0.751046  0.261275  1
  O  O38  1  0.847112  0.734613  0.400658  1
  O  O39  1  0.589625  0.280740  0.749779  1
  O  O40  1  0.468256  0.504682  0.745954  1
  O  O41  1  0.189788  0.534564  0.103904  1
  O  O42  1  0.152888  0.265387  0.599342  1
  O  O43  1  0.531744  0.004682  0.754046  1
  O  O44  1  0.410375  0.719260  0.250221  1
  O  O45  1  0.410375  0.780740  0.750221  1
  O  O46  1  0.893750  0.543991  0.245351  1
  O  O47  1  0.847112  0.765387  0.900658  1
  O  O48  1  0.594414  0.128965  0.506346  1
  O  O49  1  0.810212  0.465436  0.896096  1
  O  O50  1  0.594414  0.371035  0.006346  1
  O  O51  1  0.106250  0.456009  0.754649  1
