# generated using pymatgen
data_K5V3F14
_symmetry_space_group_name_H-M   'P 1'
_cell_length_a   7.78491779
_cell_length_b   7.78491779
_cell_length_c   11.93086512
_cell_angle_alpha   90.00000000
_cell_angle_beta   90.00000000
_cell_angle_gamma   90.00000000
_symmetry_Int_Tables_number   1
_chemical_formula_structural   K5V3F14
_chemical_formula_sum   'K10 V6 F28'
_cell_volume   723.06942436
_cell_formula_units_Z   2
loop_
 _symmetry_equiv_pos_site_id
 _symmetry_equiv_pos_as_xyz
  1  'x, y, z'
loop_
 _atom_site_type_symbol
 _atom_site_label
 _atom_site_symmetry_multiplicity
 _atom_site_fract_x
 _atom_site_fract_y
 _atom_site_fract_z
 _atom_site_occupancy
  K  K0  1  0.717343  0.782657  0.750000  1
  K  K1  1  0.217343  0.717343  0.750000  1
  K  K2  1  0.782657  0.282657  0.750000  1
  K  K3  1  0.282657  0.217343  0.750000  1
  K  K4  1  0.282657  0.217343  0.250000  1
  K  K5  1  0.782657  0.282657  0.250000  1
  K  K6  1  0.217343  0.717343  0.250000  1
  K  K7  1  0.717343  0.782657  0.250000  1
  K  K8  1  0.500000  0.500000  0.000000  1
  K  K9  1  0.000000  0.000000  0.500000  1
  V  V10  1  0.000000  0.000000  0.000000  1
  V  V11  1  0.500000  0.500000  0.500000  1
  V  V12  1  0.000000  0.500000  0.000000  1
  V  V13  1  0.500000  0.000000  0.000000  1
  V  V14  1  0.500000  0.000000  0.500000  1
  V  V15  1  0.000000  0.500000  0.500000  1
  F  F16  1  0.000000  0.000000  0.835675  1
  F  F17  1  0.500000  0.500000  0.664325  1
  F  F18  1  0.000000  0.000000  0.164325  1
  F  F19  1  0.500000  0.500000  0.335675  1
  F  F20  1  0.926923  0.246988  0.000000  1
  F  F21  1  0.073077  0.753012  0.000000  1
  F  F22  1  0.746988  0.426923  0.500000  1
  F  F23  1  0.246988  0.073077  0.000000  1
  F  F24  1  0.753012  0.926923  0.000000  1
  F  F25  1  0.573077  0.746988  0.500000  1
  F  F26  1  0.426923  0.253012  0.500000  1
  F  F27  1  0.253012  0.573077  0.500000  1
  F  F28  1  0.174607  0.458467  0.885789  1
  F  F29  1  0.825393  0.541533  0.885789  1
  F  F30  1  0.958467  0.674607  0.614211  1
  F  F31  1  0.458467  0.825393  0.885789  1
  F  F32  1  0.958467  0.674607  0.385789  1
  F  F33  1  0.325393  0.958467  0.385789  1
  F  F34  1  0.674607  0.041533  0.385789  1
  F  F35  1  0.458467  0.825393  0.114211  1
  F  F36  1  0.541533  0.174607  0.114211  1
  F  F37  1  0.041533  0.325393  0.385789  1
  F  F38  1  0.174607  0.458467  0.114211  1
  F  F39  1  0.825393  0.541533  0.114211  1
  F  F40  1  0.041533  0.325393  0.614211  1
  F  F41  1  0.674607  0.041533  0.614211  1
  F  F42  1  0.325393  0.958467  0.614211  1
  F  F43  1  0.541533  0.174607  0.885789  1
