# generated using pymatgen
data_PrBC
_symmetry_space_group_name_H-M   'P 1'
_cell_length_a   8.54195122
_cell_length_b   8.57789426
_cell_length_c   12.35109079
_cell_angle_alpha   90.00000000
_cell_angle_beta   90.00000000
_cell_angle_gamma   90.00000000
_symmetry_Int_Tables_number   1
_chemical_formula_structural   PrBC
_chemical_formula_sum   'Pr20 B20 C20'
_cell_volume   904.98856040
_cell_formula_units_Z   20
loop_
 _symmetry_equiv_pos_site_id
 _symmetry_equiv_pos_as_xyz
  1  'x, y, z'
loop_
 _atom_site_type_symbol
 _atom_site_label
 _atom_site_symmetry_multiplicity
 _atom_site_fract_x
 _atom_site_fract_y
 _atom_site_fract_z
 _atom_site_occupancy
  Pr  Pr0  1  0.340151  0.008560  0.420452  1
  Pr  Pr1  1  0.061101  0.697764  0.133421  1
  Pr  Pr2  1  0.254922  0.711345  0.673223  1
  Pr  Pr3  1  0.658046  0.908224  0.597094  1
  Pr  Pr4  1  0.950200  0.597891  0.859446  1
  Pr  Pr5  1  0.659849  0.508560  0.079548  1
  Pr  Pr6  1  0.450200  0.902109  0.140554  1
  Pr  Pr7  1  0.049800  0.097891  0.640554  1
  Pr  Pr8  1  0.438899  0.302236  0.633421  1
  Pr  Pr9  1  0.938899  0.197764  0.366579  1
  Pr  Pr10  1  0.754922  0.788655  0.326777  1
  Pr  Pr11  1  0.158046  0.591776  0.402906  1
  Pr  Pr12  1  0.745078  0.211345  0.826777  1
  Pr  Pr13  1  0.159849  0.991440  0.920452  1
  Pr  Pr14  1  0.245078  0.288655  0.173223  1
  Pr  Pr15  1  0.341954  0.408224  0.902906  1
  Pr  Pr16  1  0.841954  0.091776  0.097094  1
  Pr  Pr17  1  0.840151  0.491440  0.579548  1
  Pr  Pr18  1  0.561101  0.802236  0.866579  1
  Pr  Pr19  1  0.549800  0.402109  0.359446  1
  B  B20  1  0.479943  0.112294  0.959445  1
  B  B21  1  0.116819  0.396782  0.712791  1
  B  B22  1  0.616819  0.103218  0.287209  1
  B  B23  1  0.315524  0.691730  0.991743  1
  B  B24  1  0.020057  0.887706  0.459445  1
  B  B25  1  0.561672  0.200393  0.179104  1
  B  B26  1  0.097973  0.973924  0.240651  1
  B  B27  1  0.383181  0.603218  0.212791  1
  B  B28  1  0.684476  0.191730  0.508257  1
  B  B29  1  0.815524  0.808270  0.008257  1
  B  B30  1  0.979943  0.387706  0.040555  1
  B  B31  1  0.402027  0.026076  0.740651  1
  B  B32  1  0.438328  0.700393  0.320896  1
  B  B33  1  0.902027  0.473924  0.259349  1
  B  B34  1  0.938328  0.799607  0.679104  1
  B  B35  1  0.883181  0.896782  0.787209  1
  B  B36  1  0.597973  0.526076  0.759349  1
  B  B37  1  0.184476  0.308270  0.491743  1
  B  B38  1  0.061672  0.299607  0.820896  1
  B  B39  1  0.520057  0.612294  0.540555  1
  C  C40  1  0.646238  0.105243  0.406917  1
  C  C41  1  0.853762  0.894757  0.906917  1
  C  C42  1  0.943005  0.389375  0.157956  1
  C  C43  1  0.443005  0.110625  0.842044  1
  C  C44  1  0.255630  0.701459  0.880505  1
  C  C45  1  0.755630  0.798541  0.119495  1
  C  C46  1  0.474868  0.692424  0.438686  1
  C  C47  1  0.556995  0.610625  0.657956  1
  C  C48  1  0.974868  0.807576  0.561314  1
  C  C49  1  0.525132  0.192424  0.061314  1
  C  C50  1  0.244370  0.298541  0.380505  1
  C  C51  1  0.144611  0.996717  0.127369  1
  C  C52  1  0.025132  0.307576  0.938686  1
  C  C53  1  0.353762  0.605243  0.093083  1
  C  C54  1  0.644611  0.503283  0.872631  1
  C  C55  1  0.855389  0.496717  0.372631  1
  C  C56  1  0.146238  0.394757  0.593083  1
  C  C57  1  0.744370  0.201459  0.619495  1
  C  C58  1  0.355389  0.003283  0.627369  1
  C  C59  1  0.056995  0.889375  0.342044  1
