# generated using pymatgen
data_Nb2O5
_symmetry_space_group_name_H-M   'P 1'
_cell_length_a   19.78875672
_cell_length_b   3.87190580
_cell_length_c   20.81448104
_cell_angle_alpha   90.00000000
_cell_angle_beta   115.70923508
_cell_angle_gamma   90.00000000
_symmetry_Int_Tables_number   1
_chemical_formula_structural   Nb2O5
_chemical_formula_sum   'Nb28 O70'
_cell_volume   1436.93491722
_cell_formula_units_Z   14
loop_
 _symmetry_equiv_pos_site_id
 _symmetry_equiv_pos_as_xyz
  1  'x, y, z'
loop_
 _atom_site_type_symbol
 _atom_site_label
 _atom_site_symmetry_multiplicity
 _atom_site_fract_x
 _atom_site_fract_y
 _atom_site_fract_z
 _atom_site_occupancy
  Nb  Nb0  1  0.159851  0.011305  0.165873  1
  Nb  Nb1  1  0.421487  0.499617  0.296418  1
  Nb  Nb2  1  0.004056  0.992898  0.236851  1
  Nb  Nb3  1  0.155707  0.020463  0.433445  1
  Nb  Nb4  1  0.693199  0.998038  0.371121  1
  Nb  Nb5  1  0.995944  0.992898  0.763149  1
  Nb  Nb6  1  0.151560  0.003483  0.696565  1
  Nb  Nb7  1  0.734279  0.503721  0.158419  1
  Nb  Nb8  1  0.315098  0.999033  0.360909  1
  Nb  Nb9  1  0.684902  0.999033  0.639091  1
  Nb  Nb10  1  0.848440  0.003483  0.303435  1
  Nb  Nb11  1  0.531778  0.999825  0.437838  1
  Nb  Nb12  1  0.110358  0.485657  0.907397  1
  Nb  Nb13  1  0.581178  0.501458  0.229160  1
  Nb  Nb14  1  0.265268  0.506428  0.101956  1
  Nb  Nb15  1  0.425061  0.475365  0.035939  1
  Nb  Nb16  1  0.578513  0.499617  0.703582  1
  Nb  Nb17  1  0.000000  0.972533  0.500000  1
  Nb  Nb18  1  0.000000  0.766210  0.000000  1
  Nb  Nb19  1  0.889642  0.485657  0.092603  1
  Nb  Nb20  1  0.468222  0.999825  0.562162  1
  Nb  Nb21  1  0.844293  0.020463  0.566555  1
  Nb  Nb22  1  0.418822  0.501458  0.770840  1
  Nb  Nb23  1  0.265721  0.503721  0.841581  1
  Nb  Nb24  1  0.840149  0.011305  0.834127  1
  Nb  Nb25  1  0.306801  0.998038  0.628879  1
  Nb  Nb26  1  0.574939  0.475365  0.964061  1
  Nb  Nb27  1  0.734732  0.506428  0.898044  1
  O  O28  1  0.181863  0.499813  0.868187  1
  O  O29  1  0.339410  0.504987  0.933618  1
  O  O30  1  0.754570  0.001551  0.186945  1
  O  O31  1  0.577231  0.999766  0.538288  1
  O  O32  1  0.086722  0.006887  0.061087  1
  O  O33  1  0.013700  0.495480  0.793685  1
  O  O34  1  0.404997  0.000208  0.740885  1
  O  O35  1  0.079527  0.007031  0.463879  1
  O  O36  1  0.422769  0.999766  0.461712  1
  O  O37  1  0.165459  0.499438  0.426163  1
  O  O38  1  0.341338  0.499599  0.799026  1
  O  O39  1  0.500928  0.503567  0.138071  1
  O  O40  1  0.426333  0.999647  0.329279  1
  O  O41  1  0.834541  0.499438  0.573837  1
  O  O42  1  0.595003  0.000208  0.259115  1
  O  O43  1  0.340469  0.499962  0.208387  1
  O  O44  1  0.664296  0.499281  0.346639  1
  O  O45  1  0.503574  0.499817  0.414178  1
  O  O46  1  0.414996  0.000295  0.036624  1
  O  O47  1  0.658662  0.499599  0.200974  1
  O  O48  1  0.918177  0.991808  0.673245  1
  O  O49  1  0.246301  0.000066  0.262778  1
  O  O50  1  0.343246  0.499445  0.354541  1
  O  O51  1  0.076403  0.998868  0.735582  1
  O  O52  1  0.820120  0.505361  0.846846  1
  O  O53  1  0.238309  0.995118  0.533975  1
  O  O54  1  0.496426  0.499817  0.585822  1
  O  O55  1  0.762163  0.999740  0.331779  1
  O  O56  1  0.607321  0.000032  0.411104  1
  O  O57  1  0.825932  0.501368  0.276784  1
  O  O58  1  0.818137  0.499813  0.131813  1
  O  O59  1  0.000000  0.499075  0.500000  1
  O  O60  1  0.026299  0.494594  0.940466  1
  O  O61  1  0.573667  0.999647  0.670721  1
  O  O62  1  0.913278  0.006887  0.938913  1
  O  O63  1  0.181463  0.495111  0.003119  1
  O  O64  1  0.081823  0.991808  0.326755  1
  O  O65  1  0.499072  0.503567  0.861929  1
  O  O66  1  0.585004  0.000295  0.963376  1
  O  O67  1  0.918890  0.003625  0.397323  1
  O  O68  1  0.659531  0.499962  0.791613  1
  O  O69  1  0.914214  0.004586  0.804431  1
  O  O70  1  0.085786  0.004586  0.195569  1
  O  O71  1  0.501240  0.499452  0.728300  1
  O  O72  1  0.237837  0.999740  0.668221  1
  O  O73  1  0.245430  0.001551  0.813055  1
  O  O74  1  0.253092  0.998671  0.402790  1
  O  O75  1  0.986300  0.495480  0.206315  1
  O  O76  1  0.174068  0.501368  0.723216  1
  O  O77  1  0.179880  0.505361  0.153154  1
  O  O78  1  0.081110  0.003625  0.602677  1
  O  O79  1  0.656754  0.499445  0.645459  1
  O  O80  1  0.746908  0.998671  0.597210  1
  O  O81  1  0.915036  0.993879  0.117892  1
  O  O82  1  0.339069  0.506181  0.072788  1
  O  O83  1  0.335704  0.499281  0.653361  1
  O  O84  1  0.818537  0.495111  0.996881  1
  O  O85  1  0.498760  0.499452  0.271700  1
  O  O86  1  0.973701  0.494594  0.059534  1
  O  O87  1  0.392679  0.000032  0.588896  1
  O  O88  1  0.920473  0.007031  0.536121  1
  O  O89  1  0.761691  0.995118  0.466025  1
  O  O90  1  0.500000  0.500104  0.000000  1
  O  O91  1  0.084964  0.993879  0.882108  1
  O  O92  1  0.923597  0.998868  0.264418  1
  O  O93  1  0.660590  0.504987  0.066382  1
  O  O94  1  0.247437  0.003514  0.114665  1
  O  O95  1  0.660931  0.506181  0.927212  1
  O  O96  1  0.752563  0.003514  0.885335  1
  O  O97  1  0.753699  0.000066  0.737222  1
