# generated using pymatgen
data_LaSbMo2O9
_symmetry_space_group_name_H-M   'P 1'
_cell_length_a   10.00851745
_cell_length_b   10.00851745
_cell_length_c   11.14819796
_cell_angle_alpha   68.49469054
_cell_angle_beta   111.50530946
_cell_angle_gamma   83.81009260
_symmetry_Int_Tables_number   1
_chemical_formula_structural   LaSbMo2O9
_chemical_formula_sum   'La4 Sb4 Mo8 O36'
_cell_volume   928.03438460
_cell_formula_units_Z   4
loop_
 _symmetry_equiv_pos_site_id
 _symmetry_equiv_pos_as_xyz
  1  'x, y, z'
loop_
 _atom_site_type_symbol
 _atom_site_label
 _atom_site_symmetry_multiplicity
 _atom_site_fract_x
 _atom_site_fract_y
 _atom_site_fract_z
 _atom_site_occupancy
  La  La0  1  0.876330  0.876330  0.750000  1
  La  La1  1  0.123670  0.123670  0.250000  1
  La  La2  1  0.676660  0.676660  0.250000  1
  La  La3  1  0.323340  0.323340  0.750000  1
  Sb  Sb4  1  0.355612  0.622807  0.961470  1
  Sb  Sb5  1  0.644388  0.377193  0.038530  1
  Sb  Sb6  1  0.622807  0.355612  0.538530  1
  Sb  Sb7  1  0.377193  0.644388  0.461470  1
  Mo  Mo8  1  0.564762  0.063161  0.303938  1
  Mo  Mo9  1  0.259401  0.950060  0.026804  1
  Mo  Mo10  1  0.950060  0.259401  0.473196  1
  Mo  Mo11  1  0.435238  0.936839  0.696062  1
  Mo  Mo12  1  0.049940  0.740599  0.526804  1
  Mo  Mo13  1  0.063161  0.564762  0.196062  1
  Mo  Mo14  1  0.740599  0.049940  0.973196  1
  Mo  Mo15  1  0.936839  0.435238  0.803938  1
  O  O16  1  0.782547  0.402681  0.425916  1
  O  O17  1  0.703357  0.878345  0.059393  1
  O  O18  1  0.784025  0.377477  0.697470  1
  O  O19  1  0.616539  0.861051  0.720711  1
  O  O20  1  0.217453  0.597319  0.574084  1
  O  O21  1  0.938064  0.096375  0.598448  1
  O  O22  1  0.402681  0.782547  0.074084  1
  O  O23  1  0.138949  0.383461  0.220711  1
  O  O24  1  0.597319  0.217453  0.925916  1
  O  O25  1  0.296643  0.121655  0.940607  1
  O  O26  1  0.383461  0.138949  0.279289  1
  O  O27  1  0.459470  0.424654  0.596883  1
  O  O28  1  0.229093  0.946382  0.177130  1
  O  O29  1  0.307433  0.010819  0.512089  1
  O  O30  1  0.377477  0.784025  0.802530  1
  O  O31  1  0.692567  0.989181  0.487911  1
  O  O32  1  0.540530  0.575346  0.403117  1
  O  O33  1  0.915734  0.560520  0.249667  1
  O  O34  1  0.439480  0.084266  0.749667  1
  O  O35  1  0.215975  0.622523  0.302530  1
  O  O36  1  0.061936  0.903625  0.401552  1
  O  O37  1  0.010819  0.307433  0.987911  1
  O  O38  1  0.121655  0.296643  0.559393  1
  O  O39  1  0.770907  0.053618  0.822870  1
  O  O40  1  0.560520  0.915734  0.250333  1
  O  O41  1  0.622523  0.215975  0.197470  1
  O  O42  1  0.861051  0.616539  0.779288  1
  O  O43  1  0.903625  0.061936  0.098448  1
  O  O44  1  0.946382  0.229093  0.322870  1
  O  O45  1  0.424654  0.459470  0.903117  1
  O  O46  1  0.575346  0.540530  0.096883  1
  O  O47  1  0.084266  0.439480  0.750333  1
  O  O48  1  0.096375  0.938064  0.901552  1
  O  O49  1  0.053618  0.770907  0.677130  1
  O  O50  1  0.989181  0.692567  0.012089  1
  O  O51  1  0.878345  0.703357  0.440607  1
