# generated using pymatgen
data_SrVF5
_symmetry_space_group_name_H-M   'P 1'
_cell_length_a   7.19625143
_cell_length_b   7.40264772
_cell_length_c   14.98060458
_cell_angle_alpha   90.00000000
_cell_angle_beta   95.01216106
_cell_angle_gamma   90.00000000
_symmetry_Int_Tables_number   1
_chemical_formula_structural   SrVF5
_chemical_formula_sum   'Sr8 V8 F40'
_cell_volume   794.98494422
_cell_formula_units_Z   8
loop_
 _symmetry_equiv_pos_site_id
 _symmetry_equiv_pos_as_xyz
  1  'x, y, z'
loop_
 _atom_site_type_symbol
 _atom_site_label
 _atom_site_symmetry_multiplicity
 _atom_site_fract_x
 _atom_site_fract_y
 _atom_site_fract_z
 _atom_site_occupancy
  Sr  Sr0  1  0.997815  0.161160  0.363266  1
  Sr  Sr1  1  0.002185  0.661160  0.136734  1
  Sr  Sr2  1  0.002185  0.838840  0.636734  1
  Sr  Sr3  1  0.997815  0.338840  0.863266  1
  Sr  Sr4  1  0.310458  0.657905  0.415031  1
  Sr  Sr5  1  0.689542  0.157905  0.084969  1
  Sr  Sr6  1  0.689542  0.342095  0.584969  1
  Sr  Sr7  1  0.310458  0.842095  0.915031  1
  V  V8  1  0.189918  0.185080  0.125794  1
  V  V9  1  0.810082  0.685080  0.374206  1
  V  V10  1  0.810082  0.814920  0.874206  1
  V  V11  1  0.189918  0.314920  0.625794  1
  V  V12  1  0.493575  0.118467  0.337370  1
  V  V13  1  0.506425  0.618467  0.162630  1
  V  V14  1  0.506425  0.881533  0.662630  1
  V  V15  1  0.493575  0.381533  0.837370  1
  F  F16  1  0.044524  0.322885  0.033678  1
  F  F17  1  0.955476  0.822885  0.466322  1
  F  F18  1  0.955476  0.677115  0.966322  1
  F  F19  1  0.044524  0.177115  0.533678  1
  F  F20  1  0.348671  0.078430  0.041722  1
  F  F21  1  0.651329  0.578430  0.458278  1
  F  F22  1  0.651329  0.921570  0.958278  1
  F  F23  1  0.348671  0.421570  0.541722  1
  F  F24  1  0.400327  0.365777  0.146748  1
  F  F25  1  0.599673  0.865777  0.353252  1
  F  F26  1  0.599673  0.634223  0.853252  1
  F  F27  1  0.400327  0.134223  0.646748  1
  F  F28  1  0.031763  0.311473  0.206522  1
  F  F29  1  0.968237  0.811473  0.293478  1
  F  F30  1  0.968237  0.688527  0.793478  1
  F  F31  1  0.031763  0.188527  0.706522  1
  F  F32  1  0.298600  0.499152  0.901977  1
  F  F33  1  0.701400  0.999152  0.598023  1
  F  F34  1  0.701400  0.500848  0.098023  1
  F  F35  1  0.298600  0.000848  0.401977  1
  F  F36  1  0.686643  0.305686  0.932736  1
  F  F37  1  0.313357  0.805686  0.567264  1
  F  F38  1  0.313357  0.694314  0.067264  1
  F  F39  1  0.686643  0.194314  0.432736  1
  F  F40  1  0.687422  0.339165  0.756841  1
  F  F41  1  0.312578  0.839165  0.743159  1
  F  F42  1  0.312578  0.660835  0.243159  1
  F  F43  1  0.687422  0.160835  0.256841  1
  F  F44  1  0.310181  0.446779  0.728864  1
  F  F45  1  0.689819  0.946779  0.771136  1
  F  F46  1  0.689819  0.553221  0.271136  1
  F  F47  1  0.310181  0.053221  0.228864  1
  F  F48  1  0.353691  0.163790  0.851112  1
  F  F49  1  0.646309  0.663790  0.648888  1
  F  F50  1  0.646309  0.836210  0.148888  1
  F  F51  1  0.353691  0.336210  0.351112  1
  F  F52  1  0.995632  0.508231  0.608372  1
  F  F53  1  0.004368  0.008231  0.891628  1
  F  F54  1  0.004368  0.491769  0.391628  1
  F  F55  1  0.995632  0.991769  0.108372  1
