# generated using pymatgen
data_Ag2P2PbO7
_symmetry_space_group_name_H-M   'P 1'
_cell_length_a   5.50616303
_cell_length_b   7.10518171
_cell_length_c   10.42408391
_cell_angle_alpha   107.91683852
_cell_angle_beta   93.26550110
_cell_angle_gamma   111.31539695
_symmetry_Int_Tables_number   1
_chemical_formula_structural   Ag2P2PbO7
_chemical_formula_sum   'Ag4 P4 Pb2 O14'
_cell_volume   354.87831247
_cell_formula_units_Z   2
loop_
 _symmetry_equiv_pos_site_id
 _symmetry_equiv_pos_as_xyz
  1  'x, y, z'
loop_
 _atom_site_type_symbol
 _atom_site_label
 _atom_site_symmetry_multiplicity
 _atom_site_fract_x
 _atom_site_fract_y
 _atom_site_fract_z
 _atom_site_occupancy
  Ag  Ag0  1  0.469491  0.702316  0.193682  1
  Ag  Ag1  1  0.935212  0.256846  0.973051  1
  Ag  Ag2  1  0.064788  0.743154  0.026949  1
  Ag  Ag3  1  0.530509  0.297684  0.806318  1
  P  P4  1  0.327124  0.201492  0.163399  1
  P  P5  1  0.672876  0.798508  0.836601  1
  P  P6  1  0.091667  0.209066  0.638230  1
  P  P7  1  0.908333  0.790934  0.361770  1
  Pb  Pb8  1  0.225750  0.736246  0.630975  1
  Pb  Pb9  1  0.774250  0.263754  0.369025  1
  O  O10  1  0.053725  0.356304  0.727427  1
  O  O11  1  0.736498  0.883755  0.955719  1
  O  O12  1  0.685541  0.864520  0.340866  1
  O  O13  1  0.365550  0.697350  0.851152  1
  O  O14  1  0.946275  0.643696  0.272573  1
  O  O15  1  0.812726  0.650237  0.806771  1
  O  O16  1  0.187274  0.349763  0.193229  1
  O  O17  1  0.798181  0.997795  0.697466  1
  O  O18  1  0.201819  0.002205  0.302534  1
  O  O19  1  0.123540  0.302531  0.489426  1
  O  O20  1  0.876460  0.697469  0.510574  1
  O  O21  1  0.314459  0.135480  0.659134  1
  O  O22  1  0.634450  0.302650  0.148848  1
  O  O23  1  0.263502  0.116245  0.044281  1
