# generated using pymatgen
data_K2MoCl5O
_symmetry_space_group_name_H-M   'P 1'
_cell_length_a   7.12981469
_cell_length_b   10.03862826
_cell_length_c   13.83302991
_cell_angle_alpha   90.00000000
_cell_angle_beta   90.00000000
_cell_angle_gamma   90.00000000
_symmetry_Int_Tables_number   1
_chemical_formula_structural   K2MoCl5O
_chemical_formula_sum   'K8 Mo4 Cl20 O4'
_cell_volume   990.07918567
_cell_formula_units_Z   4
loop_
 _symmetry_equiv_pos_site_id
 _symmetry_equiv_pos_as_xyz
  1  'x, y, z'
loop_
 _atom_site_type_symbol
 _atom_site_label
 _atom_site_symmetry_multiplicity
 _atom_site_fract_x
 _atom_site_fract_y
 _atom_site_fract_z
 _atom_site_occupancy
  K  K0  1  0.677747  0.502168  0.855527  1
  K  K1  1  0.177747  0.497832  0.644473  1
  K  K2  1  0.322253  0.002168  0.144473  1
  K  K3  1  0.322253  0.497832  0.144473  1
  K  K4  1  0.177747  0.002168  0.644473  1
  K  K5  1  0.677747  0.997832  0.855527  1
  K  K6  1  0.822253  0.997832  0.355527  1
  K  K7  1  0.822253  0.502168  0.355527  1
  Mo  Mo8  1  0.317423  0.250000  0.402909  1
  Mo  Mo9  1  0.182577  0.250000  0.902909  1
  Mo  Mo10  1  0.817423  0.750000  0.097091  1
  Mo  Mo11  1  0.682577  0.750000  0.597091  1
  Cl  Cl12  1  0.563739  0.250000  0.280085  1
  Cl  Cl13  1  0.296923  0.491043  0.390338  1
  Cl  Cl14  1  0.971883  0.750000  0.502413  1
  Cl  Cl15  1  0.796923  0.508957  0.109662  1
  Cl  Cl16  1  0.063739  0.750000  0.219915  1
  Cl  Cl17  1  0.296923  0.008957  0.390338  1
  Cl  Cl18  1  0.936261  0.250000  0.780085  1
  Cl  Cl19  1  0.203077  0.008957  0.890338  1
  Cl  Cl20  1  0.703077  0.991043  0.609662  1
  Cl  Cl21  1  0.528117  0.750000  0.002413  1
  Cl  Cl22  1  0.093714  0.250000  0.254368  1
  Cl  Cl23  1  0.906286  0.750000  0.745632  1
  Cl  Cl24  1  0.796923  0.991043  0.109662  1
  Cl  Cl25  1  0.471883  0.250000  0.997587  1
  Cl  Cl26  1  0.436261  0.750000  0.719915  1
  Cl  Cl27  1  0.203077  0.491043  0.890338  1
  Cl  Cl28  1  0.406286  0.250000  0.754368  1
  Cl  Cl29  1  0.703077  0.508957  0.609662  1
  Cl  Cl30  1  0.028117  0.250000  0.497587  1
  Cl  Cl31  1  0.593714  0.750000  0.245632  1
  O  O32  1  0.466225  0.250000  0.499606  1
  O  O33  1  0.033775  0.250000  0.999606  1
  O  O34  1  0.533775  0.750000  0.500394  1
  O  O35  1  0.966225  0.750000  0.000394  1
