# generated using pymatgen
data_K2HgBr2(NO6)2
_symmetry_space_group_name_H-M   'P 1'
_cell_length_a   5.74322465
_cell_length_b   7.43096893
_cell_length_c   14.49496215
_cell_angle_alpha   90.00000000
_cell_angle_beta   90.00000000
_cell_angle_gamma   90.00000000
_symmetry_Int_Tables_number   1
_chemical_formula_structural   K2HgBr2(NO6)2
_chemical_formula_sum   'K4 Hg2 Br4 N4 O24'
_cell_volume   618.61199304
_cell_formula_units_Z   2
loop_
 _symmetry_equiv_pos_site_id
 _symmetry_equiv_pos_as_xyz
  1  'x, y, z'
loop_
 _atom_site_type_symbol
 _atom_site_label
 _atom_site_symmetry_multiplicity
 _atom_site_fract_x
 _atom_site_fract_y
 _atom_site_fract_z
 _atom_site_occupancy
  K  K0  1  0.000000  0.756459  0.720060  1
  K  K1  1  0.000000  0.243541  0.279940  1
  K  K2  1  0.500000  0.256459  0.779940  1
  K  K3  1  0.500000  0.743541  0.220060  1
  Hg  Hg4  1  0.000000  0.000000  0.000000  1
  Hg  Hg5  1  0.500000  0.500000  0.500000  1
  Br  Br6  1  0.000000  0.730350  0.384619  1
  Br  Br7  1  0.500000  0.769650  0.884619  1
  Br  Br8  1  0.000000  0.269650  0.615381  1
  Br  Br9  1  0.500000  0.230350  0.115381  1
  N  N10  1  0.000000  0.369808  0.911820  1
  N  N11  1  0.500000  0.130192  0.411820  1
  N  N12  1  0.500000  0.869808  0.588180  1
  N  N13  1  0.000000  0.630192  0.088180  1
  O  O14  1  0.691208  0.791240  0.567563  1
  O  O15  1  0.500000  0.980725  0.372430  1
  O  O16  1  0.230829  0.586937  0.375179  1
  O  O17  1  0.191208  0.708760  0.067563  1
  O  O18  1  0.269171  0.913063  0.875179  1
  O  O19  1  0.730829  0.913063  0.875179  1
  O  O20  1  0.000000  0.839737  0.284165  1
  O  O21  1  0.691208  0.208760  0.432437  1
  O  O22  1  0.308792  0.208760  0.432437  1
  O  O23  1  0.808792  0.291240  0.932437  1
  O  O24  1  0.500000  0.019275  0.627570  1
  O  O25  1  0.191208  0.291240  0.932437  1
  O  O26  1  0.000000  0.519275  0.872430  1
  O  O27  1  0.769171  0.413063  0.624821  1
  O  O28  1  0.269171  0.086937  0.124821  1
  O  O29  1  0.808792  0.708760  0.067563  1
  O  O30  1  0.230829  0.413063  0.624821  1
  O  O31  1  0.730829  0.086937  0.124821  1
  O  O32  1  0.000000  0.160263  0.715835  1
  O  O33  1  0.500000  0.339737  0.215835  1
  O  O34  1  0.000000  0.480725  0.127570  1
  O  O35  1  0.500000  0.660263  0.784165  1
  O  O36  1  0.769171  0.586937  0.375179  1
  O  O37  1  0.308792  0.791240  0.567563  1
