# generated using pymatgen
data_Er2Fe14C
_symmetry_space_group_name_H-M   'P 1'
_cell_length_a   8.70963036
_cell_length_b   8.70963036
_cell_length_c   11.66237922
_cell_angle_alpha   90.00000000
_cell_angle_beta   90.00000000
_cell_angle_gamma   90.00000000
_symmetry_Int_Tables_number   1
_chemical_formula_structural   Er2Fe14C
_chemical_formula_sum   'Er8 Fe56 C4'
_cell_volume   884.68080942
_cell_formula_units_Z   4
loop_
 _symmetry_equiv_pos_site_id
 _symmetry_equiv_pos_as_xyz
  1  'x, y, z'
loop_
 _atom_site_type_symbol
 _atom_site_label
 _atom_site_symmetry_multiplicity
 _atom_site_fract_x
 _atom_site_fract_y
 _atom_site_fract_z
 _atom_site_occupancy
  Er  Er0  1  0.856078  0.143922  0.000000  1
  Er  Er1  1  0.143922  0.856078  0.000000  1
  Er  Er2  1  0.643922  0.643922  0.500000  1
  Er  Er3  1  0.758680  0.241320  0.500000  1
  Er  Er4  1  0.258680  0.258680  0.000000  1
  Er  Er5  1  0.241320  0.758680  0.500000  1
  Er  Er6  1  0.356078  0.356078  0.500000  1
  Er  Er7  1  0.741320  0.741320  0.000000  1
  Fe  Fe8  1  0.725290  0.935895  0.620120  1
  Fe  Fe9  1  0.035729  0.357622  0.174985  1
  Fe  Fe10  1  0.035729  0.357622  0.825015  1
  Fe  Fe11  1  0.535729  0.142378  0.325015  1
  Fe  Fe12  1  0.357622  0.035729  0.174985  1
  Fe  Fe13  1  0.435895  0.774710  0.120120  1
  Fe  Fe14  1  0.642378  0.964271  0.174985  1
  Fe  Fe15  1  0.500000  0.500000  0.891894  1
  Fe  Fe16  1  0.774710  0.435895  0.120120  1
  Fe  Fe17  1  0.274710  0.064105  0.379880  1
  Fe  Fe18  1  0.096922  0.096922  0.202913  1
  Fe  Fe19  1  0.857622  0.464271  0.674985  1
  Fe  Fe20  1  0.935895  0.725290  0.620120  1
  Fe  Fe21  1  0.815704  0.184296  0.254680  1
  Fe  Fe22  1  0.964271  0.642378  0.825015  1
  Fe  Fe23  1  0.225290  0.564105  0.879880  1
  Fe  Fe24  1  0.564105  0.225290  0.879880  1
  Fe  Fe25  1  0.142378  0.535729  0.325015  1
  Fe  Fe26  1  0.184296  0.815704  0.254680  1
  Fe  Fe27  1  0.315704  0.315704  0.754680  1
  Fe  Fe28  1  0.684296  0.684296  0.245320  1
  Fe  Fe29  1  0.357622  0.035729  0.825015  1
  Fe  Fe30  1  0.315704  0.315704  0.245320  1
  Fe  Fe31  1  0.903078  0.903078  0.202913  1
  Fe  Fe32  1  0.064105  0.274710  0.379880  1
  Fe  Fe33  1  0.725290  0.935895  0.379880  1
  Fe  Fe34  1  0.857622  0.464271  0.325015  1
  Fe  Fe35  1  0.642378  0.964271  0.825015  1
  Fe  Fe36  1  0.464271  0.857622  0.325015  1
  Fe  Fe37  1  0.596922  0.403078  0.702913  1
  Fe  Fe38  1  0.903078  0.903078  0.797087  1
  Fe  Fe39  1  0.000000  0.500000  0.500000  1
  Fe  Fe40  1  0.274710  0.064105  0.620120  1
  Fe  Fe41  1  0.142378  0.535729  0.674985  1
  Fe  Fe42  1  0.464271  0.857622  0.674985  1
  Fe  Fe43  1  0.500000  0.500000  0.108106  1
  Fe  Fe44  1  0.935895  0.725290  0.379880  1
  Fe  Fe45  1  0.535729  0.142378  0.674985  1
  Fe  Fe46  1  0.435895  0.774710  0.879880  1
  Fe  Fe47  1  0.964271  0.642378  0.174985  1
  Fe  Fe48  1  0.815704  0.184296  0.745320  1
  Fe  Fe49  1  0.225290  0.564105  0.120120  1
  Fe  Fe50  1  0.596922  0.403078  0.297087  1
  Fe  Fe51  1  0.064105  0.274710  0.620120  1
  Fe  Fe52  1  0.684296  0.684296  0.754680  1
  Fe  Fe53  1  0.564105  0.225290  0.120120  1
  Fe  Fe54  1  0.000000  0.000000  0.608106  1
  Fe  Fe55  1  0.184296  0.815704  0.745320  1
  Fe  Fe56  1  0.096922  0.096922  0.797087  1
  Fe  Fe57  1  0.774710  0.435895  0.879880  1
  Fe  Fe58  1  0.000000  0.500000  0.000000  1
  Fe  Fe59  1  0.403078  0.596922  0.702913  1
  Fe  Fe60  1  0.000000  0.000000  0.391894  1
  Fe  Fe61  1  0.500000  0.000000  0.500000  1
  Fe  Fe62  1  0.500000  0.000000  0.000000  1
  Fe  Fe63  1  0.403078  0.596922  0.297087  1
  C  C64  1  0.127579  0.127579  0.500000  1
  C  C65  1  0.872421  0.872421  0.500000  1
  C  C66  1  0.627579  0.372421  0.000000  1
  C  C67  1  0.372421  0.627579  0.000000  1
