# generated using pymatgen
data_Ti(Ag4S3)2
_symmetry_space_group_name_H-M   'P 1'
_cell_length_a   7.57201747
_cell_length_b   10.73846478
_cell_length_c   15.34961032
_cell_angle_alpha   90.00000000
_cell_angle_beta   90.00000000
_cell_angle_gamma   90.00000000
_symmetry_Int_Tables_number   1
_chemical_formula_structural   Ti(Ag4S3)2
_chemical_formula_sum   'Ti4 Ag32 S24'
_cell_volume   1248.10510315
_cell_formula_units_Z   4
loop_
 _symmetry_equiv_pos_site_id
 _symmetry_equiv_pos_as_xyz
  1  'x, y, z'
loop_
 _atom_site_type_symbol
 _atom_site_label
 _atom_site_symmetry_multiplicity
 _atom_site_fract_x
 _atom_site_fract_y
 _atom_site_fract_z
 _atom_site_occupancy
  Ti  Ti0  1  0.743295  0.515079  0.627372  1
  Ti  Ti1  1  0.243295  0.015079  0.872628  1
  Ti  Ti2  1  0.256705  0.015079  0.372628  1
  Ti  Ti3  1  0.756705  0.515079  0.127372  1
  Ag  Ag4  1  0.395438  0.692847  0.417470  1
  Ag  Ag5  1  0.997017  0.258273  0.480904  1
  Ag  Ag6  1  0.938653  0.845195  0.080021  1
  Ag  Ag7  1  0.122487  0.689595  0.273238  1
  Ag  Ag8  1  0.006136  0.799049  0.728854  1
  Ag  Ag9  1  0.493864  0.799049  0.228854  1
  Ag  Ag10  1  0.502983  0.258273  0.980904  1
  Ag  Ag11  1  0.377513  0.689595  0.773238  1
  Ag  Ag12  1  0.506136  0.299049  0.771146  1
  Ag  Ag13  1  0.772932  0.493482  0.377361  1
  Ag  Ag14  1  0.279166  0.525935  0.050736  1
  Ag  Ag15  1  0.549095  0.016209  0.735375  1
  Ag  Ag16  1  0.438653  0.345195  0.419979  1
  Ag  Ag17  1  0.727068  0.493482  0.877361  1
  Ag  Ag18  1  0.227068  0.993482  0.622639  1
  Ag  Ag19  1  0.002983  0.758273  0.519096  1
  Ag  Ag20  1  0.604562  0.192847  0.582530  1
  Ag  Ag21  1  0.104562  0.692847  0.917470  1
  Ag  Ag22  1  0.561347  0.845195  0.580021  1
  Ag  Ag23  1  0.049095  0.516209  0.764625  1
  Ag  Ag24  1  0.779166  0.025935  0.449264  1
  Ag  Ag25  1  0.720834  0.025935  0.949264  1
  Ag  Ag26  1  0.622487  0.189595  0.226762  1
  Ag  Ag27  1  0.272932  0.993482  0.122639  1
  Ag  Ag28  1  0.061347  0.345195  0.919979  1
  Ag  Ag29  1  0.497017  0.758273  0.019096  1
  Ag  Ag30  1  0.950905  0.016209  0.235375  1
  Ag  Ag31  1  0.877513  0.189595  0.726762  1
  Ag  Ag32  1  0.895438  0.192847  0.082530  1
  Ag  Ag33  1  0.220834  0.525935  0.550736  1
  Ag  Ag34  1  0.450905  0.516209  0.264625  1
  Ag  Ag35  1  0.993864  0.299049  0.271146  1
  S  S36  1  0.706802  0.005294  0.120738  1
  S  S37  1  0.486017  0.885514  0.871941  1
  S  S38  1  0.778091  0.640500  0.006475  1
  S  S39  1  0.206802  0.505294  0.379262  1
  S  S40  1  0.293198  0.505294  0.879262  1
  S  S41  1  0.238765  0.756210  0.121389  1
  S  S42  1  0.986017  0.385514  0.628059  1
  S  S43  1  0.013983  0.885514  0.371941  1
  S  S44  1  0.262779  0.144028  0.253227  1
  S  S45  1  0.793198  0.005294  0.620738  1
  S  S46  1  0.013919  0.403791  0.122161  1
  S  S47  1  0.721909  0.640500  0.506475  1
  S  S48  1  0.261235  0.756210  0.621389  1
  S  S49  1  0.761235  0.256210  0.878611  1
  S  S50  1  0.278091  0.140500  0.493525  1
  S  S51  1  0.738765  0.256210  0.378611  1
  S  S52  1  0.486081  0.403791  0.622161  1
  S  S53  1  0.986081  0.903791  0.877839  1
  S  S54  1  0.237221  0.144028  0.753227  1
  S  S55  1  0.221909  0.140500  0.993525  1
  S  S56  1  0.513983  0.385514  0.128059  1
  S  S57  1  0.513919  0.903791  0.377839  1
  S  S58  1  0.737221  0.644028  0.746773  1
  S  S59  1  0.762779  0.644028  0.246773  1
