# generated using pymatgen
data_ScCr2Ag(H2O5)2
_symmetry_space_group_name_H-M   'P 1'
_cell_length_a   5.71643658
_cell_length_b   6.18258304
_cell_length_c   7.31323323
_cell_angle_alpha   110.03740021
_cell_angle_beta   91.54361172
_cell_angle_gamma   116.02019358
_symmetry_Int_Tables_number   1
_chemical_formula_structural   ScCr2Ag(H2O5)2
_chemical_formula_sum   'Sc1 Cr2 Ag1 H4 O10'
_cell_volume   213.34576821
_cell_formula_units_Z   1
loop_
 _symmetry_equiv_pos_site_id
 _symmetry_equiv_pos_as_xyz
  1  'x, y, z'
loop_
 _atom_site_type_symbol
 _atom_site_label
 _atom_site_symmetry_multiplicity
 _atom_site_fract_x
 _atom_site_fract_y
 _atom_site_fract_z
 _atom_site_occupancy
  Sc  Sc0  1  0.000000  0.000000  0.000000  1
  Cr  Cr1  1  0.319877  0.917927  0.316331  1
  Cr  Cr2  1  0.680123  0.082073  0.683669  1
  Ag  Ag3  1  0.500000  0.500000  0.500000  1
  H  H4  1  0.273022  0.525227  0.957919  1
  H  H5  1  0.922194  0.652915  0.801520  1
  H  H6  1  0.726978  0.474773  0.042081  1
  H  H7  1  0.077806  0.347085  0.198480  1
  O  O8  1  0.574894  0.825337  0.251820  1
  O  O9  1  0.141629  0.862349  0.179515  1
  O  O10  1  0.858371  0.137651  0.820485  1
  O  O11  1  0.494543  0.228201  0.279504  1
  O  O12  1  0.074468  0.751314  0.550276  1
  O  O13  1  0.143838  0.347605  0.060719  1
  O  O14  1  0.856162  0.652395  0.939281  1
  O  O15  1  0.425106  0.174663  0.748180  1
  O  O16  1  0.505457  0.771799  0.720496  1
  O  O17  1  0.925532  0.248686  0.449724  1
