# generated using pymatgen
data_MgFe(SiO3)2
_symmetry_space_group_name_H-M   'P 1'
_cell_length_a   5.30419386
_cell_length_b   9.05167165
_cell_length_c   18.53401787
_cell_angle_alpha   90.00000000
_cell_angle_beta   90.00000000
_cell_angle_gamma   90.00000000
_symmetry_Int_Tables_number   1
_chemical_formula_structural   MgFe(SiO3)2
_chemical_formula_sum   'Mg8 Fe8 Si16 O48'
_cell_volume   889.85195188
_cell_formula_units_Z   8
loop_
 _symmetry_equiv_pos_site_id
 _symmetry_equiv_pos_as_xyz
  1  'x, y, z'
loop_
 _atom_site_type_symbol
 _atom_site_label
 _atom_site_symmetry_multiplicity
 _atom_site_fract_x
 _atom_site_fract_y
 _atom_site_fract_z
 _atom_site_occupancy
  Mg  Mg0  1  0.617033  0.153830  0.375308  1
  Mg  Mg1  1  0.382967  0.846170  0.624692  1
  Mg  Mg2  1  0.617033  0.653830  0.124692  1
  Mg  Mg3  1  0.117033  0.846170  0.124692  1
  Mg  Mg4  1  0.882967  0.153830  0.875308  1
  Mg  Mg5  1  0.382967  0.346170  0.875308  1
  Mg  Mg6  1  0.117033  0.346170  0.375308  1
  Mg  Mg7  1  0.882967  0.653830  0.624692  1
  Fe  Fe8  1  0.377130  0.986414  0.876991  1
  Fe  Fe9  1  0.622870  0.013586  0.123009  1
  Fe  Fe10  1  0.877130  0.013586  0.623009  1
  Fe  Fe11  1  0.122870  0.986414  0.376991  1
  Fe  Fe12  1  0.377130  0.486414  0.623009  1
  Fe  Fe13  1  0.622870  0.513586  0.376991  1
  Fe  Fe14  1  0.877130  0.513586  0.876991  1
  Fe  Fe15  1  0.122870  0.486414  0.123009  1
  Si  Si16  1  0.562163  0.660488  0.771893  1
  Si  Si17  1  0.710505  0.836063  0.474713  1
  Si  Si18  1  0.789495  0.836063  0.974713  1
  Si  Si19  1  0.937837  0.160488  0.228107  1
  Si  Si20  1  0.062163  0.339512  0.728107  1
  Si  Si21  1  0.437837  0.839512  0.271893  1
  Si  Si22  1  0.210505  0.663937  0.474713  1
  Si  Si23  1  0.710505  0.336063  0.025287  1
  Si  Si24  1  0.789495  0.336063  0.525287  1
  Si  Si25  1  0.937837  0.660488  0.271893  1
  Si  Si26  1  0.437837  0.339512  0.228107  1
  Si  Si27  1  0.562163  0.160488  0.728107  1
  Si  Si28  1  0.289495  0.163937  0.525287  1
  Si  Si29  1  0.062163  0.839512  0.771893  1
  Si  Si30  1  0.289495  0.663937  0.974713  1
  Si  Si31  1  0.210505  0.163937  0.025287  1
  O  O32  1  0.936279  0.501372  0.311715  1
  O  O33  1  0.296847  0.013974  0.065942  1
  O  O34  1  0.063721  0.498628  0.688285  1
  O  O35  1  0.709627  0.335675  0.936954  1
  O  O36  1  0.209627  0.164325  0.936954  1
  O  O37  1  0.917304  0.206410  0.051962  1
  O  O38  1  0.944267  0.663901  0.183964  1
  O  O39  1  0.055733  0.836099  0.683964  1
  O  O40  1  0.709627  0.835675  0.563046  1
  O  O41  1  0.944267  0.163901  0.316036  1
  O  O42  1  0.436279  0.498628  0.188285  1
  O  O43  1  0.790373  0.335675  0.436954  1
  O  O44  1  0.703153  0.986026  0.934058  1
  O  O45  1  0.444267  0.836099  0.183964  1
  O  O46  1  0.563721  0.001372  0.688285  1
  O  O47  1  0.296847  0.513974  0.434058  1
  O  O48  1  0.436279  0.998628  0.311715  1
  O  O49  1  0.167468  0.767779  0.302550  1
  O  O50  1  0.332532  0.767779  0.802550  1
  O  O51  1  0.582696  0.706410  0.948038  1
  O  O52  1  0.790373  0.835675  0.063046  1
  O  O53  1  0.555733  0.663901  0.683964  1
  O  O54  1  0.796847  0.486026  0.065942  1
  O  O55  1  0.167468  0.267779  0.197450  1
  O  O56  1  0.290373  0.164325  0.436954  1
  O  O57  1  0.555733  0.163901  0.816036  1
  O  O58  1  0.703153  0.486026  0.565942  1
  O  O59  1  0.209627  0.664325  0.563046  1
  O  O60  1  0.203153  0.513974  0.934058  1
  O  O61  1  0.667468  0.732221  0.302550  1
  O  O62  1  0.063721  0.998628  0.811715  1
  O  O63  1  0.832532  0.732221  0.802550  1
  O  O64  1  0.832532  0.232221  0.697450  1
  O  O65  1  0.796847  0.986026  0.434058  1
  O  O66  1  0.290373  0.664325  0.063046  1
  O  O67  1  0.203153  0.013974  0.565942  1
  O  O68  1  0.332532  0.267779  0.697450  1
  O  O69  1  0.082696  0.793590  0.948038  1
  O  O70  1  0.417304  0.793590  0.448038  1
  O  O71  1  0.667468  0.232221  0.197450  1
  O  O72  1  0.417304  0.293590  0.051962  1
  O  O73  1  0.582696  0.206410  0.551962  1
  O  O74  1  0.082696  0.293590  0.551962  1
  O  O75  1  0.444267  0.336099  0.316036  1
  O  O76  1  0.563721  0.501372  0.811715  1
  O  O77  1  0.917304  0.706410  0.448038  1
  O  O78  1  0.055733  0.336099  0.816036  1
  O  O79  1  0.936279  0.001372  0.188285  1
