# generated using pymatgen
data_CoAs4F18
_symmetry_space_group_name_H-M   'P 1'
_cell_length_a   7.42350762
_cell_length_b   13.14097569
_cell_length_c   10.34578745
_cell_angle_alpha   90.00000000
_cell_angle_beta   134.00310924
_cell_angle_gamma   90.00000000
_symmetry_Int_Tables_number   1
_chemical_formula_structural   CoAs4F18
_chemical_formula_sum   'Co2 As8 F36'
_cell_volume   725.95826227
_cell_formula_units_Z   2
loop_
 _symmetry_equiv_pos_site_id
 _symmetry_equiv_pos_as_xyz
  1  'x, y, z'
loop_
 _atom_site_type_symbol
 _atom_site_label
 _atom_site_symmetry_multiplicity
 _atom_site_fract_x
 _atom_site_fract_y
 _atom_site_fract_z
 _atom_site_occupancy
  Co  Co0  1  0.000000  0.500000  0.500000  1
  Co  Co1  1  0.000000  0.000000  0.000000  1
  As  As2  1  0.500000  0.500000  0.000000  1
  As  As3  1  0.921471  0.218637  0.438814  1
  As  As4  1  0.078529  0.718637  0.061186  1
  As  As5  1  0.500000  0.000000  0.000000  1
  As  As6  1  0.500000  0.000000  0.500000  1
  As  As7  1  0.078529  0.781363  0.561186  1
  As  As8  1  0.921471  0.281363  0.938814  1
  As  As9  1  0.500000  0.500000  0.500000  1
  F  F10  1  0.316896  0.032371  0.052779  1
  F  F11  1  0.988206  0.346066  0.541645  1
  F  F12  1  0.982543  0.755498  0.167976  1
  F  F13  1  0.683104  0.967629  0.947221  1
  F  F14  1  0.789674  0.471966  0.233465  1
  F  F15  1  0.017457  0.255498  0.332024  1
  F  F16  1  0.768916  0.050547  0.209498  1
  F  F17  1  0.432277  0.380984  0.400650  1
  F  F18  1  0.678950  0.545200  0.959196  1
  F  F19  1  0.678950  0.954800  0.459196  1
  F  F20  1  0.489457  0.622262  0.061121  1
  F  F21  1  0.768916  0.449453  0.709498  1
  F  F22  1  0.489457  0.877738  0.561121  1
  F  F23  1  0.432277  0.119016  0.900650  1
  F  F24  1  0.011794  0.846066  0.958355  1
  F  F25  1  0.395456  0.746788  0.242415  1
  F  F26  1  0.510543  0.122262  0.438879  1
  F  F27  1  0.316896  0.467629  0.552779  1
  F  F28  1  0.210326  0.971966  0.266535  1
  F  F29  1  0.011794  0.653934  0.458355  1
  F  F30  1  0.321050  0.454800  0.040804  1
  F  F31  1  0.231084  0.949453  0.790502  1
  F  F32  1  0.683104  0.532371  0.447221  1
  F  F33  1  0.321050  0.045200  0.540804  1
  F  F34  1  0.395456  0.753212  0.742415  1
  F  F35  1  0.982543  0.744502  0.667976  1
  F  F36  1  0.510543  0.377738  0.938879  1
  F  F37  1  0.604544  0.246788  0.257585  1
  F  F38  1  0.988206  0.153934  0.041645  1
  F  F39  1  0.231084  0.550547  0.290502  1
  F  F40  1  0.789674  0.028034  0.733465  1
  F  F41  1  0.210326  0.528034  0.766535  1
  F  F42  1  0.604544  0.253212  0.757585  1
  F  F43  1  0.567723  0.619016  0.599350  1
  F  F44  1  0.567723  0.880984  0.099350  1
  F  F45  1  0.017457  0.244502  0.832024  1
