# generated using pymatgen
data_LiCr(PO3)3
_symmetry_space_group_name_H-M   'P 1'
_cell_length_a   6.61525488
_cell_length_b   6.61525488
_cell_length_c   9.83578633
_cell_angle_alpha   87.14486916
_cell_angle_beta   92.85513084
_cell_angle_gamma   121.77498652
_symmetry_Int_Tables_number   1
_chemical_formula_structural   LiCr(PO3)3
_chemical_formula_sum   'Li2 Cr2 P6 O18'
_cell_volume   365.32285884
_cell_formula_units_Z   2
loop_
 _symmetry_equiv_pos_site_id
 _symmetry_equiv_pos_as_xyz
  1  'x, y, z'
loop_
 _atom_site_type_symbol
 _atom_site_label
 _atom_site_symmetry_multiplicity
 _atom_site_fract_x
 _atom_site_fract_y
 _atom_site_fract_z
 _atom_site_occupancy
  Li  Li0  1  0.288603  0.597559  0.503433  1
  Li  Li1  1  0.402441  0.711397  0.003433  1
  Cr  Cr2  1  0.662284  0.326052  0.499958  1
  Cr  Cr3  1  0.673948  0.337716  0.999958  1
  P  P4  1  0.964054  0.720495  0.745211  1
  P  P5  1  0.741624  0.010625  0.753640  1
  P  P6  1  0.751889  0.733764  0.250625  1
  P  P7  1  0.279505  0.035946  0.245211  1
  P  P8  1  0.266236  0.248111  0.750625  1
  P  P9  1  0.989375  0.258376  0.253640  1
  O  O10  1  0.407595  0.049167  0.119186  1
  O  O11  1  0.622963  0.642743  0.116862  1
  O  O12  1  0.950833  0.592405  0.619186  1
  O  O13  1  0.021993  0.388453  0.381159  1
  O  O14  1  0.611547  0.978007  0.881159  1
  O  O15  1  0.395996  0.042554  0.381392  1
  O  O16  1  0.202871  0.978215  0.739232  1
  O  O17  1  0.781633  0.985471  0.278458  1
  O  O18  1  0.217634  0.239912  0.232158  1
  O  O19  1  0.021785  0.797129  0.239232  1
  O  O20  1  0.948931  0.356627  0.120995  1
  O  O21  1  0.647824  0.584255  0.377693  1
  O  O22  1  0.957446  0.604004  0.881392  1
  O  O23  1  0.760088  0.782366  0.732158  1
  O  O24  1  0.643373  0.051069  0.620995  1
  O  O25  1  0.014529  0.218367  0.778458  1
  O  O26  1  0.415745  0.352176  0.877693  1
  O  O27  1  0.357257  0.377037  0.616862  1
