# generated using pymatgen
data_RbUCrO6
_symmetry_space_group_name_H-M   'P 1'
_cell_length_a   7.22130062
_cell_length_b   8.41750295
_cell_length_c   10.60060655
_cell_angle_alpha   90.00000000
_cell_angle_beta   104.87248520
_cell_angle_gamma   90.00000000
_symmetry_Int_Tables_number   1
_chemical_formula_structural   RbUCrO6
_chemical_formula_sum   'Rb4 U4 Cr4 O24'
_cell_volume   622.77479682
_cell_formula_units_Z   4
loop_
 _symmetry_equiv_pos_site_id
 _symmetry_equiv_pos_as_xyz
  1  'x, y, z'
loop_
 _atom_site_type_symbol
 _atom_site_label
 _atom_site_symmetry_multiplicity
 _atom_site_fract_x
 _atom_site_fract_y
 _atom_site_fract_z
 _atom_site_occupancy
  Rb  Rb0  1  0.033316  0.241226  0.361800  1
  Rb  Rb1  1  0.966684  0.741226  0.138200  1
  Rb  Rb2  1  0.033316  0.258774  0.861800  1
  Rb  Rb3  1  0.966684  0.758774  0.638200  1
  U  U4  1  0.510980  0.519505  0.323027  1
  U  U5  1  0.489020  0.019505  0.176973  1
  U  U6  1  0.489020  0.480495  0.676973  1
  U  U7  1  0.510980  0.980495  0.823027  1
  Cr  Cr8  1  0.389950  0.857356  0.444020  1
  Cr  Cr9  1  0.610050  0.357356  0.055980  1
  Cr  Cr10  1  0.610050  0.142644  0.555980  1
  Cr  Cr11  1  0.389950  0.642644  0.944020  1
  O  O12  1  0.162841  0.868560  0.431660  1
  O  O13  1  0.837159  0.368560  0.068340  1
  O  O14  1  0.837159  0.131440  0.568340  1
  O  O15  1  0.162841  0.631440  0.931660  1
  O  O16  1  0.427970  0.789842  0.286785  1
  O  O17  1  0.572030  0.289842  0.213215  1
  O  O18  1  0.572030  0.210158  0.713215  1
  O  O19  1  0.427970  0.710158  0.786785  1
  O  O20  1  0.770442  0.558724  0.376255  1
  O  O21  1  0.229558  0.058724  0.123745  1
  O  O22  1  0.229558  0.441276  0.623745  1
  O  O23  1  0.770442  0.941276  0.876255  1
  O  O24  1  0.251984  0.019052  0.765404  1
  O  O25  1  0.748016  0.519052  0.734596  1
  O  O26  1  0.748016  0.980948  0.234596  1
  O  O27  1  0.251984  0.480948  0.265404  1
  O  O28  1  0.464655  0.439475  0.894845  1
  O  O29  1  0.535345  0.939475  0.605155  1
  O  O30  1  0.471335  0.657327  0.506996  1
  O  O31  1  0.464655  0.060525  0.394845  1
  O  O32  1  0.471335  0.842673  0.006996  1
  O  O33  1  0.528665  0.342673  0.493004  1
  O  O34  1  0.528665  0.157327  0.993004  1
  O  O35  1  0.535345  0.560525  0.105155  1
