# generated using pymatgen
data_K2Mn2Zn4Si4O15
_symmetry_space_group_name_H-M   'P 1'
_cell_length_a   9.56847625
_cell_length_b   9.56847625
_cell_length_c   9.56847625
_cell_angle_alpha   147.97309093
_cell_angle_beta   122.59781080
_cell_angle_gamma   67.26076293
_symmetry_Int_Tables_number   1
_chemical_formula_structural   K2Mn2Zn4Si4O15
_chemical_formula_sum   'K2 Mn2 Zn4 Si4 O15'
_cell_volume   386.53722500
_cell_formula_units_Z   1
loop_
 _symmetry_equiv_pos_site_id
 _symmetry_equiv_pos_as_xyz
  1  'x, y, z'
loop_
 _atom_site_type_symbol
 _atom_site_label
 _atom_site_symmetry_multiplicity
 _atom_site_fract_x
 _atom_site_fract_y
 _atom_site_fract_z
 _atom_site_occupancy
  K  K0  1  0.116863  0.180141  0.063278  1
  K  K1  1  0.883137  0.946414  0.063278  1
  Mn  Mn2  1  0.658713  0.110518  0.769231  1
  Mn  Mn3  1  0.341287  0.110518  0.451805  1
  Zn  Zn4  1  0.495730  0.285575  0.167106  1
  Zn  Zn5  1  0.118469  0.285575  0.789846  1
  Zn  Zn6  1  0.881531  0.671377  0.167106  1
  Zn  Zn7  1  0.504270  0.671377  0.789846  1
  Si  Si8  1  0.171343  0.556421  0.727764  1
  Si  Si9  1  0.694426  0.186450  0.492024  1
  Si  Si10  1  0.305574  0.797597  0.492024  1
  Si  Si11  1  0.828657  0.556421  0.385078  1
  O  O12  1  0.175884  0.859693  0.035577  1
  O  O13  1  0.714558  0.894762  0.180203  1
  O  O14  1  0.166529  0.331960  0.659015  1
  O  O15  1  0.409662  0.885992  0.770866  1
  O  O16  1  0.406354  0.952209  0.545855  1
  O  O17  1  0.672944  0.331960  0.165431  1
  O  O18  1  1.000000  0.458297  0.458297  1
  O  O19  1  0.884874  0.361204  0.770866  1
  O  O20  1  0.833471  0.492487  0.165431  1
  O  O21  1  0.824116  0.859693  0.683809  1
  O  O22  1  0.285442  0.465645  0.180203  1
  O  O23  1  0.115126  0.885992  0.476330  1
  O  O24  1  0.590338  0.361204  0.476330  1
  O  O25  1  0.327056  0.492487  0.659015  1
  O  O26  1  0.593646  0.139502  0.545855  1
