# generated using pymatgen
data_Ti6Ni16Ge7
_symmetry_space_group_name_H-M   'P 1'
_cell_length_a   8.06939344
_cell_length_b   8.06939344
_cell_length_c   8.06939344
_cell_angle_alpha   60.00000000
_cell_angle_beta   60.00000000
_cell_angle_gamma   60.00000000
_symmetry_Int_Tables_number   1
_chemical_formula_structural   Ti6Ni16Ge7
_chemical_formula_sum   'Ti6 Ni16 Ge7'
_cell_volume   371.54179461
_cell_formula_units_Z   1
loop_
 _symmetry_equiv_pos_site_id
 _symmetry_equiv_pos_as_xyz
  1  'x, y, z'
loop_
 _atom_site_type_symbol
 _atom_site_label
 _atom_site_symmetry_multiplicity
 _atom_site_fract_x
 _atom_site_fract_y
 _atom_site_fract_z
 _atom_site_occupancy
  Ti  Ti0  1  0.197291  0.802709  0.197291  1
  Ti  Ti1  1  0.802709  0.802709  0.197291  1
  Ti  Ti2  1  0.802709  0.197291  0.802709  1
  Ti  Ti3  1  0.197291  0.197291  0.802709  1
  Ti  Ti4  1  0.197291  0.802709  0.802709  1
  Ti  Ti5  1  0.802709  0.197291  0.197291  1
  Ni  Ni6  1  0.853487  0.382171  0.382171  1
  Ni  Ni7  1  0.834899  0.834899  0.495304  1
  Ni  Ni8  1  0.617829  0.617829  0.617829  1
  Ni  Ni9  1  0.165101  0.165101  0.165101  1
  Ni  Ni10  1  0.834899  0.834899  0.834899  1
  Ni  Ni11  1  0.504696  0.165101  0.165101  1
  Ni  Ni12  1  0.495304  0.834899  0.834899  1
  Ni  Ni13  1  0.382171  0.382171  0.382171  1
  Ni  Ni14  1  0.834899  0.495304  0.834899  1
  Ni  Ni15  1  0.146513  0.617829  0.617829  1
  Ni  Ni16  1  0.382171  0.853487  0.382171  1
  Ni  Ni17  1  0.617829  0.617829  0.146513  1
  Ni  Ni18  1  0.617829  0.146513  0.617829  1
  Ni  Ni19  1  0.165101  0.504696  0.165101  1
  Ni  Ni20  1  0.382171  0.382171  0.853487  1
  Ni  Ni21  1  0.165101  0.165101  0.504696  1
  Ge  Ge22  1  0.500000  0.000000  1.000000  1
  Ge  Ge23  1  1.000000  1.000000  0.500000  1
  Ge  Ge24  1  0.500000  0.500000  0.500000  1
  Ge  Ge25  1  0.500000  0.500000  1.000000  1
  Ge  Ge26  1  1.000000  0.500000  0.500000  1
  Ge  Ge27  1  0.500000  0.000000  0.500000  1
  Ge  Ge28  1  1.000000  0.500000  1.000000  1
