# generated using pymatgen
data_MnAsO4
_symmetry_space_group_name_H-M   'P 1'
_cell_length_a   5.07527549
_cell_length_b   6.14739555
_cell_length_c   10.28844520
_cell_angle_alpha   90.00000000
_cell_angle_beta   90.00000000
_cell_angle_gamma   90.00000000
_symmetry_Int_Tables_number   1
_chemical_formula_structural   MnAsO4
_chemical_formula_sum   'Mn4 As4 O16'
_cell_volume   320.99667082
_cell_formula_units_Z   4
loop_
 _symmetry_equiv_pos_site_id
 _symmetry_equiv_pos_as_xyz
  1  'x, y, z'
loop_
 _atom_site_type_symbol
 _atom_site_label
 _atom_site_symmetry_multiplicity
 _atom_site_fract_x
 _atom_site_fract_y
 _atom_site_fract_z
 _atom_site_occupancy
  Mn  Mn0  1  0.939169  0.250000  0.719156  1
  Mn  Mn1  1  0.560831  0.250000  0.219156  1
  Mn  Mn2  1  0.439169  0.750000  0.780844  1
  Mn  Mn3  1  0.060831  0.750000  0.280844  1
  As  As4  1  0.426014  0.250000  0.901463  1
  As  As5  1  0.073986  0.250000  0.401463  1
  As  As6  1  0.926014  0.750000  0.598537  1
  As  As7  1  0.573986  0.750000  0.098537  1
  O  O8  1  0.265626  0.038449  0.823001  1
  O  O9  1  0.234374  0.038449  0.323001  1
  O  O10  1  0.146783  0.250000  0.564033  1
  O  O11  1  0.761856  0.250000  0.883367  1
  O  O12  1  0.738144  0.250000  0.383367  1
  O  O13  1  0.353217  0.250000  0.064033  1
  O  O14  1  0.265626  0.461551  0.823001  1
  O  O15  1  0.234374  0.461551  0.323001  1
  O  O16  1  0.734374  0.538449  0.176999  1
  O  O17  1  0.765626  0.538449  0.676999  1
  O  O18  1  0.853217  0.750000  0.435967  1
  O  O19  1  0.646783  0.750000  0.935967  1
  O  O20  1  0.261856  0.750000  0.616633  1
  O  O21  1  0.238144  0.750000  0.116633  1
  O  O22  1  0.765626  0.961551  0.676999  1
  O  O23  1  0.734374  0.961551  0.176999  1
