# generated using pymatgen
data_K2Si4O9
_symmetry_space_group_name_H-M   'P 1'
_cell_length_a   5.00140367
_cell_length_b   8.51696487
_cell_length_c   12.32435976
_cell_angle_alpha   70.84218452
_cell_angle_beta   89.58719481
_cell_angle_gamma   89.00583550
_symmetry_Int_Tables_number   1
_chemical_formula_structural   K2Si4O9
_chemical_formula_sum   'K4 Si8 O18'
_cell_volume   495.82854531
_cell_formula_units_Z   2
loop_
 _symmetry_equiv_pos_site_id
 _symmetry_equiv_pos_as_xyz
  1  'x, y, z'
loop_
 _atom_site_type_symbol
 _atom_site_label
 _atom_site_symmetry_multiplicity
 _atom_site_fract_x
 _atom_site_fract_y
 _atom_site_fract_z
 _atom_site_occupancy
  K  K0  1  0.744050  0.588623  0.348958  1
  K  K1  1  0.255950  0.411377  0.651042  1
  K  K2  1  0.236412  0.935033  0.138582  1
  K  K3  1  0.763588  0.064967  0.861418  1
  Si  Si4  1  0.716963  0.182191  0.552312  1
  Si  Si5  1  0.207350  0.441214  0.145659  1
  Si  Si6  1  0.212778  0.197623  0.398772  1
  Si  Si7  1  0.283037  0.817809  0.447688  1
  Si  Si8  1  0.787222  0.802377  0.601228  1
  Si  Si9  1  0.792650  0.558786  0.854341  1
  Si  Si10  1  0.708220  0.668219  0.063584  1
  Si  Si11  1  0.291780  0.331781  0.936416  1
  O  O12  1  0.716342  0.654540  0.719982  1
  O  O13  1  0.905166  0.226495  0.434206  1
  O  O14  1  0.397877  0.601635  0.095542  1
  O  O15  1  0.283658  0.345460  0.280018  1
  O  O16  1  0.406699  0.212609  0.500502  1
  O  O17  1  0.094834  0.773505  0.565794  1
  O  O18  1  0.593301  0.787391  0.499498  1
  O  O19  1  0.756533  0.689871  0.925414  1
  O  O20  1  0.602123  0.398365  0.904458  1
  O  O21  1  0.243467  0.310129  0.074586  1
  O  O22  1  0.897700  0.507188  0.140262  1
  O  O23  1  0.247695  0.019830  0.376807  1
  O  O24  1  0.102300  0.492812  0.859738  1
  O  O25  1  0.768083  0.292741  0.630481  1
  O  O26  1  0.752305  0.980170  0.623193  1
  O  O27  1  0.231917  0.707259  0.369519  1
  O  O28  1  0.247857  0.166158  0.908420  1
  O  O29  1  0.752143  0.833842  0.091580  1
