# generated using pymatgen
data_Cs3CuTeS9
_symmetry_space_group_name_H-M   'P 1'
_cell_length_a   12.86587956
_cell_length_b   12.86587956
_cell_length_c   12.32958370
_cell_angle_alpha   90.00000000
_cell_angle_beta   90.00000000
_cell_angle_gamma   116.47800751
_symmetry_Int_Tables_number   1
_chemical_formula_structural   Cs3CuTeS9
_chemical_formula_sum   'Cs12 Cu4 Te4 S36'
_cell_volume   1826.84471621
_cell_formula_units_Z   4
loop_
 _symmetry_equiv_pos_site_id
 _symmetry_equiv_pos_as_xyz
  1  'x, y, z'
loop_
 _atom_site_type_symbol
 _atom_site_label
 _atom_site_symmetry_multiplicity
 _atom_site_fract_x
 _atom_site_fract_y
 _atom_site_fract_z
 _atom_site_occupancy
  Cs  Cs0  1  0.354132  0.053459  0.823773  1
  Cs  Cs1  1  0.036245  0.036245  0.334045  1
  Cs  Cs2  1  0.053459  0.354132  0.823773  1
  Cs  Cs3  1  0.854132  0.553459  0.676227  1
  Cs  Cs4  1  0.645868  0.946541  0.176227  1
  Cs  Cs5  1  0.145868  0.446541  0.323773  1
  Cs  Cs6  1  0.536245  0.536245  0.165955  1
  Cs  Cs7  1  0.963755  0.963755  0.665955  1
  Cs  Cs8  1  0.946541  0.645868  0.176227  1
  Cs  Cs9  1  0.553459  0.854132  0.676227  1
  Cs  Cs10  1  0.463755  0.463755  0.834045  1
  Cs  Cs11  1  0.446541  0.145868  0.323773  1
  Cu  Cu12  1  0.931827  0.068173  0.000000  1
  Cu  Cu13  1  0.431827  0.568173  0.500000  1
  Cu  Cu14  1  0.068173  0.931827  0.000000  1
  Cu  Cu15  1  0.568173  0.431827  0.500000  1
  Te  Te16  1  0.231303  0.231303  0.074823  1
  Te  Te17  1  0.268697  0.268697  0.574823  1
  Te  Te18  1  0.731303  0.731303  0.425177  1
  Te  Te19  1  0.768697  0.768697  0.925177  1
  S  S20  1  0.924333  0.332017  0.097332  1
  S  S21  1  0.079653  0.247375  0.544328  1
  S  S22  1  0.935168  0.182946  0.143739  1
  S  S23  1  0.752625  0.920347  0.455672  1
  S  S24  1  0.317054  0.564832  0.643739  1
  S  S25  1  0.832017  0.424333  0.402668  1
  S  S26  1  0.579653  0.747375  0.955672  1
  S  S27  1  0.251239  0.796796  0.419105  1
  S  S28  1  0.667983  0.075667  0.902668  1
  S  S29  1  0.247375  0.079653  0.544328  1
  S  S30  1  0.420347  0.252625  0.044328  1
  S  S31  1  0.703204  0.248761  0.919105  1
  S  S32  1  0.748761  0.203204  0.580895  1
  S  S33  1  0.203204  0.748761  0.580895  1
  S  S34  1  0.747375  0.579653  0.955672  1
  S  S35  1  0.296796  0.751239  0.080895  1
  S  S36  1  0.796796  0.251239  0.419105  1
  S  S37  1  0.817054  0.064832  0.856261  1
  S  S38  1  0.882118  0.882118  0.080689  1
  S  S39  1  0.167983  0.575667  0.597332  1
  S  S40  1  0.617882  0.617882  0.580689  1
  S  S41  1  0.332017  0.924333  0.097332  1
  S  S42  1  0.575667  0.167983  0.597332  1
  S  S43  1  0.682946  0.435168  0.356261  1
  S  S44  1  0.252625  0.420347  0.044328  1
  S  S45  1  0.382118  0.382118  0.419311  1
  S  S46  1  0.564832  0.317054  0.643739  1
  S  S47  1  0.920347  0.752625  0.455672  1
  S  S48  1  0.435168  0.682946  0.356261  1
  S  S49  1  0.182946  0.935168  0.143739  1
  S  S50  1  0.117882  0.117882  0.919311  1
  S  S51  1  0.424333  0.832017  0.402668  1
  S  S52  1  0.075667  0.667983  0.902668  1
  S  S53  1  0.248761  0.703204  0.919105  1
  S  S54  1  0.064832  0.817054  0.856261  1
  S  S55  1  0.751239  0.296796  0.080895  1
