# generated using pymatgen
data_CsTiAsO5
_symmetry_space_group_name_H-M   'P 1'
_cell_length_a   6.95745727
_cell_length_b   10.86187089
_cell_length_c   13.68671033
_cell_angle_alpha   90.00000000
_cell_angle_beta   90.00000000
_cell_angle_gamma   90.00000000
_symmetry_Int_Tables_number   1
_chemical_formula_structural   CsTiAsO5
_chemical_formula_sum   'Cs8 Ti8 As8 O40'
_cell_volume   1034.31842179
_cell_formula_units_Z   8
loop_
 _symmetry_equiv_pos_site_id
 _symmetry_equiv_pos_as_xyz
  1  'x, y, z'
loop_
 _atom_site_type_symbol
 _atom_site_label
 _atom_site_symmetry_multiplicity
 _atom_site_fract_x
 _atom_site_fract_y
 _atom_site_fract_z
 _atom_site_occupancy
  Cs  Cs0  1  0.214995  0.373007  0.613893  1
  Cs  Cs1  1  0.785005  0.873007  0.386107  1
  Cs  Cs2  1  0.285005  0.373007  0.113893  1
  Cs  Cs3  1  0.714995  0.873007  0.886107  1
  Cs  Cs4  1  0.304118  0.116113  0.889123  1
  Cs  Cs5  1  0.695882  0.616113  0.110877  1
  Cs  Cs6  1  0.195882  0.116113  0.389123  1
  Cs  Cs7  1  0.804118  0.616113  0.610877  1
  Ti  Ti8  1  0.497605  0.028397  0.629527  1
  Ti  Ti9  1  0.502395  0.528397  0.370473  1
  Ti  Ti10  1  0.002395  0.028397  0.129527  1
  Ti  Ti11  1  0.997605  0.528397  0.870473  1
  Ti  Ti12  1  0.736806  0.278951  0.750414  1
  Ti  Ti13  1  0.263194  0.778951  0.249586  1
  Ti  Ti14  1  0.763194  0.278951  0.250414  1
  Ti  Ti15  1  0.236806  0.778951  0.749586  1
  As  As16  1  0.671979  0.283416  0.498970  1
  As  As17  1  0.328021  0.783416  0.501030  1
  As  As18  1  0.828021  0.283416  0.998970  1
  As  As19  1  0.171979  0.783416  0.001030  1
  As  As20  1  0.496810  0.536975  0.822415  1
  As  As21  1  0.503190  0.036975  0.177585  1
  As  As22  1  0.003190  0.536975  0.322415  1
  As  As23  1  0.996810  0.036975  0.677585  1
  O  O24  1  0.519267  0.162746  0.514109  1
  O  O25  1  0.480733  0.662746  0.485891  1
  O  O26  1  0.980733  0.162746  0.014109  1
  O  O27  1  0.019267  0.662746  0.985891  1
  O  O28  1  0.538604  0.416430  0.484068  1
  O  O29  1  0.461396  0.916430  0.515932  1
  O  O30  1  0.961396  0.416430  0.984068  1
  O  O31  1  0.038604  0.916430  0.015932  1
  O  O32  1  0.806863  0.309177  0.603195  1
  O  O33  1  0.193137  0.809177  0.396805  1
  O  O34  1  0.693137  0.309177  0.103195  1
  O  O35  1  0.306863  0.809177  0.896805  1
  O  O36  1  0.815258  0.260929  0.396919  1
  O  O37  1  0.184742  0.760929  0.603081  1
  O  O38  1  0.684742  0.260929  0.896919  1
  O  O39  1  0.315258  0.760929  0.103081  1
  O  O40  1  0.560595  0.163794  0.715294  1
  O  O41  1  0.439405  0.663794  0.284706  1
  O  O42  1  0.939405  0.163794  0.215294  1
  O  O43  1  0.060595  0.663794  0.784706  1
  O  O44  1  0.936905  0.415516  0.782988  1
  O  O45  1  0.063095  0.915516  0.217012  1
  O  O46  1  0.563095  0.415516  0.282988  1
  O  O47  1  0.436905  0.915516  0.717012  1
  O  O48  1  0.698720  0.576136  0.888101  1
  O  O49  1  0.301280  0.076136  0.111899  1
  O  O50  1  0.801280  0.576136  0.388101  1
  O  O51  1  0.198720  0.076136  0.611899  1
  O  O52  1  0.296704  0.499620  0.890099  1
  O  O53  1  0.703296  0.999620  0.109901  1
  O  O54  1  0.203296  0.499620  0.390099  1
  O  O55  1  0.796704  0.999620  0.609901  1
  O  O56  1  0.452114  0.660971  0.745422  1
  O  O57  1  0.547886  0.160971  0.254578  1
  O  O58  1  0.047886  0.660971  0.245422  1
  O  O59  1  0.952114  0.160971  0.754578  1
  O  O60  1  0.546939  0.415821  0.744718  1
  O  O61  1  0.453061  0.915821  0.255282  1
  O  O62  1  0.953061  0.415821  0.244718  1
  O  O63  1  0.046939  0.915821  0.755282  1
