# generated using pymatgen
data_SnH4C2NO4F
_symmetry_space_group_name_H-M   'P 1'
_cell_length_a   7.80460138
_cell_length_b   9.84124325
_cell_length_c   8.65014158
_cell_angle_alpha   90.00000000
_cell_angle_beta   110.03207661
_cell_angle_gamma   90.00000000
_symmetry_Int_Tables_number   1
_chemical_formula_structural   SnH4C2NO4F
_chemical_formula_sum   'Sn4 H16 C8 N4 O16 F4'
_cell_volume   624.19624772
_cell_formula_units_Z   4
loop_
 _symmetry_equiv_pos_site_id
 _symmetry_equiv_pos_as_xyz
  1  'x, y, z'
loop_
 _atom_site_type_symbol
 _atom_site_label
 _atom_site_symmetry_multiplicity
 _atom_site_fract_x
 _atom_site_fract_y
 _atom_site_fract_z
 _atom_site_occupancy
  Sn  Sn0  1  0.005551  0.813159  0.376872  1
  Sn  Sn1  1  0.494449  0.313159  0.623128  1
  Sn  Sn2  1  0.994449  0.186841  0.623128  1
  Sn  Sn3  1  0.505551  0.686841  0.376872  1
  H  H4  1  0.721184  0.751756  0.000207  1
  H  H5  1  0.778816  0.251756  0.999793  1
  H  H6  1  0.028284  0.736969  0.837416  1
  H  H7  1  0.542131  0.649758  0.987918  1
  H  H8  1  0.831705  0.125916  0.139711  1
  H  H9  1  0.278816  0.248244  0.999793  1
  H  H10  1  0.668295  0.625916  0.860289  1
  H  H11  1  0.471716  0.236969  0.162584  1
  H  H12  1  0.168295  0.874084  0.860289  1
  H  H13  1  0.971716  0.263031  0.162584  1
  H  H14  1  0.528284  0.763031  0.837416  1
  H  H15  1  0.957869  0.149758  0.012082  1
  H  H16  1  0.221184  0.748244  0.000207  1
  H  H17  1  0.042131  0.850242  0.987918  1
  H  H18  1  0.331705  0.374084  0.139711  1
  H  H19  1  0.457869  0.350242  0.012082  1
  C  C20  1  0.622067  0.010423  0.700510  1
  C  C21  1  0.930535  0.483956  0.721086  1
  C  C22  1  0.877933  0.510423  0.299490  1
  C  C23  1  0.430535  0.016044  0.721086  1
  C  C24  1  0.377933  0.989577  0.299490  1
  C  C25  1  0.069465  0.516044  0.278914  1
  C  C26  1  0.569465  0.983956  0.278914  1
  C  C27  1  0.122067  0.489577  0.700510  1
  N  N28  1  0.385709  0.304937  0.079026  1
  N  N29  1  0.114291  0.804937  0.920974  1
  N  N30  1  0.614291  0.695063  0.920974  1
  N  N31  1  0.885709  0.195063  0.079026  1
  O  O32  1  0.202335  0.599375  0.711715  1
  O  O33  1  0.152875  0.631500  0.313250  1
  O  O34  1  0.630201  0.087515  0.232526  1
  O  O35  1  0.347125  0.131500  0.686750  1
  O  O36  1  0.702335  0.900625  0.711715  1
  O  O37  1  0.847125  0.368500  0.686750  1
  O  O38  1  0.130201  0.412485  0.232526  1
  O  O39  1  0.817567  0.627945  0.328223  1
  O  O40  1  0.297665  0.099375  0.288285  1
  O  O41  1  0.869799  0.587515  0.767474  1
  O  O42  1  0.369799  0.912485  0.767474  1
  O  O43  1  0.182433  0.372055  0.671777  1
  O  O44  1  0.652875  0.868500  0.313250  1
  O  O45  1  0.682433  0.127945  0.671777  1
  O  O46  1  0.317567  0.872055  0.328223  1
  O  O47  1  0.797665  0.400625  0.288285  1
  F  F48  1  0.407350  0.647977  0.121964  1
  F  F49  1  0.092650  0.147977  0.878036  1
  F  F50  1  0.907350  0.852023  0.121964  1
  F  F51  1  0.592650  0.352023  0.878036  1
