# generated using pymatgen
data_Ti4As3
_symmetry_space_group_name_H-M   'P 1'
_cell_length_a   6.66120746
_cell_length_b   6.66120746
_cell_length_c   6.66120746
_cell_angle_alpha   109.47122063
_cell_angle_beta   109.47122063
_cell_angle_gamma   109.47122063
_symmetry_Int_Tables_number   1
_chemical_formula_structural   Ti4As3
_chemical_formula_sum   'Ti8 As6'
_cell_volume   227.52912081
_cell_formula_units_Z   2
loop_
 _symmetry_equiv_pos_site_id
 _symmetry_equiv_pos_as_xyz
  1  'x, y, z'
loop_
 _atom_site_type_symbol
 _atom_site_label
 _atom_site_symmetry_multiplicity
 _atom_site_fract_x
 _atom_site_fract_y
 _atom_site_fract_z
 _atom_site_occupancy
  Ti  Ti0  1  0.000000  0.351368  0.500000  1
  Ti  Ti1  1  0.500000  0.000000  0.351368  1
  Ti  Ti2  1  0.851368  0.500000  0.000000  1
  Ti  Ti3  1  0.148632  0.148632  0.148632  1
  Ti  Ti4  1  0.500000  0.000000  0.851368  1
  Ti  Ti5  1  0.648632  0.648632  0.648632  1
  Ti  Ti6  1  1.000000  0.851368  0.500000  1
  Ti  Ti7  1  0.351368  0.500000  0.000000  1
  As  As8  1  0.750000  0.875000  0.125000  1
  As  As9  1  0.875000  0.125000  0.750000  1
  As  As10  1  0.625000  0.375000  0.250000  1
  As  As11  1  0.250000  0.625000  0.375000  1
  As  As12  1  0.125000  0.750000  0.875000  1
  As  As13  1  0.375000  0.250000  0.625000  1
