# generated using pymatgen
data_Pr6RuBr10
_symmetry_space_group_name_H-M   'P 1'
_cell_length_a   7.74402837
_cell_length_b   9.45893826
_cell_length_c   9.79878712
_cell_angle_alpha   109.09700610
_cell_angle_beta   96.97012100
_cell_angle_gamma   106.74776819
_symmetry_Int_Tables_number   1
_chemical_formula_structural   Pr6RuBr10
_chemical_formula_sum   'Pr6 Ru1 Br10'
_cell_volume   630.78250240
_cell_formula_units_Z   1
loop_
 _symmetry_equiv_pos_site_id
 _symmetry_equiv_pos_as_xyz
  1  'x, y, z'
loop_
 _atom_site_type_symbol
 _atom_site_label
 _atom_site_symmetry_multiplicity
 _atom_site_fract_x
 _atom_site_fract_y
 _atom_site_fract_z
 _atom_site_occupancy
  Pr  Pr0  1  0.132808  0.051259  0.749697  1
  Pr  Pr1  1  0.624095  0.849096  0.808619  1
  Pr  Pr2  1  0.867192  0.948741  0.250303  1
  Pr  Pr3  1  0.026286  0.712509  0.911204  1
  Pr  Pr4  1  0.375905  0.150904  0.191381  1
  Pr  Pr5  1  0.973714  0.287491  0.088796  1
  Ru  Ru6  1  0.000000  0.000000  0.000000  1
  Br  Br7  1  0.194191  0.738902  0.650024  1
  Br  Br8  1  0.639944  0.532404  0.724674  1
  Br  Br9  1  0.252625  0.082542  0.451220  1
  Br  Br10  1  0.805809  0.261098  0.349976  1
  Br  Br11  1  0.553783  0.173651  0.921332  1
  Br  Br12  1  0.747375  0.917458  0.548780  1
  Br  Br13  1  0.909602  0.630748  0.168472  1
  Br  Br14  1  0.360056  0.467596  0.275326  1
  Br  Br15  1  0.090398  0.369252  0.831528  1
  Br  Br16  1  0.446217  0.826349  0.078668  1
