# generated using pymatgen
data_Yb(AlCl4)2
_symmetry_space_group_name_H-M   'P 1'
_cell_length_a   12.85057099
_cell_length_b   12.85057099
_cell_length_c   12.85057099
_cell_angle_alpha   126.53605083
_cell_angle_beta   126.53605083
_cell_angle_gamma   79.00887620
_symmetry_Int_Tables_number   1
_chemical_formula_structural   Yb(AlCl4)2
_chemical_formula_sum   'Yb4 Al8 Cl32'
_cell_volume   1325.19032023
_cell_formula_units_Z   4
loop_
 _symmetry_equiv_pos_site_id
 _symmetry_equiv_pos_as_xyz
  1  'x, y, z'
loop_
 _atom_site_type_symbol
 _atom_site_label
 _atom_site_symmetry_multiplicity
 _atom_site_fract_x
 _atom_site_fract_y
 _atom_site_fract_z
 _atom_site_occupancy
  Yb  Yb0  1  0.250000  0.750000  0.500000  1
  Yb  Yb1  1  0.500000  0.500000  0.000000  1
  Yb  Yb2  1  0.000000  0.000000  0.000000  1
  Yb  Yb3  1  0.750000  0.250000  0.500000  1
  Al  Al4  1  0.625000  0.849635  0.724635  1
  Al  Al5  1  0.125000  0.400365  0.775365  1
  Al  Al6  1  0.099635  0.375000  0.224635  1
  Al  Al7  1  0.125000  0.900365  0.275365  1
  Al  Al8  1  0.150365  0.875000  0.775365  1
  Al  Al9  1  0.625000  0.349635  0.224635  1
  Al  Al10  1  0.599635  0.375000  0.724635  1
  Al  Al11  1  0.650365  0.875000  0.275365  1
  Cl  Cl12  1  0.997655  0.529334  0.282972  1
  Cl  Cl13  1  0.131665  0.933438  0.638535  1
  Cl  Cl14  1  0.779334  0.747655  0.782972  1
  Cl  Cl15  1  0.497655  0.214684  0.468321  1
  Cl  Cl16  1  0.794903  0.433438  0.801773  1
  Cl  Cl17  1  0.631665  0.993130  0.198227  1
  Cl  Cl18  1  0.243130  0.381665  0.698227  1
  Cl  Cl19  1  0.006870  0.205097  0.638535  1
  Cl  Cl20  1  0.752345  0.720666  0.217028  1
  Cl  Cl21  1  0.246363  0.714684  0.717028  1
  Cl  Cl22  1  0.279334  0.496363  0.031679  1
  Cl  Cl23  1  0.118335  0.256870  0.301773  1
  Cl  Cl24  1  0.455097  0.756870  0.138535  1
  Cl  Cl25  1  0.970666  0.502345  0.717028  1
  Cl  Cl26  1  0.785316  0.253637  0.282972  1
  Cl  Cl27  1  0.294903  0.493130  0.361465  1
  Cl  Cl28  1  0.464684  0.247655  0.968321  1
  Cl  Cl29  1  0.183438  0.881665  0.138535  1
  Cl  Cl30  1  0.743130  0.044903  0.861465  1
  Cl  Cl31  1  0.066562  0.705097  0.198227  1
  Cl  Cl32  1  0.683438  0.544903  0.301773  1
  Cl  Cl33  1  0.618335  0.316562  0.861465  1
  Cl  Cl34  1  0.746363  0.029334  0.531679  1
  Cl  Cl35  1  0.506870  0.868335  0.801773  1
  Cl  Cl36  1  0.470666  0.753637  0.468321  1
  Cl  Cl37  1  0.003637  0.220666  0.968321  1
  Cl  Cl38  1  0.285316  0.002345  0.531679  1
  Cl  Cl39  1  0.566562  0.368335  0.361465  1
  Cl  Cl40  1  0.964684  0.996363  0.217028  1
  Cl  Cl41  1  0.252345  0.035316  0.031679  1
  Cl  Cl42  1  0.503637  0.535316  0.782972  1
  Cl  Cl43  1  0.955097  0.816562  0.698227  1
