# generated using pymatgen
data_CdSiO3
_symmetry_space_group_name_H-M   'P 1'
_cell_length_a   7.08668147
_cell_length_b   7.36229564
_cell_length_c   15.32166421
_cell_angle_alpha   90.00000000
_cell_angle_beta   95.04442304
_cell_angle_gamma   90.00000000
_symmetry_Int_Tables_number   1
_chemical_formula_structural   CdSiO3
_chemical_formula_sum   'Cd12 Si12 O36'
_cell_volume   796.30004673
_cell_formula_units_Z   12
loop_
 _symmetry_equiv_pos_site_id
 _symmetry_equiv_pos_as_xyz
  1  'x, y, z'
loop_
 _atom_site_type_symbol
 _atom_site_label
 _atom_site_symmetry_multiplicity
 _atom_site_fract_x
 _atom_site_fract_y
 _atom_site_fract_z
 _atom_site_occupancy
  Cd  Cd0  1  0.988614  0.623844  0.251769  1
  Cd  Cd1  1  0.750574  0.372770  0.401403  1
  Cd  Cd2  1  0.253353  0.379402  0.101713  1
  Cd  Cd3  1  0.011386  0.123844  0.248231  1
  Cd  Cd4  1  0.746647  0.620598  0.898287  1
  Cd  Cd5  1  0.249426  0.872770  0.098597  1
  Cd  Cd6  1  0.746647  0.879402  0.398287  1
  Cd  Cd7  1  0.253353  0.120598  0.601713  1
  Cd  Cd8  1  0.011386  0.376156  0.748231  1
  Cd  Cd9  1  0.750574  0.127230  0.901403  1
  Cd  Cd10  1  0.249426  0.627230  0.598597  1
  Cd  Cd11  1  0.988614  0.876156  0.751769  1
  Si  Si12  1  0.760400  0.410982  0.089645  1
  Si  Si13  1  0.761379  0.837663  0.090243  1
  Si  Si14  1  0.452397  0.876609  0.802361  1
  Si  Si15  1  0.239600  0.589018  0.910355  1
  Si  Si16  1  0.238621  0.337663  0.409757  1
  Si  Si17  1  0.452397  0.623391  0.302361  1
  Si  Si18  1  0.239600  0.910982  0.410355  1
  Si  Si19  1  0.761379  0.662337  0.590243  1
  Si  Si20  1  0.760400  0.089018  0.589645  1
  Si  Si21  1  0.547603  0.376609  0.697639  1
  Si  Si22  1  0.547603  0.123391  0.197639  1
  Si  Si23  1  0.238621  0.162337  0.909757  1
  O  O24  1  0.297900  0.376041  0.899943  1
  O  O25  1  0.702100  0.876041  0.600057  1
  O  O26  1  0.585638  0.555357  0.633983  1
  O  O27  1  0.414362  0.444643  0.366017  1
  O  O28  1  0.414362  0.055357  0.866017  1
  O  O29  1  0.702100  0.623959  0.100057  1
  O  O30  1  0.773763  0.620771  0.487697  1
  O  O31  1  0.042650  0.124728  0.846362  1
  O  O32  1  0.957350  0.875272  0.153638  1
  O  O33  1  0.226237  0.120771  0.012303  1
  O  O34  1  0.042422  0.870931  0.349016  1
  O  O35  1  0.680728  0.874998  0.797093  1
  O  O36  1  0.586325  0.198177  0.633226  1
  O  O37  1  0.305050  0.876127  0.714569  1
  O  O38  1  0.586325  0.301823  0.133226  1
  O  O39  1  0.694950  0.123873  0.285431  1
  O  O40  1  0.319272  0.125002  0.202907  1
  O  O41  1  0.042650  0.375272  0.346362  1
  O  O42  1  0.413675  0.698177  0.866774  1
  O  O43  1  0.297900  0.123959  0.399943  1
  O  O44  1  0.957350  0.624728  0.653638  1
  O  O45  1  0.319272  0.374998  0.702907  1
  O  O46  1  0.694950  0.376127  0.785431  1
  O  O47  1  0.226237  0.379229  0.512303  1
  O  O48  1  0.042422  0.629069  0.849016  1
  O  O49  1  0.305050  0.623873  0.214569  1
  O  O50  1  0.680728  0.625002  0.297093  1
  O  O51  1  0.413675  0.801823  0.366774  1
  O  O52  1  0.957578  0.129069  0.650984  1
  O  O53  1  0.232733  0.871700  0.514209  1
  O  O54  1  0.585638  0.944643  0.133983  1
  O  O55  1  0.773763  0.879229  0.987697  1
  O  O56  1  0.232733  0.628300  0.014209  1
  O  O57  1  0.767267  0.128300  0.485791  1
  O  O58  1  0.957578  0.370931  0.150984  1
  O  O59  1  0.767267  0.371700  0.985791  1
