# generated using pymatgen
data_Sb2Pd5
_symmetry_space_group_name_H-M   'P 1'
_cell_length_a   7.73873910
_cell_length_b   7.73873910
_cell_length_c   14.10340267
_cell_angle_alpha   90.00000000
_cell_angle_beta   90.00000000
_cell_angle_gamma   120.00000000
_symmetry_Int_Tables_number   1
_chemical_formula_structural   Sb2Pd5
_chemical_formula_sum   'Sb12 Pd30'
_cell_volume   731.46735422
_cell_formula_units_Z   6
loop_
 _symmetry_equiv_pos_site_id
 _symmetry_equiv_pos_as_xyz
  1  'x, y, z'
loop_
 _atom_site_type_symbol
 _atom_site_label
 _atom_site_symmetry_multiplicity
 _atom_site_fract_x
 _atom_site_fract_y
 _atom_site_fract_z
 _atom_site_occupancy
  Sb  Sb0  1  0.666667  0.333333  0.291822  1
  Sb  Sb1  1  0.333333  0.666667  0.791822  1
  Sb  Sb2  1  0.332558  0.332558  0.017074  1
  Sb  Sb3  1  0.000000  0.667442  0.017074  1
  Sb  Sb4  1  0.000000  0.000000  0.742391  1
  Sb  Sb5  1  0.000000  0.000000  0.242391  1
  Sb  Sb6  1  0.667442  0.667442  0.517074  1
  Sb  Sb7  1  0.332558  0.000000  0.517074  1
  Sb  Sb8  1  0.000000  0.332558  0.517074  1
  Sb  Sb9  1  0.666667  0.333333  0.791822  1
  Sb  Sb10  1  0.667442  0.000000  0.017074  1
  Sb  Sb11  1  0.333333  0.666667  0.291822  1
  Pd  Pd12  1  0.627778  0.627778  0.922520  1
  Pd  Pd13  1  0.628061  0.000000  0.212993  1
  Pd  Pd14  1  0.333333  0.666667  0.089613  1
  Pd  Pd15  1  0.737113  0.737113  0.114393  1
  Pd  Pd16  1  0.308319  0.000000  0.322116  1
  Pd  Pd17  1  0.308319  0.308319  0.822116  1
  Pd  Pd18  1  0.666667  0.333333  0.089613  1
  Pd  Pd19  1  0.262887  0.000000  0.114393  1
  Pd  Pd20  1  0.262887  0.262887  0.614393  1
  Pd  Pd21  1  0.372222  0.372222  0.422520  1
  Pd  Pd22  1  0.000000  0.308319  0.322116  1
  Pd  Pd23  1  0.000000  0.372222  0.922520  1
  Pd  Pd24  1  0.691681  0.691681  0.322116  1
  Pd  Pd25  1  0.371939  0.000000  0.712993  1
  Pd  Pd26  1  0.000000  0.627778  0.422520  1
  Pd  Pd27  1  0.666667  0.333333  0.589613  1
  Pd  Pd28  1  0.628061  0.628061  0.712993  1
  Pd  Pd29  1  0.000000  0.000000  0.945455  1
  Pd  Pd30  1  0.737113  0.000000  0.614393  1
  Pd  Pd31  1  0.000000  0.737113  0.614393  1
  Pd  Pd32  1  0.333333  0.666667  0.589613  1
  Pd  Pd33  1  0.691681  0.000000  0.822116  1
  Pd  Pd34  1  0.627778  0.000000  0.422520  1
  Pd  Pd35  1  0.000000  0.000000  0.445455  1
  Pd  Pd36  1  0.371939  0.371939  0.212993  1
  Pd  Pd37  1  0.372222  0.000000  0.922520  1
  Pd  Pd38  1  0.000000  0.628061  0.212993  1
  Pd  Pd39  1  0.000000  0.371939  0.712993  1
  Pd  Pd40  1  0.000000  0.691681  0.822116  1
  Pd  Pd41  1  0.000000  0.262887  0.114393  1
