# generated using pymatgen
data_Tl2Te3O7
_symmetry_space_group_name_H-M   'P 1'
_cell_length_a   6.96750367
_cell_length_b   7.62993024
_cell_length_c   10.35329955
_cell_angle_alpha   93.00024068
_cell_angle_beta   109.14378302
_cell_angle_gamma   111.92835620
_symmetry_Int_Tables_number   1
_chemical_formula_structural   Tl2Te3O7
_chemical_formula_sum   'Tl4 Te6 O14'
_cell_volume   472.64811734
_cell_formula_units_Z   2
loop_
 _symmetry_equiv_pos_site_id
 _symmetry_equiv_pos_as_xyz
  1  'x, y, z'
loop_
 _atom_site_type_symbol
 _atom_site_label
 _atom_site_symmetry_multiplicity
 _atom_site_fract_x
 _atom_site_fract_y
 _atom_site_fract_z
 _atom_site_occupancy
  Tl  Tl0  1  0.886836  0.145639  0.830282  1
  Tl  Tl1  1  0.295534  0.040508  0.565956  1
  Tl  Tl2  1  0.113164  0.854361  0.169718  1
  Tl  Tl3  1  0.704466  0.959492  0.434044  1
  Te  Te4  1  0.487718  0.209147  0.989617  1
  Te  Te5  1  0.135351  0.352182  0.237721  1
  Te  Te6  1  0.259589  0.506205  0.664653  1
  Te  Te7  1  0.864649  0.647818  0.762279  1
  Te  Te8  1  0.512282  0.790853  0.010383  1
  Te  Te9  1  0.740411  0.493795  0.335347  1
  O  O10  1  0.056895  0.469860  0.370922  1
  O  O11  1  0.557230  0.460199  0.691652  1
  O  O12  1  0.168359  0.150575  0.324423  1
  O  O13  1  0.350095  0.904761  0.877134  1
  O  O14  1  0.831641  0.849425  0.675577  1
  O  O15  1  0.322216  0.534533  0.865451  1
  O  O16  1  0.677784  0.465467  0.134549  1
  O  O17  1  0.649905  0.095239  0.122866  1
  O  O18  1  0.890854  0.760987  0.366538  1
  O  O19  1  0.442770  0.539801  0.308348  1
  O  O20  1  0.943105  0.530140  0.629078  1
  O  O21  1  0.764503  0.843659  0.964993  1
  O  O22  1  0.109146  0.239013  0.633462  1
  O  O23  1  0.235497  0.156341  0.035007  1
