# generated using pymatgen
data_Sr3CaIrO6
_symmetry_space_group_name_H-M   'P 1'
_cell_length_a   6.86458381
_cell_length_b   6.86458381
_cell_length_c   6.86458381
_cell_angle_alpha   91.47602349
_cell_angle_beta   91.47602349
_cell_angle_gamma   91.47602349
_symmetry_Int_Tables_number   1
_chemical_formula_structural   Sr3CaIrO6
_chemical_formula_sum   'Sr6 Ca2 Ir2 O12'
_cell_volume   323.14878756
_cell_formula_units_Z   2
loop_
 _symmetry_equiv_pos_site_id
 _symmetry_equiv_pos_as_xyz
  1  'x, y, z'
loop_
 _atom_site_type_symbol
 _atom_site_label
 _atom_site_symmetry_multiplicity
 _atom_site_fract_x
 _atom_site_fract_y
 _atom_site_fract_z
 _atom_site_occupancy
  Sr  Sr0  1  0.113732  0.386268  0.750000  1
  Sr  Sr1  1  0.250000  0.886268  0.613732  1
  Sr  Sr2  1  0.613732  0.250000  0.886268  1
  Sr  Sr3  1  0.386268  0.750000  0.113732  1
  Sr  Sr4  1  0.750000  0.113732  0.386268  1
  Sr  Sr5  1  0.886268  0.613732  0.250000  1
  Ca  Ca6  1  0.250000  0.250000  0.250000  1
  Ca  Ca7  1  0.750000  0.750000  0.750000  1
  Ir  Ir8  1  0.000000  0.000000  0.000000  1
  Ir  Ir9  1  0.500000  0.500000  0.500000  1
  O  O10  1  0.550444  0.418535  0.214254  1
  O  O11  1  0.081465  0.949556  0.285746  1
  O  O12  1  0.214254  0.550444  0.418535  1
  O  O13  1  0.581465  0.785746  0.449556  1
  O  O14  1  0.785746  0.449556  0.581465  1
  O  O15  1  0.418535  0.214254  0.550444  1
  O  O16  1  0.285746  0.081465  0.949556  1
  O  O17  1  0.949556  0.285746  0.081465  1
  O  O18  1  0.714254  0.918535  0.050444  1
  O  O19  1  0.050444  0.714254  0.918535  1
  O  O20  1  0.918535  0.050444  0.714254  1
  O  O21  1  0.449556  0.581465  0.785746  1
