# generated using pymatgen
data_K2SbSO4F3
_symmetry_space_group_name_H-M   'P 1'
_cell_length_a   5.72811953
_cell_length_b   9.29199131
_cell_length_c   14.35654933
_cell_angle_alpha   90.00000000
_cell_angle_beta   90.00000000
_cell_angle_gamma   90.00000000
_symmetry_Int_Tables_number   1
_chemical_formula_structural   K2SbSO4F3
_chemical_formula_sum   'K8 Sb4 S4 O16 F12'
_cell_volume   764.13648171
_cell_formula_units_Z   4
loop_
 _symmetry_equiv_pos_site_id
 _symmetry_equiv_pos_as_xyz
  1  'x, y, z'
loop_
 _atom_site_type_symbol
 _atom_site_label
 _atom_site_symmetry_multiplicity
 _atom_site_fract_x
 _atom_site_fract_y
 _atom_site_fract_z
 _atom_site_occupancy
  K  K0  1  0.980322  0.814107  0.110754  1
  K  K1  1  0.019678  0.314107  0.389246  1
  K  K2  1  0.495880  0.491348  0.191506  1
  K  K3  1  0.504120  0.991348  0.308494  1
  K  K4  1  0.004120  0.508652  0.691506  1
  K  K5  1  0.480322  0.685893  0.889246  1
  K  K6  1  0.995880  0.008652  0.808494  1
  K  K7  1  0.519678  0.185893  0.610754  1
  Sb  Sb8  1  0.467931  0.057232  0.021769  1
  Sb  Sb9  1  0.967931  0.442768  0.978231  1
  Sb  Sb10  1  0.032069  0.942768  0.521769  1
  Sb  Sb11  1  0.532069  0.557232  0.478231  1
  S  S12  1  0.975543  0.706888  0.338733  1
  S  S13  1  0.524457  0.293112  0.838733  1
  S  S14  1  0.475543  0.793112  0.661267  1
  S  S15  1  0.024457  0.206888  0.161267  1
  O  O16  1  0.346640  0.367133  0.782537  1
  O  O17  1  0.572475  0.647896  0.630926  1
  O  O18  1  0.073927  0.120678  0.073779  1
  O  O19  1  0.926073  0.620678  0.426221  1
  O  O20  1  0.927525  0.352104  0.130926  1
  O  O21  1  0.743317  0.270426  0.785796  1
  O  O22  1  0.653360  0.867133  0.717463  1
  O  O23  1  0.573927  0.379322  0.926221  1
  O  O24  1  0.153360  0.632867  0.282537  1
  O  O25  1  0.426073  0.879322  0.573779  1
  O  O26  1  0.756683  0.729574  0.285796  1
  O  O27  1  0.256683  0.770426  0.714204  1
  O  O28  1  0.427525  0.147896  0.869074  1
  O  O29  1  0.846640  0.132867  0.217463  1
  O  O30  1  0.243317  0.229574  0.214204  1
  O  O31  1  0.072475  0.852104  0.369074  1
  F  F32  1  0.542337  0.406824  0.374316  1
  F  F33  1  0.748053  0.420237  0.540268  1
  F  F34  1  0.713924  0.927199  0.964138  1
  F  F35  1  0.042337  0.093176  0.625684  1
  F  F36  1  0.251947  0.920237  0.959732  1
  F  F37  1  0.786076  0.072801  0.464138  1
  F  F38  1  0.957663  0.593176  0.874316  1
  F  F39  1  0.286076  0.427199  0.535862  1
  F  F40  1  0.248053  0.079763  0.459732  1
  F  F41  1  0.751947  0.579763  0.040268  1
  F  F42  1  0.457663  0.906824  0.125684  1
  F  F43  1  0.213924  0.572801  0.035862  1
