# generated using pymatgen
data_K3FeSe3
_symmetry_space_group_name_H-M   'P 1'
_cell_length_a   8.12892954
_cell_length_b   13.03077308
_cell_length_c   10.52816374
_cell_angle_alpha   90.00000000
_cell_angle_beta   127.54057766
_cell_angle_gamma   90.00000000
_symmetry_Int_Tables_number   1
_chemical_formula_structural   K3FeSe3
_chemical_formula_sum   'K12 Fe4 Se12'
_cell_volume   884.27356887
_cell_formula_units_Z   4
loop_
 _symmetry_equiv_pos_site_id
 _symmetry_equiv_pos_as_xyz
  1  'x, y, z'
loop_
 _atom_site_type_symbol
 _atom_site_label
 _atom_site_symmetry_multiplicity
 _atom_site_fract_x
 _atom_site_fract_y
 _atom_site_fract_z
 _atom_site_occupancy
  K  K0  1  0.128768  0.189598  0.417938  1
  K  K1  1  0.653813  0.079916  0.397448  1
  K  K2  1  0.383956  0.628672  0.522954  1
  K  K3  1  0.616044  0.371328  0.477046  1
  K  K4  1  0.383956  0.871328  0.022954  1
  K  K5  1  0.346187  0.579916  0.102552  1
  K  K6  1  0.616044  0.128672  0.977046  1
  K  K7  1  0.346187  0.920084  0.602552  1
  K  K8  1  0.128768  0.310402  0.917938  1
  K  K9  1  0.653813  0.420084  0.897448  1
  K  K10  1  0.871232  0.810402  0.582062  1
  K  K11  1  0.871232  0.689598  0.082062  1
  Fe  Fe12  1  0.939531  0.443114  0.348139  1
  Fe  Fe13  1  0.060469  0.943114  0.151861  1
  Fe  Fe14  1  0.060469  0.556886  0.651861  1
  Fe  Fe15  1  0.939531  0.056886  0.848139  1
  Se  Se16  1  0.844432  0.612043  0.374993  1
  Se  Se17  1  0.126232  0.451362  0.240410  1
  Se  Se18  1  0.349945  0.827499  0.308288  1
  Se  Se19  1  0.155568  0.387957  0.625007  1
  Se  Se20  1  0.155568  0.112043  0.125007  1
  Se  Se21  1  0.650055  0.172501  0.691712  1
  Se  Se22  1  0.873768  0.548638  0.759590  1
  Se  Se23  1  0.650055  0.327499  0.191712  1
  Se  Se24  1  0.844432  0.887957  0.874993  1
  Se  Se25  1  0.873768  0.951362  0.259590  1
  Se  Se26  1  0.126232  0.048638  0.740410  1
  Se  Se27  1  0.349945  0.672501  0.808288  1
