# generated using pymatgen
data_NbRh
_symmetry_space_group_name_H-M   'P 1'
_cell_length_a   4.90197557
_cell_length_b   2.86699598
_cell_length_c   7.08875286
_cell_angle_alpha   90.00000000
_cell_angle_beta   103.69119029
_cell_angle_gamma   90.00000000
_symmetry_Int_Tables_number   1
_chemical_formula_structural   NbRh
_chemical_formula_sum   'Nb3 Rh3'
_cell_volume   96.79414718
_cell_formula_units_Z   3
loop_
 _symmetry_equiv_pos_site_id
 _symmetry_equiv_pos_as_xyz
  1  'x, y, z'
loop_
 _atom_site_type_symbol
 _atom_site_label
 _atom_site_symmetry_multiplicity
 _atom_site_fract_x
 _atom_site_fract_y
 _atom_site_fract_z
 _atom_site_occupancy
  Nb  Nb0  1  0.253993  0.000000  0.667020  1
  Nb  Nb1  1  0.000000  0.000000  0.000000  1
  Nb  Nb2  1  0.746007  0.000000  0.332980  1
  Rh  Rh3  1  0.500000  0.500000  0.000000  1
  Rh  Rh4  1  0.744122  0.500000  0.665289  1
  Rh  Rh5  1  0.255878  0.500000  0.334711  1
