# generated using pymatgen
data_BaCr2O4
_symmetry_space_group_name_H-M   'P 1'
_cell_length_a   5.28390981
_cell_length_b   6.09293175
_cell_length_c   12.40598101
_cell_angle_alpha   90.00000000
_cell_angle_beta   90.00000000
_cell_angle_gamma   90.00000000
_symmetry_Int_Tables_number   1
_chemical_formula_structural   BaCr2O4
_chemical_formula_sum   'Ba4 Cr8 O16'
_cell_volume   399.40437852
_cell_formula_units_Z   4
loop_
 _symmetry_equiv_pos_site_id
 _symmetry_equiv_pos_as_xyz
  1  'x, y, z'
loop_
 _atom_site_type_symbol
 _atom_site_label
 _atom_site_symmetry_multiplicity
 _atom_site_fract_x
 _atom_site_fract_y
 _atom_site_fract_z
 _atom_site_occupancy
  Ba  Ba0  1  0.866575  0.000000  0.500000  1
  Ba  Ba1  1  0.133425  0.500000  0.000000  1
  Ba  Ba2  1  0.554137  0.000000  0.000000  1
  Ba  Ba3  1  0.445863  0.500000  0.500000  1
  Cr  Cr4  1  0.502060  0.500000  0.244482  1
  Cr  Cr5  1  0.502060  0.500000  0.755518  1
  Cr  Cr6  1  0.497940  0.000000  0.255518  1
  Cr  Cr7  1  0.497940  0.000000  0.744482  1
  Cr  Cr8  1  0.000000  0.250000  0.250000  1
  Cr  Cr9  1  0.000000  0.750000  0.750000  1
  Cr  Cr10  1  0.000000  0.750000  0.250000  1
  Cr  Cr11  1  0.000000  0.250000  0.750000  1
  O  O12  1  0.832523  0.500000  0.164609  1
  O  O13  1  0.832523  0.500000  0.835391  1
  O  O14  1  0.167477  0.000000  0.335391  1
  O  O15  1  0.167477  0.000000  0.664609  1
  O  O16  1  0.168202  0.500000  0.329862  1
  O  O17  1  0.168202  0.500000  0.670138  1
  O  O18  1  0.831798  0.000000  0.170138  1
  O  O19  1  0.831798  0.000000  0.829862  1
  O  O20  1  0.665202  0.252655  0.337337  1
  O  O21  1  0.665202  0.747345  0.662663  1
  O  O22  1  0.334798  0.752655  0.162663  1
  O  O23  1  0.334798  0.247345  0.837337  1
  O  O24  1  0.334798  0.247345  0.162663  1
  O  O25  1  0.334798  0.752655  0.837337  1
  O  O26  1  0.665202  0.747345  0.337337  1
  O  O27  1  0.665202  0.252655  0.662663  1
