# generated using pymatgen
data_KCu4(PO4)3
_symmetry_space_group_name_H-M   'P 1'
_cell_length_a   7.53348593
_cell_length_b   7.92450249
_cell_length_c   9.61166302
_cell_angle_alpha   108.12777205
_cell_angle_beta   112.77590349
_cell_angle_gamma   92.32652464
_symmetry_Int_Tables_number   1
_chemical_formula_structural   KCu4(PO4)3
_chemical_formula_sum   'K2 Cu8 P6 O24'
_cell_volume   494.24105050
_cell_formula_units_Z   2
loop_
 _symmetry_equiv_pos_site_id
 _symmetry_equiv_pos_as_xyz
  1  'x, y, z'
loop_
 _atom_site_type_symbol
 _atom_site_label
 _atom_site_symmetry_multiplicity
 _atom_site_fract_x
 _atom_site_fract_y
 _atom_site_fract_z
 _atom_site_occupancy
  K  K0  1  0.693940  0.864218  0.672445  1
  K  K1  1  0.306060  0.135782  0.327555  1
  Cu  Cu2  1  0.735424  0.100046  0.099715  1
  Cu  Cu3  1  0.693512  0.382057  0.714236  1
  Cu  Cu4  1  0.264576  0.899954  0.900285  1
  Cu  Cu5  1  0.306488  0.617943  0.285764  1
  Cu  Cu6  1  0.736014  0.468189  0.076883  1
  Cu  Cu7  1  0.263986  0.531811  0.923117  1
  Cu  Cu8  1  0.023360  0.790670  0.453858  1
  Cu  Cu9  1  0.976640  0.209330  0.546142  1
  P  P10  1  0.298597  0.551529  0.614132  1
  P  P11  1  0.383358  0.147521  0.748642  1
  P  P12  1  0.701403  0.448471  0.385868  1
  P  P13  1  0.978644  0.748618  0.055904  1
  P  P14  1  0.021356  0.251382  0.944096  1
  P  P15  1  0.616642  0.852479  0.251358  1
  O  O16  1  0.817577  0.575515  0.948212  1
  O  O17  1  0.551036  0.983235  0.154732  1
  O  O18  1  0.250499  0.676320  0.510454  1
  O  O19  1  0.895366  0.920283  0.063290  1
  O  O20  1  0.182423  0.424485  0.051788  1
  O  O21  1  0.133267  0.744614  0.982869  1
  O  O22  1  0.448964  0.016765  0.845268  1
  O  O23  1  0.514957  0.538965  0.656434  1
  O  O24  1  0.082946  0.740861  0.229707  1
  O  O25  1  0.404858  0.339377  0.865548  1
  O  O26  1  0.269173  0.648382  0.771756  1
  O  O27  1  0.866733  0.255386  0.017131  1
  O  O28  1  0.512839  0.151567  0.658245  1
  O  O29  1  0.838011  0.633710  0.480483  1
  O  O30  1  0.730827  0.351618  0.228244  1
  O  O31  1  0.834187  0.936553  0.377074  1
  O  O32  1  0.104634  0.079717  0.936710  1
  O  O33  1  0.917054  0.259139  0.770293  1
  O  O34  1  0.161989  0.366290  0.519517  1
  O  O35  1  0.595142  0.660623  0.134452  1
  O  O36  1  0.749501  0.323680  0.489546  1
  O  O37  1  0.487161  0.848433  0.341755  1
  O  O38  1  0.485043  0.461035  0.343566  1
  O  O39  1  0.165813  0.063447  0.622926  1
