# generated using pymatgen
data_BaNaCe2C4O12F
_symmetry_space_group_name_H-M   'P 1'
_cell_length_a   5.14827892
_cell_length_b   5.14827892
_cell_length_c   23.18747046
_cell_angle_alpha   90.00000000
_cell_angle_beta   90.00000000
_cell_angle_gamma   120.00000000
_symmetry_Int_Tables_number   1
_chemical_formula_structural   BaNaCe2C4O12F
_chemical_formula_sum   'Ba2 Na2 Ce4 C8 O24 F2'
_cell_volume   532.24077196
_cell_formula_units_Z   2
loop_
 _symmetry_equiv_pos_site_id
 _symmetry_equiv_pos_as_xyz
  1  'x, y, z'
loop_
 _atom_site_type_symbol
 _atom_site_label
 _atom_site_symmetry_multiplicity
 _atom_site_fract_x
 _atom_site_fract_y
 _atom_site_fract_z
 _atom_site_occupancy
  Ba  Ba0  1  0.000000  0.000000  0.000000  1
  Ba  Ba1  1  0.000000  0.000000  0.500000  1
  Na  Na2  1  0.333333  0.666667  0.750000  1
  Na  Na3  1  0.666667  0.333333  0.250000  1
  Ce  Ce4  1  0.333333  0.666667  0.353117  1
  Ce  Ce5  1  0.666667  0.333333  0.853117  1
  Ce  Ce6  1  0.666667  0.333333  0.646883  1
  Ce  Ce7  1  0.333333  0.666667  0.146883  1
  C  C8  1  0.000000  0.000000  0.677397  1
  C  C9  1  0.000000  0.000000  0.177397  1
  C  C10  1  0.000000  0.000000  0.322603  1
  C  C11  1  0.000000  0.000000  0.822603  1
  C  C12  1  0.666667  0.333333  0.432987  1
  C  C13  1  0.333333  0.666667  0.932987  1
  C  C14  1  0.333333  0.666667  0.567013  1
  C  C15  1  0.666667  0.333333  0.067013  1
  O  O16  1  0.145182  0.290364  0.676117  1
  O  O17  1  0.854818  0.145182  0.176117  1
  O  O18  1  0.290364  0.145182  0.176117  1
  O  O19  1  0.709636  0.854818  0.676117  1
  O  O20  1  0.145182  0.854818  0.676117  1
  O  O21  1  0.854818  0.709636  0.323883  1
  O  O22  1  0.854818  0.145182  0.323883  1
  O  O23  1  0.854818  0.709636  0.176117  1
  O  O24  1  0.290364  0.145182  0.323883  1
  O  O25  1  0.709636  0.854818  0.823883  1
  O  O26  1  0.145182  0.290364  0.823883  1
  O  O27  1  0.145182  0.854818  0.823883  1
  O  O28  1  0.521109  0.042218  0.434332  1
  O  O29  1  0.478891  0.521109  0.934332  1
  O  O30  1  0.042218  0.521109  0.934332  1
  O  O31  1  0.957782  0.478891  0.434332  1
  O  O32  1  0.521109  0.478891  0.434332  1
  O  O33  1  0.478891  0.957782  0.565668  1
  O  O34  1  0.478891  0.521109  0.565668  1
  O  O35  1  0.478891  0.957782  0.934332  1
  O  O36  1  0.042218  0.521109  0.565668  1
  O  O37  1  0.957782  0.478891  0.065668  1
  O  O38  1  0.521109  0.042218  0.065668  1
  O  O39  1  0.521109  0.478891  0.065668  1
  F  F40  1  0.333333  0.666667  0.250000  1
  F  F41  1  0.666667  0.333333  0.750000  1
