# generated using pymatgen
data_Zn(InS2)2
_symmetry_space_group_name_H-M   'P 1'
_cell_length_a   3.92475875
_cell_length_b   3.92475875
_cell_length_c   25.30956574
_cell_angle_alpha   90.00000000
_cell_angle_beta   90.00000000
_cell_angle_gamma   120.00000000
_symmetry_Int_Tables_number   1
_chemical_formula_structural   Zn(InS2)2
_chemical_formula_sum   'Zn2 In4 S8'
_cell_volume   337.63017817
_cell_formula_units_Z   2
loop_
 _symmetry_equiv_pos_site_id
 _symmetry_equiv_pos_as_xyz
  1  'x, y, z'
loop_
 _atom_site_type_symbol
 _atom_site_label
 _atom_site_symmetry_multiplicity
 _atom_site_fract_x
 _atom_site_fract_y
 _atom_site_fract_z
 _atom_site_occupancy
  Zn  Zn0  1  0.000000  0.000000  0.911889  1
  Zn  Zn1  1  0.000000  0.000000  0.411889  1
  In  In2  1  0.666667  0.333333  0.597355  1
  In  In3  1  0.333333  0.666667  0.097355  1
  In  In4  1  0.333333  0.666667  0.755562  1
  In  In5  1  0.666667  0.333333  0.255562  1
  S  S6  1  0.333333  0.666667  0.931723  1
  S  S7  1  0.666667  0.333333  0.431723  1
  S  S8  1  0.666667  0.333333  0.694358  1
  S  S9  1  0.000000  0.000000  0.805140  1
  S  S10  1  0.000000  0.000000  0.054473  1
  S  S11  1  0.333333  0.666667  0.194358  1
  S  S12  1  0.000000  0.000000  0.305140  1
  S  S13  1  0.000000  0.000000  0.554473  1
