# generated using pymatgen
data_Li2ZnSnS4
_symmetry_space_group_name_H-M   'P 1'
_cell_length_a   6.45917561
_cell_length_b   6.79704959
_cell_length_c   10.31087296
_cell_angle_alpha   90.00000000
_cell_angle_beta   128.89221799
_cell_angle_gamma   90.00000000
_symmetry_Int_Tables_number   1
_chemical_formula_structural   Li2ZnSnS4
_chemical_formula_sum   'Li4 Zn2 Sn2 S8'
_cell_volume   352.33506089
_cell_formula_units_Z   2
loop_
 _symmetry_equiv_pos_site_id
 _symmetry_equiv_pos_as_xyz
  1  'x, y, z'
loop_
 _atom_site_type_symbol
 _atom_site_label
 _atom_site_symmetry_multiplicity
 _atom_site_fract_x
 _atom_site_fract_y
 _atom_site_fract_z
 _atom_site_occupancy
  Li  Li0  1  0.701396  0.663411  0.317852  1
  Li  Li1  1  0.965579  0.162215  0.574004  1
  Li  Li2  1  0.701396  0.336589  0.817852  1
  Li  Li3  1  0.965579  0.837785  0.074004  1
  Zn  Zn4  1  0.207816  0.675088  0.820151  1
  Zn  Zn5  1  0.207816  0.324912  0.320151  1
  Sn  Sn6  1  0.457304  0.828472  0.570447  1
  Sn  Sn7  1  0.457304  0.171528  0.070447  1
  S  S8  1  0.329024  0.344671  0.823489  1
  S  S9  1  0.083671  0.180352  0.073388  1
  S  S10  1  0.840235  0.327596  0.319490  1
  S  S11  1  0.572075  0.833821  0.063979  1
  S  S12  1  0.572075  0.166179  0.563979  1
  S  S13  1  0.083671  0.819648  0.573388  1
  S  S14  1  0.840235  0.672404  0.819490  1
  S  S15  1  0.329024  0.655329  0.323489  1
