# generated using pymatgen
data_Sr14Al8Ge3
_symmetry_space_group_name_H-M   'P 1'
_cell_length_a   15.07449165
_cell_length_b   15.07449165
_cell_length_c   15.07449165
_cell_angle_alpha   46.93146598
_cell_angle_beta   46.93146598
_cell_angle_gamma   46.93146598
_symmetry_Int_Tables_number   1
_chemical_formula_structural   Sr14Al8Ge3
_chemical_formula_sum   'Sr28 Al16 Ge6'
_cell_volume   1670.88163969
_cell_formula_units_Z   2
loop_
 _symmetry_equiv_pos_site_id
 _symmetry_equiv_pos_as_xyz
  1  'x, y, z'
loop_
 _atom_site_type_symbol
 _atom_site_label
 _atom_site_symmetry_multiplicity
 _atom_site_fract_x
 _atom_site_fract_y
 _atom_site_fract_z
 _atom_site_occupancy
  Sr  Sr0  1  0.306109  0.795001  0.808751  1
  Sr  Sr1  1  0.073245  0.413051  0.383541  1
  Sr  Sr2  1  0.206006  0.853448  0.584337  1
  Sr  Sr3  1  0.808751  0.306109  0.795001  1
  Sr  Sr4  1  0.586949  0.616459  0.926755  1
  Sr  Sr5  1  0.853448  0.584337  0.206006  1
  Sr  Sr6  1  0.616459  0.926755  0.586949  1
  Sr  Sr7  1  0.204999  0.191249  0.693891  1
  Sr  Sr8  1  0.584337  0.206006  0.853448  1
  Sr  Sr9  1  0.492680  0.054059  0.806412  1
  Sr  Sr10  1  0.193588  0.507320  0.945941  1
  Sr  Sr11  1  0.090554  0.090554  0.090554  1
  Sr  Sr12  1  0.909446  0.909446  0.909446  1
  Sr  Sr13  1  0.146552  0.415663  0.793994  1
  Sr  Sr14  1  0.191249  0.693891  0.204999  1
  Sr  Sr15  1  0.793994  0.146552  0.415663  1
  Sr  Sr16  1  0.415663  0.793994  0.146552  1
  Sr  Sr17  1  0.945941  0.193588  0.507320  1
  Sr  Sr18  1  0.507320  0.945941  0.193588  1
  Sr  Sr19  1  0.806412  0.492680  0.054059  1
  Sr  Sr20  1  0.926755  0.586949  0.616459  1
  Sr  Sr21  1  0.500000  0.500000  0.500000  1
  Sr  Sr22  1  0.383541  0.073245  0.413051  1
  Sr  Sr23  1  0.413051  0.383541  0.073245  1
  Sr  Sr24  1  0.000000  0.000000  0.000000  1
  Sr  Sr25  1  0.054059  0.806412  0.492680  1
  Sr  Sr26  1  0.693891  0.204999  0.191249  1
  Sr  Sr27  1  0.795001  0.808751  0.306109  1
  Al  Al28  1  0.471270  0.267023  0.508029  1
  Al  Al29  1  0.969021  0.710620  0.817013  1
  Al  Al30  1  0.491971  0.528730  0.732977  1
  Al  Al31  1  0.710620  0.817013  0.969021  1
  Al  Al32  1  0.732977  0.491971  0.528730  1
  Al  Al33  1  0.359551  0.359551  0.359551  1
  Al  Al34  1  0.267023  0.508029  0.471270  1
  Al  Al35  1  0.817013  0.969021  0.710620  1
  Al  Al36  1  0.640449  0.640449  0.640449  1
  Al  Al37  1  0.223447  0.223447  0.223447  1
  Al  Al38  1  0.528730  0.732977  0.491971  1
  Al  Al39  1  0.182987  0.030979  0.289380  1
  Al  Al40  1  0.030979  0.289380  0.182987  1
  Al  Al41  1  0.508029  0.471270  0.267023  1
  Al  Al42  1  0.289380  0.182987  0.030979  1
  Al  Al43  1  0.776553  0.776553  0.776553  1
  Ge  Ge44  1  0.329605  0.904192  0.917673  1
  Ge  Ge45  1  0.917673  0.329605  0.904192  1
  Ge  Ge46  1  0.670395  0.095808  0.082327  1
  Ge  Ge47  1  0.095808  0.082327  0.670395  1
  Ge  Ge48  1  0.082327  0.670395  0.095808  1
  Ge  Ge49  1  0.904192  0.917673  0.329605  1
