# generated using pymatgen
data_FeWClO4
_symmetry_space_group_name_H-M   'P 1'
_cell_length_a   6.79911593
_cell_length_b   6.79911593
_cell_length_c   5.57651428
_cell_angle_alpha   90.00000000
_cell_angle_beta   90.00000000
_cell_angle_gamma   90.00000000
_symmetry_Int_Tables_number   1
_chemical_formula_structural   FeWClO4
_chemical_formula_sum   'Fe2 W2 Cl2 O8'
_cell_volume   257.79097627
_cell_formula_units_Z   2
loop_
 _symmetry_equiv_pos_site_id
 _symmetry_equiv_pos_as_xyz
  1  'x, y, z'
loop_
 _atom_site_type_symbol
 _atom_site_label
 _atom_site_symmetry_multiplicity
 _atom_site_fract_x
 _atom_site_fract_y
 _atom_site_fract_z
 _atom_site_occupancy
  Fe  Fe0  1  0.000000  0.500000  0.272425  1
  Fe  Fe1  1  0.500000  0.000000  0.727575  1
  W  W2  1  0.500000  0.500000  0.000000  1
  W  W3  1  0.000000  0.000000  0.000000  1
  Cl  Cl4  1  0.500000  0.000000  0.325520  1
  Cl  Cl5  1  0.000000  0.500000  0.674480  1
  O  O6  1  0.283765  0.500000  0.189738  1
  O  O7  1  0.000000  0.216235  0.189738  1
  O  O8  1  0.500000  0.283765  0.810262  1
  O  O9  1  0.500000  0.716235  0.810262  1
  O  O10  1  0.216235  0.000000  0.810262  1
  O  O11  1  0.000000  0.783765  0.189738  1
  O  O12  1  0.716235  0.500000  0.189738  1
  O  O13  1  0.783765  0.000000  0.810262  1
