# generated using pymatgen
data_Sr2SmGaCu2O7
_symmetry_space_group_name_H-M   'P 1'
_cell_length_a   12.24390784
_cell_length_b   12.24390784
_cell_length_c   12.24390784
_cell_angle_alpha   154.26850744
_cell_angle_beta   153.69614941
_cell_angle_gamma   37.12741849
_symmetry_Int_Tables_number   1
_chemical_formula_structural   Sr2SmGaCu2O7
_chemical_formula_sum   'Sr4 Sm2 Ga2 Cu4 O14'
_cell_volume   352.62853256
_cell_formula_units_Z   2
loop_
 _symmetry_equiv_pos_site_id
 _symmetry_equiv_pos_as_xyz
  1  'x, y, z'
loop_
 _atom_site_type_symbol
 _atom_site_label
 _atom_site_symmetry_multiplicity
 _atom_site_fract_x
 _atom_site_fract_y
 _atom_site_fract_z
 _atom_site_occupancy
  Sr  Sr0  1  0.169963  0.650664  0.516187  1
  Sr  Sr1  1  0.830037  0.346224  0.480701  1
  Sr  Sr2  1  0.634477  0.150664  0.480701  1
  Sr  Sr3  1  0.365523  0.846224  0.516187  1
  Sm  Sm4  1  0.000000  0.500712  0.500712  1
  Sm  Sm5  1  0.500000  0.000712  0.500712  1
  Ga  Ga6  1  0.181654  0.216130  0.897785  1
  Ga  Ga7  1  0.818346  0.716130  0.034476  1
  Cu  Cu8  1  0.072734  0.075095  0.000178  1
  Cu  Cu9  1  0.927266  0.927444  0.002361  1
  Cu  Cu10  1  0.574917  0.575095  0.002361  1
  Cu  Cu11  1  0.425083  0.427444  0.000178  1
  O  O12  1  0.871355  0.367355  0.738710  1
  O  O13  1  0.128645  0.867355  0.495999  1
  O  O14  1  0.816180  0.317718  0.000674  1
  O  O15  1  0.183820  0.184494  0.501538  1
  O  O16  1  0.817044  0.817718  0.501538  1
  O  O17  1  0.182956  0.684494  0.000674  1
  O  O18  1  0.311997  0.813777  0.998681  1
  O  O19  1  0.688003  0.686684  0.501780  1
  O  O20  1  0.315096  0.313777  0.501780  1
  O  O21  1  0.684904  0.186684  0.998681  1
  O  O22  1  0.627792  0.708319  0.981786  1
  O  O23  1  0.372208  0.353994  0.080527  1
  O  O24  1  0.226533  0.208319  0.080527  1
  O  O25  1  0.773467  0.853994  0.981786  1
