# generated using pymatgen
data_AgSbO3
_symmetry_space_group_name_H-M   'P 1'
_cell_length_a   7.37068670
_cell_length_b   7.37068670
_cell_length_c   7.37068670
_cell_angle_alpha   60.00000000
_cell_angle_beta   60.00000000
_cell_angle_gamma   60.00000000
_symmetry_Int_Tables_number   1
_chemical_formula_structural   AgSbO3
_chemical_formula_sum   'Ag4 Sb4 O12'
_cell_volume   283.14497392
_cell_formula_units_Z   4
loop_
 _symmetry_equiv_pos_site_id
 _symmetry_equiv_pos_as_xyz
  1  'x, y, z'
loop_
 _atom_site_type_symbol
 _atom_site_label
 _atom_site_symmetry_multiplicity
 _atom_site_fract_x
 _atom_site_fract_y
 _atom_site_fract_z
 _atom_site_occupancy
  Ag  Ag0  1  0.125000  0.125000  0.125000  1
  Ag  Ag1  1  0.625000  0.125000  0.125000  1
  Ag  Ag2  1  0.125000  0.125000  0.625000  1
  Ag  Ag3  1  0.125000  0.625000  0.125000  1
  Sb  Sb4  1  0.625000  0.625000  0.625000  1
  Sb  Sb5  1  0.125000  0.625000  0.625000  1
  Sb  Sb6  1  0.625000  0.625000  0.125000  1
  Sb  Sb7  1  0.625000  0.125000  0.625000  1
  O  O8  1  0.700650  0.299350  0.299350  1
  O  O9  1  0.299350  0.700650  0.700650  1
  O  O10  1  0.299350  0.299350  0.700650  1
  O  O11  1  0.700650  0.700650  0.299350  1
  O  O12  1  0.700650  0.299350  0.700650  1
  O  O13  1  0.299350  0.700650  0.299350  1
  O  O14  1  0.549350  0.950650  0.950650  1
  O  O15  1  0.950650  0.549350  0.549350  1
  O  O16  1  0.950650  0.950650  0.549350  1
  O  O17  1  0.549350  0.549350  0.950650  1
  O  O18  1  0.549350  0.950650  0.549350  1
  O  O19  1  0.950650  0.549350  0.950650  1
