# generated using pymatgen
data_Sm4MgRh
_symmetry_space_group_name_H-M   'P 1'
_cell_length_a   9.89934842
_cell_length_b   9.89934842
_cell_length_c   9.89934842
_cell_angle_alpha   60.00000000
_cell_angle_beta   60.00000000
_cell_angle_gamma   60.00000000
_symmetry_Int_Tables_number   1
_chemical_formula_structural   Sm4MgRh
_chemical_formula_sum   'Sm16 Mg4 Rh4'
_cell_volume   685.96954164
_cell_formula_units_Z   4
loop_
 _symmetry_equiv_pos_site_id
 _symmetry_equiv_pos_as_xyz
  1  'x, y, z'
loop_
 _atom_site_type_symbol
 _atom_site_label
 _atom_site_symmetry_multiplicity
 _atom_site_fract_x
 _atom_site_fract_y
 _atom_site_fract_z
 _atom_site_occupancy
  Sm  Sm0  1  0.435762  0.064238  0.435762  1
  Sm  Sm1  1  0.435762  0.064238  0.064238  1
  Sm  Sm2  1  0.812093  0.187907  0.812093  1
  Sm  Sm3  1  0.187907  0.187907  0.812093  1
  Sm  Sm4  1  0.064238  0.064238  0.435762  1
  Sm  Sm5  1  0.040526  0.653158  0.653158  1
  Sm  Sm6  1  0.064238  0.435762  0.435762  1
  Sm  Sm7  1  0.435762  0.435762  0.064238  1
  Sm  Sm8  1  0.187907  0.812093  0.187907  1
  Sm  Sm9  1  0.812093  0.187907  0.187907  1
  Sm  Sm10  1  0.064238  0.435762  0.064238  1
  Sm  Sm11  1  0.187907  0.812093  0.812093  1
  Sm  Sm12  1  0.653158  0.653158  0.040526  1
  Sm  Sm13  1  0.653158  0.653158  0.653158  1
  Sm  Sm14  1  0.653158  0.040526  0.653158  1
  Sm  Sm15  1  0.812093  0.812093  0.187907  1
  Mg  Mg16  1  0.420723  0.420723  0.737831  1
  Mg  Mg17  1  0.420723  0.420723  0.420723  1
  Mg  Mg18  1  0.420723  0.737831  0.420723  1
  Mg  Mg19  1  0.737831  0.420723  0.420723  1
  Rh  Rh20  1  0.858057  0.858057  0.425829  1
  Rh  Rh21  1  0.425829  0.858057  0.858057  1
  Rh  Rh22  1  0.858057  0.425829  0.858057  1
  Rh  Rh23  1  0.858057  0.858057  0.858057  1
