# generated using pymatgen
data_Nb(Te2I3)2
_symmetry_space_group_name_H-M   'P 1'
_cell_length_a   8.32470374
_cell_length_b   11.52733491
_cell_length_c   12.34792081
_cell_angle_alpha   111.46366238
_cell_angle_beta   107.38856721
_cell_angle_gamma   98.41750012
_symmetry_Int_Tables_number   1
_chemical_formula_structural   Nb(Te2I3)2
_chemical_formula_sum   'Nb2 Te8 I12'
_cell_volume   1007.78267382
_cell_formula_units_Z   2
loop_
 _symmetry_equiv_pos_site_id
 _symmetry_equiv_pos_as_xyz
  1  'x, y, z'
loop_
 _atom_site_type_symbol
 _atom_site_label
 _atom_site_symmetry_multiplicity
 _atom_site_fract_x
 _atom_site_fract_y
 _atom_site_fract_z
 _atom_site_occupancy
  Nb  Nb0  1  0.487214  0.353650  0.458618  1
  Nb  Nb1  1  0.512786  0.646350  0.541382  1
  Te  Te2  1  0.583303  0.837261  0.800826  1
  Te  Te3  1  0.718580  0.522921  0.415538  1
  Te  Te4  1  0.281420  0.477079  0.584462  1
  Te  Te5  1  0.524856  0.218114  0.623219  1
  Te  Te6  1  0.785177  0.556682  0.655620  1
  Te  Te7  1  0.475144  0.781886  0.376781  1
  Te  Te8  1  0.416697  0.162739  0.199174  1
  Te  Te9  1  0.214823  0.443318  0.344380  1
  I  I10  1  0.793382  0.896447  0.639266  1
  I  I11  1  0.159314  0.650119  0.158454  1
  I  I12  1  0.206618  0.103553  0.360734  1
  I  I13  1  0.668620  0.232464  0.108036  1
  I  I14  1  0.703141  0.743384  0.247553  1
  I  I15  1  0.296859  0.256616  0.752447  1
  I  I16  1  0.862388  0.803525  0.972665  1
  I  I17  1  0.840686  0.349881  0.841546  1
  I  I18  1  0.271302  0.814366  0.562006  1
  I  I19  1  0.137612  0.196475  0.027335  1
  I  I20  1  0.331380  0.767536  0.891964  1
  I  I21  1  0.728698  0.185634  0.437994  1
