# generated using pymatgen
data_Nd3Si2ClO8
_symmetry_space_group_name_H-M   'P 1'
_cell_length_a   7.84459269
_cell_length_b   7.84459269
_cell_length_c   8.82415636
_cell_angle_alpha   82.54192079
_cell_angle_beta   97.45807921
_cell_angle_gamma   131.39846995
_symmetry_Int_Tables_number   1
_chemical_formula_structural   Nd3Si2ClO8
_chemical_formula_sum   'Nd6 Si4 Cl2 O16'
_cell_volume   403.18099044
_cell_formula_units_Z   2
loop_
 _symmetry_equiv_pos_site_id
 _symmetry_equiv_pos_as_xyz
  1  'x, y, z'
loop_
 _atom_site_type_symbol
 _atom_site_label
 _atom_site_symmetry_multiplicity
 _atom_site_fract_x
 _atom_site_fract_y
 _atom_site_fract_z
 _atom_site_occupancy
  Nd  Nd0  1  0.419955  0.789833  0.829030  1
  Nd  Nd1  1  0.789833  0.419955  0.670970  1
  Nd  Nd2  1  0.210167  0.580045  0.329030  1
  Nd  Nd3  1  0.924857  0.924857  0.250000  1
  Nd  Nd4  1  0.580045  0.210167  0.170970  1
  Nd  Nd5  1  0.075143  0.075143  0.750000  1
  Si  Si6  1  0.896352  0.212372  0.974961  1
  Si  Si7  1  0.787628  0.103648  0.474961  1
  Si  Si8  1  0.212372  0.896352  0.525039  1
  Si  Si9  1  0.103648  0.787628  0.025039  1
  Cl  Cl10  1  0.475043  0.475043  0.250000  1
  Cl  Cl11  1  0.524957  0.524957  0.750000  1
  O  O12  1  0.268220  0.958921  0.343978  1
  O  O13  1  0.381809  0.096603  0.644727  1
  O  O14  1  0.731780  0.041079  0.656022  1
  O  O15  1  0.795173  0.318695  0.418482  1
  O  O16  1  0.794376  0.949294  0.969266  1
  O  O17  1  0.681305  0.204827  0.918482  1
  O  O18  1  0.205624  0.050706  0.030734  1
  O  O19  1  0.096603  0.381809  0.855273  1
  O  O20  1  0.958921  0.268220  0.156022  1
  O  O21  1  0.903397  0.618191  0.144727  1
  O  O22  1  0.949294  0.794376  0.530734  1
  O  O23  1  0.318695  0.795173  0.081518  1
  O  O24  1  0.618191  0.903397  0.355273  1
  O  O25  1  0.204827  0.681305  0.581518  1
  O  O26  1  0.041079  0.731780  0.843978  1
  O  O27  1  0.050706  0.205624  0.469266  1
