# generated using pymatgen
data_Sr11InSb9
_symmetry_space_group_name_H-M   'P 1'
_cell_length_a   12.71774089
_cell_length_b   12.71774089
_cell_length_c   12.71774089
_cell_angle_alpha   120.90198956
_cell_angle_beta   117.15435757
_cell_angle_gamma   91.72140635
_symmetry_Int_Tables_number   1
_chemical_formula_structural   Sr11InSb9
_chemical_formula_sum   'Sr22 In2 Sb18'
_cell_volume   1473.24717847
_cell_formula_units_Z   2
loop_
 _symmetry_equiv_pos_site_id
 _symmetry_equiv_pos_as_xyz
  1  'x, y, z'
loop_
 _atom_site_type_symbol
 _atom_site_label
 _atom_site_symmetry_multiplicity
 _atom_site_fract_x
 _atom_site_fract_y
 _atom_site_fract_z
 _atom_site_occupancy
  Sr  Sr0  1  0.678584  0.678584  0.000000  1
  Sr  Sr1  1  0.826418  0.159383  0.985960  1
  Sr  Sr2  1  0.114890  0.931343  0.362852  1
  Sr  Sr3  1  0.178584  0.178584  0.000000  1
  Sr  Sr4  1  0.427877  0.055294  0.744324  1
  Sr  Sr5  1  0.682270  0.311899  0.737507  1
  Sr  Sr6  1  0.326418  0.340458  0.667035  1
  Sr  Sr7  1  0.074392  0.811899  0.629629  1
  Sr  Sr8  1  0.935478  0.584281  0.204758  1
  Sr  Sr9  1  0.568490  0.752037  0.637148  1
  Sr  Sr10  1  0.435478  0.230720  0.351197  1
  Sr  Sr11  1  0.927877  0.183554  0.372584  1
  Sr  Sr12  1  0.182270  0.444763  0.370371  1
  Sr  Sr13  1  0.068490  0.431343  0.816453  1
  Sr  Sr14  1  0.379523  0.730720  0.795242  1
  Sr  Sr15  1  0.879523  0.084281  0.648803  1
  Sr  Sr16  1  0.614890  0.252037  0.183547  1
  Sr  Sr17  1  0.673423  0.659383  0.332965  1
  Sr  Sr18  1  0.310970  0.683554  0.255676  1
  Sr  Sr19  1  0.173423  0.840458  0.014040  1
  Sr  Sr20  1  0.810970  0.555294  0.627416  1
  Sr  Sr21  1  0.574392  0.944763  0.262493  1
  In  In22  1  0.392656  0.392656  0.000000  1
  In  In23  1  0.892656  0.892656  0.000000  1
  Sb  Sb24  1  0.004686  0.359734  0.998868  1
  Sb  Sb25  1  0.392315  0.030620  0.429190  1
  Sb  Sb26  1  0.360866  0.005817  0.001132  1
  Sb  Sb27  1  0.620083  0.374149  0.987929  1
  Sb  Sb28  1  0.671314  0.957773  0.008006  1
  Sb  Sb29  1  0.751007  0.251007  0.500000  1
  Sb  Sb30  1  0.171314  0.163308  0.713541  1
  Sb  Sb31  1  0.251007  0.751007  0.500000  1
  Sb  Sb32  1  0.886219  0.874149  0.754065  1
  Sb  Sb33  1  0.860866  0.859734  0.355049  1
  Sb  Sb34  1  0.504686  0.505817  0.644951  1
  Sb  Sb35  1  0.386219  0.632154  0.012071  1
  Sb  Sb36  1  0.949767  0.663308  0.991994  1
  Sb  Sb37  1  0.892315  0.463125  0.361695  1
  Sb  Sb38  1  0.101431  0.530620  0.638305  1
  Sb  Sb39  1  0.449767  0.457773  0.286459  1
  Sb  Sb40  1  0.601431  0.963125  0.570810  1
  Sb  Sb41  1  0.120083  0.132154  0.245935  1
