# generated using pymatgen
data_TbB4
_symmetry_space_group_name_H-M   'P 1'
_cell_length_a   7.11916602
_cell_length_b   7.11916602
_cell_length_c   4.03146294
_cell_angle_alpha   90.00000000
_cell_angle_beta   90.00000000
_cell_angle_gamma   90.00000000
_symmetry_Int_Tables_number   1
_chemical_formula_structural   TbB4
_chemical_formula_sum   'Tb4 B16'
_cell_volume   204.32472052
_cell_formula_units_Z   4
loop_
 _symmetry_equiv_pos_site_id
 _symmetry_equiv_pos_as_xyz
  1  'x, y, z'
loop_
 _atom_site_type_symbol
 _atom_site_label
 _atom_site_symmetry_multiplicity
 _atom_site_fract_x
 _atom_site_fract_y
 _atom_site_fract_z
 _atom_site_occupancy
  Tb  Tb0  1  0.817620  0.317620  0.000000  1
  Tb  Tb1  1  0.317620  0.182380  0.000000  1
  Tb  Tb2  1  0.682380  0.817620  0.000000  1
  Tb  Tb3  1  0.182380  0.682380  0.000000  1
  B  B4  1  0.538910  0.324207  0.500000  1
  B  B5  1  0.824207  0.038911  0.500000  1
  B  B6  1  0.038911  0.175793  0.500000  1
  B  B7  1  0.324207  0.461090  0.500000  1
  B  B8  1  0.675793  0.538910  0.500000  1
  B  B9  1  0.500000  0.500000  0.796789  1
  B  B10  1  0.961090  0.824207  0.500000  1
  B  B11  1  0.587222  0.087222  0.500000  1
  B  B12  1  0.412778  0.912778  0.500000  1
  B  B13  1  0.087222  0.412778  0.500000  1
  B  B14  1  0.461090  0.675793  0.500000  1
  B  B15  1  0.175793  0.961090  0.500000  1
  B  B16  1  0.000000  0.000000  0.796789  1
  B  B17  1  0.500000  0.500000  0.203211  1
  B  B18  1  0.912778  0.587222  0.500000  1
  B  B19  1  0.000000  0.000000  0.203211  1
