# generated using pymatgen
data_Na8Si6SnO18
_symmetry_space_group_name_H-M   'P 1'
_cell_length_a   7.44307859
_cell_length_b   7.44307859
_cell_length_c   7.44307859
_cell_angle_alpha   87.77515739
_cell_angle_beta   87.77515739
_cell_angle_gamma   87.77515739
_symmetry_Int_Tables_number   1
_chemical_formula_structural   Na8Si6SnO18
_chemical_formula_sum   'Na8 Si6 Sn1 O18'
_cell_volume   411.43320496
_cell_formula_units_Z   1
loop_
 _symmetry_equiv_pos_site_id
 _symmetry_equiv_pos_as_xyz
  1  'x, y, z'
loop_
 _atom_site_type_symbol
 _atom_site_label
 _atom_site_symmetry_multiplicity
 _atom_site_fract_x
 _atom_site_fract_y
 _atom_site_fract_z
 _atom_site_occupancy
  Na  Na0  1  0.500000  0.500000  0.000000  1
  Na  Na1  1  0.244910  0.244910  0.244910  1
  Na  Na2  1  0.755090  0.755090  0.755090  1
  Na  Na3  1  0.000000  0.500000  0.500000  1
  Na  Na4  1  0.500000  0.000000  0.000000  1
  Na  Na5  1  0.000000  0.500000  0.000000  1
  Na  Na6  1  0.000000  0.000000  0.500000  1
  Na  Na7  1  0.500000  0.000000  0.500000  1
  Si  Si8  1  0.721099  0.265109  0.721099  1
  Si  Si9  1  0.721099  0.721099  0.265109  1
  Si  Si10  1  0.278901  0.278901  0.734891  1
  Si  Si11  1  0.278901  0.734891  0.278901  1
  Si  Si12  1  0.734891  0.278901  0.278901  1
  Si  Si13  1  0.265109  0.721099  0.721099  1
  Sn  Sn14  1  0.000000  0.000000  0.000000  1
  O  O15  1  0.079775  0.810757  0.810757  1
  O  O16  1  0.757627  0.242373  0.500000  1
  O  O17  1  0.450526  0.788255  0.788255  1
  O  O18  1  0.242374  0.757627  0.500000  1
  O  O19  1  0.211745  0.549474  0.211745  1
  O  O20  1  0.757627  0.500000  0.242373  1
  O  O21  1  0.500000  0.242373  0.757627  1
  O  O22  1  0.810757  0.810757  0.079775  1
  O  O23  1  0.920225  0.189243  0.189243  1
  O  O24  1  0.189243  0.189243  0.920225  1
  O  O25  1  0.211745  0.211745  0.549474  1
  O  O26  1  0.189243  0.920225  0.189243  1
  O  O27  1  0.242373  0.500000  0.757627  1
  O  O28  1  0.549474  0.211745  0.211745  1
  O  O29  1  0.788255  0.788255  0.450526  1
  O  O30  1  0.810757  0.079775  0.810757  1
  O  O31  1  0.500000  0.757627  0.242373  1
  O  O32  1  0.788255  0.450526  0.788255  1
