# generated using pymatgen
data_K3Nd(PS4)2
_symmetry_space_group_name_H-M   'P 1'
_cell_length_a   9.24675633
_cell_length_b   17.24130160
_cell_length_c   9.66927577
_cell_angle_alpha   90.00000000
_cell_angle_beta   90.76795481
_cell_angle_gamma   90.00000000
_symmetry_Int_Tables_number   1
_chemical_formula_structural   K3Nd(PS4)2
_chemical_formula_sum   'K12 Nd4 P8 S32'
_cell_volume   1541.39660284
_cell_formula_units_Z   4
loop_
 _symmetry_equiv_pos_site_id
 _symmetry_equiv_pos_as_xyz
  1  'x, y, z'
loop_
 _atom_site_type_symbol
 _atom_site_label
 _atom_site_symmetry_multiplicity
 _atom_site_fract_x
 _atom_site_fract_y
 _atom_site_fract_z
 _atom_site_occupancy
  K  K0  1  0.123046  0.707098  0.124961  1
  K  K1  1  0.876954  0.207098  0.375039  1
  K  K2  1  0.876954  0.292902  0.875039  1
  K  K3  1  0.123046  0.792902  0.624961  1
  K  K4  1  0.618324  0.787989  0.129641  1
  K  K5  1  0.381676  0.287989  0.370359  1
  K  K6  1  0.381676  0.212011  0.870359  1
  K  K7  1  0.618324  0.712011  0.629641  1
  K  K8  1  0.732506  0.530307  0.013901  1
  K  K9  1  0.267494  0.030307  0.486099  1
  K  K10  1  0.267494  0.469693  0.986099  1
  K  K11  1  0.732506  0.969693  0.513901  1
  Nd  Nd12  1  0.227590  0.985449  0.025417  1
  Nd  Nd13  1  0.772410  0.485449  0.474583  1
  Nd  Nd14  1  0.772410  0.014551  0.974583  1
  Nd  Nd15  1  0.227590  0.514551  0.525417  1
  P  P16  1  0.004498  0.400397  0.256521  1
  P  P17  1  0.995502  0.900397  0.243479  1
  P  P18  1  0.995502  0.599603  0.743479  1
  P  P19  1  0.004498  0.099603  0.756521  1
  P  P20  1  0.475307  0.597694  0.280550  1
  P  P21  1  0.524693  0.097694  0.219450  1
  P  P22  1  0.524693  0.402306  0.719450  1
  P  P23  1  0.475307  0.902306  0.780550  1
  S  S24  1  0.118327  0.325457  0.139982  1
  S  S25  1  0.881673  0.825457  0.360018  1
  S  S26  1  0.881673  0.674543  0.860018  1
  S  S27  1  0.118327  0.174543  0.639982  1
  S  S28  1  0.213956  0.886945  0.273431  1
  S  S29  1  0.786044  0.386945  0.226569  1
  S  S30  1  0.786044  0.113055  0.726569  1
  S  S31  1  0.213956  0.613055  0.773431  1
  S  S32  1  0.054750  0.516546  0.242022  1
  S  S33  1  0.945250  0.016546  0.257978  1
  S  S34  1  0.945250  0.483454  0.757978  1
  S  S35  1  0.054750  0.983454  0.742022  1
  S  S36  1  0.035067  0.380276  0.466963  1
  S  S37  1  0.964933  0.880276  0.033037  1
  S  S38  1  0.964933  0.619724  0.533037  1
  S  S39  1  0.035067  0.119724  0.966963  1
  S  S40  1  0.434777  0.625325  0.080453  1
  S  S41  1  0.565223  0.125325  0.419547  1
  S  S42  1  0.565223  0.374675  0.919547  1
  S  S43  1  0.434777  0.874675  0.580453  1
  S  S44  1  0.337216  0.656310  0.408773  1
  S  S45  1  0.662784  0.156310  0.091227  1
  S  S46  1  0.662784  0.343690  0.591227  1
  S  S47  1  0.337216  0.843690  0.908773  1
  S  S48  1  0.686086  0.626578  0.329573  1
  S  S49  1  0.313914  0.126578  0.170427  1
  S  S50  1  0.313914  0.373422  0.670427  1
  S  S51  1  0.686086  0.873422  0.829573  1
  S  S52  1  0.542236  0.979719  0.178068  1
  S  S53  1  0.457764  0.479719  0.321932  1
  S  S54  1  0.457764  0.020281  0.821932  1
  S  S55  1  0.542236  0.520281  0.678068  1
