# generated using pymatgen
data_RbP3PbO9
_symmetry_space_group_name_H-M   'P 1'
_cell_length_a   7.33741717
_cell_length_b   17.37379129
_cell_length_c   14.44639075
_cell_angle_alpha   90.00000000
_cell_angle_beta   105.80233000
_cell_angle_gamma   90.00000000
_symmetry_Int_Tables_number   1
_chemical_formula_structural   RbP3PbO9
_chemical_formula_sum   'Rb8 P24 Pb8 O72'
_cell_volume   1772.00786611
_cell_formula_units_Z   8
loop_
 _symmetry_equiv_pos_site_id
 _symmetry_equiv_pos_as_xyz
  1  'x, y, z'
loop_
 _atom_site_type_symbol
 _atom_site_label
 _atom_site_symmetry_multiplicity
 _atom_site_fract_x
 _atom_site_fract_y
 _atom_site_fract_z
 _atom_site_occupancy
  Rb  Rb0  1  0.119994  0.340126  0.949910  1
  Rb  Rb1  1  0.654555  0.171727  0.001381  1
  Rb  Rb2  1  0.345445  0.671727  0.498619  1
  Rb  Rb3  1  0.880006  0.659874  0.050090  1
  Rb  Rb4  1  0.654555  0.328273  0.501381  1
  Rb  Rb5  1  0.345445  0.828273  0.998619  1
  Rb  Rb6  1  0.119994  0.159874  0.449910  1
  Rb  Rb7  1  0.880006  0.840126  0.550090  1
  P  P8  1  0.222751  0.991395  0.636945  1
  P  P9  1  0.046476  0.124966  0.859777  1
  P  P10  1  0.519647  0.135128  0.359187  1
  P  P11  1  0.777249  0.008605  0.363055  1
  P  P12  1  0.464949  0.252537  0.698007  1
  P  P13  1  0.777249  0.491395  0.863055  1
  P  P14  1  0.340891  0.011055  0.852141  1
  P  P15  1  0.937108  0.722761  0.810165  1
  P  P16  1  0.464949  0.247463  0.198007  1
  P  P17  1  0.953524  0.624966  0.640223  1
  P  P18  1  0.659109  0.511055  0.647859  1
  P  P19  1  0.046476  0.375034  0.359777  1
  P  P20  1  0.519647  0.364872  0.859187  1
  P  P21  1  0.062892  0.222761  0.689835  1
  P  P22  1  0.480353  0.635128  0.140813  1
  P  P23  1  0.937108  0.777239  0.310165  1
  P  P24  1  0.953524  0.875034  0.140223  1
  P  P25  1  0.222751  0.508605  0.136945  1
  P  P26  1  0.480353  0.864872  0.640813  1
  P  P27  1  0.062892  0.277239  0.189835  1
  P  P28  1  0.535051  0.752537  0.801993  1
  P  P29  1  0.340891  0.488945  0.352141  1
  P  P30  1  0.659109  0.988945  0.147859  1
  P  P31  1  0.535051  0.747463  0.301993  1
  Pb  Pb32  1  0.826276  0.923646  0.868257  1
  Pb  Pb33  1  0.826276  0.576354  0.368257  1
  Pb  Pb34  1  0.707334  0.072449  0.619998  1
  Pb  Pb35  1  0.292666  0.927551  0.380002  1
  Pb  Pb36  1  0.707334  0.427551  0.119998  1
  Pb  Pb37  1  0.173724  0.423646  0.631743  1
  Pb  Pb38  1  0.173724  0.076354  0.131743  1
  Pb  Pb39  1  0.292666  0.572449  0.880002  1
  O  O40  1  0.941855  0.796855  0.201227  1
  O  O41  1  0.210209  0.551695  0.364342  1
  O  O42  1  0.450523  0.509334  0.598859  1
  O  O43  1  0.019000  0.348181  0.453856  1
  O  O44  1  0.479585  0.719078  0.189861  1
  O  O45  1  0.907074  0.430470  0.298088  1
  O  O46  1  0.674536  0.528807  0.760770  1
  O  O47  1  0.011886  0.508855  0.117407  1
  O  O48  1  0.279071  0.299173  0.192529  1
  O  O49  1  0.614134  0.198283  0.686267  1
  O  O50  1  0.450523  0.990666  0.098859  1
  O  O51  1  0.092926  0.569530  0.701912  1
  O  O52  1  0.720929  0.799173  0.307471  1
  O  O53  1  0.715946  0.100560  0.346736  1
  O  O54  1  0.736835  0.905985  0.118494  1
  O  O55  1  0.971299  0.692431  0.321703  1
  O  O56  1  0.464371  0.848107  0.536807  1
  O  O57  1  0.520415  0.219078  0.310139  1
  O  O58  1  0.535629  0.151893  0.463193  1
  O  O59  1  0.587070  0.678904  0.367853  1
  O  O60  1  0.058145  0.203145  0.798773  1
  O  O61  1  0.988114  0.491145  0.882593  1
  O  O62  1  0.210209  0.948305  0.864342  1
  O  O63  1  0.019000  0.151819  0.953856  1
  O  O64  1  0.055718  0.830915  0.384170  1
  O  O65  1  0.944282  0.169085  0.615830  1
  O  O66  1  0.028701  0.307569  0.678297  1
  O  O67  1  0.549477  0.009334  0.901141  1
  O  O68  1  0.587070  0.821096  0.867853  1
  O  O69  1  0.352544  0.412902  0.804449  1
  O  O70  1  0.981000  0.651819  0.546144  1
  O  O71  1  0.674536  0.971193  0.260770  1
  O  O72  1  0.318953  0.475231  0.066291  1
  O  O73  1  0.011886  0.991145  0.617407  1
  O  O74  1  0.715946  0.399440  0.846736  1
  O  O75  1  0.055718  0.669085  0.884170  1
  O  O76  1  0.325464  0.471193  0.239230  1
  O  O77  1  0.279071  0.200827  0.692529  1
  O  O78  1  0.681047  0.524769  0.933709  1
  O  O79  1  0.479585  0.780922  0.689861  1
  O  O80  1  0.941855  0.703145  0.701227  1
  O  O81  1  0.092926  0.930470  0.201912  1
  O  O82  1  0.720929  0.700827  0.807471  1
  O  O83  1  0.412930  0.321096  0.632147  1
  O  O84  1  0.981000  0.848181  0.046144  1
  O  O85  1  0.789791  0.448305  0.635658  1
  O  O86  1  0.549477  0.490666  0.401141  1
  O  O87  1  0.736835  0.594015  0.618494  1
  O  O88  1  0.385866  0.698283  0.813733  1
  O  O89  1  0.028701  0.192431  0.178297  1
  O  O90  1  0.464371  0.651893  0.036807  1
  O  O91  1  0.907074  0.069530  0.798088  1
  O  O92  1  0.263165  0.094015  0.881506  1
  O  O93  1  0.789791  0.051695  0.135658  1
  O  O94  1  0.988114  0.008855  0.382593  1
  O  O95  1  0.614134  0.301717  0.186267  1
  O  O96  1  0.318953  0.024769  0.566291  1
  O  O97  1  0.284054  0.899440  0.653264  1
  O  O98  1  0.352544  0.087098  0.304449  1
  O  O99  1  0.944282  0.330915  0.115830  1
  O  O100  1  0.647456  0.587098  0.195551  1
  O  O101  1  0.535629  0.348107  0.963193  1
  O  O102  1  0.520415  0.280922  0.810139  1
  O  O103  1  0.412930  0.178904  0.132147  1
  O  O104  1  0.385866  0.801717  0.313733  1
  O  O105  1  0.263165  0.405985  0.381506  1
  O  O106  1  0.284054  0.600560  0.153264  1
  O  O107  1  0.681047  0.975231  0.433709  1
  O  O108  1  0.647456  0.912902  0.695551  1
  O  O109  1  0.325464  0.028807  0.739230  1
  O  O110  1  0.058145  0.296855  0.298773  1
  O  O111  1  0.971299  0.807569  0.821703  1
