# generated using pymatgen
data_KMgPO4
_symmetry_space_group_name_H-M   'P 1'
_cell_length_a   8.66519331
_cell_length_b   5.14746860
_cell_length_c   19.26251236
_cell_angle_alpha   90.00000000
_cell_angle_beta   91.69539296
_cell_angle_gamma   90.00000000
_symmetry_Int_Tables_number   1
_chemical_formula_structural   KMgPO4
_chemical_formula_sum   'K8 Mg8 P8 O32'
_cell_volume   858.80533704
_cell_formula_units_Z   8
loop_
 _symmetry_equiv_pos_site_id
 _symmetry_equiv_pos_as_xyz
  1  'x, y, z'
loop_
 _atom_site_type_symbol
 _atom_site_label
 _atom_site_symmetry_multiplicity
 _atom_site_fract_x
 _atom_site_fract_y
 _atom_site_fract_z
 _atom_site_occupancy
  K  K0  1  0.518259  0.265567  0.159572  1
  K  K1  1  0.995628  0.724550  0.906843  1
  K  K2  1  0.518259  0.234433  0.659572  1
  K  K3  1  0.004372  0.224550  0.593157  1
  K  K4  1  0.004372  0.275450  0.093157  1
  K  K5  1  0.995628  0.775450  0.406843  1
  K  K6  1  0.481741  0.734433  0.840428  1
  K  K7  1  0.481741  0.765567  0.340428  1
  Mg  Mg8  1  0.678076  0.278810  0.969496  1
  Mg  Mg9  1  0.843876  0.775496  0.731056  1
  Mg  Mg10  1  0.321924  0.721190  0.030504  1
  Mg  Mg11  1  0.678076  0.221190  0.469496  1
  Mg  Mg12  1  0.156124  0.224504  0.268944  1
  Mg  Mg13  1  0.843876  0.724504  0.231056  1
  Mg  Mg14  1  0.321924  0.778810  0.530504  1
  Mg  Mg15  1  0.156124  0.275496  0.768944  1
  P  P16  1  0.705033  0.746527  0.562934  1
  P  P17  1  0.207360  0.705494  0.689809  1
  P  P18  1  0.207360  0.794506  0.189809  1
  P  P19  1  0.705033  0.753473  0.062934  1
  P  P20  1  0.294967  0.246527  0.937066  1
  P  P21  1  0.294967  0.253473  0.437066  1
  P  P22  1  0.792640  0.205494  0.810191  1
  P  P23  1  0.792640  0.294506  0.310191  1
  O  O24  1  0.670644  0.037546  0.770659  1
  O  O25  1  0.670644  0.462454  0.270659  1
  O  O26  1  0.212650  0.317953  0.867460  1
  O  O27  1  0.212650  0.182047  0.367460  1
  O  O28  1  0.281438  0.550524  0.450212  1
  O  O29  1  0.467763  0.324543  0.933878  1
  O  O30  1  0.787350  0.817953  0.632540  1
  O  O31  1  0.050622  0.594084  0.717810  1
  O  O32  1  0.780814  0.899859  0.502976  1
  O  O33  1  0.219186  0.100141  0.497024  1
  O  O34  1  0.718562  0.050524  0.049788  1
  O  O35  1  0.718562  0.449476  0.549788  1
  O  O36  1  0.532237  0.824543  0.566122  1
  O  O37  1  0.773371  0.498380  0.794566  1
  O  O38  1  0.226629  0.998380  0.705434  1
  O  O39  1  0.329356  0.962454  0.229341  1
  O  O40  1  0.219186  0.399859  0.997024  1
  O  O41  1  0.329356  0.537546  0.729341  1
  O  O42  1  0.532237  0.675457  0.066122  1
  O  O43  1  0.949378  0.094084  0.782190  1
  O  O44  1  0.773371  0.001620  0.294566  1
  O  O45  1  0.792972  0.339523  0.389692  1
  O  O46  1  0.281438  0.949476  0.950212  1
  O  O47  1  0.207028  0.660477  0.610308  1
  O  O48  1  0.780814  0.600141  0.002976  1
  O  O49  1  0.207028  0.839523  0.110308  1
  O  O50  1  0.226629  0.501620  0.205434  1
  O  O51  1  0.050622  0.905916  0.217810  1
  O  O52  1  0.792972  0.160477  0.889692  1
  O  O53  1  0.467763  0.175457  0.433878  1
  O  O54  1  0.787350  0.682047  0.132540  1
  O  O55  1  0.949378  0.405916  0.282190  1
