# generated using pymatgen
data_Na3In2Au
_symmetry_space_group_name_H-M   'P 1'
_cell_length_a   9.65744162
_cell_length_b   9.65744162
_cell_length_c   9.65744162
_cell_angle_alpha   60.00000000
_cell_angle_beta   60.00000000
_cell_angle_gamma   60.00000000
_symmetry_Int_Tables_number   1
_chemical_formula_structural   Na3In2Au
_chemical_formula_sum   'Na12 In8 Au4'
_cell_volume   636.90004054
_cell_formula_units_Z   4
loop_
 _symmetry_equiv_pos_site_id
 _symmetry_equiv_pos_as_xyz
  1  'x, y, z'
loop_
 _atom_site_type_symbol
 _atom_site_label
 _atom_site_symmetry_multiplicity
 _atom_site_fract_x
 _atom_site_fract_y
 _atom_site_fract_z
 _atom_site_occupancy
  Na  Na0  1  0.451973  0.048027  0.451973  1
  Na  Na1  1  0.201973  0.201973  0.798027  1
  Na  Na2  1  0.048027  0.451973  0.451973  1
  Na  Na3  1  0.201973  0.798027  0.798027  1
  Na  Na4  1  0.201973  0.798027  0.201973  1
  Na  Na5  1  0.048027  0.451973  0.048027  1
  Na  Na6  1  0.451973  0.048027  0.048027  1
  Na  Na7  1  0.798027  0.201973  0.201973  1
  Na  Na8  1  0.048027  0.048027  0.451973  1
  Na  Na9  1  0.798027  0.201973  0.798027  1
  Na  Na10  1  0.451973  0.451973  0.048027  1
  Na  Na11  1  0.798027  0.798027  0.201973  1
  In  In12  1  0.753163  0.415612  0.415612  1
  In  In13  1  0.415612  0.415612  0.753163  1
  In  In14  1  0.496837  0.834388  0.834388  1
  In  In15  1  0.415612  0.415612  0.415612  1
  In  In16  1  0.834388  0.834388  0.834388  1
  In  In17  1  0.415612  0.753163  0.415612  1
  In  In18  1  0.834388  0.496837  0.834388  1
  In  In19  1  0.834388  0.834388  0.496837  1
  Au  Au20  1  0.625000  0.625000  0.625000  1
  Au  Au21  1  0.625000  0.125000  0.625000  1
  Au  Au22  1  0.625000  0.625000  0.125000  1
  Au  Au23  1  0.125000  0.625000  0.625000  1
