# generated using pymatgen
data_BiPd
_symmetry_space_group_name_H-M   'P 1'
_cell_length_a   5.76524509
_cell_length_b   5.76524509
_cell_length_c   10.79936834
_cell_angle_alpha   90.00000000
_cell_angle_beta   90.00000000
_cell_angle_gamma   101.54178445
_symmetry_Int_Tables_number   1
_chemical_formula_structural   BiPd
_chemical_formula_sum   'Bi8 Pd8'
_cell_volume   351.69164634
_cell_formula_units_Z   8
loop_
 _symmetry_equiv_pos_site_id
 _symmetry_equiv_pos_as_xyz
  1  'x, y, z'
loop_
 _atom_site_type_symbol
 _atom_site_label
 _atom_site_symmetry_multiplicity
 _atom_site_fract_x
 _atom_site_fract_y
 _atom_site_fract_z
 _atom_site_occupancy
  Bi  Bi0  1  0.392508  0.853430  0.279270  1
  Bi  Bi1  1  0.122725  0.122725  0.993663  1
  Bi  Bi2  1  0.853430  0.392508  0.279270  1
  Bi  Bi3  1  0.146570  0.607492  0.779270  1
  Bi  Bi4  1  0.367033  0.367033  0.498682  1
  Bi  Bi5  1  0.632967  0.632967  0.998682  1
  Bi  Bi6  1  0.607492  0.146570  0.779270  1
  Bi  Bi7  1  0.877275  0.877275  0.493663  1
  Pd  Pd8  1  0.090632  0.090632  0.721120  1
  Pd  Pd9  1  0.332183  0.332183  0.228000  1
  Pd  Pd10  1  0.132060  0.623254  0.055997  1
  Pd  Pd11  1  0.667817  0.667817  0.728000  1
  Pd  Pd12  1  0.376746  0.867940  0.555997  1
  Pd  Pd13  1  0.867940  0.376746  0.555997  1
  Pd  Pd14  1  0.623254  0.132060  0.055997  1
  Pd  Pd15  1  0.909368  0.909368  0.221120  1
