# generated using pymatgen
data_Li4Mo3O8
_symmetry_space_group_name_H-M   'P 1'
_cell_length_a   6.31097872
_cell_length_b   6.31097872
_cell_length_c   6.31097872
_cell_angle_alpha   58.46961565
_cell_angle_beta   58.46961565
_cell_angle_gamma   58.46961565
_symmetry_Int_Tables_number   1
_chemical_formula_structural   Li4Mo3O8
_chemical_formula_sum   'Li4 Mo3 O8'
_cell_volume   171.51250615
_cell_formula_units_Z   1
loop_
 _symmetry_equiv_pos_site_id
 _symmetry_equiv_pos_as_xyz
  1  'x, y, z'
loop_
 _atom_site_type_symbol
 _atom_site_label
 _atom_site_symmetry_multiplicity
 _atom_site_fract_x
 _atom_site_fract_y
 _atom_site_fract_z
 _atom_site_occupancy
  Li  Li0  1  0.500000  0.500000  0.500000  1
  Li  Li1  1  0.639040  0.639040  0.639040  1
  Li  Li2  1  0.360960  0.360960  0.360960  1
  Li  Li3  1  0.000000  0.000000  0.000000  1
  Mo  Mo4  1  0.000000  1.000000  0.500000  1
  Mo  Mo5  1  0.500000  0.000000  0.000000  1
  Mo  Mo6  1  1.000000  0.500000  0.000000  1
  O  O7  1  0.258030  0.258030  0.769280  1
  O  O8  1  0.769280  0.258030  0.258030  1
  O  O9  1  0.741970  0.230720  0.741970  1
  O  O10  1  0.236918  0.236918  0.236918  1
  O  O11  1  0.230720  0.741970  0.741970  1
  O  O12  1  0.763082  0.763082  0.763082  1
  O  O13  1  0.741970  0.741970  0.230720  1
  O  O14  1  0.258030  0.769280  0.258030  1
