# generated using pymatgen
data_Mg2BiPO6
_symmetry_space_group_name_H-M   'P 1'
_cell_length_a   7.22745549
_cell_length_b   7.22745549
_cell_length_c   5.33654679
_cell_angle_alpha   90.00000000
_cell_angle_beta   90.00000000
_cell_angle_gamma   113.73074792
_symmetry_Int_Tables_number   1
_chemical_formula_structural   Mg2BiPO6
_chemical_formula_sum   'Mg4 Bi2 P2 O12'
_cell_volume   255.19035903
_cell_formula_units_Z   2
loop_
 _symmetry_equiv_pos_site_id
 _symmetry_equiv_pos_as_xyz
  1  'x, y, z'
loop_
 _atom_site_type_symbol
 _atom_site_label
 _atom_site_symmetry_multiplicity
 _atom_site_fract_x
 _atom_site_fract_y
 _atom_site_fract_z
 _atom_site_occupancy
  Mg  Mg0  1  0.706569  0.901133  0.750000  1
  Mg  Mg1  1  0.098867  0.293431  0.750000  1
  Mg  Mg2  1  0.293431  0.098867  0.250000  1
  Mg  Mg3  1  0.901133  0.706569  0.250000  1
  Bi  Bi4  1  0.403729  0.596271  0.250000  1
  Bi  Bi5  1  0.596271  0.403729  0.750000  1
  P  P6  1  0.197847  0.802153  0.750000  1
  P  P7  1  0.802153  0.197847  0.250000  1
  O  O8  1  0.327686  0.327686  0.000000  1
  O  O9  1  0.875955  0.124046  0.492277  1
  O  O10  1  0.430039  0.893202  0.750000  1
  O  O11  1  0.569961  0.106798  0.250000  1
  O  O12  1  0.327686  0.327686  0.500000  1
  O  O13  1  0.106798  0.569961  0.750000  1
  O  O14  1  0.672314  0.672314  0.000000  1
  O  O15  1  0.672314  0.672314  0.500000  1
  O  O16  1  0.124046  0.875955  0.992277  1
  O  O17  1  0.893202  0.430039  0.250000  1
  O  O18  1  0.875955  0.124046  0.007723  1
  O  O19  1  0.124046  0.875955  0.507723  1
