# generated using pymatgen
data_Sc5As3
_symmetry_space_group_name_H-M   'P 1'
_cell_length_a   7.26423744
_cell_length_b   8.18744677
_cell_length_c   10.76524490
_cell_angle_alpha   90.00000000
_cell_angle_beta   90.00000000
_cell_angle_gamma   90.00000000
_symmetry_Int_Tables_number   1
_chemical_formula_structural   Sc5As3
_chemical_formula_sum   'Sc20 As12'
_cell_volume   640.26894059
_cell_formula_units_Z   4
loop_
 _symmetry_equiv_pos_site_id
 _symmetry_equiv_pos_as_xyz
  1  'x, y, z'
loop_
 _atom_site_type_symbol
 _atom_site_label
 _atom_site_symmetry_multiplicity
 _atom_site_fract_x
 _atom_site_fract_y
 _atom_site_fract_z
 _atom_site_occupancy
  Sc  Sc0  1  0.808593  0.947651  0.070962  1
  Sc  Sc1  1  0.308593  0.052349  0.429038  1
  Sc  Sc2  1  0.191407  0.447651  0.929038  1
  Sc  Sc3  1  0.691407  0.552349  0.570962  1
  Sc  Sc4  1  0.191407  0.052349  0.929038  1
  Sc  Sc5  1  0.691407  0.947651  0.570962  1
  Sc  Sc6  1  0.808593  0.552349  0.070962  1
  Sc  Sc7  1  0.308593  0.447651  0.429038  1
  Sc  Sc8  1  0.166279  0.750000  0.223271  1
  Sc  Sc9  1  0.666279  0.250000  0.276729  1
  Sc  Sc10  1  0.833721  0.250000  0.776729  1
  Sc  Sc11  1  0.333721  0.750000  0.723271  1
  Sc  Sc12  1  0.469836  0.750000  0.004018  1
  Sc  Sc13  1  0.969836  0.250000  0.495982  1
  Sc  Sc14  1  0.530164  0.250000  0.995982  1
  Sc  Sc15  1  0.030164  0.750000  0.504018  1
  Sc  Sc16  1  0.649818  0.750000  0.293214  1
  Sc  Sc17  1  0.149818  0.250000  0.206786  1
  Sc  Sc18  1  0.350182  0.250000  0.706786  1
  Sc  Sc19  1  0.850182  0.750000  0.793214  1
  As  As20  1  0.417016  0.750000  0.482579  1
  As  As21  1  0.917016  0.250000  0.017421  1
  As  As22  1  0.582984  0.250000  0.517421  1
  As  As23  1  0.082984  0.750000  0.982579  1
  As  As24  1  0.935582  0.509982  0.327665  1
  As  As25  1  0.435582  0.490018  0.172335  1
  As  As26  1  0.064418  0.009982  0.672335  1
  As  As27  1  0.564418  0.990018  0.827665  1
  As  As28  1  0.064418  0.490018  0.672335  1
  As  As29  1  0.564418  0.509982  0.827665  1
  As  As30  1  0.935582  0.990018  0.327665  1
  As  As31  1  0.435582  0.009982  0.172335  1
