# generated using pymatgen
data_Cu5Se2(ClO4)2
_symmetry_space_group_name_H-M   'P 1'
_cell_length_a   5.49140041
_cell_length_b   8.25471015
_cell_length_c   11.23731106
_cell_angle_alpha   90.00000000
_cell_angle_beta   99.06430641
_cell_angle_gamma   90.00000000
_symmetry_Int_Tables_number   1
_chemical_formula_structural   Cu5Se2(ClO4)2
_chemical_formula_sum   'Cu10 Se4 Cl4 O16'
_cell_volume   503.02525242
_cell_formula_units_Z   2
loop_
 _symmetry_equiv_pos_site_id
 _symmetry_equiv_pos_as_xyz
  1  'x, y, z'
loop_
 _atom_site_type_symbol
 _atom_site_label
 _atom_site_symmetry_multiplicity
 _atom_site_fract_x
 _atom_site_fract_y
 _atom_site_fract_z
 _atom_site_occupancy
  Cu  Cu0  1  0.517957  0.285591  0.884059  1
  Cu  Cu1  1  0.480291  0.924169  0.880124  1
  Cu  Cu2  1  0.519709  0.075831  0.119876  1
  Cu  Cu3  1  0.482043  0.714409  0.115941  1
  Cu  Cu4  1  0.519709  0.424169  0.619876  1
  Cu  Cu5  1  0.480291  0.575831  0.380124  1
  Cu  Cu6  1  0.517957  0.214409  0.384059  1
  Cu  Cu7  1  0.482043  0.785591  0.615941  1
  Cu  Cu8  1  0.000000  0.500000  0.500000  1
  Cu  Cu9  1  0.000000  0.000000  0.000000  1
  Se  Se10  1  0.864674  0.091087  0.715022  1
  Se  Se11  1  0.864674  0.408913  0.215022  1
  Se  Se12  1  0.135326  0.908913  0.284978  1
  Se  Se13  1  0.135326  0.591087  0.784978  1
  Cl  Cl14  1  0.719124  0.651747  0.977832  1
  Cl  Cl15  1  0.280876  0.348253  0.022168  1
  Cl  Cl16  1  0.719124  0.848253  0.477832  1
  Cl  Cl17  1  0.280876  0.151747  0.522168  1
  O  O18  1  0.647421  0.559136  0.238885  1
  O  O19  1  0.922313  0.567805  0.657081  1
  O  O20  1  0.708710  0.231700  0.248345  1
  O  O21  1  0.352579  0.059136  0.261115  1
  O  O22  1  0.077687  0.067805  0.842919  1
  O  O23  1  0.647421  0.940864  0.738885  1
  O  O24  1  0.670276  0.399481  0.473195  1
  O  O25  1  0.329724  0.600519  0.526805  1
  O  O26  1  0.077687  0.432195  0.342919  1
  O  O27  1  0.922313  0.932195  0.157081  1
  O  O28  1  0.708710  0.268300  0.748345  1
  O  O29  1  0.352579  0.440864  0.761115  1
  O  O30  1  0.291290  0.768300  0.751655  1
  O  O31  1  0.291290  0.731700  0.251655  1
  O  O32  1  0.329724  0.899481  0.026805  1
  O  O33  1  0.670276  0.100519  0.973195  1
