# generated using pymatgen
data_Cu6GeWS8
_symmetry_space_group_name_H-M   'P 1'
_cell_length_a   7.57030349
_cell_length_b   7.57030349
_cell_length_c   12.44946068
_cell_angle_alpha   90.00000000
_cell_angle_beta   90.00000000
_cell_angle_gamma   120.00000000
_symmetry_Int_Tables_number   1
_chemical_formula_structural   Cu6GeWS8
_chemical_formula_sum   'Cu12 Ge2 W2 S16'
_cell_volume   617.88513993
_cell_formula_units_Z   2
loop_
 _symmetry_equiv_pos_site_id
 _symmetry_equiv_pos_as_xyz
  1  'x, y, z'
loop_
 _atom_site_type_symbol
 _atom_site_label
 _atom_site_symmetry_multiplicity
 _atom_site_fract_x
 _atom_site_fract_y
 _atom_site_fract_z
 _atom_site_occupancy
  Cu  Cu0  1  0.838876  0.677753  0.104903  1
  Cu  Cu1  1  0.503512  0.496488  0.353811  1
  Cu  Cu2  1  0.007024  0.503512  0.853811  1
  Cu  Cu3  1  0.838876  0.161124  0.104903  1
  Cu  Cu4  1  0.496488  0.503512  0.853811  1
  Cu  Cu5  1  0.161124  0.322247  0.604903  1
  Cu  Cu6  1  0.503512  0.007024  0.353811  1
  Cu  Cu7  1  0.992976  0.496488  0.353811  1
  Cu  Cu8  1  0.161124  0.838876  0.604903  1
  Cu  Cu9  1  0.496488  0.992976  0.853811  1
  Cu  Cu10  1  0.677753  0.838876  0.604903  1
  Cu  Cu11  1  0.322247  0.161124  0.104903  1
  Ge  Ge12  1  0.000000  0.000000  0.851786  1
  Ge  Ge13  1  0.000000  0.000000  0.351786  1
  W  W14  1  0.333333  0.666667  0.481476  1
  W  W15  1  0.666667  0.333333  0.981476  1
  S  S16  1  0.000000  0.000000  0.034277  1
  S  S17  1  0.329551  0.164776  0.289681  1
  S  S18  1  0.835224  0.164776  0.289681  1
  S  S19  1  0.006599  0.503300  0.541288  1
  S  S20  1  0.835224  0.670449  0.289681  1
  S  S21  1  0.666667  0.333333  0.799413  1
  S  S22  1  0.164776  0.329551  0.789681  1
  S  S23  1  0.496700  0.503300  0.541288  1
  S  S24  1  0.000000  0.000000  0.534277  1
  S  S25  1  0.333333  0.666667  0.299413  1
  S  S26  1  0.993401  0.496700  0.041288  1
  S  S27  1  0.496700  0.993401  0.541288  1
  S  S28  1  0.164776  0.835224  0.789681  1
  S  S29  1  0.670449  0.835224  0.789681  1
  S  S30  1  0.503300  0.006599  0.041288  1
  S  S31  1  0.503300  0.496700  0.041288  1
