# generated using pymatgen
data_MnH10SeO9
_symmetry_space_group_name_H-M   'P 1'
_cell_length_a   6.33169175
_cell_length_b   6.44999859
_cell_length_c   11.12542718
_cell_angle_alpha   75.39199315
_cell_angle_beta   81.64081022
_cell_angle_gamma   70.45233514
_symmetry_Int_Tables_number   1
_chemical_formula_structural   MnH10SeO9
_chemical_formula_sum   'Mn2 H20 Se2 O18'
_cell_volume   413.39949099
_cell_formula_units_Z   2
loop_
 _symmetry_equiv_pos_site_id
 _symmetry_equiv_pos_as_xyz
  1  'x, y, z'
loop_
 _atom_site_type_symbol
 _atom_site_label
 _atom_site_symmetry_multiplicity
 _atom_site_fract_x
 _atom_site_fract_y
 _atom_site_fract_z
 _atom_site_occupancy
  Mn  Mn0  1  0.000000  0.000000  0.000000  1
  Mn  Mn1  1  0.000000  0.500000  0.500000  1
  H  H2  1  0.737405  0.894181  0.857261  1
  H  H3  1  0.262595  0.105819  0.142739  1
  H  H4  1  0.759788  0.715730  0.988763  1
  H  H5  1  0.240212  0.284270  0.011237  1
  H  H6  1  0.883270  0.346878  0.792940  1
  H  H7  1  0.116730  0.653122  0.207060  1
  H  H8  1  0.650089  0.355182  0.870929  1
  H  H9  1  0.349911  0.644818  0.129071  1
  H  H10  1  0.553688  0.595803  0.609594  1
  H  H11  1  0.446312  0.404197  0.390406  1
  H  H12  1  0.640488  0.324188  0.629788  1
  H  H13  1  0.359512  0.675812  0.370212  1
  H  H14  1  0.097176  0.813549  0.600707  1
  H  H15  1  0.902824  0.186451  0.399293  1
  H  H16  1  0.829462  0.868243  0.624459  1
  H  H17  1  0.170538  0.131757  0.375541  1
  H  H18  1  0.302613  0.606010  0.874366  1
  H  H19  1  0.697387  0.393990  0.125634  1
  H  H20  1  0.279574  0.430834  0.805443  1
  H  H21  1  0.720426  0.569166  0.194557  1
  Se  Se22  1  0.351536  0.017673  0.712196  1
  Se  Se23  1  0.648464  0.982327  0.287804  1
  O  O24  1  0.283927  0.899448  0.859344  1
  O  O25  1  0.716073  0.100552  0.140656  1
  O  O26  1  0.171015  0.280245  0.675450  1
  O  O27  1  0.828985  0.719755  0.324550  1
  O  O28  1  0.346275  0.856513  0.617084  1
  O  O29  1  0.653725  0.143487  0.382916  1
  O  O30  1  0.610666  0.040058  0.705669  1
  O  O31  1  0.389334  0.959942  0.294331  1
  O  O32  1  0.832941  0.816956  0.928128  1
  O  O33  1  0.167059  0.183044  0.071872  1
  O  O34  1  0.814550  0.315837  0.877680  1
  O  O35  1  0.185450  0.684163  0.122320  1
  O  O36  1  0.685227  0.462413  0.600197  1
  O  O37  1  0.314773  0.537587  0.399803  1
  O  O38  1  0.967599  0.767294  0.589940  1
  O  O39  1  0.032401  0.232706  0.410060  1
  O  O40  1  0.350129  0.442409  0.875353  1
  O  O41  1  0.649871  0.557591  0.124647  1
