# generated using pymatgen
data_La2AlNi9H
_symmetry_space_group_name_H-M   'P 1'
_cell_length_a   4.97689502
_cell_length_b   8.08988201
_cell_length_c   5.00964673
_cell_angle_alpha   90.00000000
_cell_angle_beta   119.39359644
_cell_angle_gamma   90.00000000
_symmetry_Int_Tables_number   1
_chemical_formula_structural   La2AlNi9H
_chemical_formula_sum   'La2 Al1 Ni9 H1'
_cell_volume   175.73564813
_cell_formula_units_Z   1
loop_
 _symmetry_equiv_pos_site_id
 _symmetry_equiv_pos_as_xyz
  1  'x, y, z'
loop_
 _atom_site_type_symbol
 _atom_site_label
 _atom_site_symmetry_multiplicity
 _atom_site_fract_x
 _atom_site_fract_y
 _atom_site_fract_z
 _atom_site_occupancy
  La  La0  1  0.995056  0.266056  0.995939  1
  La  La1  1  0.995056  0.733944  0.995939  1
  Al  Al2  1  0.491660  0.000000  0.492945  1
  Ni  Ni3  1  0.330763  0.251967  0.666731  1
  Ni  Ni4  1  0.330763  0.748033  0.666731  1
  Ni  Ni5  1  0.497292  0.500000  0.496119  1
  Ni  Ni6  1  0.659672  0.252889  0.317462  1
  Ni  Ni7  1  0.496690  0.000000  0.997928  1
  Ni  Ni8  1  0.996481  0.500000  0.496757  1
  Ni  Ni9  1  0.494576  0.500000  0.994377  1
  Ni  Ni10  1  0.659672  0.747111  0.317462  1
  Ni  Ni11  1  0.996686  0.000000  0.504711  1
  H  H12  1  0.920367  0.000000  0.784141  1
