# generated using pymatgen
data_Ce3CuSiSe7
_symmetry_space_group_name_H-M   'P 1'
_cell_length_a   10.66207434
_cell_length_b   10.66207434
_cell_length_c   6.11023650
_cell_angle_alpha   90.00000000
_cell_angle_beta   90.00000000
_cell_angle_gamma   120.00000000
_symmetry_Int_Tables_number   1
_chemical_formula_structural   Ce3CuSiSe7
_chemical_formula_sum   'Ce6 Cu2 Si2 Se14'
_cell_volume   601.55046108
_cell_formula_units_Z   2
loop_
 _symmetry_equiv_pos_site_id
 _symmetry_equiv_pos_as_xyz
  1  'x, y, z'
loop_
 _atom_site_type_symbol
 _atom_site_label
 _atom_site_symmetry_multiplicity
 _atom_site_fract_x
 _atom_site_fract_y
 _atom_site_fract_z
 _atom_site_occupancy
  Ce  Ce0  1  0.228754  0.873572  0.729627  1
  Ce  Ce1  1  0.126428  0.355182  0.729627  1
  Ce  Ce2  1  0.771246  0.126428  0.229627  1
  Ce  Ce3  1  0.355182  0.228754  0.229627  1
  Ce  Ce4  1  0.873572  0.644818  0.229627  1
  Ce  Ce5  1  0.644818  0.771246  0.729627  1
  Cu  Cu6  1  0.000000  0.000000  0.691503  1
  Cu  Cu7  1  0.000000  0.000000  0.191503  1
  Si  Si8  1  0.666667  0.333333  0.820000  1
  Si  Si9  1  0.333333  0.666667  0.320000  1
  Se  Se10  1  0.894811  0.416377  0.966471  1
  Se  Se11  1  0.105189  0.583623  0.466471  1
  Se  Se12  1  0.583623  0.478434  0.966471  1
  Se  Se13  1  0.836023  0.090159  0.715218  1
  Se  Se14  1  0.909841  0.745864  0.715218  1
  Se  Se15  1  0.666667  0.333333  0.447347  1
  Se  Se16  1  0.254136  0.163977  0.715218  1
  Se  Se17  1  0.163977  0.909841  0.215218  1
  Se  Se18  1  0.521566  0.105189  0.966471  1
  Se  Se19  1  0.090159  0.254136  0.215218  1
  Se  Se20  1  0.745864  0.836023  0.215218  1
  Se  Se21  1  0.333333  0.666667  0.947347  1
  Se  Se22  1  0.416377  0.521566  0.466471  1
  Se  Se23  1  0.478434  0.894811  0.466471  1
