# generated using pymatgen
data_Cs5In3As4
_symmetry_space_group_name_H-M   'P 1'
_cell_length_a   17.35258256
_cell_length_b   12.55146793
_cell_length_c   18.56816178
_cell_angle_alpha   90.00000000
_cell_angle_beta   117.22590336
_cell_angle_gamma   90.00000000
_symmetry_Int_Tables_number   1
_chemical_formula_structural   Cs5In3As4
_chemical_formula_sum   'Cs40 In24 As32'
_cell_volume   3596.09957272
_cell_formula_units_Z   8
loop_
 _symmetry_equiv_pos_site_id
 _symmetry_equiv_pos_as_xyz
  1  'x, y, z'
loop_
 _atom_site_type_symbol
 _atom_site_label
 _atom_site_symmetry_multiplicity
 _atom_site_fract_x
 _atom_site_fract_y
 _atom_site_fract_z
 _atom_site_occupancy
  Cs  Cs0  1  0.784216  0.365140  0.594925  1
  Cs  Cs1  1  0.440508  0.635128  0.862630  1
  Cs  Cs2  1  0.559492  0.135128  0.637370  1
  Cs  Cs3  1  0.251003  0.413278  0.689045  1
  Cs  Cs4  1  0.207971  0.381738  0.893640  1
  Cs  Cs5  1  0.646835  0.854663  0.962634  1
  Cs  Cs6  1  0.763237  0.875445  0.212569  1
  Cs  Cs7  1  0.792029  0.618262  0.106360  1
  Cs  Cs8  1  0.792029  0.881738  0.606360  1
  Cs  Cs9  1  0.750676  0.337807  0.813133  1
  Cs  Cs10  1  0.440508  0.864872  0.362630  1
  Cs  Cs11  1  0.098761  0.127760  0.538540  1
  Cs  Cs12  1  0.901239  0.627760  0.961460  1
  Cs  Cs13  1  0.236763  0.375445  0.287431  1
  Cs  Cs14  1  0.353165  0.145337  0.037366  1
  Cs  Cs15  1  0.079621  0.624399  0.533511  1
  Cs  Cs16  1  0.641974  0.397374  0.965110  1
  Cs  Cs17  1  0.207971  0.118262  0.393640  1
  Cs  Cs18  1  0.920379  0.124399  0.966489  1
  Cs  Cs19  1  0.249324  0.837807  0.686867  1
  Cs  Cs20  1  0.748997  0.586722  0.310955  1
  Cs  Cs21  1  0.249324  0.662193  0.186867  1
  Cs  Cs22  1  0.646835  0.645337  0.462634  1
  Cs  Cs23  1  0.358026  0.602626  0.034890  1
  Cs  Cs24  1  0.750676  0.162193  0.313133  1
  Cs  Cs25  1  0.079621  0.875601  0.033511  1
  Cs  Cs26  1  0.748997  0.913278  0.810955  1
  Cs  Cs27  1  0.236763  0.124555  0.787431  1
  Cs  Cs28  1  0.920379  0.375601  0.466489  1
  Cs  Cs29  1  0.098761  0.372240  0.038540  1
  Cs  Cs30  1  0.641974  0.102626  0.465110  1
  Cs  Cs31  1  0.784216  0.134860  0.094925  1
  Cs  Cs32  1  0.215784  0.634860  0.405075  1
  Cs  Cs33  1  0.358026  0.897374  0.534890  1
  Cs  Cs34  1  0.559492  0.364872  0.137370  1
  Cs  Cs35  1  0.901239  0.872240  0.461460  1
  Cs  Cs36  1  0.353165  0.354663  0.537366  1
  Cs  Cs37  1  0.215784  0.865140  0.905075  1
  Cs  Cs38  1  0.763237  0.624555  0.712569  1
  Cs  Cs39  1  0.251003  0.086722  0.189045  1
  In  In40  1  0.996241  0.993915  0.799086  1
  In  In41  1  0.996241  0.506085  0.299086  1
  In  In42  1  0.003759  0.006085  0.200914  1
  In  In43  1  0.003759  0.493915  0.700914  1
  In  In44  1  0.914685  0.125126  0.603711  1
  In  In45  1  0.085315  0.625126  0.896289  1
  In  In46  1  0.495056  0.876588  0.051851  1
  In  In47  1  0.531882  0.765320  0.721297  1
  In  In48  1  0.523511  0.022115  0.224669  1
  In  In49  1  0.914685  0.374874  0.103711  1
  In  In50  1  0.476489  0.977885  0.775331  1
  In  In51  1  0.468118  0.234680  0.278703  1
  In  In52  1  0.531882  0.734680  0.221297  1
  In  In53  1  0.006538  0.746430  0.200073  1
  In  In54  1  0.993462  0.253570  0.799927  1
  In  In55  1  0.468118  0.265320  0.778703  1
  In  In56  1  0.504944  0.376588  0.448149  1
  In  In57  1  0.495056  0.623412  0.551851  1
  In  In58  1  0.993462  0.246430  0.299927  1
  In  In59  1  0.085315  0.874874  0.396289  1
  In  In60  1  0.504944  0.123412  0.948149  1
  In  In61  1  0.476489  0.522115  0.275331  1
  In  In62  1  0.523511  0.477885  0.724669  1
  In  In63  1  0.006538  0.753570  0.700073  1
  As  As64  1  0.609362  0.127298  0.868260  1
  As  As65  1  0.579000  0.813749  0.600201  1
  As  As66  1  0.639860  0.880655  0.335583  1
  As  As67  1  0.590227  0.437665  0.609775  1
  As  As68  1  0.150989  0.623444  0.771740  1
  As  As69  1  0.955678  0.457614  0.822824  1
  As  As70  1  0.409773  0.937665  0.890225  1
  As  As71  1  0.421000  0.313749  0.899799  1
  As  As72  1  0.609362  0.372702  0.368260  1
  As  As73  1  0.409773  0.562335  0.390225  1
  As  As74  1  0.390638  0.627298  0.631740  1
  As  As75  1  0.849011  0.376556  0.228260  1
  As  As76  1  0.360140  0.119345  0.664417  1
  As  As77  1  0.849011  0.123444  0.728260  1
  As  As78  1  0.421000  0.186251  0.399799  1
  As  As79  1  0.150989  0.876556  0.271740  1
  As  As80  1  0.955678  0.042386  0.322824  1
  As  As81  1  0.106316  0.377433  0.422231  1
  As  As82  1  0.955056  0.790540  0.819821  1
  As  As83  1  0.044322  0.957614  0.677176  1
  As  As84  1  0.893684  0.877433  0.077769  1
  As  As85  1  0.390638  0.872702  0.131740  1
  As  As86  1  0.639860  0.619345  0.835583  1
  As  As87  1  0.590227  0.062335  0.109775  1
  As  As88  1  0.106316  0.122567  0.922231  1
  As  As89  1  0.955056  0.709460  0.319821  1
  As  As90  1  0.044944  0.209460  0.180179  1
  As  As91  1  0.044944  0.290540  0.680179  1
  As  As92  1  0.360140  0.380655  0.164417  1
  As  As93  1  0.893684  0.622567  0.577769  1
  As  As94  1  0.044322  0.542386  0.177176  1
  As  As95  1  0.579000  0.686251  0.100201  1
