# generated using pymatgen
data_Ca(PO3)2
_symmetry_space_group_name_H-M   'P 1'
_cell_length_a   12.30034899
_cell_length_b   12.30034899
_cell_length_c   6.84599887
_cell_angle_alpha   87.34283830
_cell_angle_beta   92.65716170
_cell_angle_gamma   68.68761423
_symmetry_Int_Tables_number   1
_chemical_formula_structural   Ca(PO3)2
_chemical_formula_sum   'Ca8 P16 O48'
_cell_volume   961.69149239
_cell_formula_units_Z   8
loop_
 _symmetry_equiv_pos_site_id
 _symmetry_equiv_pos_as_xyz
  1  'x, y, z'
loop_
 _atom_site_type_symbol
 _atom_site_label
 _atom_site_symmetry_multiplicity
 _atom_site_fract_x
 _atom_site_fract_y
 _atom_site_fract_z
 _atom_site_occupancy
  Ca  Ca0  1  0.479513  0.139918  0.684765  1
  Ca  Ca1  1  0.470630  0.640923  0.195704  1
  Ca  Ca2  1  0.979348  0.151614  0.189142  1
  Ca  Ca3  1  0.970771  0.647682  0.700533  1
  Ca  Ca4  1  0.352318  0.029229  0.200533  1
  Ca  Ca5  1  0.848386  0.020652  0.689142  1
  Ca  Ca6  1  0.359077  0.529370  0.695704  1
  Ca  Ca7  1  0.860082  0.520487  0.184765  1
  P  P8  1  0.651256  0.457295  0.504891  1
  P  P9  1  0.642289  0.955795  0.022443  1
  P  P10  1  0.137028  0.000014  0.567017  1
  P  P11  1  0.318419  0.821278  0.822905  1
  P  P12  1  0.500595  0.839567  0.538144  1
  P  P13  1  0.289151  0.327315  0.359397  1
  P  P14  1  0.999986  0.862972  0.067017  1
  P  P15  1  0.673990  0.215302  0.364708  1
  P  P16  1  0.172706  0.179396  0.835454  1
  P  P17  1  0.178722  0.681581  0.322905  1
  P  P18  1  0.784698  0.326010  0.864708  1
  P  P19  1  0.820604  0.827294  0.335454  1
  P  P20  1  0.044205  0.357711  0.522443  1
  P  P21  1  0.672685  0.710849  0.859397  1
  P  P22  1  0.542705  0.348744  0.004891  1
  P  P23  1  0.160433  0.499405  0.038144  1
  O  O24  1  0.991701  0.287887  0.403031  1
  O  O25  1  0.096719  0.671277  0.469986  1
  O  O26  1  0.344506  0.399154  0.466143  1
  O  O27  1  0.166153  0.347681  0.444370  1
  O  O28  1  0.300828  0.668436  0.396068  1
  O  O29  1  0.833268  0.848150  0.549317  1
  O  O30  1  0.251240  0.375020  0.132471  1
  O  O31  1  0.801866  0.640449  0.860416  1
  O  O32  1  0.652319  0.833847  0.944370  1
  O  O33  1  0.636289  0.336414  0.467307  1
  O  O34  1  0.624980  0.748760  0.632471  1
  O  O35  1  0.359551  0.198134  0.360416  1
  O  O36  1  0.213000  0.014207  0.410930  1
  O  O37  1  0.869243  0.350972  0.005194  1
  O  O38  1  0.751897  0.422109  0.680403  1
  O  O39  1  0.600846  0.655494  0.966143  1
  O  O40  1  0.151850  0.166732  0.049317  1
  O  O41  1  0.014250  0.012777  0.499399  1
  O  O42  1  0.577891  0.248103  0.180403  1
  O  O43  1  0.079641  0.304495  0.745708  1
  O  O44  1  0.514672  0.030961  0.025608  1
  O  O45  1  0.189472  0.514604  0.829792  1
  O  O46  1  0.123235  0.091931  0.730022  1
  O  O47  1  0.123968  0.804681  0.192372  1
  O  O48  1  0.712113  0.008299  0.903031  1
  O  O49  1  0.331564  0.699172  0.896068  1
  O  O50  1  0.908069  0.876765  0.230022  1
  O  O51  1  0.987223  0.985750  0.999399  1
  O  O52  1  0.695505  0.920359  0.245708  1
  O  O53  1  0.663586  0.363711  0.967307  1
  O  O54  1  0.294250  0.164441  0.788028  1
  O  O55  1  0.410755  0.803491  0.659779  1
  O  O56  1  0.795352  0.178077  0.298399  1
  O  O57  1  0.693468  0.505698  0.331180  1
  O  O58  1  0.485396  0.810528  0.329792  1
  O  O59  1  0.196509  0.589245  0.159779  1
  O  O60  1  0.494302  0.306532  0.831180  1
  O  O61  1  0.821923  0.204648  0.798399  1
  O  O62  1  0.195319  0.876032  0.692372  1
  O  O63  1  0.533761  0.535488  0.565434  1
  O  O64  1  0.464512  0.466239  0.065434  1
  O  O65  1  0.985793  0.787000  0.910930  1
  O  O66  1  0.969039  0.485328  0.525608  1
  O  O67  1  0.649028  0.130757  0.505194  1
  O  O68  1  0.487320  0.964385  0.560694  1
  O  O69  1  0.835559  0.705750  0.288028  1
  O  O70  1  0.328723  0.903281  0.969986  1
  O  O71  1  0.035615  0.512680  0.060694  1
