# generated using pymatgen
data_NbNiAs2
_symmetry_space_group_name_H-M   'P 1'
_cell_length_a   3.53981811
_cell_length_b   5.64043296
_cell_length_c   12.59803997
_cell_angle_alpha   90.00000000
_cell_angle_beta   90.00000000
_cell_angle_gamma   90.00000000
_symmetry_Int_Tables_number   1
_chemical_formula_structural   NbNiAs2
_chemical_formula_sum   'Nb4 Ni4 As8'
_cell_volume   251.53381076
_cell_formula_units_Z   4
loop_
 _symmetry_equiv_pos_site_id
 _symmetry_equiv_pos_as_xyz
  1  'x, y, z'
loop_
 _atom_site_type_symbol
 _atom_site_label
 _atom_site_symmetry_multiplicity
 _atom_site_fract_x
 _atom_site_fract_y
 _atom_site_fract_z
 _atom_site_occupancy
  Nb  Nb0  1  0.750000  0.990479  0.171638  1
  Nb  Nb1  1  0.250000  0.009521  0.828362  1
  Nb  Nb2  1  0.750000  0.490479  0.328362  1
  Nb  Nb3  1  0.250000  0.509521  0.671638  1
  Ni  Ni4  1  0.750000  0.979146  0.412576  1
  Ni  Ni5  1  0.250000  0.020854  0.587424  1
  Ni  Ni6  1  0.750000  0.479146  0.087424  1
  Ni  Ni7  1  0.250000  0.520854  0.912576  1
  As  As8  1  0.750000  0.854463  0.690185  1
  As  As9  1  0.250000  0.145537  0.309815  1
  As  As10  1  0.750000  0.354463  0.809815  1
  As  As11  1  0.250000  0.645537  0.190185  1
  As  As12  1  0.750000  0.803904  0.962986  1
  As  As13  1  0.250000  0.196096  0.037014  1
  As  As14  1  0.750000  0.303904  0.537014  1
  As  As15  1  0.250000  0.696096  0.462986  1
