# generated using pymatgen
data_K2CaAs2O7
_symmetry_space_group_name_H-M   'P 1'
_cell_length_a   9.37101149
_cell_length_b   5.93170982
_cell_length_c   14.91904097
_cell_angle_alpha   90.00000000
_cell_angle_beta   105.93605402
_cell_angle_gamma   90.00000000
_symmetry_Int_Tables_number   1
_chemical_formula_structural   K2CaAs2O7
_chemical_formula_sum   'K8 Ca4 As8 O28'
_cell_volume   797.42088245
_cell_formula_units_Z   4
loop_
 _symmetry_equiv_pos_site_id
 _symmetry_equiv_pos_as_xyz
  1  'x, y, z'
loop_
 _atom_site_type_symbol
 _atom_site_label
 _atom_site_symmetry_multiplicity
 _atom_site_fract_x
 _atom_site_fract_y
 _atom_site_fract_z
 _atom_site_occupancy
  K  K0  1  0.466225  0.232932  0.664163  1
  K  K1  1  0.967240  0.753850  0.886441  1
  K  K2  1  0.032760  0.246150  0.113559  1
  K  K3  1  0.533775  0.732932  0.835837  1
  K  K4  1  0.466225  0.267068  0.164163  1
  K  K5  1  0.032760  0.253850  0.613559  1
  K  K6  1  0.967240  0.746150  0.386441  1
  K  K7  1  0.533775  0.767068  0.335837  1
  Ca  Ca8  1  0.265725  0.271897  0.862577  1
  Ca  Ca9  1  0.734275  0.728103  0.137423  1
  Ca  Ca10  1  0.734275  0.771897  0.637423  1
  Ca  Ca11  1  0.265725  0.228103  0.362577  1
  As  As12  1  0.314844  0.706867  0.527651  1
  As  As13  1  0.824457  0.260436  0.801802  1
  As  As14  1  0.685156  0.293133  0.472349  1
  As  As15  1  0.175543  0.739564  0.198198  1
  As  As16  1  0.824457  0.239564  0.301802  1
  As  As17  1  0.175543  0.760436  0.698198  1
  As  As18  1  0.314844  0.793133  0.027651  1
  As  As19  1  0.685156  0.206867  0.972349  1
  O  O20  1  0.273406  0.988642  0.750597  1
  O  O21  1  0.273406  0.511358  0.250597  1
  O  O22  1  0.525178  0.247953  0.387520  1
  O  O23  1  0.525178  0.252047  0.887520  1
  O  O24  1  0.275419  0.429811  0.500833  1
  O  O25  1  0.006718  0.265813  0.805575  1
  O  O26  1  0.715244  0.130170  0.569239  1
  O  O27  1  0.724581  0.929811  0.999167  1
  O  O28  1  0.163233  0.800562  0.574426  1
  O  O29  1  0.726594  0.011358  0.249403  1
  O  O30  1  0.738605  0.007749  0.771417  1
  O  O31  1  0.724581  0.570189  0.499167  1
  O  O32  1  0.261395  0.992251  0.228583  1
  O  O33  1  0.474822  0.747953  0.112480  1
  O  O34  1  0.284756  0.869830  0.430761  1
  O  O35  1  0.006718  0.234187  0.305575  1
  O  O36  1  0.275419  0.070189  0.000833  1
  O  O37  1  0.726594  0.488642  0.749403  1
  O  O38  1  0.738605  0.492251  0.271417  1
  O  O39  1  0.261395  0.507749  0.728583  1
  O  O40  1  0.993282  0.765813  0.694425  1
  O  O41  1  0.993282  0.734187  0.194425  1
  O  O42  1  0.836767  0.199438  0.425574  1
  O  O43  1  0.715244  0.369830  0.069239  1
  O  O44  1  0.836767  0.300562  0.925574  1
  O  O45  1  0.163233  0.699438  0.074426  1
  O  O46  1  0.284756  0.630170  0.930761  1
  O  O47  1  0.474822  0.752047  0.612480  1
