# generated using pymatgen
data_Mg3Rh
_symmetry_space_group_name_H-M   'P 1'
_cell_length_a   7.96743412
_cell_length_b   7.96743412
_cell_length_c   8.23975388
_cell_angle_alpha   90.00000000
_cell_angle_beta   90.00000000
_cell_angle_gamma   120.00000000
_symmetry_Int_Tables_number   1
_chemical_formula_structural   Mg3Rh
_chemical_formula_sum   'Mg18 Rh6'
_cell_volume   452.98292702
_cell_formula_units_Z   6
loop_
 _symmetry_equiv_pos_site_id
 _symmetry_equiv_pos_as_xyz
  1  'x, y, z'
loop_
 _atom_site_type_symbol
 _atom_site_label
 _atom_site_symmetry_multiplicity
 _atom_site_fract_x
 _atom_site_fract_y
 _atom_site_fract_z
 _atom_site_occupancy
  Mg  Mg0  1  0.000000  0.000000  0.313625  1
  Mg  Mg1  1  0.000000  0.000000  0.813625  1
  Mg  Mg2  1  0.333333  0.666667  0.204446  1
  Mg  Mg3  1  0.666667  0.333333  0.704446  1
  Mg  Mg4  1  0.333333  0.666667  0.704446  1
  Mg  Mg5  1  0.666667  0.333333  0.204446  1
  Mg  Mg6  1  0.286033  0.286033  0.576789  1
  Mg  Mg7  1  0.000000  0.286033  0.076789  1
  Mg  Mg8  1  0.286033  0.000000  0.076789  1
  Mg  Mg9  1  0.713967  0.000000  0.576789  1
  Mg  Mg10  1  0.000000  0.713967  0.576789  1
  Mg  Mg11  1  0.713967  0.713967  0.076789  1
  Mg  Mg12  1  0.626690  0.626690  0.419506  1
  Mg  Mg13  1  0.000000  0.626690  0.919506  1
  Mg  Mg14  1  0.626690  0.000000  0.919506  1
  Mg  Mg15  1  0.373310  0.000000  0.419506  1
  Mg  Mg16  1  0.000000  0.373310  0.419506  1
  Mg  Mg17  1  0.373310  0.373310  0.919506  1
  Rh  Rh18  1  0.327777  0.327777  0.247699  1
  Rh  Rh19  1  0.000000  0.327777  0.747699  1
  Rh  Rh20  1  0.327777  0.000000  0.747699  1
  Rh  Rh21  1  0.672223  0.000000  0.247699  1
  Rh  Rh22  1  0.000000  0.672223  0.247699  1
  Rh  Rh23  1  0.672223  0.672223  0.747699  1
