# generated using pymatgen
data_Sr2ErGaCu2O7
_symmetry_space_group_name_H-M   'P 1'
_cell_length_a   12.20694869
_cell_length_b   12.20694869
_cell_length_c   12.20694869
_cell_angle_alpha   154.43981512
_cell_angle_beta   153.94289294
_cell_angle_gamma   36.82315325
_symmetry_Int_Tables_number   1
_chemical_formula_structural   Sr2ErGaCu2O7
_chemical_formula_sum   'Sr4 Er2 Ga2 Cu4 O14'
_cell_volume   344.26284640
_cell_formula_units_Z   2
loop_
 _symmetry_equiv_pos_site_id
 _symmetry_equiv_pos_as_xyz
  1  'x, y, z'
loop_
 _atom_site_type_symbol
 _atom_site_label
 _atom_site_symmetry_multiplicity
 _atom_site_fract_x
 _atom_site_fract_y
 _atom_site_fract_z
 _atom_site_occupancy
  Sr  Sr0  1  0.166924  0.649955  0.514852  1
  Sr  Sr1  1  0.833076  0.347928  0.483032  1
  Sr  Sr2  1  0.635104  0.149955  0.483032  1
  Sr  Sr3  1  0.364896  0.847928  0.514852  1
  Er  Er4  1  0.000000  0.500700  0.500700  1
  Er  Er5  1  0.500000  0.000700  0.500700  1
  Ga  Ga6  1  0.181456  0.212227  0.893683  1
  Ga  Ga7  1  0.818544  0.712227  0.030770  1
  Cu  Cu8  1  0.069744  0.071287  0.999678  1
  Cu  Cu9  1  0.930256  0.929934  0.001543  1
  Cu  Cu10  1  0.571609  0.571287  0.001543  1
  Cu  Cu11  1  0.428391  0.429934  0.999678  1
  O  O12  1  0.865004  0.359398  0.724402  1
  O  O13  1  0.134996  0.859398  0.494394  1
  O  O14  1  0.812894  0.314025  0.000597  1
  O  O15  1  0.187106  0.187703  0.501131  1
  O  O16  1  0.813428  0.814025  0.501131  1
  O  O17  1  0.186572  0.687703  0.000597  1
  O  O18  1  0.308887  0.810006  0.998671  1
  O  O19  1  0.691113  0.689784  0.501119  1
  O  O20  1  0.311335  0.310006  0.501119  1
  O  O21  1  0.688665  0.189784  0.998671  1
  O  O22  1  0.631739  0.704345  0.983363  1
  O  O23  1  0.368261  0.351624  0.072606  1
  O  O24  1  0.220982  0.204345  0.072606  1
  O  O25  1  0.779018  0.851624  0.983363  1
