# generated using pymatgen
data_Ba5P3BrO12
_symmetry_space_group_name_H-M   'P 1'
_cell_length_a   10.52349251
_cell_length_b   10.52349251
_cell_length_c   7.76466418
_cell_angle_alpha   90.00000000
_cell_angle_beta   90.00000000
_cell_angle_gamma   120.00000000
_symmetry_Int_Tables_number   1
_chemical_formula_structural   Ba5P3BrO12
_chemical_formula_sum   'Ba10 P6 Br2 O24'
_cell_volume   744.68584926
_cell_formula_units_Z   2
loop_
 _symmetry_equiv_pos_site_id
 _symmetry_equiv_pos_as_xyz
  1  'x, y, z'
loop_
 _atom_site_type_symbol
 _atom_site_label
 _atom_site_symmetry_multiplicity
 _atom_site_fract_x
 _atom_site_fract_y
 _atom_site_fract_z
 _atom_site_occupancy
  Ba  Ba0  1  0.666667  0.333333  0.500482  1
  Ba  Ba1  1  0.012131  0.266030  0.250000  1
  Ba  Ba2  1  0.266030  0.253898  0.750000  1
  Ba  Ba3  1  0.733970  0.746102  0.250000  1
  Ba  Ba4  1  0.333333  0.666667  0.000482  1
  Ba  Ba5  1  0.987869  0.733970  0.750000  1
  Ba  Ba6  1  0.746102  0.012131  0.750000  1
  Ba  Ba7  1  0.253898  0.987869  0.250000  1
  Ba  Ba8  1  0.333333  0.666667  0.499518  1
  Ba  Ba9  1  0.666667  0.333333  0.999518  1
  P  P10  1  0.628988  0.037277  0.250000  1
  P  P11  1  0.371012  0.962723  0.750000  1
  P  P12  1  0.591711  0.628988  0.750000  1
  P  P13  1  0.037277  0.408289  0.750000  1
  P  P14  1  0.962723  0.591711  0.250000  1
  P  P15  1  0.408289  0.371012  0.250000  1
  Br  Br16  1  0.000000  0.000000  0.000000  1
  Br  Br17  1  0.000000  0.000000  0.500000  1
  O  O18  1  0.358599  0.271579  0.086648  1
  O  O19  1  0.653870  0.521622  0.750000  1
  O  O20  1  0.346130  0.478378  0.250000  1
  O  O21  1  0.580474  0.460210  0.250000  1
  O  O22  1  0.728421  0.087019  0.413352  1
  O  O23  1  0.358599  0.271579  0.413352  1
  O  O24  1  0.539790  0.120264  0.250000  1
  O  O25  1  0.271579  0.912981  0.913352  1
  O  O26  1  0.521622  0.867752  0.250000  1
  O  O27  1  0.087019  0.358599  0.586648  1
  O  O28  1  0.271579  0.912981  0.586648  1
  O  O29  1  0.132248  0.653870  0.250000  1
  O  O30  1  0.912981  0.641401  0.413352  1
  O  O31  1  0.879736  0.419526  0.250000  1
  O  O32  1  0.120264  0.580474  0.750000  1
  O  O33  1  0.641401  0.728421  0.913352  1
  O  O34  1  0.419526  0.539790  0.750000  1
  O  O35  1  0.087019  0.358599  0.913352  1
  O  O36  1  0.460210  0.879736  0.750000  1
  O  O37  1  0.641401  0.728421  0.586648  1
  O  O38  1  0.867752  0.346130  0.750000  1
  O  O39  1  0.728421  0.087019  0.086648  1
  O  O40  1  0.478378  0.132248  0.750000  1
  O  O41  1  0.912981  0.641401  0.086648  1
