# generated using pymatgen
data_CsZr6BI14
_symmetry_space_group_name_H-M   'P 1'
_cell_length_a   11.02071677
_cell_length_b   11.02071677
_cell_length_c   13.22673787
_cell_angle_alpha   90.00000000
_cell_angle_beta   90.00000000
_cell_angle_gamma   94.67131908
_symmetry_Int_Tables_number   1
_chemical_formula_structural   CsZr6BI14
_chemical_formula_sum   'Cs2 Zr12 B2 I28'
_cell_volume   1601.13305064
_cell_formula_units_Z   2
loop_
 _symmetry_equiv_pos_site_id
 _symmetry_equiv_pos_as_xyz
  1  'x, y, z'
loop_
 _atom_site_type_symbol
 _atom_site_label
 _atom_site_symmetry_multiplicity
 _atom_site_fract_x
 _atom_site_fract_y
 _atom_site_fract_z
 _atom_site_occupancy
  Cs  Cs0  1  0.000000  0.000000  0.000000  1
  Cs  Cs1  1  0.500000  0.500000  0.500000  1
  Zr  Zr2  1  0.869173  0.869173  0.596706  1
  Zr  Zr3  1  0.369173  0.369173  0.903294  1
  Zr  Zr4  1  0.542683  0.331860  0.108087  1
  Zr  Zr5  1  0.130827  0.130827  0.403294  1
  Zr  Zr6  1  0.957317  0.168140  0.608087  1
  Zr  Zr7  1  0.668140  0.457317  0.891913  1
  Zr  Zr8  1  0.457317  0.668140  0.891913  1
  Zr  Zr9  1  0.168140  0.957317  0.608087  1
  Zr  Zr10  1  0.042683  0.831860  0.391913  1
  Zr  Zr11  1  0.630827  0.630827  0.096706  1
  Zr  Zr12  1  0.331860  0.542683  0.108087  1
  Zr  Zr13  1  0.831860  0.042683  0.391913  1
  B  B14  1  0.500000  0.500000  1.000000  1
  B  B15  1  0.000000  0.000000  0.500000  1
  I  I16  1  0.711083  0.464367  0.247041  1
  I  I17  1  0.288917  0.535633  0.752959  1
  I  I18  1  0.396289  0.896289  0.750000  1
  I  I19  1  0.111349  0.359836  0.506785  1
  I  I20  1  0.345566  0.345566  0.257435  1
  I  I21  1  0.388651  0.140164  0.006785  1
  I  I22  1  0.154434  0.154434  0.757435  1
  I  I23  1  0.248574  0.751426  0.500000  1
  I  I24  1  0.654434  0.654434  0.742565  1
  I  I25  1  0.640164  0.888651  0.493215  1
  I  I26  1  0.751426  0.248574  0.500000  1
  I  I27  1  0.788917  0.035633  0.747041  1
  I  I28  1  0.859836  0.611349  0.993215  1
  I  I29  1  0.603711  0.103711  0.250000  1
  I  I30  1  0.464367  0.711083  0.247041  1
  I  I31  1  0.251426  0.748574  1.000000  1
  I  I32  1  0.896289  0.396289  0.750000  1
  I  I33  1  0.611349  0.859836  0.993215  1
  I  I34  1  0.535633  0.288917  0.752959  1
  I  I35  1  0.359836  0.111349  0.506785  1
  I  I36  1  0.748574  0.251426  0.000000  1
  I  I37  1  0.035633  0.788917  0.747041  1
  I  I38  1  0.888651  0.640164  0.493215  1
  I  I39  1  0.964367  0.211083  0.252959  1
  I  I40  1  0.845566  0.845566  0.242565  1
  I  I41  1  0.211083  0.964367  0.252959  1
  I  I42  1  0.140164  0.388651  0.006785  1
  I  I43  1  0.103711  0.603711  0.250000  1
