# generated using pymatgen
data_NaLaH2S2O9
_symmetry_space_group_name_H-M   'P 1'
_cell_length_a   7.14952207
_cell_length_b   7.14952207
_cell_length_c   13.05880008
_cell_angle_alpha   90.00000000
_cell_angle_beta   90.00000000
_cell_angle_gamma   120.00000000
_symmetry_Int_Tables_number   1
_chemical_formula_structural   NaLaH2S2O9
_chemical_formula_sum   'Na3 La3 H6 S6 O27'
_cell_volume   578.07997768
_cell_formula_units_Z   3
loop_
 _symmetry_equiv_pos_site_id
 _symmetry_equiv_pos_as_xyz
  1  'x, y, z'
loop_
 _atom_site_type_symbol
 _atom_site_label
 _atom_site_symmetry_multiplicity
 _atom_site_fract_x
 _atom_site_fract_y
 _atom_site_fract_z
 _atom_site_occupancy
  Na  Na0  1  0.527834  0.527834  0.500000  1
  Na  Na1  1  0.472166  0.000000  0.833333  1
  Na  Na2  1  0.000000  0.472166  0.166667  1
  La  La3  1  0.564308  0.564308  0.000000  1
  La  La4  1  0.000000  0.435692  0.666667  1
  La  La5  1  0.435692  0.000000  0.333333  1
  H  H6  1  0.046785  0.095882  0.372299  1
  H  H7  1  0.049097  0.953215  0.038966  1
  H  H8  1  0.950903  0.904118  0.294368  1
  H  H9  1  0.953215  0.049097  0.961034  1
  H  H10  1  0.095882  0.046785  0.627701  1
  H  H11  1  0.904118  0.950903  0.705632  1
  S  S12  1  0.452794  0.012179  0.087324  1
  S  S13  1  0.987821  0.440615  0.420658  1
  S  S14  1  0.547206  0.559385  0.246009  1
  S  S15  1  0.559385  0.547206  0.753991  1
  S  S16  1  0.440615  0.987821  0.579342  1
  S  S17  1  0.012179  0.452794  0.912676  1
  O  O18  1  0.880005  0.495885  0.986210  1
  O  O19  1  0.872750  0.259732  0.847392  1
  O  O20  1  0.131250  0.637020  0.840308  1
  O  O21  1  0.740268  0.613018  0.180725  1
  O  O22  1  0.836643  0.246434  0.360232  1
  O  O23  1  0.386982  0.127250  0.514058  1
  O  O24  1  0.127250  0.386982  0.485942  1
  O  O25  1  0.362980  0.494230  0.173642  1
  O  O26  1  0.753566  0.590209  0.693566  1
  O  O27  1  0.505770  0.868750  0.506975  1
  O  O28  1  0.163357  0.409791  0.973101  1
  O  O29  1  0.590209  0.753566  0.306434  1
  O  O30  1  0.000000  0.080725  0.666667  1
  O  O31  1  0.384120  0.504115  0.680457  1
  O  O32  1  0.119995  0.615880  0.347124  1
  O  O33  1  0.504115  0.384120  0.319543  1
  O  O34  1  0.246434  0.836643  0.639768  1
  O  O35  1  0.080725  0.000000  0.333333  1
  O  O36  1  0.494230  0.362980  0.826358  1
  O  O37  1  0.868750  0.505770  0.493025  1
  O  O38  1  0.919275  0.919275  0.000000  1
  O  O39  1  0.495885  0.880005  0.013790  1
  O  O40  1  0.613018  0.740268  0.819275  1
  O  O41  1  0.259732  0.872750  0.152608  1
  O  O42  1  0.409791  0.163357  0.026899  1
  O  O43  1  0.615880  0.119995  0.652876  1
  O  O44  1  0.637020  0.131250  0.159692  1
