# generated using pymatgen
data_CrAg3ClO4
_symmetry_space_group_name_H-M   'P 1'
_cell_length_a   7.47563392
_cell_length_b   7.47563392
_cell_length_c   5.37069704
_cell_angle_alpha   90.00000000
_cell_angle_beta   90.00000000
_cell_angle_gamma   90.00000000
_symmetry_Int_Tables_number   1
_chemical_formula_structural   CrAg3ClO4
_chemical_formula_sum   'Cr2 Ag6 Cl2 O8'
_cell_volume   300.14195461
_cell_formula_units_Z   2
loop_
 _symmetry_equiv_pos_site_id
 _symmetry_equiv_pos_as_xyz
  1  'x, y, z'
loop_
 _atom_site_type_symbol
 _atom_site_label
 _atom_site_symmetry_multiplicity
 _atom_site_fract_x
 _atom_site_fract_y
 _atom_site_fract_z
 _atom_site_occupancy
  Cr  Cr0  1  0.500000  0.500000  0.000000  1
  Cr  Cr1  1  0.000000  0.000000  0.000000  1
  Ag  Ag2  1  0.500000  0.000000  0.103891  1
  Ag  Ag3  1  0.750000  0.250000  0.500000  1
  Ag  Ag4  1  0.750000  0.750000  0.500000  1
  Ag  Ag5  1  0.000000  0.500000  0.896109  1
  Ag  Ag6  1  0.250000  0.750000  0.500000  1
  Ag  Ag7  1  0.250000  0.250000  0.500000  1
  Cl  Cl8  1  0.000000  0.500000  0.372392  1
  Cl  Cl9  1  0.500000  0.000000  0.627608  1
  O  O10  1  0.500000  0.318764  0.186251  1
  O  O11  1  0.181236  0.000000  0.186251  1
  O  O12  1  0.500000  0.681236  0.186251  1
  O  O13  1  0.818764  0.000000  0.186251  1
  O  O14  1  0.681236  0.500000  0.813749  1
  O  O15  1  0.000000  0.181236  0.813749  1
  O  O16  1  0.000000  0.818764  0.813749  1
  O  O17  1  0.318764  0.500000  0.813749  1
