# generated using pymatgen
data_Ca3Cu3(AsO4)4
_symmetry_space_group_name_H-M   'P 1'
_cell_length_a   9.27211293
_cell_length_b   5.14602599
_cell_length_c   16.91954991
_cell_angle_alpha   90.00000000
_cell_angle_beta   116.69249547
_cell_angle_gamma   90.00000000
_symmetry_Int_Tables_number   1
_chemical_formula_structural   Ca3Cu3(AsO4)4
_chemical_formula_sum   'Ca6 Cu6 As8 O32'
_cell_volume   721.27376853
_cell_formula_units_Z   2
loop_
 _symmetry_equiv_pos_site_id
 _symmetry_equiv_pos_as_xyz
  1  'x, y, z'
loop_
 _atom_site_type_symbol
 _atom_site_label
 _atom_site_symmetry_multiplicity
 _atom_site_fract_x
 _atom_site_fract_y
 _atom_site_fract_z
 _atom_site_occupancy
  Ca  Ca0  1  0.696788  0.031756  0.732816  1
  Ca  Ca1  1  0.303212  0.531756  0.767184  1
  Ca  Ca2  1  0.303212  0.968244  0.267184  1
  Ca  Ca3  1  0.696788  0.468244  0.232816  1
  Ca  Ca4  1  0.000000  0.000000  0.000000  1
  Ca  Ca5  1  0.000000  0.500000  0.500000  1
  Cu  Cu6  1  0.790526  0.973503  0.118856  1
  Cu  Cu7  1  0.209474  0.026497  0.881144  1
  Cu  Cu8  1  0.209474  0.473503  0.381144  1
  Cu  Cu9  1  0.790526  0.526497  0.618856  1
  Cu  Cu10  1  0.500000  0.500000  0.000000  1
  Cu  Cu11  1  0.500000  0.000000  0.500000  1
  As  As12  1  0.960407  0.507680  0.840313  1
  As  As13  1  0.564000  0.993054  0.906396  1
  As  As14  1  0.436000  0.493054  0.593604  1
  As  As15  1  0.564000  0.506946  0.406396  1
  As  As16  1  0.039593  0.492320  0.159687  1
  As  As17  1  0.436000  0.006946  0.093604  1
  As  As18  1  0.960407  0.992320  0.340313  1
  As  As19  1  0.039593  0.007680  0.659687  1
  O  O20  1  0.191105  0.944127  0.766655  1
  O  O21  1  0.251869  0.435230  0.504289  1
  O  O22  1  0.560756  0.887385  0.811253  1
  O  O23  1  0.854257  0.905903  0.650211  1
  O  O24  1  0.439244  0.112615  0.188747  1
  O  O25  1  0.191105  0.555873  0.266655  1
  O  O26  1  0.439244  0.387385  0.688747  1
  O  O27  1  0.498785  0.187116  0.398633  1
  O  O28  1  0.893486  0.161945  0.402927  1
  O  O29  1  0.808895  0.055873  0.233345  1
  O  O30  1  0.854257  0.594097  0.150211  1
  O  O31  1  0.501215  0.812884  0.601367  1
  O  O32  1  0.419339  0.802966  0.922504  1
  O  O33  1  0.106514  0.838055  0.597073  1
  O  O34  1  0.038700  0.161237  0.143589  1
  O  O35  1  0.961300  0.661237  0.356411  1
  O  O36  1  0.580661  0.302966  0.577496  1
  O  O37  1  0.560756  0.612615  0.311253  1
  O  O38  1  0.106514  0.661945  0.097073  1
  O  O39  1  0.501215  0.687116  0.101367  1
  O  O40  1  0.038700  0.338763  0.643589  1
  O  O41  1  0.961300  0.838763  0.856411  1
  O  O42  1  0.748131  0.564770  0.495711  1
  O  O43  1  0.748131  0.935230  0.995711  1
  O  O44  1  0.580661  0.197034  0.077496  1
  O  O45  1  0.808895  0.444127  0.733345  1
  O  O46  1  0.145743  0.094097  0.349789  1
  O  O47  1  0.893486  0.338055  0.902927  1
  O  O48  1  0.251869  0.064770  0.004289  1
  O  O49  1  0.498785  0.312884  0.898633  1
  O  O50  1  0.419339  0.697034  0.422504  1
  O  O51  1  0.145743  0.405903  0.849789  1
