# generated using pymatgen
data_K3Ni2F7
_symmetry_space_group_name_H-M   'P 1'
_cell_length_a   11.03139260
_cell_length_b   11.03139260
_cell_length_c   11.03139260
_cell_angle_alpha   158.71273653
_cell_angle_beta   158.71273653
_cell_angle_gamma   30.28314799
_symmetry_Int_Tables_number   1
_chemical_formula_structural   K3Ni2F7
_chemical_formula_sum   'K3 Ni2 F7'
_cell_volume   176.82300809
_cell_formula_units_Z   1
loop_
 _symmetry_equiv_pos_site_id
 _symmetry_equiv_pos_as_xyz
  1  'x, y, z'
loop_
 _atom_site_type_symbol
 _atom_site_label
 _atom_site_symmetry_multiplicity
 _atom_site_fract_x
 _atom_site_fract_y
 _atom_site_fract_z
 _atom_site_occupancy
  K  K0  1  0.315473  0.315473  0.000000  1
  K  K1  1  0.684527  0.684527  0.000000  1
  K  K2  1  0.500000  0.500000  0.000000  1
  Ni  Ni3  1  0.096319  0.096319  0.000000  1
  Ni  Ni4  1  0.903681  0.903681  0.000000  1
  F  F5  1  0.000000  0.000000  0.000000  1
  F  F6  1  0.904829  0.404829  0.500000  1
  F  F7  1  0.404829  0.904829  0.500000  1
  F  F8  1  0.095171  0.595171  0.500000  1
  F  F9  1  0.595171  0.095171  0.500000  1
  F  F10  1  0.190984  0.190984  0.000000  1
  F  F11  1  0.809016  0.809016  0.000000  1
