# generated using pymatgen
data_La3Si2Cl3O7
_symmetry_space_group_name_H-M   'P 1'
_cell_length_a   5.40827857
_cell_length_b   12.23751220
_cell_length_c   7.96672921
_cell_angle_alpha   90.00000000
_cell_angle_beta   108.92144194
_cell_angle_gamma   90.00000000
_symmetry_Int_Tables_number   1
_chemical_formula_structural   La3Si2Cl3O7
_chemical_formula_sum   'La6 Si4 Cl6 O14'
_cell_volume   498.77753974
_cell_formula_units_Z   2
loop_
 _symmetry_equiv_pos_site_id
 _symmetry_equiv_pos_as_xyz
  1  'x, y, z'
loop_
 _atom_site_type_symbol
 _atom_site_label
 _atom_site_symmetry_multiplicity
 _atom_site_fract_x
 _atom_site_fract_y
 _atom_site_fract_z
 _atom_site_occupancy
  La  La0  1  0.976767  0.505560  0.578667  1
  La  La1  1  0.023233  0.005560  0.421333  1
  La  La2  1  0.561323  0.252211  0.700055  1
  La  La3  1  0.712797  0.530773  0.029550  1
  La  La4  1  0.438677  0.752211  0.299945  1
  La  La5  1  0.287203  0.030773  0.970450  1
  Si  Si6  1  0.784002  0.843335  0.064758  1
  Si  Si7  1  0.391552  0.455491  0.316658  1
  Si  Si8  1  0.215998  0.343335  0.935242  1
  Si  Si9  1  0.608448  0.955491  0.683342  1
  Cl  Cl10  1  0.839440  0.129677  0.059588  1
  Cl  Cl11  1  0.013745  0.253313  0.494098  1
  Cl  Cl12  1  0.160560  0.629677  0.940412  1
  Cl  Cl13  1  0.986255  0.753313  0.505902  1
  Cl  Cl14  1  0.456582  0.123905  0.335400  1
  Cl  Cl15  1  0.543418  0.623905  0.664600  1
  O  O16  1  0.100079  0.496240  0.309007  1
  O  O17  1  0.442038  0.893092  0.501894  1
  O  O18  1  0.557962  0.393092  0.498106  1
  O  O19  1  0.899921  0.996240  0.690993  1
  O  O20  1  0.268878  0.216093  0.903376  1
  O  O21  1  0.411554  0.057054  0.696062  1
  O  O22  1  0.909218  0.381660  0.872584  1
  O  O23  1  0.620269  0.882737  0.861120  1
  O  O24  1  0.358200  0.410758  0.810026  1
  O  O25  1  0.090782  0.881660  0.127416  1
  O  O26  1  0.641800  0.910758  0.189974  1
  O  O27  1  0.588446  0.557054  0.303938  1
  O  O28  1  0.379731  0.382737  0.138880  1
  O  O29  1  0.731122  0.716093  0.096624  1
