# generated using pymatgen
data_GdSI
_symmetry_space_group_name_H-M   'P 1'
_cell_length_a   4.26255669
_cell_length_b   5.39456329
_cell_length_c   9.58914072
_cell_angle_alpha   90.00000000
_cell_angle_beta   90.00000000
_cell_angle_gamma   90.00000000
_symmetry_Int_Tables_number   1
_chemical_formula_structural   GdSI
_chemical_formula_sum   'Gd2 S2 I2'
_cell_volume   220.49876053
_cell_formula_units_Z   2
loop_
 _symmetry_equiv_pos_site_id
 _symmetry_equiv_pos_as_xyz
  1  'x, y, z'
loop_
 _atom_site_type_symbol
 _atom_site_label
 _atom_site_symmetry_multiplicity
 _atom_site_fract_x
 _atom_site_fract_y
 _atom_site_fract_z
 _atom_site_occupancy
  Gd  Gd0  1  0.500000  0.500000  0.877950  1
  Gd  Gd1  1  0.000000  0.000000  0.122050  1
  S  S2  1  0.500000  0.000000  0.936933  1
  S  S3  1  0.000000  0.500000  0.063067  1
  I  I4  1  0.000000  0.500000  0.644954  1
  I  I5  1  0.500000  0.000000  0.355046  1
