# generated using pymatgen
data_Cs3ClO
_symmetry_space_group_name_H-M   'P 1'
_cell_length_a   4.51795309
_cell_length_b   9.69647249
_cell_length_c   16.66595427
_cell_angle_alpha   90.00000000
_cell_angle_beta   90.00000000
_cell_angle_gamma   90.00000000
_symmetry_Int_Tables_number   1
_chemical_formula_structural   Cs3ClO
_chemical_formula_sum   'Cs12 Cl4 O4'
_cell_volume   730.10558865
_cell_formula_units_Z   4
loop_
 _symmetry_equiv_pos_site_id
 _symmetry_equiv_pos_as_xyz
  1  'x, y, z'
loop_
 _atom_site_type_symbol
 _atom_site_label
 _atom_site_symmetry_multiplicity
 _atom_site_fract_x
 _atom_site_fract_y
 _atom_site_fract_z
 _atom_site_occupancy
  Cs  Cs0  1  0.750000  0.212023  0.208361  1
  Cs  Cs1  1  0.250000  0.525923  0.098274  1
  Cs  Cs2  1  0.250000  0.025923  0.401726  1
  Cs  Cs3  1  0.250000  0.287977  0.708361  1
  Cs  Cs4  1  0.750000  0.327520  0.498929  1
  Cs  Cs5  1  0.250000  0.787977  0.791639  1
  Cs  Cs6  1  0.250000  0.672480  0.501071  1
  Cs  Cs7  1  0.750000  0.974077  0.598274  1
  Cs  Cs8  1  0.250000  0.172480  0.998929  1
  Cs  Cs9  1  0.750000  0.827520  0.001071  1
  Cs  Cs10  1  0.750000  0.712023  0.291639  1
  Cs  Cs11  1  0.750000  0.474077  0.901726  1
  Cl  Cl12  1  0.750000  0.077457  0.827541  1
  Cl  Cl13  1  0.250000  0.922543  0.172459  1
  Cl  Cl14  1  0.250000  0.422543  0.327541  1
  Cl  Cl15  1  0.750000  0.577457  0.672459  1
  O  O16  1  0.250000  0.666492  0.938278  1
  O  O17  1  0.750000  0.333508  0.061722  1
  O  O18  1  0.750000  0.833508  0.438278  1
  O  O19  1  0.250000  0.166492  0.561722  1
