# generated using pymatgen
data_Ba5Al2In2IrClO13
_symmetry_space_group_name_H-M   'P 1'
_cell_length_a   5.94303682
_cell_length_b   5.94303682
_cell_length_c   25.55257609
_cell_angle_alpha   90.00000000
_cell_angle_beta   90.00000000
_cell_angle_gamma   120.00000000
_symmetry_Int_Tables_number   1
_chemical_formula_structural   Ba5Al2In2IrClO13
_chemical_formula_sum   'Ba10 Al4 In4 Ir2 Cl2 O26'
_cell_volume   781.59570439
_cell_formula_units_Z   2
loop_
 _symmetry_equiv_pos_site_id
 _symmetry_equiv_pos_as_xyz
  1  'x, y, z'
loop_
 _atom_site_type_symbol
 _atom_site_label
 _atom_site_symmetry_multiplicity
 _atom_site_fract_x
 _atom_site_fract_y
 _atom_site_fract_z
 _atom_site_occupancy
  Ba  Ba0  1  0.000000  0.000000  0.750000  1
  Ba  Ba1  1  0.666667  0.333333  0.039722  1
  Ba  Ba2  1  0.333333  0.666667  0.539722  1
  Ba  Ba3  1  0.333333  0.666667  0.368408  1
  Ba  Ba4  1  0.666667  0.333333  0.631592  1
  Ba  Ba5  1  0.666667  0.333333  0.868408  1
  Ba  Ba6  1  0.333333  0.666667  0.960278  1
  Ba  Ba7  1  0.333333  0.666667  0.131592  1
  Ba  Ba8  1  0.666667  0.333333  0.460278  1
  Ba  Ba9  1  0.000000  0.000000  0.250000  1
  Al  Al10  1  0.333333  0.666667  0.682039  1
  Al  Al11  1  0.666667  0.333333  0.182039  1
  Al  Al12  1  0.666667  0.333333  0.317961  1
  Al  Al13  1  0.333333  0.666667  0.817961  1
  In  In14  1  0.000000  0.000000  0.887435  1
  In  In15  1  0.000000  0.000000  0.112565  1
  In  In16  1  0.000000  0.000000  0.387435  1
  In  In17  1  0.000000  0.000000  0.612565  1
  Ir  Ir18  1  0.000000  0.000000  0.500000  1
  Ir  Ir19  1  0.000000  0.000000  0.000000  1
  Cl  Cl20  1  0.666667  0.333333  0.750000  1
  Cl  Cl21  1  0.333333  0.666667  0.250000  1
  O  O22  1  0.826711  0.653422  0.155928  1
  O  O23  1  0.333333  0.666667  0.750000  1
  O  O24  1  0.845448  0.690896  0.547678  1
  O  O25  1  0.173289  0.826711  0.844072  1
  O  O26  1  0.826711  0.173289  0.344072  1
  O  O27  1  0.154552  0.845448  0.452322  1
  O  O28  1  0.154552  0.845448  0.047678  1
  O  O29  1  0.346578  0.173289  0.344072  1
  O  O30  1  0.154552  0.309104  0.452322  1
  O  O31  1  0.845448  0.154552  0.952322  1
  O  O32  1  0.309104  0.154552  0.547678  1
  O  O33  1  0.173289  0.826711  0.655928  1
  O  O34  1  0.690896  0.845448  0.452322  1
  O  O35  1  0.666667  0.333333  0.250000  1
  O  O36  1  0.173289  0.346578  0.844072  1
  O  O37  1  0.173289  0.346578  0.655928  1
  O  O38  1  0.826711  0.653422  0.344072  1
  O  O39  1  0.690896  0.845448  0.047678  1
  O  O40  1  0.309104  0.154552  0.952322  1
  O  O41  1  0.845448  0.154552  0.547678  1
  O  O42  1  0.653422  0.826711  0.655928  1
  O  O43  1  0.826711  0.173289  0.155928  1
  O  O44  1  0.346578  0.173289  0.155928  1
  O  O45  1  0.845448  0.690896  0.952322  1
  O  O46  1  0.154552  0.309104  0.047678  1
  O  O47  1  0.653422  0.826711  0.844072  1
