# generated using pymatgen
data_K4Sn9
_symmetry_space_group_name_H-M   'P 1'
_cell_length_a   14.46633963
_cell_length_b   8.46889007
_cell_length_c   16.72447327
_cell_angle_alpha   90.00000000
_cell_angle_beta   95.11185977
_cell_angle_gamma   90.00000000
_symmetry_Int_Tables_number   1
_chemical_formula_structural   K4Sn9
_chemical_formula_sum   'K16 Sn36'
_cell_volume   2040.82992200
_cell_formula_units_Z   4
loop_
 _symmetry_equiv_pos_site_id
 _symmetry_equiv_pos_as_xyz
  1  'x, y, z'
loop_
 _atom_site_type_symbol
 _atom_site_label
 _atom_site_symmetry_multiplicity
 _atom_site_fract_x
 _atom_site_fract_y
 _atom_site_fract_z
 _atom_site_occupancy
  K  K0  1  0.612008  0.970002  0.642813  1
  K  K1  1  0.508947  0.560674  0.384307  1
  K  K2  1  0.612008  0.529998  0.142813  1
  K  K3  1  0.491053  0.439326  0.615693  1
  K  K4  1  0.075339  0.429424  0.761860  1
  K  K5  1  0.924661  0.570576  0.238140  1
  K  K6  1  0.387992  0.470002  0.857187  1
  K  K7  1  0.837258  0.564973  0.552698  1
  K  K8  1  0.837258  0.935027  0.052698  1
  K  K9  1  0.075339  0.070576  0.261860  1
  K  K10  1  0.162742  0.435027  0.447302  1
  K  K11  1  0.491053  0.060674  0.115693  1
  K  K12  1  0.387992  0.029998  0.357187  1
  K  K13  1  0.162742  0.064973  0.947302  1
  K  K14  1  0.924661  0.929424  0.738140  1
  K  K15  1  0.508947  0.939326  0.884307  1
  Sn  Sn16  1  0.074277  0.756453  0.592088  1
  Sn  Sn17  1  0.181527  0.824890  0.752833  1
  Sn  Sn18  1  0.328041  0.109770  0.568535  1
  Sn  Sn19  1  0.252582  0.926087  0.143279  1
  Sn  Sn20  1  0.925723  0.256453  0.907912  1
  Sn  Sn21  1  0.328041  0.390230  0.068535  1
  Sn  Sn22  1  0.707535  0.620960  0.758773  1
  Sn  Sn23  1  0.644749  0.233801  0.474341  1
  Sn  Sn24  1  0.252582  0.573913  0.643279  1
  Sn  Sn25  1  0.292465  0.379040  0.241227  1
  Sn  Sn26  1  0.671959  0.609770  0.931465  1
  Sn  Sn27  1  0.355251  0.766199  0.525659  1
  Sn  Sn28  1  0.174445  0.930742  0.468923  1
  Sn  Sn29  1  0.074277  0.743547  0.092088  1
  Sn  Sn30  1  0.609928  0.320166  0.798156  1
  Sn  Sn31  1  0.825555  0.069258  0.531077  1
  Sn  Sn32  1  0.747418  0.426087  0.356721  1
  Sn  Sn33  1  0.925723  0.243547  0.407912  1
  Sn  Sn34  1  0.818473  0.175110  0.247167  1
  Sn  Sn35  1  0.707535  0.879040  0.258773  1
  Sn  Sn36  1  0.122555  0.101613  0.620304  1
  Sn  Sn37  1  0.174445  0.569258  0.968923  1
  Sn  Sn38  1  0.818473  0.324890  0.747167  1
  Sn  Sn39  1  0.390072  0.679834  0.201844  1
  Sn  Sn40  1  0.644749  0.266199  0.974341  1
  Sn  Sn41  1  0.122555  0.398387  0.120304  1
  Sn  Sn42  1  0.825555  0.430742  0.031077  1
  Sn  Sn43  1  0.609928  0.179834  0.298156  1
  Sn  Sn44  1  0.355251  0.733801  0.025659  1
  Sn  Sn45  1  0.292465  0.120960  0.741227  1
  Sn  Sn46  1  0.671959  0.890230  0.431465  1
  Sn  Sn47  1  0.181527  0.675110  0.252833  1
  Sn  Sn48  1  0.390072  0.820166  0.701844  1
  Sn  Sn49  1  0.877445  0.601613  0.879696  1
  Sn  Sn50  1  0.877445  0.898387  0.379696  1
  Sn  Sn51  1  0.747418  0.073913  0.856721  1
