# generated using pymatgen
data_LiAsO3
_symmetry_space_group_name_H-M   'P 1'
_cell_length_a   7.08408312
_cell_length_b   7.08408312
_cell_length_c   5.35774680
_cell_angle_alpha   74.47177163
_cell_angle_beta   105.52822837
_cell_angle_gamma   95.00218553
_symmetry_Int_Tables_number   1
_chemical_formula_structural   LiAsO3
_chemical_formula_sum   'Li4 As4 O12'
_cell_volume   249.56920585
_cell_formula_units_Z   4
loop_
 _symmetry_equiv_pos_site_id
 _symmetry_equiv_pos_as_xyz
  1  'x, y, z'
loop_
 _atom_site_type_symbol
 _atom_site_label
 _atom_site_symmetry_multiplicity
 _atom_site_fract_x
 _atom_site_fract_y
 _atom_site_fract_z
 _atom_site_occupancy
  Li  Li0  1  0.788416  0.788416  0.250000  1
  Li  Li1  1  0.114845  0.114845  0.250000  1
  Li  Li2  1  0.211584  0.211584  0.750000  1
  Li  Li3  1  0.885155  0.885155  0.750000  1
  As  As4  1  0.804211  0.386449  0.732880  1
  As  As5  1  0.195789  0.613551  0.267120  1
  As  As6  1  0.386449  0.804211  0.767120  1
  As  As7  1  0.613551  0.195789  0.232880  1
  O  O8  1  0.608359  0.331432  0.469195  1
  O  O9  1  0.204399  0.966267  0.641357  1
  O  O10  1  0.380325  0.126289  0.127335  1
  O  O11  1  0.391641  0.668568  0.530805  1
  O  O12  1  0.966267  0.204399  0.858643  1
  O  O13  1  0.619675  0.873711  0.872665  1
  O  O14  1  0.033733  0.795601  0.141357  1
  O  O15  1  0.331432  0.608359  0.030805  1
  O  O16  1  0.873711  0.619675  0.627335  1
  O  O17  1  0.668568  0.391641  0.969195  1
  O  O18  1  0.795601  0.033733  0.358643  1
  O  O19  1  0.126289  0.380325  0.372665  1
