# generated using pymatgen
data_Sr(CoP)2
_symmetry_space_group_name_H-M   'P 1'
_cell_length_a   6.39095869
_cell_length_b   6.39095869
_cell_length_c   6.39095869
_cell_angle_alpha   145.51026381
_cell_angle_beta   145.51026381
_cell_angle_gamma   49.57476242
_symmetry_Int_Tables_number   1
_chemical_formula_structural   Sr(CoP)2
_chemical_formula_sum   'Sr1 Co2 P2'
_cell_volume   83.31097146
_cell_formula_units_Z   1
loop_
 _symmetry_equiv_pos_site_id
 _symmetry_equiv_pos_as_xyz
  1  'x, y, z'
loop_
 _atom_site_type_symbol
 _atom_site_label
 _atom_site_symmetry_multiplicity
 _atom_site_fract_x
 _atom_site_fract_y
 _atom_site_fract_z
 _atom_site_occupancy
  Sr  Sr0  1  0.000000  0.000000  0.000000  1
  Co  Co1  1  0.750000  0.250000  0.500000  1
  Co  Co2  1  0.250000  0.750000  0.500000  1
  P  P3  1  0.651052  0.651052  0.000000  1
  P  P4  1  0.348948  0.348948  0.000000  1
