# generated using pymatgen
data_KNaSi2O5
_symmetry_space_group_name_H-M   'P 1'
_cell_length_a   7.37243764
_cell_length_b   17.68021600
_cell_length_c   14.48556674
_cell_angle_alpha   90.00000000
_cell_angle_beta   119.30848729
_cell_angle_gamma   90.00000000
_symmetry_Int_Tables_number   1
_chemical_formula_structural   KNaSi2O5
_chemical_formula_sum   'K12 Na12 Si24 O60'
_cell_volume   1646.45187886
_cell_formula_units_Z   12
loop_
 _symmetry_equiv_pos_site_id
 _symmetry_equiv_pos_as_xyz
  1  'x, y, z'
loop_
 _atom_site_type_symbol
 _atom_site_label
 _atom_site_symmetry_multiplicity
 _atom_site_fract_x
 _atom_site_fract_y
 _atom_site_fract_z
 _atom_site_occupancy
  K  K0  1  0.502938  0.938518  0.119160  1
  K  K1  1  0.780099  0.231224  0.008971  1
  K  K2  1  0.144682  0.579675  0.095625  1
  K  K3  1  0.144682  0.920325  0.595625  1
  K  K4  1  0.497062  0.438518  0.380840  1
  K  K5  1  0.780099  0.268776  0.508971  1
  K  K6  1  0.497062  0.061482  0.880840  1
  K  K7  1  0.855318  0.079675  0.404375  1
  K  K8  1  0.855318  0.420325  0.904375  1
  K  K9  1  0.502938  0.561482  0.619160  1
  K  K10  1  0.219901  0.768776  0.991029  1
  K  K11  1  0.219901  0.731224  0.491029  1
  Na  Na12  1  0.221673  0.247156  0.926045  1
  Na  Na13  1  0.580550  0.589477  0.013612  1
  Na  Na14  1  0.221673  0.252844  0.426045  1
  Na  Na15  1  0.580550  0.910523  0.513612  1
  Na  Na16  1  0.067339  0.084268  0.959359  1
  Na  Na17  1  0.932661  0.584268  0.540641  1
  Na  Na18  1  0.932661  0.915732  0.040641  1
  Na  Na19  1  0.419450  0.410523  0.986388  1
  Na  Na20  1  0.778327  0.747156  0.573955  1
  Na  Na21  1  0.067339  0.415732  0.459359  1
  Na  Na22  1  0.778327  0.752844  0.073955  1
  Na  Na23  1  0.419450  0.089477  0.486388  1
  Si  Si24  1  0.256629  0.330527  0.150361  1
  Si  Si25  1  0.698480  0.829506  0.744504  1
  Si  Si26  1  0.931215  0.441708  0.665771  1
  Si  Si27  1  0.278094  0.805224  0.255954  1
  Si  Si28  1  0.743371  0.669473  0.849639  1
  Si  Si29  1  0.721906  0.194776  0.744046  1
  Si  Si30  1  0.721906  0.305224  0.244046  1
  Si  Si31  1  0.084756  0.571153  0.831792  1
  Si  Si32  1  0.458417  0.640504  0.362365  1
  Si  Si33  1  0.301520  0.329506  0.755496  1
  Si  Si34  1  0.931215  0.058292  0.165771  1
  Si  Si35  1  0.068785  0.941708  0.834229  1
  Si  Si36  1  0.915244  0.071153  0.668208  1
  Si  Si37  1  0.458417  0.859496  0.862365  1
  Si  Si38  1  0.743371  0.830527  0.349639  1
  Si  Si39  1  0.541583  0.140504  0.137635  1
  Si  Si40  1  0.256629  0.169473  0.650361  1
  Si  Si41  1  0.541583  0.359496  0.637635  1
  Si  Si42  1  0.301520  0.170494  0.255496  1
  Si  Si43  1  0.068785  0.558292  0.334229  1
  Si  Si44  1  0.915244  0.428847  0.168208  1
  Si  Si45  1  0.698480  0.670494  0.244504  1
  Si  Si46  1  0.278094  0.694776  0.755954  1
  Si  Si47  1  0.084756  0.928847  0.331792  1
  O  O48  1  0.142832  0.395723  0.187547  1
  O  O49  1  0.803855  0.753506  0.820421  1
  O  O50  1  0.229029  0.855009  0.338863  1
  O  O51  1  0.804813  0.660978  0.970654  1
  O  O52  1  0.900986  0.622107  0.257392  1
  O  O53  1  0.857168  0.895723  0.312453  1
  O  O54  1  0.492750  0.656247  0.764852  1
  O  O55  1  0.018276  0.973441  0.218320  1
  O  O56  1  0.453536  0.313791  0.878114  1
  O  O57  1  0.591063  0.618515  0.300984  1
  O  O58  1  0.981724  0.026559  0.781680  1
  O  O59  1  0.546464  0.686209  0.121886  1
  O  O60  1  0.274935  0.573292  0.317108  1
  O  O61  1  0.492750  0.843753  0.264852  1
  O  O62  1  0.876803  0.441411  0.545079  1
  O  O63  1  0.901240  0.305222  0.363731  1
  O  O64  1  0.792894  0.478775  0.063632  1
  O  O65  1  0.274935  0.926708  0.817108  1
  O  O66  1  0.770971  0.355009  0.161137  1
  O  O67  1  0.804813  0.839022  0.470654  1
  O  O68  1  0.725065  0.073292  0.182892  1
  O  O69  1  0.408937  0.381485  0.699016  1
  O  O70  1  0.876803  0.058589  0.045079  1
  O  O71  1  0.594985  0.639150  0.488035  1
  O  O72  1  0.195187  0.339022  0.029346  1
  O  O73  1  0.661010  0.278486  0.685428  1
  O  O74  1  0.661010  0.221514  0.185428  1
  O  O75  1  0.857168  0.604277  0.812453  1
  O  O76  1  0.405015  0.139150  0.011965  1
  O  O77  1  0.142832  0.104277  0.687547  1
  O  O78  1  0.725065  0.426708  0.682892  1
  O  O79  1  0.098760  0.805222  0.136269  1
  O  O80  1  0.196145  0.253506  0.679579  1
  O  O81  1  0.453536  0.186209  0.378114  1
  O  O82  1  0.405015  0.360850  0.511965  1
  O  O83  1  0.338990  0.778486  0.814572  1
  O  O84  1  0.594985  0.860850  0.988035  1
  O  O85  1  0.123197  0.941411  0.954921  1
  O  O86  1  0.123197  0.558589  0.454921  1
  O  O87  1  0.207106  0.978775  0.436368  1
  O  O88  1  0.792894  0.021225  0.563632  1
  O  O89  1  0.195187  0.160978  0.529346  1
  O  O90  1  0.099014  0.377893  0.742608  1
  O  O91  1  0.207106  0.521225  0.936368  1
  O  O92  1  0.591063  0.881485  0.800984  1
  O  O93  1  0.099014  0.122107  0.242608  1
  O  O94  1  0.901240  0.194778  0.863731  1
  O  O95  1  0.338990  0.721514  0.314572  1
  O  O96  1  0.803855  0.746494  0.320421  1
  O  O97  1  0.229029  0.644991  0.838863  1
  O  O98  1  0.408937  0.118515  0.199016  1
  O  O99  1  0.018276  0.526559  0.718320  1
  O  O100  1  0.507250  0.343753  0.235148  1
  O  O101  1  0.546464  0.813791  0.621886  1
  O  O102  1  0.900986  0.877893  0.757392  1
  O  O103  1  0.196145  0.246494  0.179579  1
  O  O104  1  0.507250  0.156247  0.735148  1
  O  O105  1  0.770971  0.144991  0.661137  1
  O  O106  1  0.098760  0.694778  0.636269  1
  O  O107  1  0.981724  0.473441  0.281680  1
