# generated using pymatgen
data_LaCoSb3
_symmetry_space_group_name_H-M   'P 1'
_cell_length_a   6.23094703
_cell_length_b   12.19955469
_cell_length_c   13.02169503
_cell_angle_alpha   90.00000000
_cell_angle_beta   90.00000000
_cell_angle_gamma   90.00000000
_symmetry_Int_Tables_number   1
_chemical_formula_structural   LaCoSb3
_chemical_formula_sum   'La8 Co8 Sb24'
_cell_volume   989.84127073
_cell_formula_units_Z   8
loop_
 _symmetry_equiv_pos_site_id
 _symmetry_equiv_pos_as_xyz
  1  'x, y, z'
loop_
 _atom_site_type_symbol
 _atom_site_label
 _atom_site_symmetry_multiplicity
 _atom_site_fract_x
 _atom_site_fract_y
 _atom_site_fract_z
 _atom_site_occupancy
  La  La0  1  0.727603  0.250000  0.697685  1
  La  La1  1  0.750000  0.000000  0.298706  1
  La  La2  1  0.250000  0.000000  0.701294  1
  La  La3  1  0.250000  0.500000  0.701294  1
  La  La4  1  0.750000  0.500000  0.298706  1
  La  La5  1  0.227603  0.250000  0.302315  1
  La  La6  1  0.772397  0.750000  0.697685  1
  La  La7  1  0.272397  0.750000  0.302315  1
  Co  Co8  1  0.538378  0.863714  0.904236  1
  Co  Co9  1  0.961622  0.136286  0.904236  1
  Co  Co10  1  0.961622  0.363714  0.904236  1
  Co  Co11  1  0.038378  0.636286  0.095764  1
  Co  Co12  1  0.038378  0.863714  0.095764  1
  Co  Co13  1  0.538378  0.636286  0.904236  1
  Co  Co14  1  0.461622  0.363714  0.095764  1
  Co  Co15  1  0.461622  0.136286  0.095764  1
  Sb  Sb16  1  0.750000  0.000000  0.027222  1
  Sb  Sb17  1  0.250000  0.000000  0.972778  1
  Sb  Sb18  1  0.885204  0.750000  0.944961  1
  Sb  Sb19  1  0.750000  0.000000  0.785874  1
  Sb  Sb20  1  0.488816  0.376019  0.497878  1
  Sb  Sb21  1  0.385204  0.750000  0.055039  1
  Sb  Sb22  1  0.250000  0.000000  0.214126  1
  Sb  Sb23  1  0.988816  0.376019  0.502122  1
  Sb  Sb24  1  0.511184  0.623981  0.502122  1
  Sb  Sb25  1  0.750000  0.500000  0.785874  1
  Sb  Sb26  1  0.988816  0.123981  0.502122  1
  Sb  Sb27  1  0.232137  0.250000  0.791795  1
  Sb  Sb28  1  0.250000  0.500000  0.972778  1
  Sb  Sb29  1  0.114796  0.250000  0.055039  1
  Sb  Sb30  1  0.011184  0.876019  0.497878  1
  Sb  Sb31  1  0.732137  0.250000  0.208205  1
  Sb  Sb32  1  0.614796  0.250000  0.944961  1
  Sb  Sb33  1  0.767863  0.750000  0.208205  1
  Sb  Sb34  1  0.267863  0.750000  0.791795  1
  Sb  Sb35  1  0.750000  0.500000  0.027222  1
  Sb  Sb36  1  0.488816  0.123981  0.497878  1
  Sb  Sb37  1  0.250000  0.500000  0.214126  1
  Sb  Sb38  1  0.011184  0.623981  0.497878  1
  Sb  Sb39  1  0.511184  0.876019  0.502122  1
