# generated using pymatgen
data_K4Ru2Cl10O
_symmetry_space_group_name_H-M   'P 1'
_cell_length_a   10.09637496
_cell_length_b   10.09637496
_cell_length_c   10.09637496
_cell_angle_alpha   137.55544181
_cell_angle_beta   137.55544181
_cell_angle_gamma   61.58454673
_symmetry_Int_Tables_number   1
_chemical_formula_structural   K4Ru2Cl10O
_chemical_formula_sum   'K4 Ru2 Cl10 O1'
_cell_volume   463.39390627
_cell_formula_units_Z   1
loop_
 _symmetry_equiv_pos_site_id
 _symmetry_equiv_pos_as_xyz
  1  'x, y, z'
loop_
 _atom_site_type_symbol
 _atom_site_label
 _atom_site_symmetry_multiplicity
 _atom_site_fract_x
 _atom_site_fract_y
 _atom_site_fract_z
 _atom_site_occupancy
  K  K0  1  0.000000  0.500000  0.500000  1
  K  K1  1  0.750000  0.250000  0.500000  1
  K  K2  1  0.250000  0.750000  0.500000  1
  K  K3  1  0.500000  1.000000  0.500000  1
  Ru  Ru4  1  0.895621  0.895621  0.000000  1
  Ru  Ru5  1  0.104379  0.104379  0.000000  1
  Cl  Cl6  1  0.344874  0.881355  1.000000  1
  Cl  Cl7  1  0.118645  0.655126  1.000000  1
  Cl  Cl8  1  0.655126  0.118645  1.000000  1
  Cl  Cl9  1  0.881355  0.881355  0.536480  1
  Cl  Cl10  1  0.118645  0.118645  0.463520  1
  Cl  Cl11  1  0.760925  0.760925  0.000000  1
  Cl  Cl12  1  0.881355  0.344874  1.000000  1
  Cl  Cl13  1  0.344874  0.344874  0.463520  1
  Cl  Cl14  1  0.239075  0.239075  0.000000  1
  Cl  Cl15  1  0.655126  0.655126  0.536480  1
  O  O16  1  0.000000  0.000000  0.000000  1
