# generated using pymatgen
data_Li3Cr(PO3)8
_symmetry_space_group_name_H-M   'P 1'
_cell_length_a   7.28669024
_cell_length_b   7.28669024
_cell_length_c   10.02471859
_cell_angle_alpha   66.76142680
_cell_angle_beta   113.23857320
_cell_angle_gamma   109.87676724
_symmetry_Int_Tables_number   1
_chemical_formula_structural   Li3Cr(PO3)8
_chemical_formula_sum   'Li3 Cr1 P8 O24'
_cell_volume   438.56856260
_cell_formula_units_Z   1
loop_
 _symmetry_equiv_pos_site_id
 _symmetry_equiv_pos_as_xyz
  1  'x, y, z'
loop_
 _atom_site_type_symbol
 _atom_site_label
 _atom_site_symmetry_multiplicity
 _atom_site_fract_x
 _atom_site_fract_y
 _atom_site_fract_z
 _atom_site_occupancy
  Li  Li0  1  0.552184  0.552184  0.000000  1
  Li  Li1  1  0.504166  0.986335  0.757167  1
  Li  Li2  1  0.986335  0.504166  0.242833  1
  Cr  Cr3  1  0.447980  0.447980  0.500000  1
  P  P4  1  0.758479  0.763604  0.278523  1
  P  P5  1  0.800453  0.186466  0.059578  1
  P  P6  1  0.763604  0.758479  0.721477  1
  P  P7  1  0.207718  0.803759  0.453860  1
  P  P8  1  0.186466  0.800453  0.940422  1
  P  P9  1  0.225111  0.252754  0.768944  1
  P  P10  1  0.252754  0.225111  0.231056  1
  P  P11  1  0.803759  0.207718  0.546140  1
  O  O12  1  0.236725  0.616568  0.437929  1
  O  O13  1  0.335156  0.419803  0.840244  1
  O  O14  1  0.198083  0.040053  0.900736  1
  O  O15  1  0.585356  0.656643  0.347182  1
  O  O16  1  0.656643  0.585356  0.652818  1
  O  O17  1  0.313223  0.233241  0.660570  1
  O  O18  1  0.998138  0.733071  0.803476  1
  O  O19  1  0.784887  0.966863  0.581818  1
  O  O20  1  0.233241  0.313223  0.339430  1
  O  O21  1  0.853349  0.314535  0.400903  1
  O  O22  1  0.269041  0.989714  0.313605  1
  O  O23  1  0.687884  0.787363  0.828494  1
  O  O24  1  0.787363  0.687884  0.171506  1
  O  O25  1  0.314535  0.853349  0.599097  1
  O  O26  1  0.419803  0.335156  0.159756  1
  O  O27  1  0.376836  0.776077  0.930695  1
  O  O28  1  0.776077  0.376836  0.069305  1
  O  O29  1  0.693029  0.145350  0.909255  1
  O  O30  1  0.616568  0.236725  0.562071  1
  O  O31  1  0.145350  0.693029  0.090745  1
  O  O32  1  0.989714  0.269041  0.686395  1
  O  O33  1  0.040053  0.198083  0.099264  1
  O  O34  1  0.733071  0.998138  0.196524  1
  O  O35  1  0.966863  0.784887  0.418182  1
