# generated using pymatgen
data_NaV3(FeO4)3
_symmetry_space_group_name_H-M   'P 1'
_cell_length_a   6.88757109
_cell_length_b   8.31830741
_cell_length_c   10.03358288
_cell_angle_alpha   106.18976559
_cell_angle_beta   104.52066735
_cell_angle_gamma   101.92854300
_symmetry_Int_Tables_number   1
_chemical_formula_structural   NaV3(FeO4)3
_chemical_formula_sum   'Na2 V6 Fe6 O24'
_cell_volume   510.22058852
_cell_formula_units_Z   2
loop_
 _symmetry_equiv_pos_site_id
 _symmetry_equiv_pos_as_xyz
  1  'x, y, z'
loop_
 _atom_site_type_symbol
 _atom_site_label
 _atom_site_symmetry_multiplicity
 _atom_site_fract_x
 _atom_site_fract_y
 _atom_site_fract_z
 _atom_site_occupancy
  Na  Na0  1  0.981092  0.029270  0.557587  1
  Na  Na1  1  0.453298  0.986992  0.461119  1
  V  V2  1  0.734582  0.170610  0.262894  1
  V  V3  1  0.097129  0.783163  0.130061  1
  V  V4  1  0.272587  0.833333  0.738769  1
  V  V5  1  0.906792  0.213749  0.876374  1
  V  V6  1  0.387429  0.409770  0.670063  1
  V  V7  1  0.613847  0.588979  0.330707  1
  Fe  Fe8  1  0.881955  0.444145  0.605513  1
  Fe  Fe9  1  0.458193  0.291599  0.981696  1
  Fe  Fe10  1  0.121845  0.554551  0.397044  1
  Fe  Fe11  1  0.776107  0.765218  0.798173  1
  Fe  Fe12  1  0.230475  0.231274  0.206784  1
  Fe  Fe13  1  0.547821  0.707582  0.019407  1
  O  O14  1  0.694338  0.958186  0.174836  1
  O  O15  1  0.311805  0.051996  0.823908  1
  O  O16  1  0.986536  0.287195  0.261595  1
  O  O17  1  0.371546  0.476594  0.349060  1
  O  O18  1  0.631224  0.523016  0.660087  1
  O  O19  1  0.832962  0.528253  0.413795  1
  O  O20  1  0.493268  0.776612  0.825980  1
  O  O21  1  0.413573  0.437107  0.856312  1
  O  O22  1  0.181354  0.478153  0.578301  1
  O  O23  1  0.197114  0.011061  0.235005  1
  O  O24  1  0.160196  0.260944  0.015437  1
  O  O25  1  0.082697  0.670055  0.251359  1
  O  O26  1  0.822728  0.988651  0.772117  1
  O  O27  1  0.509858  0.227549  0.169503  1
  O  O28  1  0.328289  0.196014  0.579536  1
  O  O29  1  0.727205  0.270558  0.958339  1
  O  O30  1  0.249727  0.801154  0.554929  1
  O  O31  1  0.577398  0.546685  0.142893  1
  O  O32  1  0.745555  0.192329  0.441685  1
  O  O33  1  0.853665  0.742867  0.988774  1
  O  O34  1  0.934608  0.314611  0.754689  1
  O  O35  1  0.025414  0.720394  0.742942  1
  O  O36  1  0.267059  0.729837  0.045670  1
  O  O37  1  0.662119  0.802319  0.418097  1
