# generated using pymatgen
data_LiMn(PO3)4
_symmetry_space_group_name_H-M   'P 1'
_cell_length_a   7.23280821
_cell_length_b   7.23280821
_cell_length_c   10.19318481
_cell_angle_alpha   68.62716988
_cell_angle_beta   111.37283012
_cell_angle_gamma   108.52669576
_symmetry_Int_Tables_number   1
_chemical_formula_structural   LiMn(PO3)4
_chemical_formula_sum   'Li2 Mn2 P8 O24'
_cell_volume   451.78250698
_cell_formula_units_Z   2
loop_
 _symmetry_equiv_pos_site_id
 _symmetry_equiv_pos_as_xyz
  1  'x, y, z'
loop_
 _atom_site_type_symbol
 _atom_site_label
 _atom_site_symmetry_multiplicity
 _atom_site_fract_x
 _atom_site_fract_y
 _atom_site_fract_z
 _atom_site_occupancy
  Li  Li0  1  0.025560  0.025560  0.750000  1
  Li  Li1  1  0.974440  0.974440  0.250000  1
  Mn  Mn2  1  0.500000  1.000000  0.000000  1
  Mn  Mn3  1  0.000000  0.500000  0.500000  1
  P  P4  1  0.727973  0.739780  0.529094  1
  P  P5  1  0.318409  0.696533  0.311110  1
  P  P6  1  0.272027  0.260220  0.470906  1
  P  P7  1  0.681591  0.303467  0.688890  1
  P  P8  1  0.260220  0.272027  0.029094  1
  P  P9  1  0.739780  0.727973  0.970906  1
  P  P10  1  0.696533  0.318409  0.188890  1
  P  P11  1  0.303467  0.681591  0.811110  1
  O  O12  1  0.212353  0.491754  0.930304  1
  O  O13  1  0.809015  0.678273  0.433922  1
  O  O14  1  0.333557  0.808715  0.160047  1
  O  O15  1  0.190985  0.321727  0.566078  1
  O  O16  1  0.333832  0.466324  0.346329  1
  O  O17  1  0.153799  0.093755  0.405203  1
  O  O18  1  0.303917  0.872443  0.843750  1
  O  O19  1  0.678273  0.809015  0.066078  1
  O  O20  1  0.491754  0.212353  0.569696  1
  O  O21  1  0.093755  0.153799  0.094797  1
  O  O22  1  0.666443  0.191285  0.839953  1
  O  O23  1  0.191285  0.666443  0.660047  1
  O  O24  1  0.466324  0.333832  0.153671  1
  O  O25  1  0.872443  0.303917  0.656250  1
  O  O26  1  0.127557  0.696083  0.343750  1
  O  O27  1  0.533676  0.666168  0.846329  1
  O  O28  1  0.666168  0.533676  0.653671  1
  O  O29  1  0.787647  0.508246  0.069696  1
  O  O30  1  0.906245  0.846201  0.905203  1
  O  O31  1  0.508246  0.787647  0.430304  1
  O  O32  1  0.321727  0.190985  0.933922  1
  O  O33  1  0.696083  0.127557  0.156250  1
  O  O34  1  0.846201  0.906245  0.594797  1
  O  O35  1  0.808715  0.333557  0.339953  1
