# generated using pymatgen
data_TcBi3O8
_symmetry_space_group_name_H-M   'P 1'
_cell_length_a   11.72075703
_cell_length_b   11.72075703
_cell_length_c   11.72075703
_cell_angle_alpha   90.00000000
_cell_angle_beta   90.00000000
_cell_angle_gamma   90.00000000
_symmetry_Int_Tables_number   1
_chemical_formula_structural   TcBi3O8
_chemical_formula_sum   'Tc8 Bi24 O64'
_cell_volume   1610.15242144
_cell_formula_units_Z   8
loop_
 _symmetry_equiv_pos_site_id
 _symmetry_equiv_pos_as_xyz
  1  'x, y, z'
loop_
 _atom_site_type_symbol
 _atom_site_label
 _atom_site_symmetry_multiplicity
 _atom_site_fract_x
 _atom_site_fract_y
 _atom_site_fract_z
 _atom_site_occupancy
  Tc  Tc0  1  0.113653  0.886347  0.386347  1
  Tc  Tc1  1  0.886347  0.386347  0.113653  1
  Tc  Tc2  1  0.119104  0.119104  0.119104  1
  Tc  Tc3  1  0.880896  0.619104  0.380896  1
  Tc  Tc4  1  0.386347  0.113653  0.886347  1
  Tc  Tc5  1  0.613653  0.613653  0.613653  1
  Tc  Tc6  1  0.619104  0.380896  0.880896  1
  Tc  Tc7  1  0.380896  0.880896  0.619104  1
  Bi  Bi8  1  0.352962  0.641666  0.888424  1
  Bi  Bi9  1  0.153584  0.634831  0.116169  1
  Bi  Bi10  1  0.134831  0.383831  0.846416  1
  Bi  Bi11  1  0.383831  0.846416  0.134831  1
  Bi  Bi12  1  0.858334  0.111576  0.852962  1
  Bi  Bi13  1  0.852962  0.858334  0.111576  1
  Bi  Bi14  1  0.653584  0.865169  0.883831  1
  Bi  Bi15  1  0.865169  0.883831  0.653584  1
  Bi  Bi16  1  0.116169  0.153584  0.634831  1
  Bi  Bi17  1  0.611576  0.647038  0.141666  1
  Bi  Bi18  1  0.141666  0.611576  0.647038  1
  Bi  Bi19  1  0.346416  0.365169  0.616169  1
  Bi  Bi20  1  0.388424  0.147038  0.358334  1
  Bi  Bi21  1  0.358334  0.388424  0.147038  1
  Bi  Bi22  1  0.616169  0.346416  0.365169  1
  Bi  Bi23  1  0.634831  0.116169  0.153584  1
  Bi  Bi24  1  0.111576  0.852962  0.858334  1
  Bi  Bi25  1  0.846416  0.134831  0.383831  1
  Bi  Bi26  1  0.147038  0.358334  0.388424  1
  Bi  Bi27  1  0.888424  0.352962  0.641666  1
  Bi  Bi28  1  0.365169  0.616169  0.346416  1
  Bi  Bi29  1  0.883831  0.653584  0.865169  1
  Bi  Bi30  1  0.641666  0.888424  0.352962  1
  Bi  Bi31  1  0.647038  0.141666  0.611576  1
  O  O32  1  0.467244  0.967244  0.532756  1
  O  O33  1  0.772137  0.772137  0.772137  1
  O  O34  1  0.230022  0.502557  0.243859  1
  O  O35  1  0.269978  0.497443  0.743859  1
  O  O36  1  0.120424  0.749975  0.444432  1
  O  O37  1  0.227863  0.272137  0.727863  1
  O  O38  1  0.250485  0.053362  0.142735  1
  O  O39  1  0.727863  0.227863  0.272137  1
  O  O40  1  0.769978  0.002557  0.256141  1
  O  O41  1  0.241082  0.470863  0.503201  1
  O  O42  1  0.529137  0.003201  0.258918  1
  O  O43  1  0.249515  0.946638  0.642735  1
  O  O44  1  0.532756  0.467244  0.967244  1
  O  O45  1  0.784258  0.215742  0.715742  1
  O  O46  1  0.249975  0.055568  0.879576  1
  O  O47  1  0.741082  0.029137  0.496799  1
  O  O48  1  0.357265  0.749515  0.553362  1
  O  O49  1  0.553362  0.357265  0.749515  1
  O  O50  1  0.756141  0.730022  0.997443  1
  O  O51  1  0.473182  0.026818  0.973182  1
  O  O52  1  0.284258  0.284258  0.284258  1
  O  O53  1  0.496799  0.741082  0.029137  1
  O  O54  1  0.758918  0.970863  0.996799  1
  O  O55  1  0.730022  0.997443  0.756141  1
  O  O56  1  0.032756  0.032756  0.032756  1
  O  O57  1  0.215742  0.715742  0.784258  1
  O  O58  1  0.258918  0.529137  0.003201  1
  O  O59  1  0.857265  0.750485  0.446638  1
  O  O60  1  0.944432  0.379576  0.250025  1
  O  O61  1  0.526818  0.526818  0.526818  1
  O  O62  1  0.243859  0.230022  0.502557  1
  O  O63  1  0.444432  0.120424  0.749975  1
  O  O64  1  0.996799  0.758918  0.970863  1
  O  O65  1  0.970863  0.996799  0.758918  1
  O  O66  1  0.029137  0.496799  0.741082  1
  O  O67  1  0.379576  0.250025  0.944432  1
  O  O68  1  0.002557  0.256141  0.769978  1
  O  O69  1  0.620424  0.750025  0.555568  1
  O  O70  1  0.946638  0.642735  0.249515  1
  O  O71  1  0.749515  0.553362  0.357265  1
  O  O72  1  0.055568  0.879576  0.249975  1
  O  O73  1  0.555568  0.620424  0.750025  1
  O  O74  1  0.715742  0.784258  0.215742  1
  O  O75  1  0.750485  0.446638  0.857265  1
  O  O76  1  0.749975  0.444432  0.120424  1
  O  O77  1  0.256141  0.769978  0.002557  1
  O  O78  1  0.879576  0.249975  0.055568  1
  O  O79  1  0.997443  0.756141  0.730022  1
  O  O80  1  0.026818  0.973182  0.473182  1
  O  O81  1  0.973182  0.473182  0.026818  1
  O  O82  1  0.446638  0.857265  0.750485  1
  O  O83  1  0.272137  0.727863  0.227863  1
  O  O84  1  0.250025  0.944432  0.379576  1
  O  O85  1  0.497443  0.743859  0.269978  1
  O  O86  1  0.750025  0.555568  0.620424  1
  O  O87  1  0.967244  0.532756  0.467244  1
  O  O88  1  0.142735  0.250485  0.053362  1
  O  O89  1  0.642735  0.249515  0.946638  1
  O  O90  1  0.470863  0.503201  0.241082  1
  O  O91  1  0.502557  0.243859  0.230022  1
  O  O92  1  0.743859  0.269978  0.497443  1
  O  O93  1  0.003201  0.258918  0.529137  1
  O  O94  1  0.503201  0.241082  0.470863  1
  O  O95  1  0.053362  0.142735  0.250485  1
