# generated using pymatgen
data_TlPF6
_symmetry_space_group_name_H-M   'P 1'
_cell_length_a   8.04620412
_cell_length_b   8.04620412
_cell_length_c   8.04620412
_cell_angle_alpha   90.00000000
_cell_angle_beta   90.00000000
_cell_angle_gamma   90.00000000
_symmetry_Int_Tables_number   1
_chemical_formula_structural   TlPF6
_chemical_formula_sum   'Tl4 P4 F24'
_cell_volume   520.92252537
_cell_formula_units_Z   4
loop_
 _symmetry_equiv_pos_site_id
 _symmetry_equiv_pos_as_xyz
  1  'x, y, z'
loop_
 _atom_site_type_symbol
 _atom_site_label
 _atom_site_symmetry_multiplicity
 _atom_site_fract_x
 _atom_site_fract_y
 _atom_site_fract_z
 _atom_site_occupancy
  Tl  Tl0  1  0.500000  0.500000  0.500000  1
  Tl  Tl1  1  0.000000  0.500000  0.000000  1
  Tl  Tl2  1  0.000000  0.000000  0.500000  1
  Tl  Tl3  1  0.500000  0.000000  0.000000  1
  P  P4  1  0.000000  0.000000  0.000000  1
  P  P5  1  0.500000  0.000000  0.500000  1
  P  P6  1  0.500000  0.500000  0.000000  1
  P  P7  1  0.000000  0.500000  0.500000  1
  F  F8  1  0.135768  0.136210  0.932035  1
  F  F9  1  0.932035  0.135768  0.136210  1
  F  F10  1  0.136210  0.932035  0.135768  1
  F  F11  1  0.363790  0.067965  0.635768  1
  F  F12  1  0.432035  0.364232  0.863790  1
  F  F13  1  0.863790  0.432035  0.364232  1
  F  F14  1  0.567965  0.864232  0.636210  1
  F  F15  1  0.067965  0.635768  0.363790  1
  F  F16  1  0.636210  0.567965  0.864232  1
  F  F17  1  0.635768  0.363790  0.067965  1
  F  F18  1  0.864232  0.636210  0.567965  1
  F  F19  1  0.364232  0.863790  0.432035  1
  F  F20  1  0.864232  0.863790  0.067965  1
  F  F21  1  0.067965  0.864232  0.863790  1
  F  F22  1  0.863790  0.067965  0.864232  1
  F  F23  1  0.636210  0.932035  0.364232  1
  F  F24  1  0.567965  0.635768  0.136210  1
  F  F25  1  0.136210  0.567965  0.635768  1
  F  F26  1  0.432035  0.135768  0.363790  1
  F  F27  1  0.932035  0.364232  0.636210  1
  F  F28  1  0.363790  0.432035  0.135768  1
  F  F29  1  0.364232  0.636210  0.932035  1
  F  F30  1  0.135768  0.363790  0.432035  1
  F  F31  1  0.635768  0.136210  0.567965  1
