# generated using pymatgen
data_Tm2O3
_symmetry_space_group_name_H-M   'P 1'
_cell_length_a   7.14523473
_cell_length_b   7.14523473
_cell_length_c   8.50942530
_cell_angle_alpha   79.93657236
_cell_angle_beta   100.06342764
_cell_angle_gamma   152.19432139
_symmetry_Int_Tables_number   1
_chemical_formula_structural   Tm2O3
_chemical_formula_sum   'Tm6 O9'
_cell_volume   199.34618937
_cell_formula_units_Z   3
loop_
 _symmetry_equiv_pos_site_id
 _symmetry_equiv_pos_as_xyz
  1  'x, y, z'
loop_
 _atom_site_type_symbol
 _atom_site_label
 _atom_site_symmetry_multiplicity
 _atom_site_fract_x
 _atom_site_fract_y
 _atom_site_fract_z
 _atom_site_occupancy
  Tm  Tm0  1  0.364888  0.635112  0.512503  1
  Tm  Tm1  1  0.308338  0.691662  0.862673  1
  Tm  Tm2  1  0.691662  0.308338  0.137327  1
  Tm  Tm3  1  0.968017  0.031983  0.185641  1
  Tm  Tm4  1  0.635112  0.364888  0.487497  1
  Tm  Tm5  1  0.031983  0.968017  0.814359  1
  O  O6  1  0.872437  0.127563  0.718700  1
  O  O7  1  0.792985  0.207015  0.377456  1
  O  O8  1  0.470246  0.529754  0.342691  1
  O  O9  1  0.127563  0.872437  0.281300  1
  O  O10  1  0.174397  0.825603  0.968856  1
  O  O11  1  0.500000  0.500000  0.000000  1
  O  O12  1  0.825603  0.174397  0.031144  1
  O  O13  1  0.207015  0.792985  0.622544  1
  O  O14  1  0.529754  0.470246  0.657309  1
