# generated using pymatgen
data_LiPO3
_symmetry_space_group_name_H-M   'P 1'
_cell_length_a   13.30120508
_cell_length_b   5.51204773
_cell_length_c   19.62527487
_cell_angle_alpha   90.00000000
_cell_angle_beta   122.60279330
_cell_angle_gamma   90.00000000
_symmetry_Int_Tables_number   1
_chemical_formula_structural   LiPO3
_chemical_formula_sum   'Li20 P20 O60'
_cell_volume   1212.13652098
_cell_formula_units_Z   20
loop_
 _symmetry_equiv_pos_site_id
 _symmetry_equiv_pos_as_xyz
  1  'x, y, z'
loop_
 _atom_site_type_symbol
 _atom_site_label
 _atom_site_symmetry_multiplicity
 _atom_site_fract_x
 _atom_site_fract_y
 _atom_site_fract_z
 _atom_site_occupancy
  Li  Li0  1  0.617886  0.508030  0.557567  1
  Li  Li1  1  0.617886  0.491970  0.057567  1
  Li  Li2  1  0.382114  0.491970  0.442433  1
  Li  Li3  1  0.000000  0.008016  0.250000  1
  Li  Li4  1  0.646562  0.478286  0.325653  1
  Li  Li5  1  0.500000  0.038235  0.750000  1
  Li  Li6  1  0.646562  0.521714  0.825653  1
  Li  Li7  1  0.382114  0.508030  0.942433  1
  Li  Li8  1  0.882453  0.525304  0.441792  1
  Li  Li9  1  0.000000  0.991984  0.750000  1
  Li  Li10  1  0.500000  0.961765  0.250000  1
  Li  Li11  1  0.882453  0.474696  0.941792  1
  Li  Li12  1  0.853422  0.494710  0.172823  1
  Li  Li13  1  0.853422  0.505290  0.672823  1
  Li  Li14  1  0.146578  0.505290  0.827177  1
  Li  Li15  1  0.117547  0.474696  0.558208  1
  Li  Li16  1  0.353438  0.478286  0.174347  1
  Li  Li17  1  0.146578  0.494710  0.327177  1
  Li  Li18  1  0.353438  0.521714  0.674347  1
  Li  Li19  1  0.117547  0.525304  0.058208  1
  P  P20  1  0.861974  0.828099  0.816397  1
  P  P21  1  0.671427  0.811455  0.204952  1
  P  P22  1  0.475579  0.154181  0.101123  1
  P  P23  1  0.269352  0.187317  0.508413  1
  P  P24  1  0.730648  0.187317  0.991587  1
  P  P25  1  0.524421  0.154181  0.398877  1
  P  P26  1  0.935846  0.156317  0.582682  1
  P  P27  1  0.138026  0.171901  0.183603  1
  P  P28  1  0.328573  0.188545  0.795048  1
  P  P29  1  0.269352  0.812683  0.008413  1
  P  P30  1  0.138026  0.828099  0.683603  1
  P  P31  1  0.475579  0.845819  0.601123  1
  P  P32  1  0.524421  0.845819  0.898877  1
  P  P33  1  0.861974  0.171901  0.316397  1
  P  P34  1  0.328573  0.811455  0.295048  1
  P  P35  1  0.064154  0.156317  0.917318  1
  P  P36  1  0.671427  0.188545  0.704952  1
  P  P37  1  0.730648  0.812683  0.491587  1
  P  P38  1  0.935846  0.843683  0.082682  1
  P  P39  1  0.064154  0.843683  0.417318  1
  O  O40  1  0.201907  0.656997  0.660426  1
  O  O41  1  0.737507  0.677876  0.426913  1
  O  O42  1  0.807133  0.056369  0.512257  1
  O  O43  1  0.757599  0.323515  0.065824  1
  O  O44  1  0.030844  0.354737  0.954430  1
  O  O45  1  0.096518  0.256963  0.237840  1
  O  O46  1  0.242401  0.676485  0.934176  1
  O  O47  1  0.969156  0.645263  0.045570  1
  O  O48  1  0.596764  0.081481  0.952666  1
  O  O49  1  0.290643  0.355538  0.837443  1
  O  O50  1  0.387838  0.950091  0.851258  1
  O  O51  1  0.062059  0.215739  0.841158  1
  O  O52  1  0.709357  0.644462  0.162557  1
  O  O53  1  0.527720  0.651844  0.952383  1
  O  O54  1  0.969156  0.354737  0.545570  1
  O  O55  1  0.798093  0.656997  0.839574  1
  O  O56  1  0.405174  0.722752  0.266110  1
  O  O57  1  0.440192  0.203676  0.160836  1
  O  O58  1  0.290643  0.644462  0.337443  1
  O  O59  1  0.201907  0.343003  0.160426  1
  O  O60  1  0.403236  0.081481  0.547334  1
  O  O61  1  0.612162  0.049909  0.148742  1
  O  O62  1  0.559808  0.796324  0.839164  1
  O  O63  1  0.757599  0.676485  0.565824  1
  O  O64  1  0.403236  0.918519  0.047334  1
  O  O65  1  0.807133  0.943631  0.012257  1
  O  O66  1  0.020432  0.077837  0.098976  1
  O  O67  1  0.242401  0.323515  0.434176  1
  O  O68  1  0.979568  0.077837  0.401024  1
  O  O69  1  0.062059  0.784261  0.341158  1
  O  O70  1  0.937941  0.215739  0.658842  1
  O  O71  1  0.709357  0.355538  0.662557  1
  O  O72  1  0.937941  0.784261  0.158842  1
  O  O73  1  0.612162  0.950091  0.648742  1
  O  O74  1  0.440192  0.796324  0.660836  1
  O  O75  1  0.979568  0.922163  0.901024  1
  O  O76  1  0.903482  0.743037  0.762160  1
  O  O77  1  0.192867  0.056369  0.987743  1
  O  O78  1  0.789166  0.920108  0.283526  1
  O  O79  1  0.387838  0.049909  0.351258  1
  O  O80  1  0.192867  0.943631  0.487743  1
  O  O81  1  0.210834  0.920108  0.216474  1
  O  O82  1  0.405174  0.277248  0.766110  1
  O  O83  1  0.737507  0.322124  0.926913  1
  O  O84  1  0.527720  0.348156  0.452383  1
  O  O85  1  0.559808  0.203676  0.339164  1
  O  O86  1  0.798093  0.343003  0.339574  1
  O  O87  1  0.262493  0.677876  0.073087  1
  O  O88  1  0.472280  0.348156  0.047617  1
  O  O89  1  0.210834  0.079892  0.716474  1
  O  O90  1  0.789166  0.079892  0.783526  1
  O  O91  1  0.030844  0.645263  0.454430  1
  O  O92  1  0.020432  0.922163  0.598976  1
  O  O93  1  0.262493  0.322124  0.573087  1
  O  O94  1  0.596764  0.918519  0.452666  1
  O  O95  1  0.472280  0.651844  0.547617  1
  O  O96  1  0.594826  0.277248  0.733890  1
  O  O97  1  0.903482  0.256963  0.262160  1
  O  O98  1  0.096518  0.743037  0.737840  1
  O  O99  1  0.594826  0.722752  0.233890  1
