# generated using pymatgen
data_Nb3SI7
_symmetry_space_group_name_H-M   'P 1'
_cell_length_a   8.05061300
_cell_length_b   12.77114784
_cell_length_c   16.11527739
_cell_angle_alpha   90.00000000
_cell_angle_beta   99.39221920
_cell_angle_gamma   90.00000000
_symmetry_Int_Tables_number   1
_chemical_formula_structural   Nb3SI7
_chemical_formula_sum   'Nb12 S4 I28'
_cell_volume   1634.68954261
_cell_formula_units_Z   4
loop_
 _symmetry_equiv_pos_site_id
 _symmetry_equiv_pos_as_xyz
  1  'x, y, z'
loop_
 _atom_site_type_symbol
 _atom_site_label
 _atom_site_symmetry_multiplicity
 _atom_site_fract_x
 _atom_site_fract_y
 _atom_site_fract_z
 _atom_site_occupancy
  Nb  Nb0  1  0.155319  0.890219  0.291749  1
  Nb  Nb1  1  0.344681  0.390219  0.708251  1
  Nb  Nb2  1  0.844681  0.109781  0.708251  1
  Nb  Nb3  1  0.655319  0.609781  0.291749  1
  Nb  Nb4  1  0.128865  0.109571  0.289956  1
  Nb  Nb5  1  0.371135  0.609571  0.710044  1
  Nb  Nb6  1  0.871135  0.890429  0.710044  1
  Nb  Nb7  1  0.628865  0.390429  0.289956  1
  Nb  Nb8  1  0.081675  0.998216  0.138551  1
  Nb  Nb9  1  0.418325  0.498216  0.861449  1
  Nb  Nb10  1  0.918325  0.001784  0.861449  1
  Nb  Nb11  1  0.581675  0.501784  0.138551  1
  S  S12  1  0.897696  0.987912  0.243948  1
  S  S13  1  0.602304  0.487912  0.756052  1
  S  S14  1  0.102304  0.012088  0.756052  1
  S  S15  1  0.397696  0.512088  0.243948  1
  I  I16  1  0.074752  0.221272  0.136616  1
  I  I17  1  0.425248  0.721272  0.863384  1
  I  I18  1  0.925248  0.778728  0.863384  1
  I  I19  1  0.574752  0.278728  0.136616  1
  I  I20  1  0.410951  0.012293  0.233902  1
  I  I21  1  0.089049  0.512293  0.766098  1
  I  I22  1  0.589049  0.987707  0.766098  1
  I  I23  1  0.910951  0.487707  0.233902  1
  I  I24  1  0.436916  0.745744  0.370486  1
  I  I25  1  0.063084  0.245744  0.629514  1
  I  I26  1  0.563084  0.254256  0.629514  1
  I  I27  1  0.936916  0.754256  0.370486  1
  I  I28  1  0.368573  0.281527  0.363908  1
  I  I29  1  0.131427  0.781527  0.636092  1
  I  I30  1  0.631427  0.718473  0.636092  1
  I  I31  1  0.868573  0.218473  0.363908  1
  I  I32  1  0.120600  0.776326  0.139545  1
  I  I33  1  0.379400  0.276326  0.860455  1
  I  I34  1  0.879400  0.223674  0.860455  1
  I  I35  1  0.620600  0.723674  0.139545  1
  I  I36  1  0.771290  0.992652  0.019653  1
  I  I37  1  0.728710  0.492652  0.980347  1
  I  I38  1  0.228710  0.007348  0.980347  1
  I  I39  1  0.271290  0.507348  0.019653  1
  I  I40  1  0.227399  0.004222  0.445064  1
  I  I41  1  0.272601  0.504222  0.554936  1
  I  I42  1  0.772601  0.995778  0.554936  1
  I  I43  1  0.727399  0.495778  0.445064  1
