# generated using pymatgen
data_KNa2LiTi2Fe2(SiO3)8
_symmetry_space_group_name_H-M   'P 1'
_cell_length_a   10.47850117
_cell_length_b   10.47850117
_cell_length_c   10.09955843
_cell_angle_alpha   70.17293268
_cell_angle_beta   109.82706732
_cell_angle_gamma   104.64069942
_symmetry_Int_Tables_number   1
_chemical_formula_structural   KNa2LiTi2Fe2(SiO3)8
_chemical_formula_sum   'K2 Na4 Li2 Ti4 Fe4 Si16 O48'
_cell_volume   969.39087513
_cell_formula_units_Z   2
loop_
 _symmetry_equiv_pos_site_id
 _symmetry_equiv_pos_as_xyz
  1  'x, y, z'
loop_
 _atom_site_type_symbol
 _atom_site_label
 _atom_site_symmetry_multiplicity
 _atom_site_fract_x
 _atom_site_fract_y
 _atom_site_fract_z
 _atom_site_occupancy
  K  K0  1  0.581828  0.584019  0.254871  1
  K  K1  1  0.415981  0.418172  0.754871  1
  Na  Na2  1  0.061753  0.534903  0.311954  1
  Na  Na3  1  0.465097  0.938247  0.811954  1
  Na  Na4  1  0.941078  0.463021  0.710547  1
  Na  Na5  1  0.536979  0.058922  0.210547  1
  Li  Li6  1  0.066924  0.061454  0.265074  1
  Li  Li7  1  0.938546  0.933076  0.765074  1
  Ti  Ti8  1  0.016793  0.330805  0.110374  1
  Ti  Ti9  1  0.669195  0.983207  0.610374  1
  Ti  Ti10  1  0.037847  0.860198  0.122307  1
  Ti  Ti11  1  0.139802  0.962153  0.622307  1
  Fe  Fe12  1  0.979033  0.656337  0.907218  1
  Fe  Fe13  1  0.343663  0.020967  0.407218  1
  Fe  Fe14  1  0.970580  0.147901  0.892753  1
  Fe  Fe15  1  0.852099  0.029420  0.392753  1
  Si  Si16  1  0.739751  0.448257  0.066393  1
  Si  Si17  1  0.551743  0.260249  0.566393  1
  Si  Si18  1  0.259399  0.548772  0.947583  1
  Si  Si19  1  0.451228  0.740601  0.447583  1
  Si  Si20  1  0.294838  0.248952  0.088234  1
  Si  Si21  1  0.751048  0.705162  0.588234  1
  Si  Si22  1  0.710492  0.754126  0.921589  1
  Si  Si23  1  0.245874  0.289508  0.421589  1
  Si  Si24  1  0.296550  0.756909  0.116442  1
  Si  Si25  1  0.243091  0.703450  0.616442  1
  Si  Si26  1  0.705546  0.248928  0.895193  1
  Si  Si27  1  0.751072  0.294454  0.395193  1
  Si  Si28  1  0.746146  0.958978  0.084637  1
  Si  Si29  1  0.041022  0.253854  0.584637  1
  Si  Si30  1  0.251134  0.040566  0.922880  1
  Si  Si31  1  0.959434  0.748866  0.422880  1
  O  O32  1  0.906960  0.992747  0.077200  1
  O  O33  1  0.007253  0.093040  0.577200  1
  O  O34  1  0.093596  0.992665  0.935308  1
  O  O35  1  0.007335  0.906404  0.435308  1
  O  O36  1  0.129199  0.222286  0.075539  1
  O  O37  1  0.777714  0.870801  0.575539  1
  O  O38  1  0.874471  0.787182  0.938850  1
  O  O39  1  0.212818  0.125529  0.438850  1
  O  O40  1  0.944752  0.728318  0.264775  1
  O  O41  1  0.271682  0.055248  0.764775  1
  O  O42  1  0.054785  0.279330  0.736564  1
  O  O43  1  0.720670  0.945215  0.236564  1
  O  O44  1  0.939564  0.197448  0.229281  1
  O  O45  1  0.802552  0.060436  0.729281  1
  O  O46  1  0.071164  0.826347  0.747057  1
  O  O47  1  0.173653  0.928836  0.247057  1
  O  O48  1  0.133596  0.722309  0.106488  1
  O  O49  1  0.277691  0.866404  0.606488  1
  O  O50  1  0.869142  0.290408  0.914226  1
  O  O51  1  0.709592  0.130858  0.414226  1
  O  O52  1  0.346692  0.921482  0.044278  1
  O  O53  1  0.078518  0.653308  0.544278  1
  O  O54  1  0.659905  0.082112  0.956597  1
  O  O55  1  0.917888  0.340095  0.456597  1
  O  O56  1  0.904158  0.475489  0.084238  1
  O  O57  1  0.524511  0.095842  0.584238  1
  O  O58  1  0.098572  0.510960  0.939526  1
  O  O59  1  0.489040  0.901428  0.439526  1
  O  O60  1  0.337541  0.670466  0.031334  1
  O  O61  1  0.329534  0.662459  0.531334  1
  O  O62  1  0.656983  0.328898  0.981473  1
  O  O63  1  0.671102  0.343017  0.481473  1
  O  O64  1  0.707884  0.392528  0.226671  1
  O  O65  1  0.607472  0.292116  0.726671  1
  O  O66  1  0.286856  0.607298  0.784673  1
  O  O67  1  0.392702  0.713144  0.284673  1
  O  O68  1  0.179303  0.387104  0.257926  1
  O  O69  1  0.612896  0.820697  0.757926  1
  O  O70  1  0.814181  0.606581  0.745699  1
  O  O71  1  0.393419  0.185819  0.245699  1
  O  O72  1  0.343232  0.417662  0.027975  1
  O  O73  1  0.582338  0.656768  0.527975  1
  O  O74  1  0.663937  0.585207  0.980231  1
  O  O75  1  0.414793  0.336063  0.480231  1
  O  O76  1  0.670047  0.818272  0.030291  1
  O  O77  1  0.181728  0.329953  0.530291  1
  O  O78  1  0.320003  0.184592  0.968905  1
  O  O79  1  0.815408  0.679997  0.468905  1
