# generated using pymatgen
data_Hf3(Al2C3)2
_symmetry_space_group_name_H-M   'P 1'
_cell_length_a   16.41612054
_cell_length_b   16.41612054
_cell_length_c   16.41612054
_cell_angle_alpha   11.63791721
_cell_angle_beta   11.63791721
_cell_angle_gamma   11.63791721
_symmetry_Int_Tables_number   1
_chemical_formula_structural   Hf3(Al2C3)2
_chemical_formula_sum   'Hf3 Al4 C6'
_cell_volume   156.44336466
_cell_formula_units_Z   1
loop_
 _symmetry_equiv_pos_site_id
 _symmetry_equiv_pos_as_xyz
  1  'x, y, z'
loop_
 _atom_site_type_symbol
 _atom_site_label
 _atom_site_symmetry_multiplicity
 _atom_site_fract_x
 _atom_site_fract_y
 _atom_site_fract_z
 _atom_site_occupancy
  Hf  Hf0  1  0.612429  0.612429  0.612429  1
  Hf  Hf1  1  0.387571  0.387571  0.387571  1
  Hf  Hf2  1  0.000000  0.000000  0.000000  1
  Al  Al3  1  0.232289  0.232289  0.232289  1
  Al  Al4  1  0.852405  0.852405  0.852405  1
  Al  Al5  1  0.767711  0.767711  0.767711  1
  Al  Al6  1  0.147595  0.147595  0.147595  1
  C  C7  1  0.305923  0.305923  0.305923  1
  C  C8  1  0.192433  0.192433  0.192433  1
  C  C9  1  0.082419  0.082419  0.082419  1
  C  C10  1  0.694077  0.694077  0.694077  1
  C  C11  1  0.917581  0.917581  0.917581  1
  C  C12  1  0.807567  0.807567  0.807567  1
