# generated using pymatgen
data_Fe2CoAs2(H5O7)2
_symmetry_space_group_name_H-M   'P 1'
_cell_length_a   5.63784350
_cell_length_b   9.69253300
_cell_length_c   10.44336907
_cell_angle_alpha   90.00000000
_cell_angle_beta   93.96792619
_cell_angle_gamma   90.00000000
_symmetry_Int_Tables_number   1
_chemical_formula_structural   Fe2CoAs2(H5O7)2
_chemical_formula_sum   'Fe4 Co2 As4 H20 O28'
_cell_volume   569.30979055
_cell_formula_units_Z   2
loop_
 _symmetry_equiv_pos_site_id
 _symmetry_equiv_pos_as_xyz
  1  'x, y, z'
loop_
 _atom_site_type_symbol
 _atom_site_label
 _atom_site_symmetry_multiplicity
 _atom_site_fract_x
 _atom_site_fract_y
 _atom_site_fract_z
 _atom_site_occupancy
  Fe  Fe0  1  0.338369  0.864241  0.450621  1
  Fe  Fe1  1  0.161631  0.364241  0.549379  1
  Fe  Fe2  1  0.661631  0.135759  0.549379  1
  Fe  Fe3  1  0.838369  0.635759  0.450621  1
  Co  Co4  1  0.000000  0.000000  0.000000  1
  Co  Co5  1  0.500000  0.500000  0.000000  1
  As  As6  1  0.327539  0.568400  0.293555  1
  As  As7  1  0.172461  0.068400  0.706445  1
  As  As8  1  0.672461  0.431600  0.706445  1
  As  As9  1  0.827539  0.931600  0.293555  1
  H  H10  1  0.982423  0.841519  0.582293  1
  H  H11  1  0.517577  0.341519  0.417707  1
  H  H12  1  0.017577  0.158481  0.417707  1
  H  H13  1  0.482423  0.658481  0.582293  1
  H  H14  1  0.241616  0.084568  0.214109  1
  H  H15  1  0.258384  0.584568  0.785891  1
  H  H16  1  0.758384  0.915432  0.785891  1
  H  H17  1  0.741616  0.415432  0.214109  1
  H  H18  1  0.453485  0.057974  0.125877  1
  H  H19  1  0.046515  0.557974  0.874123  1
  H  H20  1  0.546515  0.942026  0.874123  1
  H  H21  1  0.953485  0.442026  0.125877  1
  H  H22  1  0.215792  0.787259  0.128238  1
  H  H23  1  0.284208  0.287259  0.871762  1
  H  H24  1  0.784208  0.212741  0.871762  1
  H  H25  1  0.715792  0.712741  0.128238  1
  H  H26  1  0.180160  0.747231  0.978843  1
  H  H27  1  0.319840  0.247231  0.021157  1
  H  H28  1  0.819840  0.252769  0.021157  1
  H  H29  1  0.680160  0.752769  0.978843  1
  O  O30  1  0.119744  0.513427  0.400372  1
  O  O31  1  0.380256  0.013427  0.599628  1
  O  O32  1  0.880256  0.486573  0.599628  1
  O  O33  1  0.619744  0.986573  0.400372  1
  O  O34  1  0.603542  0.504655  0.349983  1
  O  O35  1  0.896458  0.004655  0.650017  1
  O  O36  1  0.396458  0.495345  0.650017  1
  O  O37  1  0.103542  0.995345  0.349983  1
  O  O38  1  0.254277  0.500786  0.145963  1
  O  O39  1  0.245723  0.000786  0.854037  1
  O  O40  1  0.745723  0.499214  0.854037  1
  O  O41  1  0.754277  0.999214  0.145963  1
  O  O42  1  0.319727  0.746193  0.290252  1
  O  O43  1  0.180273  0.246193  0.709748  1
  O  O44  1  0.680273  0.253807  0.709748  1
  O  O45  1  0.819727  0.753807  0.290252  1
  O  O46  1  0.070606  0.771884  0.534618  1
  O  O47  1  0.429394  0.271884  0.465382  1
  O  O48  1  0.929394  0.228116  0.465382  1
  O  O49  1  0.570606  0.728116  0.534618  1
  O  O50  1  0.288589  0.096594  0.125108  1
  O  O51  1  0.211411  0.596594  0.874892  1
  O  O52  1  0.711411  0.903406  0.874892  1
  O  O53  1  0.788589  0.403406  0.125108  1
  O  O54  1  0.125166  0.809103  0.045898  1
  O  O55  1  0.374834  0.309103  0.954102  1
  O  O56  1  0.874834  0.190897  0.954102  1
  O  O57  1  0.625166  0.690897  0.045898  1
