# generated using pymatgen
data_U(Al2Cr)4
_symmetry_space_group_name_H-M   'P 1'
_cell_length_a   6.75254939
_cell_length_b   6.75254939
_cell_length_c   6.75254939
_cell_angle_alpha   97.87261370
_cell_angle_beta   97.87261370
_cell_angle_gamma   136.55691801
_symmetry_Int_Tables_number   1
_chemical_formula_structural   U(Al2Cr)4
_chemical_formula_sum   'U1 Al8 Cr4'
_cell_volume   196.68584182
_cell_formula_units_Z   1
loop_
 _symmetry_equiv_pos_site_id
 _symmetry_equiv_pos_as_xyz
  1  'x, y, z'
loop_
 _atom_site_type_symbol
 _atom_site_label
 _atom_site_symmetry_multiplicity
 _atom_site_fract_x
 _atom_site_fract_y
 _atom_site_fract_z
 _atom_site_occupancy
  U  U0  1  0.000000  0.000000  0.000000  1
  Al  Al1  1  1.000000  0.341868  0.341868  1
  Al  Al2  1  0.658132  1.000000  0.658132  1
  Al  Al3  1  0.341868  1.000000  0.341868  1
  Al  Al4  1  1.000000  0.658132  0.658132  1
  Al  Al5  1  0.500000  0.283211  0.783211  1
  Al  Al6  1  0.716789  0.500000  0.216789  1
  Al  Al7  1  0.283211  0.500000  0.783211  1
  Al  Al8  1  0.500000  0.716789  0.216789  1
  Cr  Cr9  1  1.000000  0.500000  1.000000  1
  Cr  Cr10  1  1.000000  1.000000  0.500000  1
  Cr  Cr11  1  0.500000  0.500000  0.500000  1
  Cr  Cr12  1  0.500000  1.000000  1.000000  1
