# generated using pymatgen
data_Ag5(PbO3)2
_symmetry_space_group_name_H-M   'P 1'
_cell_length_a   6.06589668
_cell_length_b   6.06589668
_cell_length_c   6.52927896
_cell_angle_alpha   90.00000000
_cell_angle_beta   90.00000000
_cell_angle_gamma   120.00000000
_symmetry_Int_Tables_number   1
_chemical_formula_structural   Ag5(PbO3)2
_chemical_formula_sum   'Ag5 Pb2 O6'
_cell_volume   208.05869620
_cell_formula_units_Z   1
loop_
 _symmetry_equiv_pos_site_id
 _symmetry_equiv_pos_as_xyz
  1  'x, y, z'
loop_
 _atom_site_type_symbol
 _atom_site_label
 _atom_site_symmetry_multiplicity
 _atom_site_fract_x
 _atom_site_fract_y
 _atom_site_fract_z
 _atom_site_occupancy
  Ag  Ag0  1  0.500865  0.000000  0.521456  1
  Ag  Ag1  1  0.000000  0.000000  0.273776  1
  Ag  Ag2  1  0.499135  0.499135  0.521456  1
  Ag  Ag3  1  0.000000  0.500865  0.521456  1
  Ag  Ag4  1  0.000000  0.000000  0.737707  1
  Pb  Pb5  1  0.333333  0.666667  0.020341  1
  Pb  Pb6  1  0.666667  0.333333  0.020341  1
  O  O7  1  0.000000  0.621832  0.212743  1
  O  O8  1  0.376115  0.000000  0.829079  1
  O  O9  1  0.621832  0.000000  0.212743  1
  O  O10  1  0.378168  0.378168  0.212743  1
  O  O11  1  0.000000  0.376115  0.829079  1
  O  O12  1  0.623885  0.623885  0.829079  1
