# generated using pymatgen
data_Sb2SNF11
_symmetry_space_group_name_H-M   'P 1'
_cell_length_a   8.30907261
_cell_length_b   12.05195472
_cell_length_c   10.47766811
_cell_angle_alpha   90.00000000
_cell_angle_beta   92.58813576
_cell_angle_gamma   90.00000000
_symmetry_Int_Tables_number   1
_chemical_formula_structural   Sb2SNF11
_chemical_formula_sum   'Sb8 S4 N4 F44'
_cell_volume   1048.16933775
_cell_formula_units_Z   4
loop_
 _symmetry_equiv_pos_site_id
 _symmetry_equiv_pos_as_xyz
  1  'x, y, z'
loop_
 _atom_site_type_symbol
 _atom_site_label
 _atom_site_symmetry_multiplicity
 _atom_site_fract_x
 _atom_site_fract_y
 _atom_site_fract_z
 _atom_site_occupancy
  Sb  Sb0  1  0.322165  0.222308  0.041796  1
  Sb  Sb1  1  0.322165  0.277692  0.541796  1
  Sb  Sb2  1  0.677835  0.777692  0.958204  1
  Sb  Sb3  1  0.181186  0.550459  0.726471  1
  Sb  Sb4  1  0.818814  0.449541  0.273529  1
  Sb  Sb5  1  0.181186  0.949541  0.226471  1
  Sb  Sb6  1  0.818814  0.050459  0.773529  1
  Sb  Sb7  1  0.677835  0.722308  0.458204  1
  S  S8  1  0.707757  0.452097  0.761254  1
  S  S9  1  0.292243  0.952097  0.738746  1
  S  S10  1  0.707757  0.047903  0.261254  1
  S  S11  1  0.292243  0.547903  0.238746  1
  N  N12  1  0.748846  0.393426  0.876917  1
  N  N13  1  0.251154  0.893426  0.623083  1
  N  N14  1  0.251154  0.606574  0.123083  1
  N  N15  1  0.748846  0.106574  0.376917  1
  F  F16  1  0.428078  0.174904  0.437909  1
  F  F17  1  0.211922  0.111388  0.161609  1
  F  F18  1  0.631622  0.902019  0.062466  1
  F  F19  1  0.269964  0.331473  0.165965  1
  F  F20  1  0.368378  0.097981  0.937534  1
  F  F21  1  0.116614  0.239095  0.959911  1
  F  F22  1  0.132006  0.016781  0.383348  1
  F  F23  1  0.227909  0.902767  0.059703  1
  F  F24  1  0.485940  0.688218  0.356606  1
  F  F25  1  0.730036  0.668527  0.834035  1
  F  F26  1  0.788078  0.888612  0.838391  1
  F  F27  1  0.730036  0.831473  0.334035  1
  F  F28  1  0.593776  0.454576  0.225888  1
  F  F29  1  0.960003  0.974704  0.169371  1
  F  F30  1  0.867994  0.516781  0.116652  1
  F  F31  1  0.485940  0.811782  0.856606  1
  F  F32  1  0.039997  0.474704  0.330629  1
  F  F33  1  0.148531  0.696554  0.785892  1
  F  F34  1  0.368378  0.402019  0.437534  1
  F  F35  1  0.514060  0.311782  0.643394  1
  F  F36  1  0.406224  0.545424  0.774112  1
  F  F37  1  0.851469  0.303446  0.214108  1
  F  F38  1  0.851469  0.196554  0.714108  1
  F  F39  1  0.960003  0.525296  0.669371  1
  F  F40  1  0.571922  0.674904  0.062091  1
  F  F41  1  0.788078  0.611388  0.338391  1
  F  F42  1  0.593776  0.045424  0.725888  1
  F  F43  1  0.227909  0.597233  0.559703  1
  F  F44  1  0.428078  0.325096  0.937909  1
  F  F45  1  0.269964  0.168527  0.665965  1
  F  F46  1  0.039997  0.025296  0.830629  1
  F  F47  1  0.211922  0.388612  0.661609  1
  F  F48  1  0.772091  0.402767  0.440297  1
  F  F49  1  0.772091  0.097233  0.940297  1
  F  F50  1  0.514060  0.188218  0.143394  1
  F  F51  1  0.867994  0.983219  0.616652  1
  F  F52  1  0.148531  0.803446  0.285892  1
  F  F53  1  0.883386  0.739095  0.540089  1
  F  F54  1  0.116614  0.260905  0.459911  1
  F  F55  1  0.571922  0.825096  0.562091  1
  F  F56  1  0.132006  0.483219  0.883348  1
  F  F57  1  0.631622  0.597981  0.562466  1
  F  F58  1  0.883386  0.760905  0.040089  1
  F  F59  1  0.406224  0.954576  0.274112  1
