# generated using pymatgen
data_NbTe4I
_symmetry_space_group_name_H-M   'P 1'
_cell_length_a   8.16976959
_cell_length_b   16.13728936
_cell_length_c   13.47251365
_cell_angle_alpha   90.00000000
_cell_angle_beta   98.98721943
_cell_angle_gamma   90.00000000
_symmetry_Int_Tables_number   1
_chemical_formula_structural   NbTe4I
_chemical_formula_sum   'Nb8 Te32 I8'
_cell_volume   1754.38250006
_cell_formula_units_Z   8
loop_
 _symmetry_equiv_pos_site_id
 _symmetry_equiv_pos_as_xyz
  1  'x, y, z'
loop_
 _atom_site_type_symbol
 _atom_site_label
 _atom_site_symmetry_multiplicity
 _atom_site_fract_x
 _atom_site_fract_y
 _atom_site_fract_z
 _atom_site_occupancy
  Nb  Nb0  1  0.246240  0.749269  0.495535  1
  Nb  Nb1  1  0.754872  0.244151  0.755628  1
  Nb  Nb2  1  0.245128  0.755849  0.244372  1
  Nb  Nb3  1  0.246240  0.750731  0.995535  1
  Nb  Nb4  1  0.753760  0.249269  0.004465  1
  Nb  Nb5  1  0.753760  0.250731  0.504465  1
  Nb  Nb6  1  0.754872  0.255849  0.255628  1
  Nb  Nb7  1  0.245128  0.744151  0.744372  1
  Te  Te8  1  0.474029  0.219252  0.352793  1
  Te  Te9  1  0.525971  0.780748  0.647207  1
  Te  Te10  1  0.989528  0.167633  0.165096  1
  Te  Te11  1  0.256767  0.890921  0.624531  1
  Te  Te12  1  0.010472  0.667633  0.334904  1
  Te  Te13  1  0.743233  0.109079  0.375469  1
  Te  Te14  1  0.477335  0.664518  0.396880  1
  Te  Te15  1  0.525971  0.719252  0.147207  1
  Te  Te16  1  0.967145  0.790567  0.091257  1
  Te  Te17  1  0.522928  0.340044  0.114048  1
  Te  Te18  1  0.982592  0.342720  0.139913  1
  Te  Te19  1  0.477335  0.835482  0.896880  1
  Te  Te20  1  0.256767  0.609079  0.124531  1
  Te  Te21  1  0.967145  0.709433  0.591257  1
  Te  Te22  1  0.032855  0.290567  0.408743  1
  Te  Te23  1  0.522665  0.164518  0.103120  1
  Te  Te24  1  0.522665  0.335482  0.603120  1
  Te  Te25  1  0.477072  0.840044  0.385952  1
  Te  Te26  1  0.982592  0.157280  0.639913  1
  Te  Te27  1  0.240017  0.899160  0.114647  1
  Te  Te28  1  0.743233  0.390921  0.875469  1
  Te  Te29  1  0.017408  0.842720  0.360087  1
  Te  Te30  1  0.017408  0.657280  0.860087  1
  Te  Te31  1  0.032855  0.209433  0.908743  1
  Te  Te32  1  0.989528  0.332367  0.665096  1
  Te  Te33  1  0.522928  0.159956  0.614048  1
  Te  Te34  1  0.759983  0.100840  0.885353  1
  Te  Te35  1  0.474029  0.280748  0.852793  1
  Te  Te36  1  0.759983  0.399160  0.385353  1
  Te  Te37  1  0.240017  0.600840  0.614647  1
  Te  Te38  1  0.010472  0.832367  0.834904  1
  Te  Te39  1  0.477072  0.659956  0.885952  1
  I  I40  1  0.620037  0.969430  0.143776  1
  I  I41  1  0.125441  0.034662  0.382676  1
  I  I42  1  0.620037  0.530570  0.643776  1
  I  I43  1  0.125441  0.465338  0.882676  1
  I  I44  1  0.379963  0.469430  0.356224  1
  I  I45  1  0.874559  0.534662  0.117324  1
  I  I46  1  0.379963  0.030570  0.856224  1
  I  I47  1  0.874559  0.965338  0.617324  1
