# generated using pymatgen
data_Nb2P
_symmetry_space_group_name_H-M   'P 1'
_cell_length_a   3.46452065
_cell_length_b   13.93145624
_cell_length_c   18.11292553
_cell_angle_alpha   90.00000000
_cell_angle_beta   90.00000000
_cell_angle_gamma   90.00000000
_symmetry_Int_Tables_number   1
_chemical_formula_structural   Nb2P
_chemical_formula_sum   'Nb36 P18'
_cell_volume   874.23516396
_cell_formula_units_Z   18
loop_
 _symmetry_equiv_pos_site_id
 _symmetry_equiv_pos_as_xyz
  1  'x, y, z'
loop_
 _atom_site_type_symbol
 _atom_site_label
 _atom_site_symmetry_multiplicity
 _atom_site_fract_x
 _atom_site_fract_y
 _atom_site_fract_z
 _atom_site_occupancy
  Nb  Nb0  1  0.000000  0.343485  0.062200  1
  Nb  Nb1  1  0.000000  0.656515  0.937800  1
  Nb  Nb2  1  0.000000  0.343485  0.437800  1
  Nb  Nb3  1  0.000000  0.656515  0.562200  1
  Nb  Nb4  1  0.000000  0.569784  0.120695  1
  Nb  Nb5  1  0.000000  0.430216  0.879305  1
  Nb  Nb6  1  0.000000  0.569784  0.379305  1
  Nb  Nb7  1  0.000000  0.430216  0.620695  1
  Nb  Nb8  1  0.500000  0.161879  0.001074  1
  Nb  Nb9  1  0.500000  0.838121  0.998926  1
  Nb  Nb10  1  0.500000  0.161879  0.498926  1
  Nb  Nb11  1  0.500000  0.838121  0.501074  1
  Nb  Nb12  1  0.500000  0.003357  0.141629  1
  Nb  Nb13  1  0.500000  0.996643  0.858371  1
  Nb  Nb14  1  0.500000  0.003357  0.358371  1
  Nb  Nb15  1  0.500000  0.996643  0.641629  1
  Nb  Nb16  1  0.500000  0.240004  0.165349  1
  Nb  Nb17  1  0.500000  0.759996  0.834651  1
  Nb  Nb18  1  0.500000  0.240004  0.334651  1
  Nb  Nb19  1  0.500000  0.759996  0.665349  1
  Nb  Nb20  1  0.500000  0.238515  0.662355  1
  Nb  Nb21  1  0.500000  0.761485  0.337645  1
  Nb  Nb22  1  0.500000  0.238515  0.837645  1
  Nb  Nb23  1  0.500000  0.761485  0.162355  1
  Nb  Nb24  1  0.000000  0.116501  0.250000  1
  Nb  Nb25  1  0.000000  0.883499  0.750000  1
  Nb  Nb26  1  0.000000  0.386005  0.250000  1
  Nb  Nb27  1  0.000000  0.613995  0.750000  1
  Nb  Nb28  1  0.000000  0.888533  0.250000  1
  Nb  Nb29  1  0.000000  0.111467  0.750000  1
  Nb  Nb30  1  0.500000  0.560940  0.250000  1
  Nb  Nb31  1  0.500000  0.439060  0.750000  1
  Nb  Nb32  1  0.500000  0.500000  0.000000  1
  Nb  Nb33  1  0.500000  0.500000  0.500000  1
  Nb  Nb34  1  0.000000  0.000000  0.000000  1
  Nb  Nb35  1  0.000000  0.000000  0.500000  1
  P  P36  1  0.000000  0.136515  0.103761  1
  P  P37  1  0.000000  0.863485  0.896239  1
  P  P38  1  0.000000  0.136515  0.396239  1
  P  P39  1  0.000000  0.863485  0.603761  1
  P  P40  1  0.000000  0.127941  0.604223  1
  P  P41  1  0.000000  0.872059  0.395777  1
  P  P42  1  0.000000  0.127941  0.895777  1
  P  P43  1  0.000000  0.872059  0.104223  1
  P  P44  1  0.500000  0.431532  0.143938  1
  P  P45  1  0.500000  0.568468  0.856062  1
  P  P46  1  0.500000  0.431532  0.356062  1
  P  P47  1  0.500000  0.568468  0.643938  1
  P  P48  1  0.500000  0.329513  0.545267  1
  P  P49  1  0.500000  0.670487  0.454733  1
  P  P50  1  0.500000  0.329513  0.954733  1
  P  P51  1  0.500000  0.670487  0.045267  1
  P  P52  1  0.000000  0.690299  0.250000  1
  P  P53  1  0.000000  0.309701  0.750000  1
