# generated using pymatgen
data_AlS5N5Cl4
_symmetry_space_group_name_H-M   'P 1'
_cell_length_a   9.90376970
_cell_length_b   14.33676027
_cell_length_c   21.48499860
_cell_angle_alpha   90.00000000
_cell_angle_beta   90.00000000
_cell_angle_gamma   90.00000000
_symmetry_Int_Tables_number   1
_chemical_formula_structural   AlS5N5Cl4
_chemical_formula_sum   'Al8 S40 N40 Cl32'
_cell_volume   3050.61137874
_cell_formula_units_Z   8
loop_
 _symmetry_equiv_pos_site_id
 _symmetry_equiv_pos_as_xyz
  1  'x, y, z'
loop_
 _atom_site_type_symbol
 _atom_site_label
 _atom_site_symmetry_multiplicity
 _atom_site_fract_x
 _atom_site_fract_y
 _atom_site_fract_z
 _atom_site_occupancy
  Al  Al0  1  0.944459  0.250000  0.370486  1
  Al  Al1  1  0.055541  0.750000  0.629514  1
  Al  Al2  1  0.444459  0.250000  0.129514  1
  Al  Al3  1  0.466333  0.750000  0.380752  1
  Al  Al4  1  0.966333  0.750000  0.119248  1
  Al  Al5  1  0.033667  0.250000  0.880752  1
  Al  Al6  1  0.555541  0.750000  0.870486  1
  Al  Al7  1  0.533667  0.250000  0.619248  1
  S  S8  1  0.412338  0.394810  0.368710  1
  S  S9  1  0.572047  0.893556  0.046558  1
  S  S10  1  0.912338  0.105190  0.131290  1
  S  S11  1  0.518600  0.101633  0.822072  1
  S  S12  1  0.018600  0.398367  0.677928  1
  S  S13  1  0.072047  0.893556  0.453442  1
  S  S14  1  0.412338  0.105190  0.368710  1
  S  S15  1  0.087662  0.605190  0.868710  1
  S  S16  1  0.199211  0.509799  0.979449  1
  S  S17  1  0.199211  0.990201  0.979449  1
  S  S18  1  0.927953  0.393556  0.546558  1
  S  S19  1  0.699211  0.990201  0.520551  1
  S  S20  1  0.572047  0.606444  0.046558  1
  S  S21  1  0.087662  0.894810  0.868710  1
  S  S22  1  0.794890  0.969294  0.728061  1
  S  S23  1  0.300789  0.490201  0.479449  1
  S  S24  1  0.427953  0.393556  0.953442  1
  S  S25  1  0.427953  0.106444  0.953442  1
  S  S26  1  0.705110  0.030706  0.228061  1
  S  S27  1  0.587662  0.605190  0.631290  1
  S  S28  1  0.018600  0.101633  0.677928  1
  S  S29  1  0.518600  0.398367  0.822072  1
  S  S30  1  0.205110  0.469294  0.271939  1
  S  S31  1  0.981400  0.601633  0.322072  1
  S  S32  1  0.912338  0.394810  0.131290  1
  S  S33  1  0.800789  0.009799  0.020551  1
  S  S34  1  0.481400  0.898367  0.177928  1
  S  S35  1  0.072047  0.606444  0.453442  1
  S  S36  1  0.705110  0.469294  0.228061  1
  S  S37  1  0.981400  0.898367  0.322072  1
  S  S38  1  0.927953  0.106444  0.546558  1
  S  S39  1  0.294890  0.530706  0.771939  1
  S  S40  1  0.587662  0.894810  0.631290  1
  S  S41  1  0.794890  0.530706  0.728061  1
  S  S42  1  0.205110  0.030706  0.271939  1
  S  S43  1  0.800789  0.490201  0.020551  1
  S  S44  1  0.294890  0.969294  0.771939  1
  S  S45  1  0.300789  0.009799  0.479449  1
  S  S46  1  0.481400  0.601633  0.177928  1
  S  S47  1  0.699211  0.509799  0.520551  1
  N  N48  1  0.589439  0.965649  0.205362  1
  N  N49  1  0.313740  0.467177  0.936101  1
  N  N50  1  0.605838  0.573983  0.561169  1
  N  N51  1  0.186770  0.932272  0.818297  1
  N  N52  1  0.514585  0.127042  0.893684  1
  N  N53  1  0.313740  0.032823  0.936101  1
  N  N54  1  0.813740  0.032823  0.563899  1
  N  N55  1  0.186770  0.567728  0.818297  1
  N  N56  1  0.014585  0.127042  0.606316  1
  N  N57  1  0.313230  0.432272  0.318297  1
  N  N58  1  0.605838  0.926017  0.561169  1
  N  N59  1  0.410561  0.034351  0.794638  1
  N  N60  1  0.813740  0.467177  0.563899  1
  N  N61  1  0.089439  0.534351  0.294638  1
  N  N62  1  0.894162  0.426017  0.061169  1
  N  N63  1  0.514585  0.372958  0.893684  1
  N  N64  1  0.910561  0.034351  0.705362  1
  N  N65  1  0.105838  0.573983  0.938831  1
  N  N66  1  0.894162  0.073983  0.061169  1
  N  N67  1  0.394162  0.073983  0.438831  1
  N  N68  1  0.485415  0.872958  0.106316  1
  N  N69  1  0.686260  0.532823  0.063899  1
  N  N70  1  0.910561  0.465649  0.705362  1
  N  N71  1  0.985415  0.627042  0.393684  1
  N  N72  1  0.813230  0.067728  0.181703  1
  N  N73  1  0.186260  0.532823  0.436101  1
  N  N74  1  0.985415  0.872958  0.393684  1
  N  N75  1  0.014585  0.372958  0.606316  1
  N  N76  1  0.589439  0.534351  0.205362  1
  N  N77  1  0.186260  0.967177  0.436101  1
  N  N78  1  0.686770  0.932272  0.681703  1
  N  N79  1  0.313230  0.067728  0.318297  1
  N  N80  1  0.686770  0.567728  0.681703  1
  N  N81  1  0.686260  0.967177  0.063899  1
  N  N82  1  0.813230  0.432272  0.181703  1
  N  N83  1  0.410561  0.465649  0.794638  1
  N  N84  1  0.394162  0.426017  0.438831  1
  N  N85  1  0.485415  0.627042  0.106316  1
  N  N86  1  0.089439  0.965649  0.294638  1
  N  N87  1  0.105838  0.926017  0.938831  1
  Cl  Cl88  1  0.412009  0.126216  0.630595  1
  Cl  Cl89  1  0.805977  0.750000  0.187956  1
  Cl  Cl90  1  0.087991  0.626216  0.130595  1
  Cl  Cl91  1  0.375243  0.750000  0.472275  1
  Cl  Cl92  1  0.875243  0.750000  0.027725  1
  Cl  Cl93  1  0.882112  0.750000  0.568220  1
  Cl  Cl94  1  0.673489  0.874491  0.888222  1
  Cl  Cl95  1  0.826511  0.374491  0.388222  1
  Cl  Cl96  1  0.912009  0.126216  0.869405  1
  Cl  Cl97  1  0.173489  0.625509  0.611778  1
  Cl  Cl98  1  0.587991  0.873784  0.369405  1
  Cl  Cl99  1  0.912009  0.373784  0.869405  1
  Cl  Cl100  1  0.987781  0.750000  0.724955  1
  Cl  Cl101  1  0.382112  0.750000  0.931780  1
  Cl  Cl102  1  0.694023  0.250000  0.687956  1
  Cl  Cl103  1  0.012219  0.250000  0.275045  1
  Cl  Cl104  1  0.412009  0.373784  0.630595  1
  Cl  Cl105  1  0.826511  0.125509  0.388222  1
  Cl  Cl106  1  0.087991  0.873784  0.130595  1
  Cl  Cl107  1  0.624757  0.250000  0.527725  1
  Cl  Cl108  1  0.194023  0.250000  0.812044  1
  Cl  Cl109  1  0.673489  0.625509  0.888222  1
  Cl  Cl110  1  0.117888  0.250000  0.431780  1
  Cl  Cl111  1  0.326511  0.374491  0.111778  1
  Cl  Cl112  1  0.512219  0.250000  0.224955  1
  Cl  Cl113  1  0.124757  0.250000  0.972275  1
  Cl  Cl114  1  0.173489  0.874491  0.611778  1
  Cl  Cl115  1  0.305977  0.750000  0.312044  1
  Cl  Cl116  1  0.326511  0.125509  0.111778  1
  Cl  Cl117  1  0.587991  0.626216  0.369405  1
  Cl  Cl118  1  0.617888  0.250000  0.068220  1
  Cl  Cl119  1  0.487781  0.750000  0.775045  1
