# generated using pymatgen
data_Cs12Nb(In2As3)3
_symmetry_space_group_name_H-M   'P 1'
_cell_length_a   9.74877708
_cell_length_b   9.79464001
_cell_length_c   25.67041325
_cell_angle_alpha   86.83578710
_cell_angle_beta   87.14093834
_cell_angle_gamma   63.54470819
_symmetry_Int_Tables_number   1
_chemical_formula_structural   Cs12Nb(In2As3)3
_chemical_formula_sum   'Cs24 Nb2 In12 As18'
_cell_volume   2190.25654776
_cell_formula_units_Z   2
loop_
 _symmetry_equiv_pos_site_id
 _symmetry_equiv_pos_as_xyz
  1  'x, y, z'
loop_
 _atom_site_type_symbol
 _atom_site_label
 _atom_site_symmetry_multiplicity
 _atom_site_fract_x
 _atom_site_fract_y
 _atom_site_fract_z
 _atom_site_occupancy
  Cs  Cs0  1  0.060447  0.946687  0.307205  1
  Cs  Cs1  1  0.852250  0.391032  0.258831  1
  Cs  Cs2  1  0.665186  0.441957  0.432389  1
  Cs  Cs3  1  0.465405  0.883015  0.383997  1
  Cs  Cs4  1  0.379665  0.789940  0.179027  1
  Cs  Cs5  1  0.201133  0.038825  0.533767  1
  Cs  Cs6  1  0.176072  0.236694  0.132366  1
  Cs  Cs7  1  0.712015  0.867054  0.251014  1
  Cs  Cs8  1  0.475047  0.685365  0.813389  1
  Cs  Cs9  1  0.939553  0.053313  0.692795  1
  Cs  Cs10  1  0.757441  0.304633  0.064612  1
  Cs  Cs11  1  0.287985  0.132946  0.748986  1
  Cs  Cs12  1  0.334814  0.558043  0.567611  1
  Cs  Cs13  1  0.534595  0.116985  0.616003  1
  Cs  Cs14  1  0.462841  0.235093  0.983669  1
  Cs  Cs15  1  0.147750  0.608968  0.741169  1
  Cs  Cs16  1  0.620335  0.210060  0.820973  1
  Cs  Cs17  1  0.000000  0.500000  0.500000  1
  Cs  Cs18  1  0.242559  0.695367  0.935388  1
  Cs  Cs19  1  0.537159  0.764907  0.016331  1
  Cs  Cs20  1  0.798867  0.961175  0.466233  1
  Cs  Cs21  1  0.524953  0.314635  0.186611  1
  Cs  Cs22  1  0.000000  0.500000  0.000000  1
  Cs  Cs23  1  0.823928  0.763306  0.867634  1
  Nb  Nb24  1  0.758063  0.442406  0.612147  1
  Nb  Nb25  1  0.241937  0.557594  0.387853  1
  In  In26  1  0.476146  0.766132  0.665502  1
  In  In27  1  0.175642  0.503540  0.266750  1
  In  In28  1  0.921665  0.119104  0.940912  1
  In  In29  1  0.703039  0.939462  0.104976  1
  In  In30  1  0.523854  0.233868  0.334498  1
  In  In31  1  0.078335  0.880896  0.059088  1
  In  In32  1  0.129028  0.272258  0.376000  1
  In  In33  1  0.870972  0.727742  0.624000  1
  In  In34  1  0.053725  0.658328  0.158758  1
  In  In35  1  0.824358  0.496460  0.733250  1
  In  In36  1  0.946275  0.341672  0.841242  1
  In  In37  1  0.296961  0.060538  0.895024  1
  As  As38  1  0.157986  0.085877  0.003724  1
  As  As39  1  0.790425  0.244738  0.553860  1
  As  As40  1  0.587309  0.443939  0.690645  1
  As  As41  1  0.209575  0.755262  0.446140  1
  As  As42  1  0.366206  0.294003  0.433228  1
  As  As43  1  0.299188  0.180687  0.276961  1
  As  As44  1  0.019474  0.401108  0.643917  1
  As  As45  1  0.717005  0.418071  0.917522  1
  As  As46  1  0.633794  0.705997  0.566772  1
  As  As47  1  0.196154  0.378266  0.864081  1
  As  As48  1  0.049125  0.024034  0.841391  1
  As  As49  1  0.700812  0.819313  0.723039  1
  As  As50  1  0.282995  0.581929  0.082478  1
  As  As51  1  0.842014  0.914123  0.996276  1
  As  As52  1  0.412691  0.556061  0.309355  1
  As  As53  1  0.950875  0.975966  0.158609  1
  As  As54  1  0.980526  0.598892  0.356083  1
  As  As55  1  0.803846  0.621734  0.135919  1
