# generated using pymatgen
data_K6Ti2O7
_symmetry_space_group_name_H-M   'P 1'
_cell_length_a   6.64296786
_cell_length_b   9.38967635
_cell_length_c   11.45604290
_cell_angle_alpha   90.00000000
_cell_angle_beta   123.36794583
_cell_angle_gamma   90.00000000
_symmetry_Int_Tables_number   1
_chemical_formula_structural   K6Ti2O7
_chemical_formula_sum   'K12 Ti4 O14'
_cell_volume   596.78081677
_cell_formula_units_Z   2
loop_
 _symmetry_equiv_pos_site_id
 _symmetry_equiv_pos_as_xyz
  1  'x, y, z'
loop_
 _atom_site_type_symbol
 _atom_site_label
 _atom_site_symmetry_multiplicity
 _atom_site_fract_x
 _atom_site_fract_y
 _atom_site_fract_z
 _atom_site_occupancy
  K  K0  1  0.366389  0.094584  0.793756  1
  K  K1  1  0.366389  0.905416  0.293756  1
  K  K2  1  0.101533  0.221037  0.403069  1
  K  K3  1  0.252638  0.591337  0.425376  1
  K  K4  1  0.252638  0.408663  0.925376  1
  K  K5  1  0.901775  0.457362  0.078624  1
  K  K6  1  0.901775  0.542638  0.578624  1
  K  K7  1  0.101533  0.778963  0.903069  1
  K  K8  1  0.514852  0.725168  0.812926  1
  K  K9  1  0.716755  0.045674  0.637956  1
  K  K10  1  0.716755  0.954326  0.137956  1
  K  K11  1  0.514852  0.274832  0.312926  1
  Ti  Ti12  1  0.001633  0.107212  0.992645  1
  Ti  Ti13  1  0.619463  0.605463  0.225896  1
  Ti  Ti14  1  0.001633  0.892788  0.492645  1
  Ti  Ti15  1  0.619463  0.394537  0.725896  1
  O  O16  1  0.274377  0.924122  0.494986  1
  O  O17  1  0.804684  0.553842  0.781448  1
  O  O18  1  0.547070  0.342982  0.554028  1
  O  O19  1  0.274377  0.075878  0.994986  1
  O  O20  1  0.073058  0.151207  0.165788  1
  O  O21  1  0.804684  0.446158  0.281448  1
  O  O22  1  0.804773  0.952711  0.927925  1
  O  O23  1  0.819239  0.255698  0.863037  1
  O  O24  1  0.819239  0.744302  0.363037  1
  O  O25  1  0.347160  0.421763  0.725341  1
  O  O26  1  0.347160  0.578237  0.225341  1
  O  O27  1  0.547070  0.657018  0.054028  1
  O  O28  1  0.073058  0.848793  0.665788  1
  O  O29  1  0.804773  0.047289  0.427925  1
