# generated using pymatgen
data_CuAu
_symmetry_space_group_name_H-M   'P 1'
_cell_length_a   20.43527938
_cell_length_b   20.43527938
_cell_length_c   20.43527938
_cell_angle_alpha   169.71634698
_cell_angle_beta   168.63658310
_cell_angle_gamma   15.34861225
_symmetry_Int_Tables_number   1
_chemical_formula_structural   CuAu
_chemical_formula_sum   'Cu10 Au10'
_cell_volume   300.15826036
_cell_formula_units_Z   10
loop_
 _symmetry_equiv_pos_site_id
 _symmetry_equiv_pos_as_xyz
  1  'x, y, z'
loop_
 _atom_site_type_symbol
 _atom_site_label
 _atom_site_symmetry_multiplicity
 _atom_site_fract_x
 _atom_site_fract_y
 _atom_site_fract_z
 _atom_site_occupancy
  Cu  Cu0  1  0.976930  0.226930  0.750000  1
  Cu  Cu1  1  0.874832  0.124832  0.750000  1
  Cu  Cu2  1  0.424885  0.174885  0.250000  1
  Cu  Cu3  1  0.675515  0.925515  0.750000  1
  Cu  Cu4  1  0.775094  0.025094  0.750000  1
  Cu  Cu5  1  0.023070  0.773070  0.250000  1
  Cu  Cu6  1  0.125168  0.875168  0.250000  1
  Cu  Cu7  1  0.575115  0.825115  0.750000  1
  Cu  Cu8  1  0.324485  0.074485  0.250000  1
  Cu  Cu9  1  0.224906  0.974906  0.250000  1
  Au  Au10  1  0.526685  0.276685  0.250000  1
  Au  Au11  1  0.924568  0.674568  0.250000  1
  Au  Au12  1  0.625861  0.375861  0.250000  1
  Au  Au13  1  0.374139  0.624139  0.750000  1
  Au  Au14  1  0.725394  0.475394  0.250000  1
  Au  Au15  1  0.274606  0.524606  0.750000  1
  Au  Au16  1  0.075432  0.325432  0.750000  1
  Au  Au17  1  0.824795  0.574795  0.250000  1
  Au  Au18  1  0.175205  0.425205  0.750000  1
  Au  Au19  1  0.473315  0.723315  0.750000  1
