# generated using pymatgen
data_Zr5SiSb3
_symmetry_space_group_name_H-M   'P 1'
_cell_length_a   8.68216351
_cell_length_b   8.68216351
_cell_length_c   5.83687229
_cell_angle_alpha   90.00000000
_cell_angle_beta   90.00000000
_cell_angle_gamma   120.00000000
_symmetry_Int_Tables_number   1
_chemical_formula_structural   Zr5SiSb3
_chemical_formula_sum   'Zr10 Si2 Sb6'
_cell_volume   381.03664476
_cell_formula_units_Z   2
loop_
 _symmetry_equiv_pos_site_id
 _symmetry_equiv_pos_as_xyz
  1  'x, y, z'
loop_
 _atom_site_type_symbol
 _atom_site_label
 _atom_site_symmetry_multiplicity
 _atom_site_fract_x
 _atom_site_fract_y
 _atom_site_fract_z
 _atom_site_occupancy
  Zr  Zr0  1  0.260369  0.000000  0.250000  1
  Zr  Zr1  1  0.260369  0.260369  0.750000  1
  Zr  Zr2  1  0.000000  0.739631  0.750000  1
  Zr  Zr3  1  0.000000  0.260369  0.250000  1
  Zr  Zr4  1  0.739631  0.739631  0.250000  1
  Zr  Zr5  1  0.739631  0.000000  0.750000  1
  Zr  Zr6  1  0.333333  0.666667  0.000000  1
  Zr  Zr7  1  0.666667  0.333333  0.500000  1
  Zr  Zr8  1  0.666667  0.333333  0.000000  1
  Zr  Zr9  1  0.333333  0.666667  0.500000  1
  Si  Si10  1  0.000000  0.000000  0.000000  1
  Si  Si11  1  0.000000  0.000000  0.500000  1
  Sb  Sb12  1  0.604910  0.000000  0.250000  1
  Sb  Sb13  1  0.604910  0.604910  0.750000  1
  Sb  Sb14  1  0.000000  0.395090  0.750000  1
  Sb  Sb15  1  0.000000  0.604910  0.250000  1
  Sb  Sb16  1  0.395090  0.395090  0.250000  1
  Sb  Sb17  1  0.395090  0.000000  0.750000  1
