# generated using pymatgen
data_Ba3La2C5O15F2
_symmetry_space_group_name_H-M   'P 1'
_cell_length_a   11.15740573
_cell_length_b   11.15740573
_cell_length_c   13.45679944
_cell_angle_alpha   85.33717913
_cell_angle_beta   94.66282087
_cell_angle_gamma   153.24166466
_symmetry_Int_Tables_number   1
_chemical_formula_structural   Ba3La2C5O15F2
_chemical_formula_sum   'Ba6 La4 C10 O30 F4'
_cell_volume   751.58755836
_cell_formula_units_Z   2
loop_
 _symmetry_equiv_pos_site_id
 _symmetry_equiv_pos_as_xyz
  1  'x, y, z'
loop_
 _atom_site_type_symbol
 _atom_site_label
 _atom_site_symmetry_multiplicity
 _atom_site_fract_x
 _atom_site_fract_y
 _atom_site_fract_z
 _atom_site_occupancy
  Ba  Ba0  1  0.686291  0.313709  0.095354  1
  Ba  Ba1  1  0.000000  0.000000  0.000000  1
  Ba  Ba2  1  0.313709  0.686291  0.904646  1
  Ba  Ba3  1  0.192447  0.807553  0.600013  1
  Ba  Ba4  1  0.807553  0.192447  0.399987  1
  Ba  Ba5  1  0.500000  0.500000  0.500000  1
  La  La6  1  0.105607  0.894393  0.288151  1
  La  La7  1  0.894393  0.105607  0.711849  1
  La  La8  1  0.600036  0.399964  0.814937  1
  La  La9  1  0.399964  0.600036  0.185063  1
  C  C10  1  0.541480  0.458520  0.199894  1
  C  C11  1  0.048175  0.951825  0.646226  1
  C  C12  1  0.246379  0.753621  0.275169  1
  C  C13  1  0.650338  0.349662  0.460082  1
  C  C14  1  0.951825  0.048175  0.353774  1
  C  C15  1  0.458520  0.541480  0.800106  1
  C  C16  1  0.349662  0.650338  0.539918  1
  C  C17  1  0.160914  0.839086  0.902918  1
  C  C18  1  0.839086  0.160914  0.097082  1
  C  C19  1  0.753621  0.246379  0.724831  1
  O  O20  1  0.568079  0.999383  0.724845  1
  O  O21  1  0.294420  0.705580  0.496571  1
  O  O22  1  0.431921  0.000617  0.275155  1
  O  O23  1  0.990288  0.009712  0.613987  1
  O  O24  1  0.897214  0.102786  0.131323  1
  O  O25  1  0.269618  0.294756  0.813867  1
  O  O26  1  0.400583  0.599417  0.766455  1
  O  O27  1  0.295822  0.140338  0.658893  1
  O  O28  1  0.705244  0.730382  0.813867  1
  O  O29  1  0.859662  0.704178  0.658893  1
  O  O30  1  0.403680  0.160916  0.441082  1
  O  O31  1  0.999383  0.568079  0.275155  1
  O  O32  1  0.704178  0.859662  0.341107  1
  O  O33  1  0.596320  0.839084  0.558918  1
  O  O34  1  0.102786  0.897214  0.868677  1
  O  O35  1  0.029588  0.408345  0.083156  1
  O  O36  1  0.730382  0.705244  0.186133  1
  O  O37  1  0.970412  0.591655  0.916844  1
  O  O38  1  0.160916  0.403680  0.558918  1
  O  O39  1  0.009712  0.990288  0.386013  1
  O  O40  1  0.306059  0.693941  0.279821  1
  O  O41  1  0.294756  0.269618  0.186133  1
  O  O42  1  0.599417  0.400583  0.233545  1
  O  O43  1  0.705580  0.294420  0.503429  1
  O  O44  1  0.140338  0.295822  0.341107  1
  O  O45  1  0.000617  0.431921  0.724845  1
  O  O46  1  0.408345  0.029588  0.916844  1
  O  O47  1  0.839084  0.596320  0.441082  1
  O  O48  1  0.693941  0.306059  0.720179  1
  O  O49  1  0.591655  0.970412  0.083156  1
  F  F50  1  0.573626  0.426374  0.983357  1
  F  F51  1  0.125336  0.874664  0.114567  1
  F  F52  1  0.426374  0.573626  0.016643  1
  F  F53  1  0.874664  0.125336  0.885433  1
