# generated using pymatgen
data_SiP3RuO11
_symmetry_space_group_name_H-M   'P 1'
_cell_length_a   14.15646492
_cell_length_b   14.15646492
_cell_length_c   14.15646492
_cell_angle_alpha   34.51751730
_cell_angle_beta   34.51751730
_cell_angle_gamma   34.51751730
_symmetry_Int_Tables_number   1
_chemical_formula_structural   SiP3RuO11
_chemical_formula_sum   'Si4 P12 Ru4 O44'
_cell_volume   812.72647632
_cell_formula_units_Z   4
loop_
 _symmetry_equiv_pos_site_id
 _symmetry_equiv_pos_as_xyz
  1  'x, y, z'
loop_
 _atom_site_type_symbol
 _atom_site_label
 _atom_site_symmetry_multiplicity
 _atom_site_fract_x
 _atom_site_fract_y
 _atom_site_fract_z
 _atom_site_occupancy
  Si  Si0  1  0.460236  0.460236  0.460236  1
  Si  Si1  1  0.960236  0.960236  0.960236  1
  Si  Si2  1  0.039764  0.039764  0.039764  1
  Si  Si3  1  0.539764  0.539764  0.539764  1
  P  P4  1  0.009575  0.418555  0.712277  1
  P  P5  1  0.081445  0.490425  0.787723  1
  P  P6  1  0.581445  0.287723  0.990425  1
  P  P7  1  0.990425  0.581445  0.287723  1
  P  P8  1  0.287723  0.990425  0.581445  1
  P  P9  1  0.918555  0.509575  0.212277  1
  P  P10  1  0.212277  0.918555  0.509575  1
  P  P11  1  0.418555  0.712277  0.009575  1
  P  P12  1  0.787723  0.081445  0.490425  1
  P  P13  1  0.712277  0.009575  0.418555  1
  P  P14  1  0.509575  0.212277  0.918555  1
  P  P15  1  0.490425  0.787723  0.081445  1
  Ru  Ru16  1  0.158893  0.158893  0.158893  1
  Ru  Ru17  1  0.341107  0.341107  0.341107  1
  Ru  Ru18  1  0.658893  0.658893  0.658893  1
  Ru  Ru19  1  0.841107  0.841107  0.841107  1
  O  O20  1  0.955829  0.651765  0.011314  1
  O  O21  1  0.718980  0.039730  0.674011  1
  O  O22  1  0.281020  0.960270  0.325989  1
  O  O23  1  0.462255  0.250000  0.037745  1
  O  O24  1  0.902452  0.789371  0.149287  1
  O  O25  1  0.011314  0.955829  0.651765  1
  O  O26  1  0.039730  0.674011  0.718980  1
  O  O27  1  0.174011  0.539730  0.218980  1
  O  O28  1  0.289371  0.402452  0.649287  1
  O  O29  1  0.988686  0.044171  0.348235  1
  O  O30  1  0.750000  0.962255  0.537745  1
  O  O31  1  0.325989  0.281020  0.960270  1
  O  O32  1  0.544171  0.488686  0.848235  1
  O  O33  1  0.674011  0.718980  0.039730  1
  O  O34  1  0.151765  0.455829  0.511314  1
  O  O35  1  0.850713  0.097548  0.210629  1
  O  O36  1  0.350713  0.710629  0.597548  1
  O  O37  1  0.250000  0.037745  0.462255  1
  O  O38  1  0.037745  0.462255  0.250000  1
  O  O39  1  0.539730  0.218980  0.174011  1
  O  O40  1  0.537745  0.750000  0.962255  1
  O  O41  1  0.455829  0.511314  0.151765  1
  O  O42  1  0.488686  0.848235  0.544171  1
  O  O43  1  0.149287  0.902452  0.789371  1
  O  O44  1  0.960270  0.325989  0.281020  1
  O  O45  1  0.348235  0.988686  0.044171  1
  O  O46  1  0.000000  0.000000  0.000000  1
  O  O47  1  0.597548  0.350713  0.710629  1
  O  O48  1  0.781020  0.825989  0.460270  1
  O  O49  1  0.710629  0.597548  0.350713  1
  O  O50  1  0.044171  0.348235  0.988686  1
  O  O51  1  0.460270  0.781020  0.825989  1
  O  O52  1  0.789371  0.149287  0.902452  1
  O  O53  1  0.402452  0.649287  0.289371  1
  O  O54  1  0.210629  0.850713  0.097548  1
  O  O55  1  0.848235  0.544171  0.488686  1
  O  O56  1  0.962255  0.537745  0.750000  1
  O  O57  1  0.825989  0.460270  0.781020  1
  O  O58  1  0.218980  0.174011  0.539730  1
  O  O59  1  0.649287  0.289371  0.402452  1
  O  O60  1  0.651765  0.011314  0.955829  1
  O  O61  1  0.097548  0.210629  0.850713  1
  O  O62  1  0.511314  0.151765  0.455829  1
  O  O63  1  0.500000  0.500000  0.500000  1
