# generated using pymatgen
data_Zr(FeSi)2
_symmetry_space_group_name_H-M   'P 1'
_cell_length_a   5.40438741
_cell_length_b   5.40438741
_cell_length_c   5.40438741
_cell_angle_alpha   138.25724971
_cell_angle_beta   138.25724971
_cell_angle_gamma   60.50923638
_symmetry_Int_Tables_number   1
_chemical_formula_structural   Zr(FeSi)2
_chemical_formula_sum   'Zr1 Fe2 Si2'
_cell_volume   69.22636819
_cell_formula_units_Z   1
loop_
 _symmetry_equiv_pos_site_id
 _symmetry_equiv_pos_as_xyz
  1  'x, y, z'
loop_
 _atom_site_type_symbol
 _atom_site_label
 _atom_site_symmetry_multiplicity
 _atom_site_fract_x
 _atom_site_fract_y
 _atom_site_fract_z
 _atom_site_occupancy
  Zr  Zr0  1  0.000000  0.000000  0.000000  1
  Fe  Fe1  1  0.750000  0.250000  0.500000  1
  Fe  Fe2  1  0.250000  0.750000  0.500000  1
  Si  Si3  1  0.371572  0.371572  0.000000  1
  Si  Si4  1  0.628428  0.628428  0.000000  1
