# generated using pymatgen
data_Nd2Fe23B3
_symmetry_space_group_name_H-M   'P 1'
_cell_length_a   12.19019113
_cell_length_b   12.19019113
_cell_length_c   12.19019113
_cell_angle_alpha   109.47122063
_cell_angle_beta   109.47122063
_cell_angle_gamma   109.47122063
_symmetry_Int_Tables_number   1
_chemical_formula_structural   Nd2Fe23B3
_chemical_formula_sum   'Nd8 Fe92 B12'
_cell_volume   1394.47153685
_cell_formula_units_Z   4
loop_
 _symmetry_equiv_pos_site_id
 _symmetry_equiv_pos_as_xyz
  1  'x, y, z'
loop_
 _atom_site_type_symbol
 _atom_site_label
 _atom_site_symmetry_multiplicity
 _atom_site_fract_x
 _atom_site_fract_y
 _atom_site_fract_z
 _atom_site_occupancy
  Nd  Nd0  1  0.500000  0.000000  0.384904  1
  Nd  Nd1  1  0.615096  0.615096  0.615096  1
  Nd  Nd2  1  0.500000  1.000000  0.884904  1
  Nd  Nd3  1  0.884904  0.500000  0.000000  1
  Nd  Nd4  1  0.000000  0.884904  0.500000  1
  Nd  Nd5  1  0.384904  0.500000  0.000000  1
  Nd  Nd6  1  0.000000  0.384904  0.500000  1
  Nd  Nd7  1  0.115096  0.115096  0.115096  1
  Fe  Fe8  1  0.444213  0.748760  0.938814  1
  Fe  Fe9  1  0.251240  0.690055  0.695453  1
  Fe  Fe10  1  0.830105  0.580105  0.250000  1
  Fe  Fe11  1  0.137142  0.500000  0.000000  1
  Fe  Fe12  1  0.804547  0.494602  0.555787  1
  Fe  Fe13  1  0.676895  0.953323  0.096152  1
  Fe  Fe14  1  0.000000  0.137142  0.500000  1
  Fe  Fe15  1  0.061186  0.005398  0.809945  1
  Fe  Fe16  1  0.919257  0.276428  0.823105  1
  Fe  Fe17  1  0.191343  0.567253  0.829591  1
  Fe  Fe18  1  0.096152  0.676895  0.953323  1
  Fe  Fe19  1  0.750000  0.080105  0.330105  1
  Fe  Fe20  1  0.330105  0.750000  0.080105  1
  Fe  Fe21  1  0.000000  0.637142  0.500000  1
  Fe  Fe22  1  0.808657  0.875910  0.638248  1
  Fe  Fe23  1  0.567253  0.829591  0.191343  1
  Fe  Fe24  1  0.875910  0.638248  0.808657  1
  Fe  Fe25  1  0.375910  0.308657  0.138248  1
  Fe  Fe26  1  0.748760  0.938814  0.444213  1
  Fe  Fe27  1  0.723572  0.046677  0.642829  1
  Fe  Fe28  1  0.250000  0.830105  0.580105  1
  Fe  Fe29  1  0.362858  0.362858  0.362858  1
  Fe  Fe30  1  0.555787  0.804547  0.494602  1
  Fe  Fe31  1  0.323105  0.776428  0.419257  1
  Fe  Fe32  1  0.857171  0.903848  0.080743  1
  Fe  Fe33  1  0.624090  0.432747  0.762337  1
  Fe  Fe34  1  0.637142  0.500000  0.000000  1
  Fe  Fe35  1  0.690055  0.695453  0.251240  1
  Fe  Fe36  1  0.248760  0.944213  0.438814  1
  Fe  Fe37  1  0.169895  0.250000  0.419895  1
  Fe  Fe38  1  0.124090  0.262337  0.932747  1
  Fe  Fe39  1  0.494602  0.555787  0.804547  1
  Fe  Fe40  1  0.751240  0.195453  0.190055  1
  Fe  Fe41  1  0.438814  0.248760  0.944213  1
  Fe  Fe42  1  0.829591  0.191343  0.567253  1
  Fe  Fe43  1  0.903848  0.080743  0.857171  1
  Fe  Fe44  1  0.862858  0.862858  0.862858  1
  Fe  Fe45  1  0.546677  0.223572  0.142829  1
  Fe  Fe46  1  0.237663  0.361752  0.670409  1
  Fe  Fe47  1  0.419257  0.323105  0.776428  1
  Fe  Fe48  1  0.695453  0.251240  0.690055  1
  Fe  Fe49  1  0.861752  0.737663  0.170409  1
  Fe  Fe50  1  0.453323  0.176895  0.596152  1
  Fe  Fe51  1  0.304547  0.055787  0.994602  1
  Fe  Fe52  1  0.067253  0.691343  0.329591  1
  Fe  Fe53  1  0.944213  0.438814  0.248760  1
  Fe  Fe54  1  0.190055  0.751240  0.195453  1
  Fe  Fe55  1  0.596152  0.453323  0.176895  1
  Fe  Fe56  1  0.500000  0.000000  0.137142  1
  Fe  Fe57  1  0.953323  0.096152  0.676895  1
  Fe  Fe58  1  0.419895  0.169895  0.250000  1
  Fe  Fe59  1  0.919895  0.750000  0.669895  1
  Fe  Fe60  1  0.080743  0.857171  0.903848  1
  Fe  Fe61  1  0.638248  0.808657  0.875910  1
  Fe  Fe62  1  0.580105  0.250000  0.830105  1
  Fe  Fe63  1  0.932747  0.124090  0.262337  1
  Fe  Fe64  1  0.750000  0.669895  0.919895  1
  Fe  Fe65  1  0.561186  0.309945  0.505398  1
  Fe  Fe66  1  0.142829  0.546677  0.223572  1
  Fe  Fe67  1  0.223572  0.142829  0.546677  1
  Fe  Fe68  1  0.309945  0.505398  0.561186  1
  Fe  Fe69  1  0.762337  0.624090  0.432747  1
  Fe  Fe70  1  0.505398  0.561186  0.309945  1
  Fe  Fe71  1  0.176895  0.596152  0.453323  1
  Fe  Fe72  1  0.357171  0.580743  0.403848  1
  Fe  Fe73  1  0.809945  0.061186  0.005398  1
  Fe  Fe74  1  0.195453  0.190055  0.751240  1
  Fe  Fe75  1  0.080105  0.330105  0.750000  1
  Fe  Fe76  1  0.670409  0.237663  0.361752  1
  Fe  Fe77  1  0.823105  0.919257  0.276428  1
  Fe  Fe78  1  0.308657  0.138248  0.375910  1
  Fe  Fe79  1  0.005398  0.809945  0.061186  1
  Fe  Fe80  1  0.669895  0.919895  0.750000  1
  Fe  Fe81  1  0.055787  0.994602  0.304547  1
  Fe  Fe82  1  0.580743  0.403848  0.357171  1
  Fe  Fe83  1  0.138248  0.375910  0.308657  1
  Fe  Fe84  1  0.737663  0.170409  0.861752  1
  Fe  Fe85  1  0.276428  0.823105  0.919257  1
  Fe  Fe86  1  0.938814  0.444213  0.748760  1
  Fe  Fe87  1  0.500000  1.000000  0.637142  1
  Fe  Fe88  1  0.329591  0.067253  0.691343  1
  Fe  Fe89  1  0.170409  0.861752  0.737663  1
  Fe  Fe90  1  0.046677  0.642829  0.723572  1
  Fe  Fe91  1  0.432747  0.762337  0.624090  1
  Fe  Fe92  1  0.361752  0.670409  0.237663  1
  Fe  Fe93  1  0.403848  0.357171  0.580743  1
  Fe  Fe94  1  0.776428  0.419257  0.323105  1
  Fe  Fe95  1  0.994602  0.304547  0.055787  1
  Fe  Fe96  1  0.262337  0.932747  0.124090  1
  Fe  Fe97  1  0.691343  0.329591  0.067253  1
  Fe  Fe98  1  0.642829  0.723572  0.046677  1
  Fe  Fe99  1  0.250000  0.419895  0.169895  1
  B  B100  1  0.186959  0.936959  0.250000  1
  B  B101  1  0.063041  0.813041  0.250000  1
  B  B102  1  0.313041  0.563041  0.750000  1
  B  B103  1  0.750000  0.313041  0.563041  1
  B  B104  1  0.436959  0.686959  0.750000  1
  B  B105  1  0.686959  0.750000  0.436959  1
  B  B106  1  0.563041  0.750000  0.313041  1
  B  B107  1  0.250000  0.063041  0.813041  1
  B  B108  1  0.250000  0.186959  0.936959  1
  B  B109  1  0.750000  0.436959  0.686959  1
  B  B110  1  0.936959  0.250000  0.186959  1
  B  B111  1  0.813041  0.250000  0.063041  1
