# generated using pymatgen
data_Er2Ni12As7
_symmetry_space_group_name_H-M   'P 1'
_cell_length_a   9.33925930
_cell_length_b   9.33925930
_cell_length_c   3.81687008
_cell_angle_alpha   90.00000000
_cell_angle_beta   90.00000000
_cell_angle_gamma   120.00000000
_symmetry_Int_Tables_number   1
_chemical_formula_structural   Er2Ni12As7
_chemical_formula_sum   'Er2 Ni12 As7'
_cell_volume   288.31210457
_cell_formula_units_Z   1
loop_
 _symmetry_equiv_pos_site_id
 _symmetry_equiv_pos_as_xyz
  1  'x, y, z'
loop_
 _atom_site_type_symbol
 _atom_site_label
 _atom_site_symmetry_multiplicity
 _atom_site_fract_x
 _atom_site_fract_y
 _atom_site_fract_z
 _atom_site_occupancy
  Er  Er0  1  0.666667  0.333333  0.500000  1
  Er  Er1  1  0.333333  0.666667  0.000000  1
  Ni  Ni2  1  0.437995  0.055946  0.000000  1
  Ni  Ni3  1  0.617951  0.562005  0.000000  1
  Ni  Ni4  1  0.944054  0.382049  0.000000  1
  Ni  Ni5  1  0.153124  0.280386  0.000000  1
  Ni  Ni6  1  0.127261  0.846876  0.000000  1
  Ni  Ni7  1  0.719614  0.872739  0.000000  1
  Ni  Ni8  1  0.379255  0.426680  0.500000  1
  Ni  Ni9  1  0.047425  0.620745  0.500000  1
  Ni  Ni10  1  0.573320  0.952575  0.500000  1
  Ni  Ni11  1  0.211786  0.095633  0.500000  1
  Ni  Ni12  1  0.883847  0.788214  0.500000  1
  Ni  Ni13  1  0.904367  0.116153  0.500000  1
  As  As14  1  0.000000  0.000000  0.000000  1
  As  As15  1  0.405202  0.286316  0.000000  1
  As  As16  1  0.881114  0.594798  0.000000  1
  As  As17  1  0.713684  0.118886  0.000000  1
  As  As18  1  0.111364  0.407766  0.500000  1
  As  As19  1  0.296402  0.888636  0.500000  1
  As  As20  1  0.592234  0.703598  0.500000  1
