# generated using pymatgen
data_TmMnO3
_symmetry_space_group_name_H-M   'P 1'
_cell_length_a   6.14426110
_cell_length_b   6.14426110
_cell_length_c   11.48985129
_cell_angle_alpha   90.00000000
_cell_angle_beta   90.00000000
_cell_angle_gamma   120.00000000
_symmetry_Int_Tables_number   1
_chemical_formula_structural   TmMnO3
_chemical_formula_sum   'Tm6 Mn6 O18'
_cell_volume   375.65084098
_cell_formula_units_Z   6
loop_
 _symmetry_equiv_pos_site_id
 _symmetry_equiv_pos_as_xyz
  1  'x, y, z'
loop_
 _atom_site_type_symbol
 _atom_site_label
 _atom_site_symmetry_multiplicity
 _atom_site_fract_x
 _atom_site_fract_y
 _atom_site_fract_z
 _atom_site_occupancy
  Tm  Tm0  1  0.666667  0.333333  0.728014  1
  Tm  Tm1  1  0.000000  0.000000  0.771913  1
  Tm  Tm2  1  0.333333  0.666667  0.228014  1
  Tm  Tm3  1  0.666667  0.333333  0.228014  1
  Tm  Tm4  1  0.000000  0.000000  0.271913  1
  Tm  Tm5  1  0.333333  0.666667  0.728014  1
  Mn  Mn6  1  0.666622  0.666622  0.997194  1
  Mn  Mn7  1  0.000000  0.333378  0.997194  1
  Mn  Mn8  1  0.000000  0.666622  0.497194  1
  Mn  Mn9  1  0.333378  0.000000  0.997194  1
  Mn  Mn10  1  0.666622  0.000000  0.497194  1
  Mn  Mn11  1  0.333378  0.333378  0.497194  1
  O  O12  1  0.666667  0.333333  0.519377  1
  O  O13  1  0.640025  0.640025  0.831484  1
  O  O14  1  0.359975  0.000000  0.831484  1
  O  O15  1  0.693602  0.000000  0.663081  1
  O  O16  1  0.000000  0.359975  0.831484  1
  O  O17  1  0.333333  0.666667  0.519377  1
  O  O18  1  0.000000  0.306398  0.163081  1
  O  O19  1  0.359975  0.359975  0.331484  1
  O  O20  1  0.000000  0.640025  0.331484  1
  O  O21  1  0.306398  0.306398  0.663081  1
  O  O22  1  0.693602  0.693602  0.163081  1
  O  O23  1  0.000000  0.000000  0.971025  1
  O  O24  1  0.306398  0.000000  0.163081  1
  O  O25  1  0.333333  0.666667  0.019377  1
  O  O26  1  0.000000  0.693602  0.663081  1
  O  O27  1  0.640025  0.000000  0.331484  1
  O  O28  1  0.000000  0.000000  0.471025  1
  O  O29  1  0.666667  0.333333  0.019377  1
