# generated using pymatgen
data_TiNi
_symmetry_space_group_name_H-M   'P 1'
_cell_length_a   7.24821373
_cell_length_b   7.24821373
_cell_length_c   5.39742001
_cell_angle_alpha   90.00000000
_cell_angle_beta   90.00000000
_cell_angle_gamma   120.00000000
_symmetry_Int_Tables_number   1
_chemical_formula_structural   TiNi
_chemical_formula_sum   'Ti9 Ni9'
_cell_volume   245.57198895
_cell_formula_units_Z   9
loop_
 _symmetry_equiv_pos_site_id
 _symmetry_equiv_pos_as_xyz
  1  'x, y, z'
loop_
 _atom_site_type_symbol
 _atom_site_label
 _atom_site_symmetry_multiplicity
 _atom_site_fract_x
 _atom_site_fract_y
 _atom_site_fract_z
 _atom_site_occupancy
  Ti  Ti0  1  0.333333  0.666667  0.018093  1
  Ti  Ti1  1  0.000000  0.000000  0.935742  1
  Ti  Ti2  1  0.666667  0.333333  0.018093  1
  Ti  Ti3  1  0.685481  0.685481  0.635481  1
  Ti  Ti4  1  0.314519  0.000000  0.635481  1
  Ti  Ti5  1  0.000000  0.314519  0.635481  1
  Ti  Ti6  1  0.000000  0.654730  0.333045  1
  Ti  Ti7  1  0.345270  0.345270  0.333045  1
  Ti  Ti8  1  0.654730  0.000000  0.333045  1
  Ni  Ni9  1  0.333333  0.666667  0.558010  1
  Ni  Ni10  1  0.000000  0.000000  0.384442  1
  Ni  Ni11  1  0.666667  0.333333  0.558010  1
  Ni  Ni12  1  0.688060  0.688060  0.119164  1
  Ni  Ni13  1  0.311940  0.000000  0.119164  1
  Ni  Ni14  1  0.000000  0.311940  0.119164  1
  Ni  Ni15  1  0.000000  0.640884  0.840638  1
  Ni  Ni16  1  0.359116  0.359116  0.840638  1
  Ni  Ni17  1  0.640884  0.000000  0.840638  1
