# generated using pymatgen
data_YZr5Si5PO24
_symmetry_space_group_name_H-M   'P 1'
_cell_length_a   5.64987788
_cell_length_b   5.64987788
_cell_length_c   28.77259178
_cell_angle_alpha   90.00000000
_cell_angle_beta   90.00000000
_cell_angle_gamma   115.60064346
_symmetry_Int_Tables_number   1
_chemical_formula_structural   YZr5Si5PO24
_chemical_formula_sum   'Y2 Zr10 Si10 P2 O48'
_cell_volume   828.28665408
_cell_formula_units_Z   2
loop_
 _symmetry_equiv_pos_site_id
 _symmetry_equiv_pos_as_xyz
  1  'x, y, z'
loop_
 _atom_site_type_symbol
 _atom_site_label
 _atom_site_symmetry_multiplicity
 _atom_site_fract_x
 _atom_site_fract_y
 _atom_site_fract_z
 _atom_site_occupancy
  Y  Y0  1  1.000000  0.500000  0.585893  1
  Y  Y1  1  0.500000  1.000000  0.414107  1
  Zr  Zr2  1  0.500000  0.500000  0.500000  1
  Zr  Zr3  1  0.000000  0.000000  0.328557  1
  Zr  Zr4  1  0.500000  0.500000  0.164686  1
  Zr  Zr5  1  0.000000  0.000000  0.000000  1
  Zr  Zr6  1  0.500000  0.500000  0.835314  1
  Zr  Zr7  1  0.000000  0.000000  0.671443  1
  Zr  Zr8  1  1.000000  0.500000  0.246601  1
  Zr  Zr9  1  0.500000  1.000000  0.082327  1
  Zr  Zr10  1  0.000000  0.500000  0.917673  1
  Zr  Zr11  1  0.500000  1.000000  0.753399  1
  Si  Si12  1  0.000000  0.000000  0.500000  1
  Si  Si13  1  0.500000  1.000000  0.247262  1
  Si  Si14  1  0.500000  0.500000  0.328465  1
  Si  Si15  1  1.000000  0.500000  0.082439  1
  Si  Si16  1  0.000000  0.000000  0.164522  1
  Si  Si17  1  0.500000  1.000000  0.917561  1
  Si  Si18  1  0.500000  0.500000  0.000000  1
  Si  Si19  1  0.000000  0.500000  0.752738  1
  Si  Si20  1  0.000000  0.000000  0.835478  1
  Si  Si21  1  0.500000  0.500000  0.671535  1
  P  P22  1  0.500000  1.000000  0.585072  1
  P  P23  1  0.000000  0.500000  0.414928  1
  O  O24  1  0.251755  0.931611  0.615258  1
  O  O25  1  0.569710  0.249592  0.554971  1
  O  O26  1  0.430290  0.750408  0.554971  1
  O  O27  1  0.750408  0.430290  0.445029  1
  O  O28  1  0.748245  0.068389  0.615258  1
  O  O29  1  0.068389  0.748245  0.384742  1
  O  O30  1  0.724757  0.902685  0.470285  1
  O  O31  1  0.931611  0.251755  0.384742  1
  O  O32  1  0.227708  0.911163  0.277421  1
  O  O33  1  0.097315  0.275243  0.529715  1
  O  O34  1  0.249592  0.569710  0.445029  1
  O  O35  1  0.902685  0.724757  0.529715  1
  O  O36  1  0.588181  0.270573  0.216976  1
  O  O37  1  0.227208  0.414010  0.298307  1
  O  O38  1  0.411819  0.729427  0.216976  1
  O  O39  1  0.728580  0.410974  0.112647  1
  O  O40  1  0.275243  0.097315  0.470285  1
  O  O41  1  0.599917  0.773512  0.358061  1
  O  O42  1  0.772292  0.088837  0.277421  1
  O  O43  1  0.400083  0.226488  0.358061  1
  O  O44  1  0.088897  0.771491  0.052250  1
  O  O45  1  0.728226  0.910850  0.134479  1
  O  O46  1  0.911103  0.228509  0.052250  1
  O  O47  1  0.228509  0.911103  0.947750  1
  O  O48  1  0.772792  0.585990  0.298307  1
  O  O49  1  0.088813  0.271104  0.194747  1
  O  O50  1  0.271420  0.589026  0.112647  1
  O  O51  1  0.911187  0.728896  0.194747  1
  O  O52  1  0.589026  0.271420  0.887353  1
  O  O53  1  0.228492  0.411007  0.969820  1
  O  O54  1  0.410974  0.728580  0.887353  1
  O  O55  1  0.729427  0.411819  0.783024  1
  O  O56  1  0.271774  0.089150  0.134479  1
  O  O57  1  0.588993  0.771508  0.030180  1
  O  O58  1  0.771491  0.088897  0.947750  1
  O  O59  1  0.411007  0.228492  0.030180  1
  O  O60  1  0.088837  0.772292  0.722579  1
  O  O61  1  0.728896  0.911187  0.805253  1
  O  O62  1  0.911163  0.227708  0.722579  1
  O  O63  1  0.771508  0.588993  0.969820  1
  O  O64  1  0.089150  0.271774  0.865521  1
  O  O65  1  0.270573  0.588181  0.783024  1
  O  O66  1  0.910850  0.728226  0.865521  1
  O  O67  1  0.226488  0.400083  0.641939  1
  O  O68  1  0.271104  0.088813  0.805253  1
  O  O69  1  0.585990  0.772792  0.701693  1
  O  O70  1  0.414010  0.227208  0.701693  1
  O  O71  1  0.773512  0.599917  0.641939  1
