# generated using pymatgen
data_Na2MoSeO6
_symmetry_space_group_name_H-M   'P 1'
_cell_length_a   8.48309460
_cell_length_b   8.48309460
_cell_length_c   8.48309460
_cell_angle_alpha   90.00000000
_cell_angle_beta   90.00000000
_cell_angle_gamma   90.00000000
_symmetry_Int_Tables_number   1
_chemical_formula_structural   Na2MoSeO6
_chemical_formula_sum   'Na8 Mo4 Se4 O24'
_cell_volume   610.46803743
_cell_formula_units_Z   4
loop_
 _symmetry_equiv_pos_site_id
 _symmetry_equiv_pos_as_xyz
  1  'x, y, z'
loop_
 _atom_site_type_symbol
 _atom_site_label
 _atom_site_symmetry_multiplicity
 _atom_site_fract_x
 _atom_site_fract_y
 _atom_site_fract_z
 _atom_site_occupancy
  Na  Na0  1  0.751687  0.248313  0.748313  1
  Na  Na1  1  0.466552  0.466552  0.466552  1
  Na  Na2  1  0.533448  0.966552  0.033448  1
  Na  Na3  1  0.251687  0.251687  0.251687  1
  Na  Na4  1  0.748313  0.751687  0.248313  1
  Na  Na5  1  0.033448  0.533448  0.966552  1
  Na  Na6  1  0.966552  0.033448  0.533448  1
  Na  Na7  1  0.248313  0.748313  0.751687  1
  Mo  Mo8  1  0.991858  0.508142  0.491858  1
  Mo  Mo9  1  0.008142  0.008142  0.008142  1
  Mo  Mo10  1  0.491858  0.991858  0.508142  1
  Mo  Mo11  1  0.508142  0.491858  0.991858  1
  Se  Se12  1  0.326926  0.173074  0.826926  1
  Se  Se13  1  0.826926  0.326926  0.173074  1
  Se  Se14  1  0.673074  0.673074  0.673074  1
  Se  Se15  1  0.173074  0.826926  0.326926  1
  O  O16  1  0.401208  0.995867  0.755539  1
  O  O17  1  0.495867  0.744461  0.598792  1
  O  O18  1  0.689933  0.014977  0.576278  1
  O  O19  1  0.004133  0.255539  0.098792  1
  O  O20  1  0.189933  0.485023  0.423722  1
  O  O21  1  0.755539  0.401208  0.995867  1
  O  O22  1  0.076278  0.810067  0.985023  1
  O  O23  1  0.014977  0.576278  0.689933  1
  O  O24  1  0.310067  0.514977  0.923722  1
  O  O25  1  0.995867  0.755539  0.401208  1
  O  O26  1  0.901208  0.504133  0.244461  1
  O  O27  1  0.923722  0.310067  0.514977  1
  O  O28  1  0.514977  0.923722  0.310067  1
  O  O29  1  0.244461  0.901208  0.504133  1
  O  O30  1  0.098792  0.004133  0.255539  1
  O  O31  1  0.423722  0.189933  0.485023  1
  O  O32  1  0.255539  0.098792  0.004133  1
  O  O33  1  0.985023  0.076278  0.810067  1
  O  O34  1  0.598792  0.495867  0.744461  1
  O  O35  1  0.810067  0.985023  0.076278  1
  O  O36  1  0.744461  0.598792  0.495867  1
  O  O37  1  0.485023  0.423722  0.189933  1
  O  O38  1  0.576278  0.689933  0.014977  1
  O  O39  1  0.504133  0.244461  0.901208  1
