# generated using pymatgen
data_Ca2As4Xe5F34
_symmetry_space_group_name_H-M   'P 1'
_cell_length_a   8.53278516
_cell_length_b   23.70783233
_cell_length_c   8.74619663
_cell_angle_alpha   90.00000000
_cell_angle_beta   117.19020056
_cell_angle_gamma   90.00000000
_symmetry_Int_Tables_number   1
_chemical_formula_structural   Ca2As4Xe5F34
_chemical_formula_sum   'Ca4 As8 Xe10 F68'
_cell_volume   1573.78419992
_cell_formula_units_Z   2
loop_
 _symmetry_equiv_pos_site_id
 _symmetry_equiv_pos_as_xyz
  1  'x, y, z'
loop_
 _atom_site_type_symbol
 _atom_site_label
 _atom_site_symmetry_multiplicity
 _atom_site_fract_x
 _atom_site_fract_y
 _atom_site_fract_z
 _atom_site_occupancy
  Ca  Ca0  1  0.583055  0.887317  0.162964  1
  Ca  Ca1  1  0.583055  0.612683  0.662964  1
  Ca  Ca2  1  0.416945  0.112683  0.837036  1
  Ca  Ca3  1  0.416945  0.387317  0.337036  1
  As  As4  1  0.661529  0.512276  0.321687  1
  As  As5  1  0.190838  0.826223  0.703125  1
  As  As6  1  0.661529  0.987724  0.821687  1
  As  As7  1  0.338471  0.012276  0.178313  1
  As  As8  1  0.190838  0.673777  0.203125  1
  As  As9  1  0.338471  0.487724  0.678313  1
  As  As10  1  0.809162  0.326223  0.796875  1
  As  As11  1  0.809162  0.173777  0.296875  1
  Xe  Xe12  1  0.074458  0.648901  0.649544  1
  Xe  Xe13  1  0.350759  0.290295  0.918112  1
  Xe  Xe14  1  0.649241  0.790295  0.581888  1
  Xe  Xe15  1  0.649241  0.709705  0.081888  1
  Xe  Xe16  1  0.000000  0.000000  0.500000  1
  Xe  Xe17  1  0.350759  0.209705  0.418112  1
  Xe  Xe18  1  0.925542  0.351099  0.350456  1
  Xe  Xe19  1  0.074458  0.851099  0.149544  1
  Xe  Xe20  1  0.000000  0.500000  0.000000  1
  Xe  Xe21  1  0.925542  0.148901  0.850456  1
  F  F22  1  0.195263  0.346098  0.419931  1
  F  F23  1  0.550055  0.523453  0.782282  1
  F  F24  1  0.869512  0.281547  0.670395  1
  F  F25  1  0.068341  0.618853  0.232922  1
  F  F26  1  0.342468  0.646800  0.720187  1
  F  F27  1  0.449945  0.023453  0.717718  1
  F  F28  1  0.616148  0.348363  0.600430  1
  F  F29  1  0.866378  0.954884  0.935618  1
  F  F30  1  0.625696  0.781732  0.207594  1
  F  F31  1  0.130488  0.781547  0.829605  1
  F  F32  1  0.133622  0.045116  0.064382  1
  F  F33  1  0.319570  0.138283  0.540290  1
  F  F34  1  0.383852  0.651637  0.399570  1
  F  F35  1  0.006851  0.697168  0.014119  1
  F  F36  1  0.581987  0.549276  0.454108  1
  F  F37  1  0.383852  0.848363  0.899570  1
  F  F38  1  0.006851  0.802832  0.514119  1
  F  F39  1  0.625696  0.718268  0.707594  1
  F  F40  1  0.580304  0.933382  0.671508  1
  F  F41  1  0.723485  0.044102  0.972801  1
  F  F42  1  0.993149  0.197168  0.485881  1
  F  F43  1  0.676841  0.271782  0.813991  1
  F  F44  1  0.130488  0.718453  0.329605  1
  F  F45  1  0.323159  0.771782  0.686009  1
  F  F46  1  0.449945  0.476547  0.217718  1
  F  F47  1  0.133622  0.454884  0.564382  1
  F  F48  1  0.866378  0.545116  0.435618  1
  F  F49  1  0.256165  0.871479  0.583074  1
  F  F50  1  0.374304  0.218268  0.792406  1
  F  F51  1  0.319570  0.361717  0.040290  1
  F  F52  1  0.657532  0.146800  0.779813  1
  F  F53  1  0.418013  0.450724  0.545892  1
  F  F54  1  0.323159  0.728218  0.186009  1
  F  F55  1  0.419696  0.433382  0.828492  1
  F  F56  1  0.581987  0.950724  0.954108  1
  F  F57  1  0.374304  0.281732  0.292406  1
  F  F58  1  0.875499  0.566810  0.831265  1
  F  F59  1  0.931659  0.118853  0.267078  1
  F  F60  1  0.875499  0.933190  0.331265  1
  F  F61  1  0.743835  0.128521  0.416926  1
  F  F62  1  0.616148  0.151637  0.100430  1
  F  F63  1  0.342468  0.853200  0.220187  1
  F  F64  1  0.264736  0.974155  0.305384  1
  F  F65  1  0.680430  0.638283  0.959710  1
  F  F66  1  0.680430  0.861717  0.459710  1
  F  F67  1  0.418013  0.049276  0.045892  1
  F  F68  1  0.676841  0.228218  0.313991  1
  F  F69  1  0.993149  0.302832  0.985881  1
  F  F70  1  0.256165  0.628521  0.083074  1
  F  F71  1  0.124501  0.066810  0.668735  1
  F  F72  1  0.804737  0.846098  0.080069  1
  F  F73  1  0.550055  0.976547  0.282282  1
  F  F74  1  0.276515  0.544102  0.527199  1
  F  F75  1  0.735264  0.474155  0.194616  1
  F  F76  1  0.580304  0.566618  0.171508  1
  F  F77  1  0.124501  0.433190  0.168735  1
  F  F78  1  0.264736  0.525845  0.805384  1
  F  F79  1  0.068341  0.881147  0.732922  1
  F  F80  1  0.276515  0.955898  0.027199  1
  F  F81  1  0.931659  0.381147  0.767078  1
  F  F82  1  0.419696  0.066618  0.328492  1
  F  F83  1  0.743835  0.371479  0.916926  1
  F  F84  1  0.735264  0.025845  0.694616  1
  F  F85  1  0.869512  0.218453  0.170395  1
  F  F86  1  0.657532  0.353200  0.279813  1
  F  F87  1  0.804737  0.653902  0.580069  1
  F  F88  1  0.723485  0.455898  0.472801  1
  F  F89  1  0.195263  0.153902  0.919931  1
