# generated using pymatgen
data_La2Si(IO2)2
_symmetry_space_group_name_H-M   'P 1'
_cell_length_a   8.58255369
_cell_length_b   8.59712861
_cell_length_c   12.28480243
_cell_angle_alpha   107.62483112
_cell_angle_beta   99.33594596
_cell_angle_gamma   90.09019341
_symmetry_Int_Tables_number   1
_chemical_formula_structural   La2Si(IO2)2
_chemical_formula_sum   'La8 Si4 I8 O16'
_cell_volume   851.20715040
_cell_formula_units_Z   4
loop_
 _symmetry_equiv_pos_site_id
 _symmetry_equiv_pos_as_xyz
  1  'x, y, z'
loop_
 _atom_site_type_symbol
 _atom_site_label
 _atom_site_symmetry_multiplicity
 _atom_site_fract_x
 _atom_site_fract_y
 _atom_site_fract_z
 _atom_site_occupancy
  La  La0  1  0.222692  0.216048  0.186648  1
  La  La1  1  0.363424  0.715751  0.186806  1
  La  La2  1  0.159381  0.433058  0.875084  1
  La  La3  1  0.282654  0.934341  0.876914  1
  La  La4  1  0.717346  0.065659  0.123086  1
  La  La5  1  0.840619  0.566942  0.124916  1
  La  La6  1  0.636576  0.284249  0.813194  1
  La  La7  1  0.777308  0.783952  0.813352  1
  Si  Si8  1  0.939119  0.199712  0.974567  1
  Si  Si9  1  0.451433  0.301309  0.025868  1
  Si  Si10  1  0.548567  0.698691  0.974132  1
  Si  Si11  1  0.060881  0.800288  0.025433  1
  I  I12  1  0.002268  0.056165  0.334913  1
  I  I13  1  0.345047  0.437587  0.661982  1
  I  I14  1  0.513705  0.090360  0.349965  1
  I  I15  1  0.654953  0.562413  0.338018  1
  I  I16  1  0.850334  0.411020  0.649445  1
  I  I17  1  0.997732  0.943835  0.665087  1
  I  I18  1  0.486295  0.909640  0.650035  1
  I  I19  1  0.149666  0.588980  0.350555  1
  O  O20  1  0.213288  0.926088  0.093577  1
  O  O21  1  0.383608  0.245952  0.884419  1
  O  O22  1  0.062908  0.744434  0.883938  1
  O  O23  1  0.937092  0.255566  0.116062  1
  O  O24  1  0.668448  0.573450  0.905054  1
  O  O25  1  0.882036  0.857620  0.036599  1
  O  O26  1  0.117964  0.142380  0.963401  1
  O  O27  1  0.910763  0.361086  0.929626  1
  O  O28  1  0.556756  0.861001  0.930100  1
  O  O29  1  0.786712  0.073912  0.906423  1
  O  O30  1  0.616392  0.754048  0.115581  1
  O  O31  1  0.364305  0.641090  0.962174  1
  O  O32  1  0.331552  0.426550  0.094946  1
  O  O33  1  0.635695  0.358910  0.037826  1
  O  O34  1  0.089237  0.638914  0.070374  1
  O  O35  1  0.443244  0.138999  0.069900  1
