# generated using pymatgen
data_K3NbAs2O9
_symmetry_space_group_name_H-M   'P 1'
_cell_length_a   5.53984250
_cell_length_b   8.02328571
_cell_length_c   22.94852161
_cell_angle_alpha   90.00000000
_cell_angle_beta   90.00000000
_cell_angle_gamma   90.00000000
_symmetry_Int_Tables_number   1
_chemical_formula_structural   K3NbAs2O9
_chemical_formula_sum   'K12 Nb4 As8 O36'
_cell_volume   1020.00990276
_cell_formula_units_Z   4
loop_
 _symmetry_equiv_pos_site_id
 _symmetry_equiv_pos_as_xyz
  1  'x, y, z'
loop_
 _atom_site_type_symbol
 _atom_site_label
 _atom_site_symmetry_multiplicity
 _atom_site_fract_x
 _atom_site_fract_y
 _atom_site_fract_z
 _atom_site_occupancy
  K  K0  1  0.250000  0.478951  0.297111  1
  K  K1  1  0.750000  0.847796  0.901121  1
  K  K2  1  0.750000  0.121872  0.532858  1
  K  K3  1  0.750000  0.378128  0.032858  1
  K  K4  1  0.750000  0.521049  0.702889  1
  K  K5  1  0.250000  0.152204  0.098879  1
  K  K6  1  0.250000  0.021049  0.797111  1
  K  K7  1  0.250000  0.621872  0.967142  1
  K  K8  1  0.750000  0.978951  0.202889  1
  K  K9  1  0.750000  0.652204  0.401121  1
  K  K10  1  0.250000  0.878128  0.467142  1
  K  K11  1  0.250000  0.347796  0.598879  1
  Nb  Nb12  1  0.250000  0.817577  0.645933  1
  Nb  Nb13  1  0.250000  0.682423  0.145933  1
  Nb  Nb14  1  0.750000  0.317577  0.854067  1
  Nb  Nb15  1  0.750000  0.182423  0.354067  1
  As  As16  1  0.750000  0.857531  0.061762  1
  As  As17  1  0.750000  0.452800  0.209123  1
  As  As18  1  0.250000  0.547200  0.790877  1
  As  As19  1  0.750000  0.047200  0.709123  1
  As  As20  1  0.250000  0.357531  0.438238  1
  As  As21  1  0.250000  0.142469  0.938238  1
  As  As22  1  0.750000  0.642469  0.561762  1
  As  As23  1  0.250000  0.952800  0.290877  1
  O  O24  1  0.750000  0.298097  0.159300  1
  O  O25  1  0.250000  0.900638  0.218496  1
  O  O26  1  0.995892  0.665934  0.610637  1
  O  O27  1  0.250000  0.979855  0.593529  1
  O  O28  1  0.750000  0.479855  0.906471  1
  O  O29  1  0.003215  0.087123  0.298355  1
  O  O30  1  0.503215  0.912877  0.701645  1
  O  O31  1  0.996785  0.912877  0.701645  1
  O  O32  1  0.496785  0.412877  0.798355  1
  O  O33  1  0.750000  0.201903  0.659300  1
  O  O34  1  0.750000  0.705907  0.010853  1
  O  O35  1  0.004108  0.165934  0.889363  1
  O  O36  1  0.503215  0.587123  0.201645  1
  O  O37  1  0.250000  0.520145  0.093529  1
  O  O38  1  0.750000  0.400638  0.281504  1
  O  O39  1  0.504108  0.834066  0.110637  1
  O  O40  1  0.495892  0.334066  0.389363  1
  O  O41  1  0.995892  0.834066  0.110637  1
  O  O42  1  0.003215  0.412877  0.798355  1
  O  O43  1  0.750000  0.099362  0.781504  1
  O  O44  1  0.004108  0.334066  0.389363  1
  O  O45  1  0.250000  0.798097  0.340700  1
  O  O46  1  0.996785  0.587123  0.201645  1
  O  O47  1  0.750000  0.020145  0.406471  1
  O  O48  1  0.495892  0.165934  0.889363  1
  O  O49  1  0.750000  0.794093  0.510853  1
  O  O50  1  0.750000  0.441848  0.541499  1
  O  O51  1  0.250000  0.701903  0.840700  1
  O  O52  1  0.250000  0.205907  0.489147  1
  O  O53  1  0.250000  0.941848  0.958501  1
  O  O54  1  0.250000  0.599362  0.718496  1
  O  O55  1  0.250000  0.558152  0.458501  1
  O  O56  1  0.496785  0.087123  0.298355  1
  O  O57  1  0.504108  0.665934  0.610637  1
  O  O58  1  0.250000  0.294093  0.989147  1
  O  O59  1  0.750000  0.058152  0.041499  1
