# generated using pymatgen
data_Ba2Y2CuPtO8
_symmetry_space_group_name_H-M   'P 1'
_cell_length_a   5.74998982
_cell_length_b   10.44863253
_cell_length_c   13.38104295
_cell_angle_alpha   90.00000000
_cell_angle_beta   90.00000000
_cell_angle_gamma   90.00000000
_symmetry_Int_Tables_number   1
_chemical_formula_structural   Ba2Y2CuPtO8
_chemical_formula_sum   'Ba8 Y8 Cu4 Pt4 O32'
_cell_volume   803.92678045
_cell_formula_units_Z   4
loop_
 _symmetry_equiv_pos_site_id
 _symmetry_equiv_pos_as_xyz
  1  'x, y, z'
loop_
 _atom_site_type_symbol
 _atom_site_label
 _atom_site_symmetry_multiplicity
 _atom_site_fract_x
 _atom_site_fract_y
 _atom_site_fract_z
 _atom_site_occupancy
  Ba  Ba0  1  0.750000  0.186297  0.293055  1
  Ba  Ba1  1  0.750000  0.591328  0.577185  1
  Ba  Ba2  1  0.250000  0.408672  0.422815  1
  Ba  Ba3  1  0.750000  0.313703  0.793055  1
  Ba  Ba4  1  0.250000  0.686297  0.206945  1
  Ba  Ba5  1  0.750000  0.908672  0.077185  1
  Ba  Ba6  1  0.250000  0.813703  0.706945  1
  Ba  Ba7  1  0.250000  0.091328  0.922815  1
  Y  Y8  1  0.250000  0.311836  0.142184  1
  Y  Y9  1  0.250000  0.014066  0.416759  1
  Y  Y10  1  0.750000  0.811836  0.357816  1
  Y  Y11  1  0.750000  0.688164  0.857816  1
  Y  Y12  1  0.250000  0.188164  0.642184  1
  Y  Y13  1  0.250000  0.485934  0.916759  1
  Y  Y14  1  0.750000  0.514066  0.083241  1
  Y  Y15  1  0.750000  0.985934  0.583241  1
  Cu  Cu16  1  0.750000  0.232041  0.038969  1
  Cu  Cu17  1  0.750000  0.267959  0.538969  1
  Cu  Cu18  1  0.250000  0.767959  0.961031  1
  Cu  Cu19  1  0.250000  0.732041  0.461031  1
  Pt  Pt20  1  0.750000  0.532286  0.306538  1
  Pt  Pt21  1  0.750000  0.967714  0.806538  1
  Pt  Pt22  1  0.250000  0.032286  0.193462  1
  Pt  Pt23  1  0.250000  0.467714  0.693462  1
  O  O24  1  0.007130  0.636957  0.992845  1
  O  O25  1  0.493490  0.361946  0.614152  1
  O  O26  1  0.750000  0.814176  0.704063  1
  O  O27  1  0.992870  0.136957  0.507155  1
  O  O28  1  0.506510  0.861946  0.885848  1
  O  O29  1  0.750000  0.391185  0.411394  1
  O  O30  1  0.006510  0.138054  0.114152  1
  O  O31  1  0.750000  0.685824  0.204063  1
  O  O32  1  0.509237  0.443434  0.217167  1
  O  O33  1  0.490763  0.943434  0.282833  1
  O  O34  1  0.992870  0.363043  0.007155  1
  O  O35  1  0.493490  0.138054  0.114152  1
  O  O36  1  0.250000  0.314176  0.795937  1
  O  O37  1  0.009237  0.556566  0.782833  1
  O  O38  1  0.507130  0.363043  0.007155  1
  O  O39  1  0.990763  0.443434  0.217167  1
  O  O40  1  0.250000  0.608815  0.588606  1
  O  O41  1  0.509237  0.056566  0.717167  1
  O  O42  1  0.006510  0.361946  0.614152  1
  O  O43  1  0.492870  0.863043  0.492845  1
  O  O44  1  0.009237  0.943434  0.282833  1
  O  O45  1  0.990763  0.056566  0.717167  1
  O  O46  1  0.993490  0.638054  0.385848  1
  O  O47  1  0.993490  0.861946  0.885848  1
  O  O48  1  0.507130  0.136957  0.507155  1
  O  O49  1  0.506510  0.638054  0.385848  1
  O  O50  1  0.490763  0.556566  0.782833  1
  O  O51  1  0.007130  0.863043  0.492845  1
  O  O52  1  0.750000  0.108815  0.911394  1
  O  O53  1  0.492870  0.636957  0.992845  1
  O  O54  1  0.250000  0.185824  0.295937  1
  O  O55  1  0.250000  0.891185  0.088606  1
