# generated using pymatgen
data_Cu3P8(S2Cl)3
_symmetry_space_group_name_H-M   'P 1'
_cell_length_a   6.35491859
_cell_length_b   11.60933013
_cell_length_c   26.56046216
_cell_angle_alpha   90.00000000
_cell_angle_beta   90.00000000
_cell_angle_gamma   90.00000000
_symmetry_Int_Tables_number   1
_chemical_formula_structural   Cu3P8(S2Cl)3
_chemical_formula_sum   'Cu12 P32 S24 Cl12'
_cell_volume   1959.53389565
_cell_formula_units_Z   4
loop_
 _symmetry_equiv_pos_site_id
 _symmetry_equiv_pos_as_xyz
  1  'x, y, z'
loop_
 _atom_site_type_symbol
 _atom_site_label
 _atom_site_symmetry_multiplicity
 _atom_site_fract_x
 _atom_site_fract_y
 _atom_site_fract_z
 _atom_site_occupancy
  Cu  Cu0  1  0.690755  0.857182  0.250000  1
  Cu  Cu1  1  0.271234  0.355084  0.502085  1
  Cu  Cu2  1  0.309245  0.142818  0.750000  1
  Cu  Cu3  1  0.771234  0.144916  0.502085  1
  Cu  Cu4  1  0.228766  0.855084  0.497915  1
  Cu  Cu5  1  0.728766  0.644916  0.497915  1
  Cu  Cu6  1  0.271234  0.355084  0.997915  1
  Cu  Cu7  1  0.809245  0.357182  0.750000  1
  Cu  Cu8  1  0.728766  0.644916  0.002085  1
  Cu  Cu9  1  0.771234  0.144916  0.997915  1
  Cu  Cu10  1  0.190755  0.642818  0.250000  1
  Cu  Cu11  1  0.228766  0.855084  0.002085  1
  P  P12  1  0.140921  0.451237  0.570162  1
  P  P13  1  0.409843  0.052309  0.820783  1
  P  P14  1  0.337105  0.130138  0.394128  1
  P  P15  1  0.837105  0.369862  0.105872  1
  P  P16  1  0.639812  0.068189  0.430741  1
  P  P17  1  0.859079  0.548763  0.429838  1
  P  P18  1  0.860188  0.568189  0.569259  1
  P  P19  1  0.860188  0.568189  0.930741  1
  P  P20  1  0.640921  0.048763  0.570162  1
  P  P21  1  0.859079  0.548763  0.070162  1
  P  P22  1  0.139812  0.431811  0.430741  1
  P  P23  1  0.662895  0.869862  0.894128  1
  P  P24  1  0.337105  0.130138  0.105872  1
  P  P25  1  0.140921  0.451237  0.929838  1
  P  P26  1  0.359079  0.951237  0.070162  1
  P  P27  1  0.662895  0.869862  0.605872  1
  P  P28  1  0.090157  0.552309  0.320783  1
  P  P29  1  0.090157  0.552309  0.179217  1
  P  P30  1  0.909843  0.447691  0.820783  1
  P  P31  1  0.409843  0.052309  0.679217  1
  P  P32  1  0.360188  0.931811  0.930741  1
  P  P33  1  0.640921  0.048763  0.929838  1
  P  P34  1  0.162895  0.630138  0.605872  1
  P  P35  1  0.360188  0.931811  0.569259  1
  P  P36  1  0.909843  0.447691  0.679217  1
  P  P37  1  0.590157  0.947691  0.320783  1
  P  P38  1  0.162895  0.630138  0.894128  1
  P  P39  1  0.837105  0.369862  0.394128  1
  P  P40  1  0.639812  0.068189  0.069259  1
  P  P41  1  0.359079  0.951237  0.429838  1
  P  P42  1  0.590157  0.947691  0.179217  1
  P  P43  1  0.139812  0.431811  0.069259  1
  S  S44  1  0.674312  0.510138  0.629396  1
  S  S45  1  0.174312  0.989862  0.870604  1
  S  S46  1  0.608768  0.905230  0.682239  1
  S  S47  1  0.916548  0.659980  0.369591  1
  S  S48  1  0.608768  0.905230  0.817761  1
  S  S49  1  0.391232  0.094770  0.317761  1
  S  S50  1  0.325688  0.489862  0.129396  1
  S  S51  1  0.416548  0.840020  0.130409  1
  S  S52  1  0.108768  0.594770  0.817761  1
  S  S53  1  0.674312  0.510138  0.870604  1
  S  S54  1  0.583452  0.159980  0.869591  1
  S  S55  1  0.583452  0.159980  0.630409  1
  S  S56  1  0.174312  0.989862  0.629396  1
  S  S57  1  0.825688  0.010138  0.129396  1
  S  S58  1  0.416548  0.840020  0.369591  1
  S  S59  1  0.083452  0.340020  0.630409  1
  S  S60  1  0.825688  0.010138  0.370604  1
  S  S61  1  0.325688  0.489862  0.370604  1
  S  S62  1  0.108768  0.594770  0.682239  1
  S  S63  1  0.891232  0.405230  0.317761  1
  S  S64  1  0.391232  0.094770  0.182239  1
  S  S65  1  0.916548  0.659980  0.130409  1
  S  S66  1  0.891232  0.405230  0.182239  1
  S  S67  1  0.083452  0.340020  0.869591  1
  Cl  Cl68  1  0.631022  0.331569  0.991928  1
  Cl  Cl69  1  0.131022  0.168431  0.508072  1
  Cl  Cl70  1  0.448468  0.328795  0.750000  1
  Cl  Cl71  1  0.368978  0.668431  0.008072  1
  Cl  Cl72  1  0.868978  0.831569  0.491928  1
  Cl  Cl73  1  0.051532  0.828795  0.250000  1
  Cl  Cl74  1  0.868978  0.831569  0.008072  1
  Cl  Cl75  1  0.551532  0.671205  0.250000  1
  Cl  Cl76  1  0.368978  0.668431  0.491928  1
  Cl  Cl77  1  0.131022  0.168431  0.991928  1
  Cl  Cl78  1  0.631022  0.331569  0.508072  1
  Cl  Cl79  1  0.948468  0.171205  0.750000  1
