# generated using pymatgen
data_NdSnAu
_symmetry_space_group_name_H-M   'P 1'
_cell_length_a   4.79128455
_cell_length_b   4.79128455
_cell_length_c   7.68621314
_cell_angle_alpha   90.00000000
_cell_angle_beta   90.00000000
_cell_angle_gamma   120.00000000
_symmetry_Int_Tables_number   1
_chemical_formula_structural   NdSnAu
_chemical_formula_sum   'Nd2 Sn2 Au2'
_cell_volume   152.80831338
_cell_formula_units_Z   2
loop_
 _symmetry_equiv_pos_site_id
 _symmetry_equiv_pos_as_xyz
  1  'x, y, z'
loop_
 _atom_site_type_symbol
 _atom_site_label
 _atom_site_symmetry_multiplicity
 _atom_site_fract_x
 _atom_site_fract_y
 _atom_site_fract_z
 _atom_site_occupancy
  Nd  Nd0  1  0.000000  0.000000  0.244139  1
  Nd  Nd1  1  0.000000  0.000000  0.744139  1
  Sn  Sn2  1  0.666667  0.333333  0.968887  1
  Sn  Sn3  1  0.333333  0.666667  0.468887  1
  Au  Au4  1  0.333333  0.666667  0.060974  1
  Au  Au5  1  0.666667  0.333333  0.560974  1
