# generated using pymatgen
data_XeF6
_symmetry_space_group_name_H-M   'P 1'
_cell_length_a   15.15277642
_cell_length_b   8.88636118
_cell_length_c   15.26686702
_cell_angle_alpha   90.00000000
_cell_angle_beta   110.48256553
_cell_angle_gamma   90.00000000
_symmetry_Int_Tables_number   1
_chemical_formula_structural   XeF6
_chemical_formula_sum   'Xe16 F96'
_cell_volume   1925.76420880
_cell_formula_units_Z   16
loop_
 _symmetry_equiv_pos_site_id
 _symmetry_equiv_pos_as_xyz
  1  'x, y, z'
loop_
 _atom_site_type_symbol
 _atom_site_label
 _atom_site_symmetry_multiplicity
 _atom_site_fract_x
 _atom_site_fract_y
 _atom_site_fract_z
 _atom_site_occupancy
  Xe  Xe0  1  0.906021  0.131864  0.294187  1
  Xe  Xe1  1  0.791752  0.015737  0.904213  1
  Xe  Xe2  1  0.391268  0.910177  0.800307  1
  Xe  Xe3  1  0.689091  0.001889  0.606757  1
  Xe  Xe4  1  0.310909  0.501889  0.893243  1
  Xe  Xe5  1  0.391268  0.589823  0.300307  1
  Xe  Xe6  1  0.093979  0.868136  0.705813  1
  Xe  Xe7  1  0.608732  0.410177  0.699693  1
  Xe  Xe8  1  0.208248  0.984263  0.095787  1
  Xe  Xe9  1  0.689091  0.498111  0.106757  1
  Xe  Xe10  1  0.791752  0.484263  0.404213  1
  Xe  Xe11  1  0.608732  0.089823  0.199693  1
  Xe  Xe12  1  0.208248  0.515737  0.595787  1
  Xe  Xe13  1  0.093979  0.631864  0.205813  1
  Xe  Xe14  1  0.906021  0.368136  0.794187  1
  Xe  Xe15  1  0.310909  0.998111  0.393243  1
  F  F16  1  0.887802  0.945921  0.216403  1
  F  F17  1  0.099368  0.384672  0.592477  1
  F  F18  1  0.243798  0.195173  0.362115  1
  F  F19  1  0.196270  0.962352  0.251426  1
  F  F20  1  0.120778  0.610279  0.479444  1
  F  F21  1  0.208575  0.921954  0.435477  1
  F  F22  1  0.518235  0.672885  0.373333  1
  F  F23  1  0.530090  0.912848  0.202018  1
  F  F24  1  0.414016  0.860132  0.682643  1
  F  F25  1  0.585984  0.360132  0.817357  1
  F  F26  1  0.208575  0.578046  0.935477  1
  F  F27  1  0.708747  0.553523  0.778806  1
  F  F28  1  0.469910  0.412848  0.297982  1
  F  F29  1  0.391158  0.830322  0.470668  1
  F  F30  1  0.291253  0.053523  0.721194  1
  F  F31  1  0.791425  0.421954  0.064523  1
  F  F32  1  0.087056  0.006267  0.599650  1
  F  F33  1  0.065441  0.745070  0.305370  1
  F  F34  1  0.960935  0.930508  0.673121  1
  F  F35  1  0.218158  0.132987  0.003252  1
  F  F36  1  0.354915  0.407402  0.018712  1
  F  F37  1  0.202250  0.762384  0.637266  1
  F  F38  1  0.682918  0.107132  0.929325  1
  F  F39  1  0.039065  0.430508  0.826879  1
  F  F40  1  0.291253  0.446477  0.221194  1
  F  F41  1  0.631481  0.343292  0.208331  1
  F  F42  1  0.422106  0.392134  0.882266  1
  F  F43  1  0.645085  0.592598  0.981288  1
  F  F44  1  0.218158  0.367013  0.503252  1
  F  F45  1  0.039065  0.069492  0.326879  1
  F  F46  1  0.065441  0.754930  0.805370  1
  F  F47  1  0.112198  0.445921  0.283597  1
  F  F48  1  0.631481  0.156708  0.708331  1
  F  F49  1  0.518235  0.827115  0.873333  1
  F  F50  1  0.791425  0.078046  0.564523  1
  F  F51  1  0.781842  0.632987  0.496748  1
  F  F52  1  0.608842  0.169678  0.529332  1
  F  F53  1  0.099368  0.115328  0.092477  1
  F  F54  1  0.887802  0.554079  0.716403  1
  F  F55  1  0.972808  0.198614  0.880688  1
  F  F56  1  0.087056  0.493733  0.099650  1
  F  F57  1  0.879222  0.110279  0.020556  1
  F  F58  1  0.645085  0.907402  0.481288  1
  F  F59  1  0.368519  0.843292  0.291669  1
  F  F60  1  0.900632  0.615328  0.407523  1
  F  F61  1  0.422106  0.107866  0.382266  1
  F  F62  1  0.605706  0.995497  0.079267  1
  F  F63  1  0.368519  0.656708  0.791669  1
  F  F64  1  0.317082  0.892868  0.070675  1
  F  F65  1  0.697289  0.872053  0.818722  1
  F  F66  1  0.302711  0.127947  0.181278  1
  F  F67  1  0.934559  0.245070  0.194630  1
  F  F68  1  0.241360  0.842188  0.816428  1
  F  F69  1  0.960935  0.569492  0.173121  1
  F  F70  1  0.972808  0.301386  0.380688  1
  F  F71  1  0.758640  0.157812  0.183572  1
  F  F72  1  0.585984  0.139868  0.317357  1
  F  F73  1  0.394294  0.004503  0.920733  1
  F  F74  1  0.243798  0.304827  0.862115  1
  F  F75  1  0.912944  0.993733  0.400350  1
  F  F76  1  0.608842  0.330322  0.029332  1
  F  F77  1  0.803730  0.462352  0.248574  1
  F  F78  1  0.112198  0.054079  0.783597  1
  F  F79  1  0.682918  0.392868  0.429325  1
  F  F80  1  0.354915  0.092598  0.518712  1
  F  F81  1  0.027192  0.698614  0.619312  1
  F  F82  1  0.196270  0.537648  0.751426  1
  F  F83  1  0.317082  0.607132  0.570675  1
  F  F84  1  0.605706  0.504503  0.579267  1
  F  F85  1  0.027192  0.801386  0.119312  1
  F  F86  1  0.391158  0.669678  0.970668  1
  F  F87  1  0.530090  0.587152  0.702018  1
  F  F88  1  0.756202  0.695173  0.137885  1
  F  F89  1  0.469910  0.087152  0.797982  1
  F  F90  1  0.302711  0.372053  0.681278  1
  F  F91  1  0.781842  0.867013  0.996748  1
  F  F92  1  0.879222  0.389721  0.520556  1
  F  F93  1  0.577894  0.607866  0.117734  1
  F  F94  1  0.803730  0.037648  0.748574  1
  F  F95  1  0.797750  0.237616  0.362734  1
  F  F96  1  0.202250  0.737616  0.137266  1
  F  F97  1  0.697289  0.627947  0.318722  1
  F  F98  1  0.758640  0.342188  0.683572  1
  F  F99  1  0.900632  0.884672  0.907523  1
  F  F100  1  0.708747  0.946477  0.278806  1
  F  F101  1  0.394294  0.495497  0.420733  1
  F  F102  1  0.120778  0.889721  0.979444  1
  F  F103  1  0.912944  0.506267  0.900350  1
  F  F104  1  0.241360  0.657812  0.316428  1
  F  F105  1  0.934559  0.254930  0.694630  1
  F  F106  1  0.756202  0.804827  0.637885  1
  F  F107  1  0.797750  0.262384  0.862734  1
  F  F108  1  0.481765  0.327115  0.626667  1
  F  F109  1  0.414016  0.639868  0.182643  1
  F  F110  1  0.577894  0.892134  0.617734  1
  F  F111  1  0.481765  0.172885  0.126667  1
