# generated using pymatgen
data_U8FeS17
_symmetry_space_group_name_H-M   'P 1'
_cell_length_a   7.74303320
_cell_length_b   7.74303320
_cell_length_c   10.23284107
_cell_angle_alpha   80.59378464
_cell_angle_beta   99.40621536
_cell_angle_gamma   115.48347280
_symmetry_Int_Tables_number   1
_chemical_formula_structural   U8FeS17
_chemical_formula_sum   'U8 Fe1 S17'
_cell_volume   543.37609719
_cell_formula_units_Z   1
loop_
 _symmetry_equiv_pos_site_id
 _symmetry_equiv_pos_as_xyz
  1  'x, y, z'
loop_
 _atom_site_type_symbol
 _atom_site_label
 _atom_site_symmetry_multiplicity
 _atom_site_fract_x
 _atom_site_fract_y
 _atom_site_fract_z
 _atom_site_occupancy
  U  U0  1  0.797281  0.202719  0.546002  1
  U  U1  1  0.818169  0.699909  0.704405  1
  U  U2  1  0.682845  0.317155  0.017142  1
  U  U3  1  0.202719  0.797281  0.453998  1
  U  U4  1  0.181831  0.300091  0.295595  1
  U  U5  1  0.317155  0.682845  0.982858  1
  U  U6  1  0.699909  0.818169  0.295595  1
  U  U7  1  0.300091  0.181831  0.704405  1
  Fe  Fe8  1  0.000000  0.000000  0.000000  1
  S  S9  1  0.521984  0.478016  0.169269  1
  S  S10  1  0.944032  0.683605  0.975331  1
  S  S11  1  0.212420  0.787580  0.721695  1
  S  S12  1  0.433621  0.180426  0.464940  1
  S  S13  1  0.787580  0.212420  0.278305  1
  S  S14  1  0.055967  0.316395  0.024669  1
  S  S15  1  0.819574  0.566379  0.464940  1
  S  S16  1  0.699108  0.300892  0.756620  1
  S  S17  1  0.056945  0.943055  0.221674  1
  S  S18  1  0.683605  0.944032  0.024669  1
  S  S19  1  0.943055  0.056945  0.778326  1
  S  S20  1  0.316395  0.055968  0.975331  1
  S  S21  1  0.478016  0.521984  0.830731  1
  S  S22  1  0.566379  0.819574  0.535060  1
  S  S23  1  0.000000  1.000000  0.500000  1
  S  S24  1  0.180426  0.433621  0.535060  1
  S  S25  1  0.300892  0.699108  0.243380  1
