# generated using pymatgen
data_Rb2Ge2S5
_symmetry_space_group_name_H-M   'P 1'
_cell_length_a   11.20735807
_cell_length_b   11.20735807
_cell_length_c   9.30532536
_cell_angle_alpha   79.58785699
_cell_angle_beta   100.41214301
_cell_angle_gamma   89.77392695
_symmetry_Int_Tables_number   1
_chemical_formula_structural   Rb2Ge2S5
_chemical_formula_sum   'Rb8 Ge8 S20'
_cell_volume   1129.80861015
_cell_formula_units_Z   4
loop_
 _symmetry_equiv_pos_site_id
 _symmetry_equiv_pos_as_xyz
  1  'x, y, z'
loop_
 _atom_site_type_symbol
 _atom_site_label
 _atom_site_symmetry_multiplicity
 _atom_site_fract_x
 _atom_site_fract_y
 _atom_site_fract_z
 _atom_site_occupancy
  Rb  Rb0  1  0.789410  0.474838  0.374114  1
  Rb  Rb1  1  0.474838  0.789410  0.125886  1
  Rb  Rb2  1  0.210590  0.525162  0.625886  1
  Rb  Rb3  1  0.525162  0.210590  0.874114  1
  Rb  Rb4  1  0.059596  0.791382  0.127432  1
  Rb  Rb5  1  0.791382  0.059596  0.372568  1
  Rb  Rb6  1  0.940404  0.208618  0.872568  1
  Rb  Rb7  1  0.208618  0.940404  0.627432  1
  Ge  Ge8  1  0.732836  0.527153  0.899072  1
  Ge  Ge9  1  0.527153  0.732836  0.600928  1
  Ge  Ge10  1  0.267164  0.472847  0.100928  1
  Ge  Ge11  1  0.472847  0.267164  0.399072  1
  Ge  Ge12  1  0.137816  0.270161  0.385045  1
  Ge  Ge13  1  0.270161  0.137816  0.114955  1
  Ge  Ge14  1  0.862184  0.729839  0.614955  1
  Ge  Ge15  1  0.729839  0.862184  0.885045  1
  S  S16  1  0.882484  0.544062  0.760154  1
  S  S17  1  0.544062  0.882484  0.739846  1
  S  S18  1  0.117516  0.455938  0.239846  1
  S  S19  1  0.455938  0.117516  0.260154  1
  S  S20  1  0.244848  0.322959  0.962364  1
  S  S21  1  0.322959  0.244848  0.537636  1
  S  S22  1  0.755152  0.677041  0.037636  1
  S  S23  1  0.677041  0.755152  0.462364  1
  S  S24  1  0.756382  0.354636  0.045136  1
  S  S25  1  0.354636  0.756382  0.454864  1
  S  S26  1  0.243618  0.645364  0.954864  1
  S  S27  1  0.645364  0.243618  0.545136  1
  S  S28  1  0.996199  0.752856  0.475745  1
  S  S29  1  0.752856  0.996199  0.024255  1
  S  S30  1  0.003801  0.247144  0.524255  1
  S  S31  1  0.247144  0.003801  0.975745  1
  S  S32  1  0.881066  0.881066  0.750000  1
  S  S33  1  0.118934  0.118934  0.250000  1
  S  S34  1  0.547324  0.547324  0.750000  1
  S  S35  1  0.452676  0.452676  0.250000  1
