# generated using pymatgen
data_Nd3Si2S8I
_symmetry_space_group_name_H-M   'P 1'
_cell_length_a   8.92661699
_cell_length_b   8.92661699
_cell_length_c   10.88263244
_cell_angle_alpha   82.68647643
_cell_angle_beta   97.31352357
_cell_angle_gamma   127.69393244
_symmetry_Int_Tables_number   1
_chemical_formula_structural   Nd3Si2S8I
_chemical_formula_sum   'Nd6 Si4 S16 I2'
_cell_volume   679.25155455
_cell_formula_units_Z   2
loop_
 _symmetry_equiv_pos_site_id
 _symmetry_equiv_pos_as_xyz
  1  'x, y, z'
loop_
 _atom_site_type_symbol
 _atom_site_label
 _atom_site_symmetry_multiplicity
 _atom_site_fract_x
 _atom_site_fract_y
 _atom_site_fract_z
 _atom_site_occupancy
  Nd  Nd0  1  0.400452  0.400452  0.250000  1
  Nd  Nd1  1  0.677364  0.076110  0.318553  1
  Nd  Nd2  1  0.923890  0.322636  0.818553  1
  Nd  Nd3  1  0.076110  0.677364  0.181447  1
  Nd  Nd4  1  0.322636  0.923890  0.681447  1
  Nd  Nd5  1  0.599548  0.599548  0.750000  1
  Si  Si6  1  0.696678  0.377578  0.528909  1
  Si  Si7  1  0.377578  0.696678  0.971091  1
  Si  Si8  1  0.622422  0.303322  0.028909  1
  Si  Si9  1  0.303322  0.622422  0.471091  1
  S  S10  1  0.550591  0.252069  0.837173  1
  S  S11  1  0.712674  0.149224  0.585985  1
  S  S12  1  0.747931  0.449409  0.337173  1
  S  S13  1  0.890450  0.600904  0.647485  1
  S  S14  1  0.252069  0.550591  0.662827  1
  S  S15  1  0.413342  0.276719  0.541918  1
  S  S16  1  0.109550  0.399096  0.352515  1
  S  S17  1  0.850776  0.287325  0.085985  1
  S  S18  1  0.449409  0.747931  0.162827  1
  S  S19  1  0.149224  0.712674  0.914015  1
  S  S20  1  0.586658  0.723281  0.458082  1
  S  S21  1  0.723281  0.586658  0.041918  1
  S  S22  1  0.600904  0.890450  0.852515  1
  S  S23  1  0.399096  0.109550  0.147485  1
  S  S24  1  0.287326  0.850776  0.414015  1
  S  S25  1  0.276719  0.413342  0.958082  1
  I  I26  1  0.986366  0.986366  0.250000  1
  I  I27  1  0.013634  0.013634  0.750000  1
