# generated using pymatgen
data_La4S3NCl3
_symmetry_space_group_name_H-M   'P 1'
_cell_length_a   9.47532712
_cell_length_b   9.47532712
_cell_length_c   7.03242611
_cell_angle_alpha   90.00000000
_cell_angle_beta   90.00000000
_cell_angle_gamma   120.00000000
_symmetry_Int_Tables_number   1
_chemical_formula_structural   La4S3NCl3
_chemical_formula_sum   'La8 S6 N2 Cl6'
_cell_volume   546.79462115
_cell_formula_units_Z   2
loop_
 _symmetry_equiv_pos_site_id
 _symmetry_equiv_pos_as_xyz
  1  'x, y, z'
loop_
 _atom_site_type_symbol
 _atom_site_label
 _atom_site_symmetry_multiplicity
 _atom_site_fract_x
 _atom_site_fract_y
 _atom_site_fract_z
 _atom_site_occupancy
  La  La0  1  0.201374  0.402749  0.250668  1
  La  La1  1  0.201374  0.798626  0.250668  1
  La  La2  1  0.333333  0.666667  0.710835  1
  La  La3  1  0.798626  0.201374  0.750668  1
  La  La4  1  0.402749  0.201374  0.750668  1
  La  La5  1  0.798626  0.597251  0.750668  1
  La  La6  1  0.597251  0.798626  0.250668  1
  La  La7  1  0.666667  0.333333  0.210835  1
  S  S8  1  0.468263  0.531737  0.971701  1
  S  S9  1  0.468263  0.936526  0.971701  1
  S  S10  1  0.531737  0.063474  0.471701  1
  S  S11  1  0.531737  0.468263  0.471701  1
  S  S12  1  0.936526  0.468263  0.471701  1
  S  S13  1  0.063474  0.531737  0.971701  1
  N  N14  1  0.333333  0.666667  0.365471  1
  N  N15  1  0.666667  0.333333  0.865471  1
  Cl  Cl16  1  0.868089  0.736178  0.142096  1
  Cl  Cl17  1  0.131911  0.868089  0.642096  1
  Cl  Cl18  1  0.868089  0.131911  0.142096  1
  Cl  Cl19  1  0.131911  0.263822  0.642096  1
  Cl  Cl20  1  0.263822  0.131911  0.142096  1
  Cl  Cl21  1  0.736178  0.868089  0.642096  1
