# generated using pymatgen
data_La2Si2O7
_symmetry_space_group_name_H-M   'P 1'
_cell_length_a   6.91797389
_cell_length_b   6.91797389
_cell_length_c   25.19850268
_cell_angle_alpha   90.00000000
_cell_angle_beta   90.00000000
_cell_angle_gamma   90.00000000
_symmetry_Int_Tables_number   1
_chemical_formula_structural   La2Si2O7
_chemical_formula_sum   'La16 Si16 O56'
_cell_volume   1205.95908183
_cell_formula_units_Z   8
loop_
 _symmetry_equiv_pos_site_id
 _symmetry_equiv_pos_as_xyz
  1  'x, y, z'
loop_
 _atom_site_type_symbol
 _atom_site_label
 _atom_site_symmetry_multiplicity
 _atom_site_fract_x
 _atom_site_fract_y
 _atom_site_fract_z
 _atom_site_occupancy
  La  La0  1  0.824872  0.473906  0.101596  1
  La  La1  1  0.526094  0.824872  0.351596  1
  La  La2  1  0.473906  0.175128  0.851596  1
  La  La3  1  0.175128  0.526094  0.601596  1
  La  La4  1  0.220648  0.298443  0.997775  1
  La  La5  1  0.701557  0.220648  0.247775  1
  La  La6  1  0.298443  0.779352  0.747775  1
  La  La7  1  0.779352  0.701557  0.497775  1
  La  La8  1  0.229511  0.875182  0.108997  1
  La  La9  1  0.124818  0.229511  0.358997  1
  La  La10  1  0.875182  0.770489  0.858997  1
  La  La11  1  0.770489  0.124818  0.608997  1
  La  La12  1  0.346538  0.083981  0.497640  1
  La  La13  1  0.916019  0.346538  0.747640  1
  La  La14  1  0.083981  0.653462  0.247640  1
  La  La15  1  0.653462  0.916019  0.997640  1
  Si  Si16  1  0.300330  0.395106  0.135106  1
  Si  Si17  1  0.604894  0.300330  0.385106  1
  Si  Si18  1  0.395106  0.699670  0.885106  1
  Si  Si19  1  0.699670  0.604894  0.635106  1
  Si  Si20  1  0.142375  0.766182  0.983259  1
  Si  Si21  1  0.233818  0.142375  0.233259  1
  Si  Si22  1  0.766182  0.857625  0.733259  1
  Si  Si23  1  0.857625  0.233818  0.483259  1
  Si  Si24  1  0.728762  0.376636  0.978579  1
  Si  Si25  1  0.623364  0.728762  0.228579  1
  Si  Si26  1  0.376636  0.271238  0.728579  1
  Si  Si27  1  0.271238  0.623364  0.478579  1
  Si  Si28  1  0.978439  0.294995  0.879010  1
  Si  Si29  1  0.705005  0.978439  0.129010  1
  Si  Si30  1  0.294995  0.021561  0.629010  1
  Si  Si31  1  0.021561  0.705005  0.379010  1
  O  O32  1  0.137722  0.559132  0.153524  1
  O  O33  1  0.440868  0.137722  0.403524  1
  O  O34  1  0.559132  0.862278  0.903524  1
  O  O35  1  0.862278  0.440868  0.653524  1
  O  O36  1  0.189192  0.243280  0.095189  1
  O  O37  1  0.756720  0.189192  0.345189  1
  O  O38  1  0.243280  0.810808  0.845189  1
  O  O39  1  0.810808  0.756720  0.595189  1
  O  O40  1  0.483086  0.507737  0.110286  1
  O  O41  1  0.492263  0.483086  0.360286  1
  O  O42  1  0.507737  0.516914  0.860286  1
  O  O43  1  0.516914  0.492263  0.610286  1
  O  O44  1  0.275118  0.635525  0.940681  1
  O  O45  1  0.364475  0.275118  0.190681  1
  O  O46  1  0.635525  0.724882  0.690681  1
  O  O47  1  0.724882  0.364475  0.440681  1
  O  O48  1  0.106526  0.615240  0.032665  1
  O  O49  1  0.384760  0.106526  0.282665  1
  O  O50  1  0.615240  0.893474  0.782665  1
  O  O51  1  0.893474  0.384760  0.532665  1
  O  O52  1  0.270759  0.944479  0.008028  1
  O  O53  1  0.861795  0.242738  0.018958  1
  O  O54  1  0.055521  0.270759  0.258028  1
  O  O55  1  0.729241  0.055521  0.508028  1
  O  O56  1  0.154989  0.951471  0.202399  1
  O  O57  1  0.048529  0.154989  0.452399  1
  O  O58  1  0.951471  0.845011  0.952399  1
  O  O59  1  0.845011  0.048529  0.702399  1
  O  O60  1  0.546567  0.240107  0.959927  1
  O  O61  1  0.759893  0.546567  0.209927  1
  O  O62  1  0.240107  0.453433  0.709927  1
  O  O63  1  0.453433  0.759893  0.459927  1
  O  O64  1  0.214158  0.821361  0.654256  1
  O  O65  1  0.178639  0.214158  0.904256  1
  O  O66  1  0.821361  0.785842  0.404256  1
  O  O67  1  0.785842  0.178639  0.154256  1
  O  O68  1  0.458564  0.990456  0.583194  1
  O  O69  1  0.009544  0.458564  0.833194  1
  O  O70  1  0.990456  0.541436  0.333194  1
  O  O71  1  0.541436  0.009544  0.083194  1
  O  O72  1  0.129156  0.163498  0.604323  1
  O  O73  1  0.836502  0.129156  0.854323  1
  O  O74  1  0.163498  0.870844  0.354323  1
  O  O75  1  0.870844  0.836502  0.104323  1
  O  O76  1  0.129681  0.573915  0.426815  1
  O  O77  1  0.426085  0.129681  0.676815  1
  O  O78  1  0.573915  0.870319  0.176815  1
  O  O79  1  0.870319  0.426085  0.926815  1
  O  O80  1  0.334042  0.427927  0.509433  1
  O  O81  1  0.572073  0.334042  0.759433  1
  O  O82  1  0.427927  0.665958  0.259433  1
  O  O83  1  0.665958  0.572073  0.009433  1
  O  O84  1  0.138205  0.757262  0.518958  1
  O  O85  1  0.242738  0.138205  0.768958  1
  O  O86  1  0.757262  0.861795  0.268958  1
  O  O87  1  0.944479  0.729241  0.758028  1
