# generated using pymatgen
data_TeAs(IF2)3
_symmetry_space_group_name_H-M   'P 1'
_cell_length_a   8.46292338
_cell_length_b   11.01216535
_cell_length_c   13.04672567
_cell_angle_alpha   90.00000000
_cell_angle_beta   101.01137323
_cell_angle_gamma   90.00000000
_symmetry_Int_Tables_number   1
_chemical_formula_structural   TeAs(IF2)3
_chemical_formula_sum   'Te4 As4 I12 F24'
_cell_volume   1193.50563485
_cell_formula_units_Z   4
loop_
 _symmetry_equiv_pos_site_id
 _symmetry_equiv_pos_as_xyz
  1  'x, y, z'
loop_
 _atom_site_type_symbol
 _atom_site_label
 _atom_site_symmetry_multiplicity
 _atom_site_fract_x
 _atom_site_fract_y
 _atom_site_fract_z
 _atom_site_occupancy
  Te  Te0  1  0.186902  0.333952  0.689968  1
  Te  Te1  1  0.186902  0.166048  0.189968  1
  Te  Te2  1  0.813098  0.833952  0.810032  1
  Te  Te3  1  0.813098  0.666048  0.310032  1
  As  As4  1  0.173370  0.724968  0.581067  1
  As  As5  1  0.826630  0.224968  0.918933  1
  As  As6  1  0.173370  0.775032  0.081067  1
  As  As7  1  0.826630  0.275032  0.418933  1
  I  I8  1  0.445236  0.148795  0.095853  1
  I  I9  1  0.225212  0.098192  0.746275  1
  I  I10  1  0.225212  0.401808  0.246275  1
  I  I11  1  0.708489  0.954096  0.629365  1
  I  I12  1  0.445236  0.351205  0.595853  1
  I  I13  1  0.291511  0.454096  0.870635  1
  I  I14  1  0.554764  0.851205  0.904147  1
  I  I15  1  0.708489  0.545904  0.129365  1
  I  I16  1  0.774788  0.901808  0.253725  1
  I  I17  1  0.774788  0.598192  0.753725  1
  I  I18  1  0.554764  0.648795  0.404147  1
  I  I19  1  0.291511  0.045904  0.370635  1
  F  F20  1  0.876880  0.218106  0.301557  1
  F  F21  1  0.241574  0.870844  0.552622  1
  F  F22  1  0.102113  0.577795  0.608856  1
  F  F23  1  0.123120  0.718106  0.198443  1
  F  F24  1  0.368433  0.685869  0.647090  1
  F  F25  1  0.123120  0.781894  0.698443  1
  F  F26  1  0.025508  0.238804  0.486800  1
  F  F27  1  0.758426  0.129156  0.447378  1
  F  F28  1  0.897887  0.077795  0.891144  1
  F  F29  1  0.783366  0.332238  0.538402  1
  F  F30  1  0.216634  0.667762  0.461598  1
  F  F31  1  0.631567  0.185869  0.852910  1
  F  F32  1  0.216634  0.832238  0.961598  1
  F  F33  1  0.783366  0.167762  0.038402  1
  F  F34  1  0.025508  0.261196  0.986800  1
  F  F35  1  0.974492  0.738804  0.013200  1
  F  F36  1  0.897887  0.422205  0.391144  1
  F  F37  1  0.102113  0.922205  0.108856  1
  F  F38  1  0.241574  0.629156  0.052622  1
  F  F39  1  0.974492  0.761196  0.513200  1
  F  F40  1  0.758426  0.370844  0.947378  1
  F  F41  1  0.368433  0.814131  0.147090  1
  F  F42  1  0.631567  0.314131  0.352910  1
  F  F43  1  0.876880  0.281894  0.801557  1
