# generated using pymatgen
data_Na6Mg(SO4)4
_symmetry_space_group_name_H-M   'P 1'
_cell_length_a   8.31165613
_cell_length_b   9.28911580
_cell_length_c   9.91585259
_cell_angle_alpha   90.00000000
_cell_angle_beta   113.57778401
_cell_angle_gamma   90.00000000
_symmetry_Int_Tables_number   1
_chemical_formula_structural   Na6Mg(SO4)4
_chemical_formula_sum   'Na12 Mg2 S8 O32'
_cell_volume   701.67007368
_cell_formula_units_Z   2
loop_
 _symmetry_equiv_pos_site_id
 _symmetry_equiv_pos_as_xyz
  1  'x, y, z'
loop_
 _atom_site_type_symbol
 _atom_site_label
 _atom_site_symmetry_multiplicity
 _atom_site_fract_x
 _atom_site_fract_y
 _atom_site_fract_z
 _atom_site_occupancy
  Na  Na0  1  0.683129  0.137162  0.110939  1
  Na  Na1  1  0.909974  0.151095  0.552355  1
  Na  Na2  1  0.409974  0.348905  0.552355  1
  Na  Na3  1  0.090026  0.848905  0.447645  1
  Na  Na4  1  0.532804  0.015085  0.688458  1
  Na  Na5  1  0.183129  0.362838  0.110939  1
  Na  Na6  1  0.316871  0.862838  0.889061  1
  Na  Na7  1  0.467196  0.984915  0.311542  1
  Na  Na8  1  0.816871  0.637162  0.889061  1
  Na  Na9  1  0.032804  0.484915  0.688458  1
  Na  Na10  1  0.967196  0.515085  0.311542  1
  Na  Na11  1  0.590026  0.651095  0.447645  1
  Mg  Mg12  1  0.000000  0.000000  0.000000  1
  Mg  Mg13  1  0.500000  0.500000  0.000000  1
  S  S14  1  0.224643  0.694265  0.139786  1
  S  S15  1  0.724643  0.805735  0.139786  1
  S  S16  1  0.653314  0.352777  0.337955  1
  S  S17  1  0.775357  0.305735  0.860214  1
  S  S18  1  0.846686  0.852777  0.662045  1
  S  S19  1  0.275357  0.194265  0.860214  1
  S  S20  1  0.346686  0.647223  0.662045  1
  S  S21  1  0.153314  0.147223  0.337955  1
  O  O22  1  0.318642  0.103093  0.462849  1
  O  O23  1  0.820562  0.744784  0.289050  1
  O  O24  1  0.818642  0.396907  0.462849  1
  O  O25  1  0.181358  0.603093  0.537151  1
  O  O26  1  0.501278  0.584062  0.645736  1
  O  O27  1  0.320562  0.755216  0.289050  1
  O  O28  1  0.666727  0.406270  0.199024  1
  O  O29  1  0.842784  0.895342  0.094197  1
  O  O30  1  0.157216  0.104658  0.905803  1
  O  O31  1  0.342784  0.604658  0.094197  1
  O  O32  1  0.657216  0.395342  0.905803  1
  O  O33  1  0.681358  0.896907  0.537151  1
  O  O34  1  0.333273  0.593730  0.800976  1
  O  O35  1  0.179438  0.255216  0.710950  1
  O  O36  1  0.155665  0.815326  0.030690  1
  O  O37  1  0.498722  0.415938  0.354264  1
  O  O38  1  0.998722  0.084062  0.354264  1
  O  O39  1  0.166727  0.093730  0.199024  1
  O  O40  1  0.575192  0.896776  0.135238  1
  O  O41  1  0.140500  0.307133  0.330970  1
  O  O42  1  0.075192  0.603224  0.135238  1
  O  O43  1  0.640500  0.192867  0.330970  1
  O  O44  1  0.001278  0.915938  0.645736  1
  O  O45  1  0.679438  0.244784  0.710950  1
  O  O46  1  0.833273  0.906270  0.800976  1
  O  O47  1  0.424808  0.103224  0.864762  1
  O  O48  1  0.859500  0.692867  0.669030  1
  O  O49  1  0.844335  0.184674  0.969310  1
  O  O50  1  0.344335  0.315326  0.969310  1
  O  O51  1  0.924808  0.396776  0.864762  1
  O  O52  1  0.655665  0.684674  0.030690  1
  O  O53  1  0.359500  0.807133  0.669030  1
