# generated using pymatgen
data_K4ZnAs2
_symmetry_space_group_name_H-M   'P 1'
_cell_length_a   9.64707993
_cell_length_b   9.64707993
_cell_length_c   9.64707993
_cell_angle_alpha   34.89143165
_cell_angle_beta   34.89143165
_cell_angle_gamma   34.89143165
_symmetry_Int_Tables_number   1
_chemical_formula_structural   K4ZnAs2
_chemical_formula_sum   'K4 Zn1 As2'
_cell_volume   262.25750199
_cell_formula_units_Z   1
loop_
 _symmetry_equiv_pos_site_id
 _symmetry_equiv_pos_as_xyz
  1  'x, y, z'
loop_
 _atom_site_type_symbol
 _atom_site_label
 _atom_site_symmetry_multiplicity
 _atom_site_fract_x
 _atom_site_fract_y
 _atom_site_fract_z
 _atom_site_occupancy
  K  K0  1  0.615229  0.615229  0.615229  1
  K  K1  1  0.791193  0.791193  0.791193  1
  K  K2  1  0.208807  0.208807  0.208807  1
  K  K3  1  0.384771  0.384771  0.384771  1
  Zn  Zn4  1  0.000000  0.000000  0.000000  1
  As  As5  1  0.914322  0.914322  0.914322  1
  As  As6  1  0.085678  0.085678  0.085678  1
