# generated using pymatgen
data_MnP2O7
_symmetry_space_group_name_H-M   'P 1'
_cell_length_a   6.20509728
_cell_length_b   6.20509728
_cell_length_c   13.15520966
_cell_angle_alpha   74.92676789
_cell_angle_beta   105.07323211
_cell_angle_gamma   99.33748836
_symmetry_Int_Tables_number   1
_chemical_formula_structural   MnP2O7
_chemical_formula_sum   'Mn4 P8 O28'
_cell_volume   469.82513966
_cell_formula_units_Z   4
loop_
 _symmetry_equiv_pos_site_id
 _symmetry_equiv_pos_as_xyz
  1  'x, y, z'
loop_
 _atom_site_type_symbol
 _atom_site_label
 _atom_site_symmetry_multiplicity
 _atom_site_fract_x
 _atom_site_fract_y
 _atom_site_fract_z
 _atom_site_occupancy
  Mn  Mn0  1  0.590010  0.878631  0.857212  1
  Mn  Mn1  1  0.121369  0.409990  0.357212  1
  Mn  Mn2  1  0.878631  0.590010  0.642788  1
  Mn  Mn3  1  0.409990  0.121369  0.142788  1
  P  P4  1  0.586069  0.333943  0.930045  1
  P  P5  1  0.333943  0.586069  0.569955  1
  P  P6  1  0.250296  0.917424  0.363709  1
  P  P7  1  0.917424  0.250296  0.136291  1
  P  P8  1  0.082576  0.749704  0.863709  1
  P  P9  1  0.749704  0.082576  0.636291  1
  P  P10  1  0.666057  0.413931  0.430045  1
  P  P11  1  0.413931  0.666057  0.069955  1
  O  O12  1  0.645424  0.190684  0.864575  1
  O  O13  1  0.561262  0.527507  0.645319  1
  O  O14  1  0.573814  0.974311  0.702240  1
  O  O15  1  0.087377  0.117486  0.118513  1
  O  O16  1  0.393100  0.805261  0.481392  1
  O  O17  1  0.527507  0.561262  0.854681  1
  O  O18  1  0.117486  0.087377  0.381487  1
  O  O19  1  0.211812  0.401458  0.509924  1
  O  O20  1  0.025689  0.426186  0.202240  1
  O  O21  1  0.401458  0.211812  0.990076  1
  O  O22  1  0.087337  0.726049  0.323659  1
  O  O23  1  0.805261  0.393100  0.018608  1
  O  O24  1  0.190684  0.645424  0.635425  1
  O  O25  1  0.273951  0.912663  0.823659  1
  O  O26  1  0.726049  0.087337  0.176341  1
  O  O27  1  0.809316  0.354576  0.364575  1
  O  O28  1  0.194739  0.606900  0.981392  1
  O  O29  1  0.912663  0.273951  0.676341  1
  O  O30  1  0.598542  0.788188  0.009924  1
  O  O31  1  0.974311  0.573814  0.797760  1
  O  O32  1  0.788188  0.598542  0.490076  1
  O  O33  1  0.882514  0.912623  0.618513  1
  O  O34  1  0.472493  0.438738  0.145319  1
  O  O35  1  0.606900  0.194739  0.518608  1
  O  O36  1  0.912623  0.882514  0.881487  1
  O  O37  1  0.426186  0.025689  0.297760  1
  O  O38  1  0.438738  0.472493  0.354681  1
  O  O39  1  0.354576  0.809316  0.135425  1
