# generated using pymatgen
data_Cu5As2
_symmetry_space_group_name_H-M   'P 1'
_cell_length_a   7.08365389
_cell_length_b   7.08365389
_cell_length_c   7.08365389
_cell_angle_alpha   133.73481649
_cell_angle_beta   129.86461981
_cell_angle_gamma   70.59172297
_symmetry_Int_Tables_number   1
_chemical_formula_structural   Cu5As2
_chemical_formula_sum   'Cu10 As4'
_cell_volume   193.15349653
_cell_formula_units_Z   2
loop_
 _symmetry_equiv_pos_site_id
 _symmetry_equiv_pos_as_xyz
  1  'x, y, z'
loop_
 _atom_site_type_symbol
 _atom_site_label
 _atom_site_symmetry_multiplicity
 _atom_site_fract_x
 _atom_site_fract_y
 _atom_site_fract_z
 _atom_site_occupancy
  Cu  Cu0  1  0.705857  0.896457  0.809401  1
  Cu  Cu1  1  0.294143  0.103543  0.190599  1
  Cu  Cu2  1  0.912944  0.603543  0.309401  1
  Cu  Cu3  1  0.087056  0.396457  0.690599  1
  Cu  Cu4  1  0.268790  0.018790  0.750000  1
  Cu  Cu5  1  0.731210  0.481210  0.750000  1
  Cu  Cu6  1  0.731210  0.981210  0.250000  1
  Cu  Cu7  1  0.268790  0.518790  0.250000  1
  Cu  Cu8  1  0.500000  0.750000  0.250000  1
  Cu  Cu9  1  0.500000  0.250000  0.750000  1
  As  As10  1  0.339711  0.616624  0.723087  1
  As  As11  1  0.660289  0.383376  0.276913  1
  As  As12  1  0.106463  0.883376  0.223087  1
  As  As13  1  0.893537  0.116624  0.776913  1
