# generated using pymatgen
data_TiZn2O4
_symmetry_space_group_name_H-M   'P 1'
_cell_length_a   6.07598448
_cell_length_b   6.07598448
_cell_length_c   8.51563605
_cell_angle_alpha   90.00000000
_cell_angle_beta   90.00000000
_cell_angle_gamma   90.00000000
_symmetry_Int_Tables_number   1
_chemical_formula_structural   TiZn2O4
_chemical_formula_sum   'Ti4 Zn8 O16'
_cell_volume   314.37673815
_cell_formula_units_Z   4
loop_
 _symmetry_equiv_pos_site_id
 _symmetry_equiv_pos_as_xyz
  1  'x, y, z'
loop_
 _atom_site_type_symbol
 _atom_site_label
 _atom_site_symmetry_multiplicity
 _atom_site_fract_x
 _atom_site_fract_y
 _atom_site_fract_z
 _atom_site_occupancy
  Ti  Ti0  1  0.500000  0.239276  0.000000  1
  Ti  Ti1  1  0.760724  0.500000  0.250000  1
  Ti  Ti2  1  0.239276  0.500000  0.750000  1
  Ti  Ti3  1  0.500000  0.760724  0.500000  1
  Zn  Zn4  1  0.252757  0.252757  0.375000  1
  Zn  Zn5  1  0.747243  0.252757  0.625000  1
  Zn  Zn6  1  0.252757  0.747243  0.125000  1
  Zn  Zn7  1  0.747243  0.747243  0.875000  1
  Zn  Zn8  1  0.000000  0.244894  0.000000  1
  Zn  Zn9  1  0.755106  0.000000  0.250000  1
  Zn  Zn10  1  0.244894  0.000000  0.750000  1
  Zn  Zn11  1  0.000000  0.755106  0.500000  1
  O  O12  1  0.973863  0.734282  0.249331  1
  O  O13  1  0.265718  0.973863  0.499331  1
  O  O14  1  0.734282  0.026137  0.999331  1
  O  O15  1  0.973863  0.265718  0.250669  1
  O  O16  1  0.026137  0.734282  0.750669  1
  O  O17  1  0.026137  0.265718  0.749331  1
  O  O18  1  0.734282  0.973863  0.500669  1
  O  O19  1  0.265718  0.026137  0.000669  1
  O  O20  1  0.514220  0.266332  0.231974  1
  O  O21  1  0.733668  0.514220  0.481974  1
  O  O22  1  0.266332  0.485780  0.981974  1
  O  O23  1  0.514220  0.733668  0.268026  1
  O  O24  1  0.485780  0.266332  0.768026  1
  O  O25  1  0.485780  0.733668  0.731974  1
  O  O26  1  0.266332  0.514220  0.518026  1
  O  O27  1  0.733668  0.485780  0.018026  1
