# generated using pymatgen
data_VCdO3
_symmetry_space_group_name_H-M   'P 1'
_cell_length_a   3.64511037
_cell_length_b   5.32889052
_cell_length_c   14.58033540
_cell_angle_alpha   90.00000000
_cell_angle_beta   90.00000000
_cell_angle_gamma   90.00000000
_symmetry_Int_Tables_number   1
_chemical_formula_structural   VCdO3
_chemical_formula_sum   'V4 Cd4 O12'
_cell_volume   283.21418085
_cell_formula_units_Z   4
loop_
 _symmetry_equiv_pos_site_id
 _symmetry_equiv_pos_as_xyz
  1  'x, y, z'
loop_
 _atom_site_type_symbol
 _atom_site_label
 _atom_site_symmetry_multiplicity
 _atom_site_fract_x
 _atom_site_fract_y
 _atom_site_fract_z
 _atom_site_occupancy
  V  V0  1  0.750000  0.582288  0.419106  1
  V  V1  1  0.750000  0.917712  0.919106  1
  V  V2  1  0.250000  0.417712  0.580894  1
  V  V3  1  0.250000  0.082288  0.080894  1
  Cd  Cd4  1  0.750000  0.629950  0.180460  1
  Cd  Cd5  1  0.250000  0.129950  0.319540  1
  Cd  Cd6  1  0.250000  0.370050  0.819540  1
  Cd  Cd7  1  0.750000  0.870050  0.680460  1
  O  O8  1  0.250000  0.890070  0.192700  1
  O  O9  1  0.750000  0.892670  0.389300  1
  O  O10  1  0.750000  0.538930  0.555786  1
  O  O11  1  0.750000  0.961070  0.055786  1
  O  O12  1  0.250000  0.461070  0.444214  1
  O  O13  1  0.750000  0.109930  0.807300  1
  O  O14  1  0.250000  0.392670  0.110700  1
  O  O15  1  0.250000  0.038930  0.944214  1
  O  O16  1  0.250000  0.609930  0.692700  1
  O  O17  1  0.250000  0.107330  0.610700  1
  O  O18  1  0.750000  0.390070  0.307300  1
  O  O19  1  0.750000  0.607330  0.889300  1
