# generated using pymatgen
data_K3Sb2N2O6F7
_symmetry_space_group_name_H-M   'P 1'
_cell_length_a   8.18467561
_cell_length_b   8.18467561
_cell_length_c   7.30705079
_cell_angle_alpha   88.53132102
_cell_angle_beta   91.46867898
_cell_angle_gamma   138.74527463
_symmetry_Int_Tables_number   1
_chemical_formula_structural   K3Sb2N2O6F7
_chemical_formula_sum   'K3 Sb2 N2 O6 F7'
_cell_volume   322.65339546
_cell_formula_units_Z   1
loop_
 _symmetry_equiv_pos_site_id
 _symmetry_equiv_pos_as_xyz
  1  'x, y, z'
loop_
 _atom_site_type_symbol
 _atom_site_label
 _atom_site_symmetry_multiplicity
 _atom_site_fract_x
 _atom_site_fract_y
 _atom_site_fract_z
 _atom_site_occupancy
  K  K0  1  0.217196  0.782804  0.740819  1
  K  K1  1  0.782804  0.217196  0.259181  1
  K  K2  1  0.500000  0.500000  0.500000  1
  Sb  Sb3  1  0.903403  0.096597  0.749230  1
  Sb  Sb4  1  0.096597  0.903403  0.250770  1
  N  N5  1  0.591435  0.408565  0.920896  1
  N  N6  1  0.408565  0.591435  0.079104  1
  O  O7  1  0.607911  0.392089  0.092939  1
  O  O8  1  0.226794  0.392120  0.163681  1
  O  O9  1  0.773206  0.607880  0.836319  1
  O  O10  1  0.392120  0.226794  0.836319  1
  O  O11  1  0.607880  0.773206  0.163681  1
  O  O12  1  0.392089  0.607911  0.907061  1
  F  F13  1  0.914406  0.614927  0.416196  1
  F  F14  1  0.614927  0.914406  0.583804  1
  F  F15  1  0.385073  0.085594  0.416196  1
  F  F16  1  0.212473  0.787527  0.129403  1
  F  F17  1  0.085594  0.385073  0.583804  1
  F  F18  1  0.787527  0.212473  0.870597  1
  F  F19  1  1.000000  0.000000  0.500000  1
