# generated using pymatgen
data_Na3AsS3
_symmetry_space_group_name_H-M   'P 1'
_cell_length_a   8.63413982
_cell_length_b   8.63413982
_cell_length_c   8.63413982
_cell_angle_alpha   90.00000000
_cell_angle_beta   90.00000000
_cell_angle_gamma   90.00000000
_symmetry_Int_Tables_number   1
_chemical_formula_structural   Na3AsS3
_chemical_formula_sum   'Na12 As4 S12'
_cell_volume   643.66105366
_cell_formula_units_Z   4
loop_
 _symmetry_equiv_pos_site_id
 _symmetry_equiv_pos_as_xyz
  1  'x, y, z'
loop_
 _atom_site_type_symbol
 _atom_site_label
 _atom_site_symmetry_multiplicity
 _atom_site_fract_x
 _atom_site_fract_y
 _atom_site_fract_z
 _atom_site_occupancy
  Na  Na0  1  0.581643  0.581643  0.581643  1
  Na  Na1  1  0.918357  0.418357  0.081643  1
  Na  Na2  1  0.081643  0.918357  0.418357  1
  Na  Na3  1  0.418357  0.081643  0.918357  1
  Na  Na4  1  0.317652  0.317652  0.317652  1
  Na  Na5  1  0.182348  0.682348  0.817652  1
  Na  Na6  1  0.817652  0.182348  0.682348  1
  Na  Na7  1  0.682348  0.817652  0.182348  1
  Na  Na8  1  0.810241  0.810241  0.810241  1
  Na  Na9  1  0.689759  0.189759  0.310241  1
  Na  Na10  1  0.310241  0.689759  0.189759  1
  Na  Na11  1  0.189759  0.310241  0.689759  1
  As  As12  1  0.972228  0.527772  0.472228  1
  As  As13  1  0.472228  0.972228  0.527772  1
  As  As14  1  0.027772  0.027772  0.027772  1
  As  As15  1  0.527772  0.472228  0.972228  1
  S  S16  1  0.776113  0.105455  0.001312  1
  S  S17  1  0.723887  0.894545  0.501312  1
  S  S18  1  0.276113  0.394545  0.998688  1
  S  S19  1  0.105455  0.001312  0.776113  1
  S  S20  1  0.223887  0.605455  0.498688  1
  S  S21  1  0.498688  0.223887  0.605455  1
  S  S22  1  0.605455  0.498688  0.223887  1
  S  S23  1  0.894545  0.501312  0.723887  1
  S  S24  1  0.998688  0.276113  0.394545  1
  S  S25  1  0.394545  0.998688  0.276113  1
  S  S26  1  0.001312  0.776113  0.105455  1
  S  S27  1  0.501312  0.723887  0.894545  1
