# generated using pymatgen
data_Li13Ti22O48
_symmetry_space_group_name_H-M   'P 1'
_cell_length_a   15.79654116
_cell_length_b   15.79654116
_cell_length_c   10.34205803
_cell_angle_alpha   70.92927935
_cell_angle_beta   109.07072065
_cell_angle_gamma   158.19968624
_symmetry_Int_Tables_number   1
_chemical_formula_structural   Li13Ti22O48
_chemical_formula_sum   'Li13 Ti22 O48'
_cell_volume   903.77800881
_cell_formula_units_Z   1
loop_
 _symmetry_equiv_pos_site_id
 _symmetry_equiv_pos_as_xyz
  1  'x, y, z'
loop_
 _atom_site_type_symbol
 _atom_site_label
 _atom_site_symmetry_multiplicity
 _atom_site_fract_x
 _atom_site_fract_y
 _atom_site_fract_z
 _atom_site_occupancy
  Li  Li0  1  0.500040  0.499960  0.497791  1
  Li  Li1  1  0.540661  0.459339  0.209098  1
  Li  Li2  1  0.165957  0.834043  0.830205  1
  Li  Li3  1  0.209060  0.790940  0.544535  1
  Li  Li4  1  0.041389  0.958611  0.709461  1
  Li  Li5  1  0.833820  0.166180  0.164791  1
  Li  Li6  1  0.666024  0.333976  0.333536  1
  Li  Li7  1  0.876142  0.123858  0.877102  1
  Li  Li8  1  0.708846  0.291154  0.041058  1
  Li  Li9  1  0.687605  0.312395  0.687391  1
  Li  Li10  1  0.376023  0.623977  0.378243  1
  Li  Li11  1  0.333650  0.666350  0.666092  1
  Li  Li12  1  0.937414  0.062586  0.437886  1
  Ti  Ti13  1  0.361263  0.148065  0.524762  1
  Ti  Ti14  1  0.101998  0.898002  0.266979  1
  Ti  Ti15  1  0.019148  0.980852  0.359719  1
  Ti  Ti16  1  0.855778  0.648560  0.019669  1
  Ti  Ti17  1  0.013602  0.476594  0.849589  1
  Ti  Ti18  1  0.851935  0.638737  0.524762  1
  Ti  Ti19  1  0.606497  0.393503  0.771486  1
  Ti  Ti20  1  0.769062  0.230938  0.604233  1
  Ti  Ti21  1  0.520378  0.479622  0.857900  1
  Ti  Ti22  1  0.520388  0.977999  0.356163  1
  Ti  Ti23  1  0.694864  0.819156  0.193485  1
  Ti  Ti24  1  0.351440  0.144222  0.019669  1
  Ti  Ti25  1  0.523406  0.986398  0.849589  1
  Ti  Ti26  1  0.272162  0.727838  0.106186  1
  Ti  Ti27  1  0.438442  0.561558  0.936596  1
  Ti  Ti28  1  0.354321  0.645679  0.017369  1
  Ti  Ti29  1  0.187424  0.812576  0.186985  1
  Ti  Ti30  1  0.183332  0.307102  0.683179  1
  Ti  Ti31  1  0.022001  0.479612  0.356163  1
  Ti  Ti32  1  0.180844  0.305136  0.193485  1
  Ti  Ti33  1  0.856465  0.143535  0.516580  1
  Ti  Ti34  1  0.692898  0.816668  0.683179  1
  O  O35  1  0.286227  0.156283  0.323149  1
  O  O36  1  0.139911  0.860089  0.475726  1
  O  O37  1  0.063953  0.936047  0.545514  1
  O  O38  1  0.843717  0.713773  0.323149  1
  O  O39  1  0.786445  0.657205  0.823654  1
  O  O40  1  0.872782  0.592908  0.716471  1
  O  O41  1  0.967840  0.497612  0.658248  1
  O  O42  1  0.806436  0.193564  0.806914  1
  O  O43  1  0.639813  0.360187  0.484193  1
  O  O44  1  0.639946  0.360054  0.971676  1
  O  O45  1  0.564800  0.435200  0.048425  1
  O  O46  1  0.568919  0.431081  0.567826  1
  O  O47  1  0.735226  0.264774  0.890636  1
  O  O48  1  0.342795  0.213555  0.823654  1
  O  O49  1  0.502388  0.032160  0.658248  1
  O  O50  1  0.407092  0.127218  0.716471  1
  O  O51  1  0.620629  0.825130  0.989779  1
  O  O52  1  0.533223  0.911979  0.051731  1
  O  O53  1  0.367546  0.079806  0.219111  1
  O  O54  1  0.455479  0.992402  0.156838  1
  O  O55  1  0.143920  0.856080  0.993291  1
  O  O56  1  0.306435  0.693565  0.306986  1
  O  O57  1  0.471838  0.528162  0.136181  1
  O  O58  1  0.070411  0.929589  0.069652  1
  O  O59  1  0.310943  0.689057  0.830026  1
  O  O60  1  0.235287  0.764713  0.900623  1
  O  O61  1  0.397935  0.602065  0.214949  1
  O  O62  1  0.231489  0.768511  0.381429  1
  O  O63  1  0.174870  0.379371  0.989779  1
  O  O64  1  0.007598  0.544521  0.156838  1
  O  O65  1  0.088021  0.466777  0.051731  1
  O  O66  1  0.920194  0.632454  0.219111  1
  O  O67  1  0.213570  0.254784  0.378479  1
  O  O68  1  0.128249  0.336743  0.497023  1
  O  O69  1  0.031501  0.411514  0.550684  1
  O  O70  1  0.976332  0.023668  0.164764  1
  O  O71  1  0.973198  0.026802  0.651464  1
  O  O72  1  0.735030  0.264970  0.402632  1
  O  O73  1  0.901349  0.098651  0.222445  1
  O  O74  1  0.810778  0.189222  0.326760  1
  O  O75  1  0.897866  0.102134  0.714485  1
  O  O76  1  0.663257  0.871751  0.497023  1
  O  O77  1  0.745216  0.786430  0.378479  1
  O  O78  1  0.588486  0.968499  0.550684  1
  O  O79  1  0.693712  0.741275  0.881715  1
  O  O80  1  0.476694  0.523306  0.657651  1
  O  O81  1  0.402292  0.597708  0.737269  1
  O  O82  1  0.258725  0.306288  0.881715  1
