# generated using pymatgen
data_Co3(P2O7)2
_symmetry_space_group_name_H-M   'P 1'
_cell_length_a   7.31112370
_cell_length_b   7.93742658
_cell_length_c   9.39994264
_cell_angle_alpha   90.00000000
_cell_angle_beta   110.23313409
_cell_angle_gamma   90.00000000
_symmetry_Int_Tables_number   1
_chemical_formula_structural   Co3(P2O7)2
_chemical_formula_sum   'Co6 P8 O28'
_cell_volume   511.83221360
_cell_formula_units_Z   2
loop_
 _symmetry_equiv_pos_site_id
 _symmetry_equiv_pos_as_xyz
  1  'x, y, z'
loop_
 _atom_site_type_symbol
 _atom_site_label
 _atom_site_symmetry_multiplicity
 _atom_site_fract_x
 _atom_site_fract_y
 _atom_site_fract_z
 _atom_site_occupancy
  Co  Co0  1  0.000000  0.000000  0.500000  1
  Co  Co1  1  0.805661  0.377049  0.472915  1
  Co  Co2  1  0.000000  0.500000  0.000000  1
  Co  Co3  1  0.805661  0.122951  0.972915  1
  Co  Co4  1  0.194339  0.877049  0.027085  1
  Co  Co5  1  0.194339  0.622951  0.527085  1
  P  P6  1  0.892502  0.788661  0.197983  1
  P  P7  1  0.892502  0.711339  0.697983  1
  P  P8  1  0.603719  0.034781  0.210438  1
  P  P9  1  0.603719  0.465219  0.710438  1
  P  P10  1  0.396281  0.534781  0.289562  1
  P  P11  1  0.396281  0.965219  0.789562  1
  P  P12  1  0.107498  0.288661  0.302017  1
  P  P13  1  0.107498  0.211339  0.802017  1
  O  O14  1  0.996136  0.288341  0.128542  1
  O  O15  1  0.970496  0.919152  0.111060  1
  O  O16  1  0.877358  0.616671  0.123499  1
  O  O17  1  0.996136  0.211659  0.628542  1
  O  O18  1  0.970496  0.580848  0.611060  1
  O  O19  1  0.877358  0.883329  0.623499  1
  O  O20  1  0.679013  0.847231  0.185421  1
  O  O21  1  0.634615  0.150900  0.091507  1
  O  O22  1  0.731972  0.096420  0.370474  1
  O  O23  1  0.610398  0.505858  0.311918  1
  O  O24  1  0.679013  0.652769  0.685421  1
  O  O25  1  0.634615  0.349100  0.591507  1
  O  O26  1  0.731972  0.403580  0.870474  1
  O  O27  1  0.389602  0.005858  0.188082  1
  O  O28  1  0.610398  0.994142  0.811918  1
  O  O29  1  0.268028  0.596420  0.129526  1
  O  O30  1  0.365385  0.650900  0.408493  1
  O  O31  1  0.320987  0.347231  0.314579  1
  O  O32  1  0.389602  0.494142  0.688082  1
  O  O33  1  0.268028  0.903580  0.629526  1
  O  O34  1  0.365385  0.849100  0.908493  1
  O  O35  1  0.320987  0.152769  0.814579  1
  O  O36  1  0.122642  0.116671  0.376501  1
  O  O37  1  0.029504  0.419152  0.388940  1
  O  O38  1  0.003864  0.788341  0.371458  1
  O  O39  1  0.122642  0.383329  0.876501  1
  O  O40  1  0.029504  0.080848  0.888940  1
  O  O41  1  0.003864  0.711659  0.871458  1
