# generated using pymatgen
data_KNaSiF6
_symmetry_space_group_name_H-M   'P 1'
_cell_length_a   5.54639652
_cell_length_b   9.52080439
_cell_length_c   9.89918282
_cell_angle_alpha   90.00000000
_cell_angle_beta   90.00000000
_cell_angle_gamma   90.00000000
_symmetry_Int_Tables_number   1
_chemical_formula_structural   KNaSiF6
_chemical_formula_sum   'K4 Na4 Si4 F24'
_cell_volume   522.73779559
_cell_formula_units_Z   4
loop_
 _symmetry_equiv_pos_site_id
 _symmetry_equiv_pos_as_xyz
  1  'x, y, z'
loop_
 _atom_site_type_symbol
 _atom_site_label
 _atom_site_symmetry_multiplicity
 _atom_site_fract_x
 _atom_site_fract_y
 _atom_site_fract_z
 _atom_site_occupancy
  K  K0  1  0.750000  0.985971  0.323947  1
  K  K1  1  0.250000  0.514029  0.823947  1
  K  K2  1  0.250000  0.014029  0.676053  1
  K  K3  1  0.750000  0.485971  0.176053  1
  Na  Na4  1  0.750000  0.126822  0.946966  1
  Na  Na5  1  0.750000  0.626822  0.553034  1
  Na  Na6  1  0.250000  0.373178  0.446966  1
  Na  Na7  1  0.250000  0.873178  0.053034  1
  Si  Si8  1  0.750000  0.271834  0.578002  1
  Si  Si9  1  0.250000  0.228166  0.078002  1
  Si  Si10  1  0.750000  0.771834  0.921998  1
  Si  Si11  1  0.250000  0.728166  0.421998  1
  F  F12  1  0.529406  0.171157  0.503883  1
  F  F13  1  0.969404  0.377260  0.645402  1
  F  F14  1  0.750000  0.165733  0.717090  1
  F  F15  1  0.970594  0.671157  0.996117  1
  F  F16  1  0.030596  0.622740  0.354598  1
  F  F17  1  0.970594  0.171157  0.503883  1
  F  F18  1  0.250000  0.620829  0.563708  1
  F  F19  1  0.029406  0.828843  0.496117  1
  F  F20  1  0.250000  0.834267  0.282910  1
  F  F21  1  0.250000  0.334267  0.217090  1
  F  F22  1  0.469404  0.122740  0.145402  1
  F  F23  1  0.529406  0.671157  0.996117  1
  F  F24  1  0.750000  0.665733  0.782910  1
  F  F25  1  0.030596  0.122740  0.145402  1
  F  F26  1  0.470594  0.828843  0.496117  1
  F  F27  1  0.750000  0.879171  0.063708  1
  F  F28  1  0.029406  0.328843  0.003883  1
  F  F29  1  0.469404  0.622740  0.354598  1
  F  F30  1  0.470594  0.328843  0.003883  1
  F  F31  1  0.969404  0.877260  0.854598  1
  F  F32  1  0.250000  0.120829  0.936292  1
  F  F33  1  0.750000  0.379171  0.436292  1
  F  F34  1  0.530596  0.877260  0.854598  1
  F  F35  1  0.530596  0.377260  0.645402  1
