# generated using pymatgen
data_VPO5
_symmetry_space_group_name_H-M   'P 1'
_cell_length_a   9.37608973
_cell_length_b   9.37608973
_cell_length_c   8.74593968
_cell_angle_alpha   90.00000000
_cell_angle_beta   90.00000000
_cell_angle_gamma   90.00000000
_symmetry_Int_Tables_number   1
_chemical_formula_structural   VPO5
_chemical_formula_sum   'V8 P8 O40'
_cell_volume   768.86481594
_cell_formula_units_Z   8
loop_
 _symmetry_equiv_pos_site_id
 _symmetry_equiv_pos_as_xyz
  1  'x, y, z'
loop_
 _atom_site_type_symbol
 _atom_site_label
 _atom_site_symmetry_multiplicity
 _atom_site_fract_x
 _atom_site_fract_y
 _atom_site_fract_z
 _atom_site_occupancy
  V  V0  1  0.586194  0.249742  0.000000  1
  V  V1  1  0.913806  0.749742  0.000000  1
  V  V2  1  0.750258  0.586194  0.500000  1
  V  V3  1  0.250258  0.913806  0.500000  1
  V  V4  1  0.413806  0.750258  0.000000  1
  V  V5  1  0.086194  0.250258  0.000000  1
  V  V6  1  0.749742  0.086194  0.500000  1
  V  V7  1  0.249742  0.413806  0.500000  1
  P  P8  1  0.000000  0.000000  0.750000  1
  P  P9  1  0.500000  0.000000  0.250000  1
  P  P10  1  0.000000  0.500000  0.250000  1
  P  P11  1  0.000000  0.500000  0.750000  1
  P  P12  1  0.000000  0.000000  0.250000  1
  P  P13  1  0.500000  0.500000  0.250000  1
  P  P14  1  0.500000  0.500000  0.750000  1
  P  P15  1  0.500000  0.000000  0.750000  1
  O  O16  1  0.252225  0.805641  0.000000  1
  O  O17  1  0.805641  0.747775  0.500000  1
  O  O18  1  0.088574  0.102463  0.149941  1
  O  O19  1  0.588574  0.397537  0.850059  1
  O  O20  1  0.411426  0.602463  0.149941  1
  O  O21  1  0.194359  0.252225  0.500000  1
  O  O22  1  0.897537  0.088574  0.350059  1
  O  O23  1  0.364866  0.004401  0.350106  1
  O  O24  1  0.004401  0.635134  0.850106  1
  O  O25  1  0.102463  0.911426  0.350059  1
  O  O26  1  0.247775  0.305641  0.000000  1
  O  O27  1  0.102463  0.911426  0.649941  1
  O  O28  1  0.635134  0.995599  0.350106  1
  O  O29  1  0.602463  0.588574  0.350059  1
  O  O30  1  0.397537  0.411426  0.350059  1
  O  O31  1  0.305641  0.752225  0.500000  1
  O  O32  1  0.694359  0.247775  0.500000  1
  O  O33  1  0.364866  0.004401  0.649894  1
  O  O34  1  0.495599  0.135134  0.850106  1
  O  O35  1  0.635134  0.995599  0.649894  1
  O  O36  1  0.864866  0.495599  0.649894  1
  O  O37  1  0.397537  0.411426  0.649941  1
  O  O38  1  0.911426  0.897537  0.850059  1
  O  O39  1  0.135134  0.504401  0.350106  1
  O  O40  1  0.864866  0.495599  0.350106  1
  O  O41  1  0.911426  0.897537  0.149941  1
  O  O42  1  0.004401  0.635134  0.149894  1
  O  O43  1  0.088574  0.102463  0.850059  1
  O  O44  1  0.411426  0.602463  0.850059  1
  O  O45  1  0.504401  0.864866  0.149894  1
  O  O46  1  0.752225  0.694359  0.000000  1
  O  O47  1  0.495599  0.135134  0.149894  1
  O  O48  1  0.897537  0.088574  0.649941  1
  O  O49  1  0.602463  0.588574  0.649941  1
  O  O50  1  0.995599  0.364866  0.850106  1
  O  O51  1  0.995599  0.364866  0.149894  1
  O  O52  1  0.504401  0.864866  0.850106  1
  O  O53  1  0.135134  0.504401  0.649894  1
  O  O54  1  0.747775  0.194359  0.000000  1
  O  O55  1  0.588574  0.397537  0.149941  1
