# generated using pymatgen
data_Ba2ReO5
_symmetry_space_group_name_H-M   'P 1'
_cell_length_a   5.75669448
_cell_length_b   7.45428790
_cell_length_c   11.72035135
_cell_angle_alpha   90.00000000
_cell_angle_beta   90.00000000
_cell_angle_gamma   90.00000000
_symmetry_Int_Tables_number   1
_chemical_formula_structural   Ba2ReO5
_chemical_formula_sum   'Ba8 Re4 O20'
_cell_volume   502.94439698
_cell_formula_units_Z   4
loop_
 _symmetry_equiv_pos_site_id
 _symmetry_equiv_pos_as_xyz
  1  'x, y, z'
loop_
 _atom_site_type_symbol
 _atom_site_label
 _atom_site_symmetry_multiplicity
 _atom_site_fract_x
 _atom_site_fract_y
 _atom_site_fract_z
 _atom_site_occupancy
  Ba  Ba0  1  0.750000  0.977616  0.214806  1
  Ba  Ba1  1  0.250000  0.022384  0.785194  1
  Ba  Ba2  1  0.750000  0.477616  0.285194  1
  Ba  Ba3  1  0.250000  0.522384  0.714806  1
  Ba  Ba4  1  0.750000  0.664994  0.919695  1
  Ba  Ba5  1  0.250000  0.335006  0.080305  1
  Ba  Ba6  1  0.750000  0.164994  0.580305  1
  Ba  Ba7  1  0.250000  0.835006  0.419695  1
  Re  Re8  1  0.750000  0.668846  0.562743  1
  Re  Re9  1  0.250000  0.331154  0.437257  1
  Re  Re10  1  0.750000  0.168846  0.937257  1
  Re  Re11  1  0.250000  0.831154  0.062743  1
  O  O12  1  0.012287  0.677888  0.115030  1
  O  O13  1  0.512287  0.322112  0.884970  1
  O  O14  1  0.487713  0.177888  0.384970  1
  O  O15  1  0.987713  0.822112  0.615030  1
  O  O16  1  0.987713  0.322112  0.884970  1
  O  O17  1  0.487713  0.677888  0.115030  1
  O  O18  1  0.512287  0.822112  0.615030  1
  O  O19  1  0.012287  0.177888  0.384970  1
  O  O20  1  0.000000  0.000000  0.000000  1
  O  O21  1  0.500000  0.000000  0.000000  1
  O  O22  1  0.500000  0.500000  0.500000  1
  O  O23  1  0.000000  0.500000  0.500000  1
  O  O24  1  0.750000  0.778360  0.409968  1
  O  O25  1  0.250000  0.221640  0.590032  1
  O  O26  1  0.750000  0.278360  0.090032  1
  O  O27  1  0.250000  0.721640  0.909968  1
  O  O28  1  0.750000  0.521755  0.693020  1
  O  O29  1  0.250000  0.478245  0.306980  1
  O  O30  1  0.750000  0.021755  0.806980  1
  O  O31  1  0.250000  0.978245  0.193020  1
