# generated using pymatgen
data_AlPO4
_symmetry_space_group_name_H-M   'P 1'
_cell_length_a   9.03571609
_cell_length_b   10.20868722
_cell_length_c   20.05279336
_cell_angle_alpha   90.00000000
_cell_angle_beta   90.00000000
_cell_angle_gamma   90.00000000
_symmetry_Int_Tables_number   1
_chemical_formula_structural   AlPO4
_chemical_formula_sum   'Al16 P16 O64'
_cell_volume   1849.72579475
_cell_formula_units_Z   16
loop_
 _symmetry_equiv_pos_site_id
 _symmetry_equiv_pos_as_xyz
  1  'x, y, z'
loop_
 _atom_site_type_symbol
 _atom_site_label
 _atom_site_symmetry_multiplicity
 _atom_site_fract_x
 _atom_site_fract_y
 _atom_site_fract_z
 _atom_site_occupancy
  Al  Al0  1  0.861490  0.346749  0.547500  1
  Al  Al1  1  0.638510  0.846749  0.452500  1
  Al  Al2  1  0.695696  0.579973  0.794930  1
  Al  Al3  1  0.804304  0.579973  0.294930  1
  Al  Al4  1  0.695696  0.079973  0.705070  1
  Al  Al5  1  0.195696  0.420027  0.705070  1
  Al  Al6  1  0.804304  0.079973  0.205070  1
  Al  Al7  1  0.138510  0.653251  0.452500  1
  Al  Al8  1  0.304304  0.420027  0.205070  1
  Al  Al9  1  0.361490  0.153251  0.547500  1
  Al  Al10  1  0.304304  0.920027  0.294930  1
  Al  Al11  1  0.138510  0.153251  0.047500  1
  Al  Al12  1  0.861490  0.846749  0.952500  1
  Al  Al13  1  0.195696  0.920027  0.794930  1
  Al  Al14  1  0.361490  0.653251  0.952500  1
  Al  Al15  1  0.638510  0.346749  0.047500  1
  P  P16  1  0.846099  0.355821  0.705305  1
  P  P17  1  0.793917  0.077822  0.047241  1
  P  P18  1  0.706083  0.577822  0.952759  1
  P  P19  1  0.706083  0.077822  0.547241  1
  P  P20  1  0.346099  0.144179  0.705305  1
  P  P21  1  0.293917  0.922178  0.452759  1
  P  P22  1  0.793917  0.577822  0.452759  1
  P  P23  1  0.653901  0.855821  0.294695  1
  P  P24  1  0.206083  0.422178  0.547241  1
  P  P25  1  0.846099  0.855821  0.794695  1
  P  P26  1  0.153901  0.144179  0.205305  1
  P  P27  1  0.206083  0.922178  0.952759  1
  P  P28  1  0.653901  0.355821  0.205305  1
  P  P29  1  0.153901  0.644179  0.294695  1
  P  P30  1  0.293917  0.422178  0.047241  1
  P  P31  1  0.346099  0.644179  0.794695  1
  O  O32  1  0.310178  0.786579  0.775420  1
  O  O33  1  0.753087  0.947560  0.254235  1
  O  O34  1  0.689822  0.213421  0.224580  1
  O  O35  1  0.220637  0.461979  0.620963  1
  O  O36  1  0.246913  0.552440  0.754235  1
  O  O37  1  0.550776  0.133930  0.533914  1
  O  O38  1  0.246913  0.052440  0.745765  1
  O  O39  1  0.279363  0.961979  0.379037  1
  O  O40  1  0.686404  0.878646  0.369310  1
  O  O41  1  0.821028  0.682909  0.971072  1
  O  O42  1  0.178972  0.817091  0.471072  1
  O  O43  1  0.813596  0.378646  0.630690  1
  O  O44  1  0.990149  0.117783  0.220700  1
  O  O45  1  0.313596  0.621354  0.869310  1
  O  O46  1  0.449224  0.866070  0.466086  1
  O  O47  1  0.509851  0.117783  0.720700  1
  O  O48  1  0.253087  0.552440  0.254235  1
  O  O49  1  0.265540  0.543392  0.003761  1
  O  O50  1  0.449224  0.366070  0.033914  1
  O  O51  1  0.313596  0.121354  0.630690  1
  O  O52  1  0.550776  0.633930  0.966086  1
  O  O53  1  0.779363  0.538021  0.379037  1
  O  O54  1  0.990149  0.617783  0.279300  1
  O  O55  1  0.234460  0.043392  0.996239  1
  O  O56  1  0.765540  0.456608  0.496239  1
  O  O57  1  0.009851  0.882217  0.779300  1
  O  O58  1  0.279363  0.461979  0.120963  1
  O  O59  1  0.186404  0.621354  0.369310  1
  O  O60  1  0.490149  0.882217  0.279300  1
  O  O61  1  0.050776  0.366070  0.533914  1
  O  O62  1  0.949224  0.633930  0.466086  1
  O  O63  1  0.810178  0.213421  0.724580  1
  O  O64  1  0.821028  0.182909  0.528928  1
  O  O65  1  0.678972  0.182909  0.028928  1
  O  O66  1  0.734460  0.456608  0.996239  1
  O  O67  1  0.186404  0.121354  0.130690  1
  O  O68  1  0.050776  0.866070  0.966086  1
  O  O69  1  0.678972  0.682909  0.471072  1
  O  O70  1  0.686404  0.378646  0.130690  1
  O  O71  1  0.234460  0.543392  0.503761  1
  O  O72  1  0.779363  0.038021  0.120963  1
  O  O73  1  0.321028  0.817091  0.971072  1
  O  O74  1  0.753087  0.447560  0.245765  1
  O  O75  1  0.734460  0.956608  0.503761  1
  O  O76  1  0.189822  0.286579  0.224580  1
  O  O77  1  0.720637  0.038021  0.620963  1
  O  O78  1  0.810178  0.713421  0.775420  1
  O  O79  1  0.765540  0.956608  0.003761  1
  O  O80  1  0.813596  0.878646  0.869310  1
  O  O81  1  0.189822  0.786579  0.275420  1
  O  O82  1  0.509851  0.617783  0.779300  1
  O  O83  1  0.746913  0.947560  0.754235  1
  O  O84  1  0.720637  0.538021  0.879037  1
  O  O85  1  0.009851  0.382217  0.720700  1
  O  O86  1  0.490149  0.382217  0.220700  1
  O  O87  1  0.746913  0.447560  0.745765  1
  O  O88  1  0.253087  0.052440  0.245765  1
  O  O89  1  0.220637  0.961979  0.879037  1
  O  O90  1  0.321028  0.317091  0.528928  1
  O  O91  1  0.689822  0.713421  0.275420  1
  O  O92  1  0.178972  0.317091  0.028928  1
  O  O93  1  0.310178  0.286579  0.724580  1
  O  O94  1  0.265540  0.043392  0.496239  1
  O  O95  1  0.949224  0.133930  0.033914  1
