# generated using pymatgen
data_SbAsPd5
_symmetry_space_group_name_H-M   'P 1'
_cell_length_a   8.78174706
_cell_length_b   8.78174706
_cell_length_c   8.78174706
_cell_angle_alpha   60.00000000
_cell_angle_beta   60.00000000
_cell_angle_gamma   60.00000000
_symmetry_Int_Tables_number   1
_chemical_formula_structural   SbAsPd5
_chemical_formula_sum   'Sb4 As4 Pd20'
_cell_volume   478.88118520
_cell_formula_units_Z   4
loop_
 _symmetry_equiv_pos_site_id
 _symmetry_equiv_pos_as_xyz
  1  'x, y, z'
loop_
 _atom_site_type_symbol
 _atom_site_label
 _atom_site_symmetry_multiplicity
 _atom_site_fract_x
 _atom_site_fract_y
 _atom_site_fract_z
 _atom_site_occupancy
  Sb  Sb0  1  0.625000  0.125000  0.625000  1
  Sb  Sb1  1  0.625000  0.625000  0.625000  1
  Sb  Sb2  1  0.625000  0.625000  0.125000  1
  Sb  Sb3  1  0.125000  0.625000  0.625000  1
  As  As4  1  0.125000  0.625000  0.125000  1
  As  As5  1  0.125000  0.125000  0.125000  1
  As  As6  1  0.125000  0.125000  0.625000  1
  As  As7  1  0.625000  0.125000  0.125000  1
  Pd  Pd8  1  0.464200  0.035800  0.035800  1
  Pd  Pd9  1  0.785800  0.214200  0.785800  1
  Pd  Pd10  1  0.214200  0.785800  0.214200  1
  Pd  Pd11  1  0.214200  0.785800  0.785800  1
  Pd  Pd12  1  0.214200  0.214200  0.785800  1
  Pd  Pd13  1  0.785800  0.785800  0.214200  1
  Pd  Pd14  1  0.035800  0.035800  0.464200  1
  Pd  Pd15  1  0.464200  0.035800  0.464200  1
  Pd  Pd16  1  0.035800  0.464200  0.035800  1
  Pd  Pd17  1  0.464200  0.464200  0.035800  1
  Pd  Pd18  1  0.785800  0.214200  0.214200  1
  Pd  Pd19  1  0.035800  0.464200  0.464200  1
  Pd  Pd20  1  0.410644  0.768067  0.410644  1
  Pd  Pd21  1  0.839356  0.839356  0.839356  1
  Pd  Pd22  1  0.839356  0.839356  0.481933  1
  Pd  Pd23  1  0.481933  0.839356  0.839356  1
  Pd  Pd24  1  0.410644  0.410644  0.768067  1
  Pd  Pd25  1  0.768067  0.410644  0.410644  1
  Pd  Pd26  1  0.410644  0.410644  0.410644  1
  Pd  Pd27  1  0.839356  0.481933  0.839356  1
