# generated using pymatgen
data_CuSeO3
_symmetry_space_group_name_H-M   'P 1'
_cell_length_a   7.80054586
_cell_length_b   8.57196229
_cell_length_c   10.75279230
_cell_angle_alpha   90.00000000
_cell_angle_beta   127.43244792
_cell_angle_gamma   90.00000000
_symmetry_Int_Tables_number   1
_chemical_formula_structural   CuSeO3
_chemical_formula_sum   'Cu8 Se8 O24'
_cell_volume   570.93356760
_cell_formula_units_Z   8
loop_
 _symmetry_equiv_pos_site_id
 _symmetry_equiv_pos_as_xyz
  1  'x, y, z'
loop_
 _atom_site_type_symbol
 _atom_site_label
 _atom_site_symmetry_multiplicity
 _atom_site_fract_x
 _atom_site_fract_y
 _atom_site_fract_z
 _atom_site_occupancy
  Cu  Cu0  1  0.552931  0.796545  0.025499  1
  Cu  Cu1  1  0.208081  0.400183  0.616544  1
  Cu  Cu2  1  0.791919  0.599817  0.383456  1
  Cu  Cu3  1  0.791919  0.900183  0.883456  1
  Cu  Cu4  1  0.447069  0.203455  0.974501  1
  Cu  Cu5  1  0.208081  0.099817  0.116544  1
  Cu  Cu6  1  0.447069  0.296545  0.474501  1
  Cu  Cu7  1  0.552931  0.703455  0.525499  1
  Se  Se8  1  0.906814  0.363724  0.211635  1
  Se  Se9  1  0.646985  0.538066  0.827628  1
  Se  Se10  1  0.906814  0.136276  0.711635  1
  Se  Se11  1  0.353015  0.461934  0.172372  1
  Se  Se12  1  0.093186  0.636276  0.788365  1
  Se  Se13  1  0.353015  0.038066  0.672372  1
  Se  Se14  1  0.646985  0.961934  0.327628  1
  Se  Se15  1  0.093186  0.863724  0.288365  1
  O  O16  1  0.753678  0.199022  0.161966  1
  O  O17  1  0.461606  0.442743  0.838968  1
  O  O18  1  0.468152  0.571821  0.627179  1
  O  O19  1  0.337199  0.278447  0.087764  1
  O  O20  1  0.753678  0.300978  0.661966  1
  O  O21  1  0.246322  0.699022  0.338034  1
  O  O22  1  0.662801  0.721553  0.912236  1
  O  O23  1  0.531848  0.071821  0.872821  1
  O  O24  1  0.461606  0.057257  0.338968  1
  O  O25  1  0.151438  0.281506  0.273099  1
  O  O26  1  0.246322  0.800978  0.838034  1
  O  O27  1  0.039324  0.921305  0.107574  1
  O  O28  1  0.468152  0.928179  0.127179  1
  O  O29  1  0.848562  0.718494  0.726901  1
  O  O30  1  0.531848  0.428179  0.372821  1
  O  O31  1  0.538394  0.557257  0.161032  1
  O  O32  1  0.151438  0.218494  0.773099  1
  O  O33  1  0.538394  0.942743  0.661032  1
  O  O34  1  0.662801  0.778447  0.412236  1
  O  O35  1  0.039324  0.578695  0.607574  1
  O  O36  1  0.848562  0.781506  0.226901  1
  O  O37  1  0.960676  0.421305  0.392426  1
  O  O38  1  0.337199  0.221553  0.587764  1
  O  O39  1  0.960676  0.078695  0.892426  1
