# generated using pymatgen
data_La2B3Br
_symmetry_space_group_name_H-M   'P 1'
_cell_length_a   7.84123760
_cell_length_b   7.84123760
_cell_length_c   8.56859945
_cell_angle_alpha   90.00000000
_cell_angle_beta   90.00000000
_cell_angle_gamma   120.00000000
_symmetry_Int_Tables_number   1
_chemical_formula_structural   La2B3Br
_chemical_formula_sum   'La8 B12 Br4'
_cell_volume   456.25716892
_cell_formula_units_Z   4
loop_
 _symmetry_equiv_pos_site_id
 _symmetry_equiv_pos_as_xyz
  1  'x, y, z'
loop_
 _atom_site_type_symbol
 _atom_site_label
 _atom_site_symmetry_multiplicity
 _atom_site_fract_x
 _atom_site_fract_y
 _atom_site_fract_z
 _atom_site_occupancy
  La  La0  1  0.167000  0.334001  0.216914  1
  La  La1  1  0.167000  0.833000  0.216914  1
  La  La2  1  0.666667  0.333333  0.768679  1
  La  La3  1  0.665999  0.833000  0.216914  1
  La  La4  1  0.167000  0.833000  0.783086  1
  La  La5  1  0.666667  0.333333  0.231321  1
  La  La6  1  0.167000  0.334001  0.783086  1
  La  La7  1  0.665999  0.833000  0.783086  1
  B  B8  1  0.404110  0.808221  0.000000  1
  B  B9  1  0.191779  0.595890  0.000000  1
  B  B10  1  0.527904  0.472096  0.000000  1
  B  B11  1  0.141334  0.070667  0.000000  1
  B  B12  1  0.388528  0.194264  0.000000  1
  B  B13  1  0.527904  0.055808  0.000000  1
  B  B14  1  0.404110  0.595890  0.000000  1
  B  B15  1  0.805736  0.194264  0.000000  1
  B  B16  1  0.805736  0.611472  0.000000  1
  B  B17  1  0.929333  0.070667  0.000000  1
  B  B18  1  0.944192  0.472096  0.000000  1
  B  B19  1  0.929333  0.858666  0.000000  1
  Br  Br20  1  0.005708  0.502854  0.500000  1
  Br  Br21  1  0.497146  0.994292  0.500000  1
  Br  Br22  1  0.497146  0.502854  0.500000  1
  Br  Br23  1  0.000000  0.000000  0.500000  1
