# generated using pymatgen
data_AsC3N3F8
_symmetry_space_group_name_H-M   'P 1'
_cell_length_a   8.40776878
_cell_length_b   8.40776878
_cell_length_c   13.88780449
_cell_angle_alpha   70.28644519
_cell_angle_beta   109.71355481
_cell_angle_gamma   104.13724499
_symmetry_Int_Tables_number   1
_chemical_formula_structural   AsC3N3F8
_chemical_formula_sum   'As4 C12 N12 F32'
_cell_volume   860.55244929
_cell_formula_units_Z   4
loop_
 _symmetry_equiv_pos_site_id
 _symmetry_equiv_pos_as_xyz
  1  'x, y, z'
loop_
 _atom_site_type_symbol
 _atom_site_label
 _atom_site_symmetry_multiplicity
 _atom_site_fract_x
 _atom_site_fract_y
 _atom_site_fract_z
 _atom_site_occupancy
  As  As0  1  0.265051  0.189765  0.943301  1
  As  As1  1  0.189765  0.265051  0.556699  1
  As  As2  1  0.810235  0.734949  0.443301  1
  As  As3  1  0.734949  0.810235  0.056699  1
  C  C4  1  0.802012  0.205562  0.028347  1
  C  C5  1  0.722924  0.149690  0.869086  1
  C  C6  1  0.790181  0.414801  0.879667  1
  C  C7  1  0.197988  0.794438  0.971653  1
  C  C8  1  0.209819  0.585199  0.120333  1
  C  C9  1  0.585199  0.209819  0.379667  1
  C  C10  1  0.205562  0.802012  0.471653  1
  C  C11  1  0.149690  0.722924  0.630914  1
  C  C12  1  0.277076  0.850310  0.130914  1
  C  C13  1  0.850310  0.277076  0.369086  1
  C  C14  1  0.414801  0.790181  0.620333  1
  C  C15  1  0.794438  0.197988  0.528347  1
  N  N16  1  0.083964  0.753017  0.524027  1
  N  N17  1  0.259730  0.687245  0.182976  1
  N  N18  1  0.740270  0.312755  0.817024  1
  N  N19  1  0.687245  0.259730  0.317024  1
  N  N20  1  0.246983  0.916036  0.024027  1
  N  N21  1  0.178378  0.628300  0.015344  1
  N  N22  1  0.628300  0.178378  0.484656  1
  N  N23  1  0.916036  0.246983  0.475973  1
  N  N24  1  0.821622  0.371700  0.984656  1
  N  N25  1  0.312755  0.740270  0.682976  1
  N  N26  1  0.371700  0.821622  0.515344  1
  N  N27  1  0.753017  0.083964  0.975973  1
  F  F28  1  0.067550  0.136559  0.855394  1
  F  F29  1  0.211429  0.459886  0.458686  1
  F  F30  1  0.419767  0.188922  0.331524  1
  F  F31  1  0.580233  0.811078  0.668476  1
  F  F32  1  0.833355  0.152399  0.132240  1
  F  F33  1  0.850533  0.625441  0.368086  1
  F  F34  1  0.811078  0.580233  0.831524  1
  F  F35  1  0.374559  0.149467  0.868086  1
  F  F36  1  0.199791  0.154350  0.471819  1
  F  F37  1  0.136559  0.067550  0.644606  1
  F  F38  1  0.152399  0.833355  0.367760  1
  F  F39  1  0.932450  0.863441  0.144606  1
  F  F40  1  0.166645  0.847601  0.867760  1
  F  F41  1  0.149467  0.374559  0.631914  1
  F  F42  1  0.625441  0.850533  0.131914  1
  F  F43  1  0.800209  0.845650  0.528181  1
  F  F44  1  0.863441  0.932450  0.355394  1
  F  F45  1  0.847601  0.166645  0.632240  1
  F  F46  1  0.845650  0.800209  0.971819  1
  F  F47  1  0.154350  0.199791  0.028181  1
  F  F48  1  0.188922  0.419767  0.168476  1
  F  F49  1  0.592782  0.721729  0.378876  1
  F  F50  1  0.459886  0.211429  0.041314  1
  F  F51  1  0.671635  0.039917  0.812609  1
  F  F52  1  0.278271  0.407218  0.878876  1
  F  F53  1  0.039917  0.671635  0.687391  1
  F  F54  1  0.721729  0.592782  0.121124  1
  F  F55  1  0.540114  0.788571  0.958686  1
  F  F56  1  0.960083  0.328365  0.312609  1
  F  F57  1  0.328365  0.960083  0.187391  1
  F  F58  1  0.788571  0.540114  0.541314  1
  F  F59  1  0.407218  0.278271  0.621124  1
