# generated using pymatgen
data_Ba5P9
_symmetry_space_group_name_H-M   'P 1'
_cell_length_a   12.44393738
_cell_length_b   10.92576560
_cell_length_c   9.45378298
_cell_angle_alpha   74.87705624
_cell_angle_beta   57.95076593
_cell_angle_gamma   47.17217783
_symmetry_Int_Tables_number   1
_chemical_formula_structural   Ba5P9
_chemical_formula_sum   'Ba10 P18'
_cell_volume   788.62024887
_cell_formula_units_Z   2
loop_
 _symmetry_equiv_pos_site_id
 _symmetry_equiv_pos_as_xyz
  1  'x, y, z'
loop_
 _atom_site_type_symbol
 _atom_site_label
 _atom_site_symmetry_multiplicity
 _atom_site_fract_x
 _atom_site_fract_y
 _atom_site_fract_z
 _atom_site_occupancy
  Ba  Ba0  1  0.011137  0.622287  0.016084  1
  Ba  Ba1  1  0.660803  0.839197  0.839197  1
  Ba  Ba2  1  0.627713  0.238863  0.899508  1
  Ba  Ba3  1  0.350492  0.016084  0.622287  1
  Ba  Ba4  1  0.682097  0.099737  0.350045  1
  Ba  Ba5  1  0.410803  0.589197  0.589197  1
  Ba  Ba6  1  0.150263  0.567903  0.381878  1
  Ba  Ba7  1  0.899955  0.381878  0.567903  1
  Ba  Ba8  1  0.868122  0.350045  0.099737  1
  Ba  Ba9  1  0.233916  0.899508  0.238863  1
  P  P10  1  0.614111  0.531579  0.962556  1
  P  P11  1  0.531791  0.025362  0.194742  1
  P  P12  1  0.767479  0.752860  0.443178  1
  P  P13  1  0.025902  0.974098  0.974098  1
  P  P14  1  0.224638  0.718209  0.001894  1
  P  P15  1  0.275902  0.224098  0.224098  1
  P  P16  1  0.036482  0.443178  0.752860  1
  P  P17  1  0.055258  0.001894  0.718209  1
  P  P18  1  0.248106  0.194742  0.025362  1
  P  P19  1  0.391273  0.256428  0.807348  1
  P  P20  1  0.287444  0.358246  0.635889  1
  P  P21  1  0.806822  0.213518  0.482521  1
  P  P22  1  0.891754  0.962556  0.531579  1
  P  P23  1  0.718421  0.635889  0.358246  1
  P  P24  1  0.497140  0.482521  0.213518  1
  P  P25  1  0.442652  0.705049  0.858727  1
  P  P26  1  0.544951  0.807348  0.256428  1
  P  P27  1  0.993572  0.858727  0.705049  1
