# generated using pymatgen
data_Pr(C2N3)3
_symmetry_space_group_name_H-M   'P 1'
_cell_length_a   7.13884959
_cell_length_b   7.13884959
_cell_length_c   10.57013907
_cell_angle_alpha   90.00000000
_cell_angle_beta   90.00000000
_cell_angle_gamma   112.85991735
_symmetry_Int_Tables_number   1
_chemical_formula_structural   Pr(C2N3)3
_chemical_formula_sum   'Pr2 C12 N18'
_cell_volume   496.37788821
_cell_formula_units_Z   2
loop_
 _symmetry_equiv_pos_site_id
 _symmetry_equiv_pos_as_xyz
  1  'x, y, z'
loop_
 _atom_site_type_symbol
 _atom_site_label
 _atom_site_symmetry_multiplicity
 _atom_site_fract_x
 _atom_site_fract_y
 _atom_site_fract_z
 _atom_site_occupancy
  Pr  Pr0  1  0.285803  0.714197  0.750000  1
  Pr  Pr1  1  0.714197  0.285803  0.250000  1
  C  C2  1  0.001885  0.710866  0.051403  1
  C  C3  1  0.710866  0.001885  0.948597  1
  C  C4  1  0.998115  0.289134  0.948597  1
  C  C5  1  0.270623  0.444212  0.250000  1
  C  C6  1  0.289134  0.998115  0.448597  1
  C  C7  1  0.729377  0.555788  0.750000  1
  C  C8  1  0.555788  0.729377  0.250000  1
  C  C9  1  0.444212  0.270623  0.750000  1
  C  C10  1  0.998115  0.289134  0.551403  1
  C  C11  1  0.289134  0.998115  0.051403  1
  C  C12  1  0.001885  0.710866  0.448597  1
  C  C13  1  0.710866  0.001885  0.551403  1
  N  N14  1  0.843197  0.156803  0.492078  1
  N  N15  1  0.156803  0.843197  0.507922  1
  N  N16  1  0.859703  0.583015  0.097946  1
  N  N17  1  0.907287  0.642600  0.750000  1
  N  N18  1  0.357400  0.092713  0.750000  1
  N  N19  1  0.140297  0.416985  0.902054  1
  N  N20  1  0.531416  0.468584  0.750000  1
  N  N21  1  0.468584  0.531416  0.250000  1
  N  N22  1  0.416985  0.140297  0.097946  1
  N  N23  1  0.583015  0.859703  0.902054  1
  N  N24  1  0.092713  0.357400  0.250000  1
  N  N25  1  0.416985  0.140297  0.402054  1
  N  N26  1  0.140297  0.416985  0.597946  1
  N  N27  1  0.642600  0.907287  0.250000  1
  N  N28  1  0.859703  0.583015  0.402054  1
  N  N29  1  0.156803  0.843197  0.992078  1
  N  N30  1  0.583015  0.859703  0.597946  1
  N  N31  1  0.843197  0.156803  0.007922  1
