# generated using pymatgen
data_CePu4Co3
_symmetry_space_group_name_H-M   'P 1'
_cell_length_a   7.92665963
_cell_length_b   7.92665963
_cell_length_c   7.92665963
_cell_angle_alpha   137.57184648
_cell_angle_beta   107.02527826
_cell_angle_gamma   88.22827508
_symmetry_Int_Tables_number   1
_chemical_formula_structural   CePu4Co3
_chemical_formula_sum   'Ce2 Pu8 Co6'
_cell_volume   307.76455240
_cell_formula_units_Z   2
loop_
 _symmetry_equiv_pos_site_id
 _symmetry_equiv_pos_as_xyz
  1  'x, y, z'
loop_
 _atom_site_type_symbol
 _atom_site_label
 _atom_site_symmetry_multiplicity
 _atom_site_fract_x
 _atom_site_fract_y
 _atom_site_fract_z
 _atom_site_occupancy
  Ce  Ce0  1  0.500000  0.250000  0.750000  1
  Ce  Ce1  1  0.500000  0.750000  0.250000  1
  Pu  Pu2  1  0.863589  0.769743  0.093845  1
  Pu  Pu3  1  0.705693  0.920007  0.785686  1
  Pu  Pu4  1  0.294307  0.079993  0.214314  1
  Pu  Pu5  1  0.136411  0.230257  0.906155  1
  Pu  Pu6  1  0.865679  0.579993  0.285686  1
  Pu  Pu7  1  0.134321  0.420007  0.714314  1
  Pu  Pu8  1  0.675898  0.269743  0.406155  1
  Pu  Pu9  1  0.324102  0.730257  0.593845  1
  Co  Co10  1  1.000000  0.750000  0.750000  1
  Co  Co11  1  1.000000  0.250000  0.250000  1
  Co  Co12  1  0.491884  0.333496  0.158388  1
  Co  Co13  1  0.175108  0.833496  0.341612  1
  Co  Co14  1  0.824892  0.166504  0.658388  1
  Co  Co15  1  0.508116  0.666504  0.841612  1
