# generated using pymatgen
data_NiAs2
_symmetry_space_group_name_H-M   'P 1'
_cell_length_a   5.81732232
_cell_length_b   5.87774881
_cell_length_c   11.51224167
_cell_angle_alpha   90.00000000
_cell_angle_beta   90.00000000
_cell_angle_gamma   90.00000000
_symmetry_Int_Tables_number   1
_chemical_formula_structural   NiAs2
_chemical_formula_sum   'Ni8 As16'
_cell_volume   393.63530893
_cell_formula_units_Z   8
loop_
 _symmetry_equiv_pos_site_id
 _symmetry_equiv_pos_as_xyz
  1  'x, y, z'
loop_
 _atom_site_type_symbol
 _atom_site_label
 _atom_site_symmetry_multiplicity
 _atom_site_fract_x
 _atom_site_fract_y
 _atom_site_fract_z
 _atom_site_occupancy
  Ni  Ni0  1  0.996449  0.174868  0.371630  1
  Ni  Ni1  1  0.496449  0.325132  0.628370  1
  Ni  Ni2  1  0.003551  0.674868  0.128370  1
  Ni  Ni3  1  0.503551  0.825132  0.871630  1
  Ni  Ni4  1  0.003551  0.825132  0.628370  1
  Ni  Ni5  1  0.503551  0.674868  0.371630  1
  Ni  Ni6  1  0.996449  0.325132  0.871630  1
  Ni  Ni7  1  0.496449  0.174868  0.128370  1
  As  As8  1  0.121821  0.053312  0.181729  1
  As  As9  1  0.621821  0.446688  0.818271  1
  As  As10  1  0.878179  0.553312  0.318271  1
  As  As11  1  0.378179  0.946688  0.681729  1
  As  As12  1  0.878179  0.946688  0.818271  1
  As  As13  1  0.378179  0.553312  0.181729  1
  As  As14  1  0.121821  0.446688  0.681729  1
  As  As15  1  0.621821  0.053312  0.318271  1
  As  As16  1  0.363726  0.309219  0.431530  1
  As  As17  1  0.863726  0.190781  0.568470  1
  As  As18  1  0.636274  0.809219  0.068470  1
  As  As19  1  0.136274  0.690781  0.931530  1
  As  As20  1  0.636274  0.690781  0.568470  1
  As  As21  1  0.136274  0.809219  0.431530  1
  As  As22  1  0.363726  0.190781  0.931530  1
  As  As23  1  0.863726  0.309219  0.068470  1
