# generated using pymatgen
data_CrTe3
_symmetry_space_group_name_H-M   'P 1'
_cell_length_a   8.19386843
_cell_length_b   11.47779959
_cell_length_c   11.67318464
_cell_angle_alpha   90.00000000
_cell_angle_beta   117.61343568
_cell_angle_gamma   90.00000000
_symmetry_Int_Tables_number   1
_chemical_formula_structural   CrTe3
_chemical_formula_sum   'Cr8 Te24'
_cell_volume   972.78579908
_cell_formula_units_Z   8
loop_
 _symmetry_equiv_pos_site_id
 _symmetry_equiv_pos_as_xyz
  1  'x, y, z'
loop_
 _atom_site_type_symbol
 _atom_site_label
 _atom_site_symmetry_multiplicity
 _atom_site_fract_x
 _atom_site_fract_y
 _atom_site_fract_z
 _atom_site_occupancy
  Cr  Cr0  1  0.002145  0.999620  0.674389  1
  Cr  Cr1  1  0.997855  0.499620  0.825611  1
  Cr  Cr2  1  0.997855  0.000380  0.325611  1
  Cr  Cr3  1  0.002145  0.500380  0.174389  1
  Cr  Cr4  1  0.021792  0.716238  0.507261  1
  Cr  Cr5  1  0.978208  0.216238  0.992739  1
  Cr  Cr6  1  0.978208  0.283762  0.492739  1
  Cr  Cr7  1  0.021792  0.783762  0.007261  1
  Te  Te8  1  0.208004  0.093530  0.567117  1
  Te  Te9  1  0.791996  0.593530  0.932883  1
  Te  Te10  1  0.791996  0.906470  0.432883  1
  Te  Te11  1  0.208004  0.406470  0.067117  1
  Te  Te12  1  0.252489  0.675531  0.235288  1
  Te  Te13  1  0.747511  0.175531  0.264712  1
  Te  Te14  1  0.747511  0.324469  0.764712  1
  Te  Te15  1  0.252489  0.824469  0.735288  1
  Te  Te16  1  0.252023  0.827776  0.430487  1
  Te  Te17  1  0.747977  0.327776  0.069513  1
  Te  Te18  1  0.747977  0.172224  0.569513  1
  Te  Te19  1  0.252023  0.672224  0.930487  1
  Te  Te20  1  0.200687  0.381727  0.399773  1
  Te  Te21  1  0.799313  0.881727  0.100227  1
  Te  Te22  1  0.799313  0.618273  0.600227  1
  Te  Te23  1  0.200687  0.118273  0.899773  1
  Te  Te24  1  0.297051  0.554032  0.597357  1
  Te  Te25  1  0.702949  0.054032  0.902643  1
  Te  Te26  1  0.702949  0.445968  0.402643  1
  Te  Te27  1  0.297051  0.945968  0.097357  1
  Te  Te28  1  0.197159  0.381702  0.729899  1
  Te  Te29  1  0.802841  0.881702  0.770101  1
  Te  Te30  1  0.802841  0.618298  0.270101  1
  Te  Te31  1  0.197159  0.118298  0.229899  1
