# generated using pymatgen
data_Hf3As
_symmetry_space_group_name_H-M   'P 1'
_cell_length_a   8.20187540
_cell_length_b   8.20187540
_cell_length_c   15.41822747
_cell_angle_alpha   89.69073817
_cell_angle_beta   90.30926183
_cell_angle_gamma   141.47212635
_symmetry_Int_Tables_number   1
_chemical_formula_structural   Hf3As
_chemical_formula_sum   'Hf24 As8'
_cell_volume   646.05386989
_cell_formula_units_Z   8
loop_
 _symmetry_equiv_pos_site_id
 _symmetry_equiv_pos_as_xyz
  1  'x, y, z'
loop_
 _atom_site_type_symbol
 _atom_site_label
 _atom_site_symmetry_multiplicity
 _atom_site_fract_x
 _atom_site_fract_y
 _atom_site_fract_z
 _atom_site_occupancy
  Hf  Hf0  1  0.120117  0.954748  0.190860  1
  Hf  Hf1  1  0.423999  0.541017  0.167227  1
  Hf  Hf2  1  0.954748  0.120117  0.309140  1
  Hf  Hf3  1  0.458983  0.576001  0.667227  1
  Hf  Hf4  1  0.050658  0.529368  0.094840  1
  Hf  Hf5  1  0.541017  0.423999  0.332773  1
  Hf  Hf6  1  0.430283  0.120110  0.009831  1
  Hf  Hf7  1  0.198343  0.296762  0.983967  1
  Hf  Hf8  1  0.569717  0.879890  0.990169  1
  Hf  Hf9  1  0.120110  0.430283  0.490169  1
  Hf  Hf10  1  0.949342  0.470632  0.905160  1
  Hf  Hf11  1  0.879890  0.569717  0.509831  1
  Hf  Hf12  1  0.000751  0.468454  0.699219  1
  Hf  Hf13  1  0.999249  0.531546  0.300781  1
  Hf  Hf14  1  0.801657  0.703238  0.016033  1
  Hf  Hf15  1  0.529368  0.050658  0.405160  1
  Hf  Hf16  1  0.045252  0.879883  0.690860  1
  Hf  Hf17  1  0.703238  0.801657  0.483967  1
  Hf  Hf18  1  0.296762  0.198343  0.516033  1
  Hf  Hf19  1  0.879883  0.045252  0.809140  1
  Hf  Hf20  1  0.468454  0.000751  0.800781  1
  Hf  Hf21  1  0.576001  0.458983  0.832773  1
  Hf  Hf22  1  0.531546  0.999249  0.199219  1
  Hf  Hf23  1  0.470632  0.949342  0.594840  1
  As  As24  1  0.336054  0.579625  0.833476  1
  As  As25  1  0.895544  0.064903  0.128911  1
  As  As26  1  0.104456  0.935097  0.871089  1
  As  As27  1  0.663946  0.420375  0.166524  1
  As  As28  1  0.579625  0.336054  0.666524  1
  As  As29  1  0.420375  0.663946  0.333476  1
  As  As30  1  0.935097  0.104456  0.628911  1
  As  As31  1  0.064903  0.895544  0.371089  1
