# generated using pymatgen
data_Ho10Si17
_symmetry_space_group_name_H-M   'P 1'
_cell_length_a   10.93591345
_cell_length_b   10.93591345
_cell_length_c   10.93591345
_cell_angle_alpha   144.43624448
_cell_angle_beta   135.77780636
_cell_angle_gamma   57.98715677
_symmetry_Int_Tables_number   1
_chemical_formula_structural   Ho10Si17
_chemical_formula_sum   'Ho10 Si17'
_cell_volume   526.00031506
_cell_formula_units_Z   1
loop_
 _symmetry_equiv_pos_site_id
 _symmetry_equiv_pos_as_xyz
  1  'x, y, z'
loop_
 _atom_site_type_symbol
 _atom_site_label
 _atom_site_symmetry_multiplicity
 _atom_site_fract_x
 _atom_site_fract_y
 _atom_site_fract_z
 _atom_site_occupancy
  Ho  Ho0  1  0.052241  0.563846  0.015706  1
  Ho  Ho1  1  0.352622  0.368847  0.520645  1
  Ho  Ho2  1  0.151798  0.168022  0.520645  1
  Ho  Ho3  1  0.451860  0.963466  0.015706  1
  Ho  Ho4  1  0.647378  0.168022  0.016225  1
  Ho  Ho5  1  0.947759  0.963466  0.511605  1
  Ho  Ho6  1  0.848202  0.368847  0.016225  1
  Ho  Ho7  1  0.548140  0.563846  0.511605  1
  Ho  Ho8  1  0.244591  0.761066  0.005657  1
  Ho  Ho9  1  0.755409  0.761066  0.516475  1
  Si  Si10  1  0.895561  0.506197  0.610636  1
  Si  Si11  1  0.121523  0.088445  0.966921  1
  Si  Si12  1  0.800890  0.178765  0.377875  1
  Si  Si13  1  0.300575  0.897598  0.597023  1
  Si  Si14  1  0.399816  0.501860  0.102044  1
  Si  Si15  1  0.878477  0.845398  0.966921  1
  Si  Si16  1  0.104439  0.715075  0.610636  1
  Si  Si17  1  0.199110  0.576986  0.377875  1
  Si  Si18  1  0.699425  0.296447  0.597023  1
  Si  Si19  1  0.000000  0.431795  0.431795  1
  Si  Si20  1  0.715153  0.671842  0.956689  1
  Si  Si21  1  0.600184  0.702229  0.102044  1
  Si  Si22  1  0.000000  0.081086  0.081086  1
  Si  Si23  1  0.500000  0.388224  0.888224  1
  Si  Si24  1  0.284847  0.241536  0.956689  1
  Si  Si25  1  0.581836  0.039308  0.457471  1
  Si  Si26  1  0.418164  0.875635  0.457471  1
