# generated using pymatgen
data_Ce3Si11Pt23
_symmetry_space_group_name_H-M   'P 1'
_cell_length_a   12.06293680
_cell_length_b   12.06293680
_cell_length_c   12.06293680
_cell_angle_alpha   60.00000000
_cell_angle_beta   60.00000000
_cell_angle_gamma   60.00000000
_symmetry_Int_Tables_number   1
_chemical_formula_structural   Ce3Si11Pt23
_chemical_formula_sum   'Ce6 Si22 Pt46'
_cell_volume   1241.20683877
_cell_formula_units_Z   2
loop_
 _symmetry_equiv_pos_site_id
 _symmetry_equiv_pos_as_xyz
  1  'x, y, z'
loop_
 _atom_site_type_symbol
 _atom_site_label
 _atom_site_symmetry_multiplicity
 _atom_site_fract_x
 _atom_site_fract_y
 _atom_site_fract_z
 _atom_site_occupancy
  Ce  Ce0  1  0.000000  0.500000  0.500000  1
  Ce  Ce1  1  1.000000  1.000000  0.500000  1
  Ce  Ce2  1  1.000000  0.500000  1.000000  1
  Ce  Ce3  1  0.500000  0.500000  1.000000  1
  Ce  Ce4  1  0.500000  0.000000  0.500000  1
  Ce  Ce5  1  0.500000  1.000000  1.000000  1
  Si  Si6  1  0.503089  0.165637  0.165637  1
  Si  Si7  1  0.834363  0.834363  0.496911  1
  Si  Si8  1  0.170548  0.829452  0.829452  1
  Si  Si9  1  0.165637  0.503089  0.165637  1
  Si  Si10  1  0.818948  0.393684  0.393684  1
  Si  Si11  1  0.165637  0.165637  0.165637  1
  Si  Si12  1  0.170548  0.170548  0.829452  1
  Si  Si13  1  0.606316  0.606316  0.606316  1
  Si  Si14  1  0.393684  0.393684  0.818948  1
  Si  Si15  1  0.829452  0.170548  0.170548  1
  Si  Si16  1  0.829452  0.170548  0.829452  1
  Si  Si17  1  0.393684  0.818948  0.393684  1
  Si  Si18  1  0.170548  0.829452  0.170548  1
  Si  Si19  1  0.496911  0.834363  0.834363  1
  Si  Si20  1  0.829452  0.829452  0.170548  1
  Si  Si21  1  0.165637  0.165637  0.503089  1
  Si  Si22  1  0.181052  0.606316  0.606316  1
  Si  Si23  1  0.606316  0.606316  0.181052  1
  Si  Si24  1  0.393684  0.393684  0.393684  1
  Si  Si25  1  0.834363  0.496911  0.834363  1
  Si  Si26  1  0.834363  0.834363  0.834363  1
  Si  Si27  1  0.606316  0.181052  0.606316  1
  Pt  Pt28  1  0.625733  0.374267  0.374267  1
  Pt  Pt29  1  0.251935  0.251935  0.916867  1
  Pt  Pt30  1  0.748065  0.748065  0.420738  1
  Pt  Pt31  1  0.083133  0.420738  0.748065  1
  Pt  Pt32  1  0.083076  0.083076  0.750772  1
  Pt  Pt33  1  0.579262  0.251935  0.916867  1
  Pt  Pt34  1  0.374267  0.374267  0.625733  1
  Pt  Pt35  1  0.916867  0.579262  0.251935  1
  Pt  Pt36  1  0.748065  0.748065  0.083133  1
  Pt  Pt37  1  0.748065  0.083133  0.420738  1
  Pt  Pt38  1  0.579262  0.251935  0.251935  1
  Pt  Pt39  1  0.251935  0.579262  0.916867  1
  Pt  Pt40  1  0.083133  0.748065  0.748065  1
  Pt  Pt41  1  0.083133  0.748065  0.420738  1
  Pt  Pt42  1  0.916924  0.916924  0.249228  1
  Pt  Pt43  1  0.083076  0.750772  0.083076  1
  Pt  Pt44  1  0.374267  0.625733  0.374267  1
  Pt  Pt45  1  0.691407  0.691407  0.925780  1
  Pt  Pt46  1  0.691407  0.925780  0.691407  1
  Pt  Pt47  1  0.748065  0.420738  0.083133  1
  Pt  Pt48  1  0.750772  0.083076  0.083076  1
  Pt  Pt49  1  0.748065  0.083133  0.748065  1
  Pt  Pt50  1  0.249228  0.916924  0.916924  1
  Pt  Pt51  1  0.420738  0.748065  0.083133  1
  Pt  Pt52  1  0.308593  0.074220  0.308593  1
  Pt  Pt53  1  0.925780  0.691407  0.691407  1
  Pt  Pt54  1  0.579262  0.916867  0.251935  1
  Pt  Pt55  1  0.420738  0.083133  0.748065  1
  Pt  Pt56  1  0.308593  0.308593  0.074220  1
  Pt  Pt57  1  0.083076  0.083076  0.083076  1
  Pt  Pt58  1  0.420738  0.748065  0.748065  1
  Pt  Pt59  1  0.916867  0.251935  0.251935  1
  Pt  Pt60  1  0.916924  0.249228  0.916924  1
  Pt  Pt61  1  0.916924  0.916924  0.916924  1
  Pt  Pt62  1  0.251935  0.916867  0.251935  1
  Pt  Pt63  1  0.625733  0.374267  0.625733  1
  Pt  Pt64  1  0.251935  0.916867  0.579262  1
  Pt  Pt65  1  0.916867  0.251935  0.579262  1
  Pt  Pt66  1  0.374267  0.625733  0.625733  1
  Pt  Pt67  1  0.691407  0.691407  0.691407  1
  Pt  Pt68  1  0.308593  0.308593  0.308593  1
  Pt  Pt69  1  0.748065  0.420738  0.748065  1
  Pt  Pt70  1  0.074220  0.308593  0.308593  1
  Pt  Pt71  1  0.625733  0.625733  0.374267  1
  Pt  Pt72  1  0.251935  0.251935  0.579262  1
  Pt  Pt73  1  0.251935  0.579262  0.251935  1
