# generated using pymatgen
data_Ce2(WO4)3
_symmetry_space_group_name_H-M   'P 1'
_cell_length_a   7.14006166
_cell_length_b   7.14006166
_cell_length_c   11.74061784
_cell_angle_alpha   79.08741254
_cell_angle_beta   100.91258746
_cell_angle_gamma   68.05229379
_symmetry_Int_Tables_number   1
_chemical_formula_structural   Ce2(WO4)3
_chemical_formula_sum   'Ce4 W6 O24'
_cell_volume   522.42690840
_cell_formula_units_Z   2
loop_
 _symmetry_equiv_pos_site_id
 _symmetry_equiv_pos_as_xyz
  1  'x, y, z'
loop_
 _atom_site_type_symbol
 _atom_site_label
 _atom_site_symmetry_multiplicity
 _atom_site_fract_x
 _atom_site_fract_y
 _atom_site_fract_z
 _atom_site_occupancy
  Ce  Ce0  1  0.457449  0.787900  0.405127  1
  Ce  Ce1  1  0.787900  0.457449  0.094873  1
  Ce  Ce2  1  0.542551  0.212100  0.594873  1
  Ce  Ce3  1  0.212100  0.542551  0.905127  1
  W  W4  1  0.634358  0.634358  0.750000  1
  W  W5  1  0.365642  0.365642  0.250000  1
  W  W6  1  0.247255  0.959621  0.046477  1
  W  W7  1  0.959621  0.247255  0.453523  1
  W  W8  1  0.752745  0.040379  0.953523  1
  W  W9  1  0.040379  0.752745  0.546477  1
  O  O10  1  0.896371  0.028125  0.570964  1
  O  O11  1  0.028125  0.896371  0.929036  1
  O  O12  1  0.103629  0.971875  0.429036  1
  O  O13  1  0.971875  0.103629  0.070964  1
  O  O14  1  0.268825  0.159719  0.940361  1
  O  O15  1  0.159719  0.268825  0.559639  1
  O  O16  1  0.731175  0.840281  0.059639  1
  O  O17  1  0.840281  0.731175  0.440361  1
  O  O18  1  0.045436  0.610768  0.695605  1
  O  O19  1  0.610768  0.045436  0.804395  1
  O  O20  1  0.418079  0.162277  0.390609  1
  O  O21  1  0.162277  0.418079  0.109391  1
  O  O22  1  0.581921  0.837723  0.609391  1
  O  O23  1  0.837723  0.581921  0.890609  1
  O  O24  1  0.293097  0.616217  0.281126  1
  O  O25  1  0.616217  0.293097  0.218874  1
  O  O26  1  0.706903  0.383783  0.718874  1
  O  O27  1  0.383783  0.706903  0.781126  1
  O  O28  1  0.688535  0.415644  0.460370  1
  O  O29  1  0.415644  0.688535  0.039630  1
  O  O30  1  0.311465  0.584356  0.539630  1
  O  O31  1  0.584356  0.311465  0.960370  1
  O  O32  1  0.389232  0.954564  0.195605  1
  O  O33  1  0.954564  0.389232  0.304395  1
