# generated using pymatgen
data_Na4Sc2(PO4)3
_symmetry_space_group_name_H-M   'P 1'
_cell_length_a   8.87383164
_cell_length_b   8.87383164
_cell_length_c   8.87383164
_cell_angle_alpha   63.26192879
_cell_angle_beta   63.26192879
_cell_angle_gamma   63.26192879
_symmetry_Int_Tables_number   1
_chemical_formula_structural   Na4Sc2(PO4)3
_chemical_formula_sum   'Na8 Sc4 P6 O24'
_cell_volume   529.81240302
_cell_formula_units_Z   2
loop_
 _symmetry_equiv_pos_site_id
 _symmetry_equiv_pos_as_xyz
  1  'x, y, z'
loop_
 _atom_site_type_symbol
 _atom_site_label
 _atom_site_symmetry_multiplicity
 _atom_site_fract_x
 _atom_site_fract_y
 _atom_site_fract_z
 _atom_site_occupancy
  Na  Na0  1  0.613757  0.250000  0.886243  1
  Na  Na1  1  0.113757  0.386243  0.750000  1
  Na  Na2  1  0.886243  0.613757  0.250000  1
  Na  Na3  1  0.250000  0.886243  0.613757  1
  Na  Na4  1  0.750000  0.113757  0.386243  1
  Na  Na5  1  0.000000  0.000000  0.000000  1
  Na  Na6  1  0.386243  0.750000  0.113757  1
  Na  Na7  1  0.500000  0.500000  0.500000  1
  Sc  Sc8  1  0.344084  0.344084  0.344084  1
  Sc  Sc9  1  0.844084  0.844084  0.844084  1
  Sc  Sc10  1  0.155916  0.155916  0.155916  1
  Sc  Sc11  1  0.655916  0.655916  0.655916  1
  P  P12  1  0.941875  0.250000  0.558125  1
  P  P13  1  0.441875  0.058125  0.750000  1
  P  P14  1  0.058125  0.750000  0.441875  1
  P  P15  1  0.250000  0.558125  0.941875  1
  P  P16  1  0.750000  0.441875  0.058125  1
  P  P17  1  0.558125  0.941875  0.250000  1
  O  O18  1  0.410084  0.576463  0.768959  1
  O  O19  1  0.576463  0.768959  0.410084  1
  O  O20  1  0.703762  0.470645  0.896141  1
  O  O21  1  0.731041  0.923537  0.089916  1
  O  O22  1  0.603859  0.029355  0.796238  1
  O  O23  1  0.923537  0.089916  0.731041  1
  O  O24  1  0.970645  0.203762  0.396141  1
  O  O25  1  0.076463  0.910084  0.268959  1
  O  O26  1  0.029355  0.796238  0.603859  1
  O  O27  1  0.268959  0.076463  0.910084  1
  O  O28  1  0.423537  0.231041  0.589916  1
  O  O29  1  0.796238  0.603859  0.029355  1
  O  O30  1  0.896141  0.703762  0.470645  1
  O  O31  1  0.768959  0.410084  0.576463  1
  O  O32  1  0.103859  0.296238  0.529355  1
  O  O33  1  0.529355  0.103859  0.296238  1
  O  O34  1  0.396141  0.970645  0.203762  1
  O  O35  1  0.910084  0.268959  0.076463  1
  O  O36  1  0.589916  0.423537  0.231041  1
  O  O37  1  0.089916  0.731041  0.923537  1
  O  O38  1  0.231041  0.589916  0.423537  1
  O  O39  1  0.296238  0.529355  0.103859  1
  O  O40  1  0.203762  0.396141  0.970645  1
  O  O41  1  0.470645  0.896141  0.703762  1
