# generated using pymatgen
data_RbNaLi6(SiO4)2
_symmetry_space_group_name_H-M   'P 1'
_cell_length_a   8.55081628
_cell_length_b   8.55081628
_cell_length_c   7.88661858
_cell_angle_alpha   89.46785914
_cell_angle_beta   90.53214086
_cell_angle_gamma   136.31442879
_symmetry_Int_Tables_number   1
_chemical_formula_structural   RbNaLi6(SiO4)2
_chemical_formula_sum   'Rb2 Na2 Li12 Si4 O16'
_cell_volume   398.26661884
_cell_formula_units_Z   2
loop_
 _symmetry_equiv_pos_site_id
 _symmetry_equiv_pos_as_xyz
  1  'x, y, z'
loop_
 _atom_site_type_symbol
 _atom_site_label
 _atom_site_symmetry_multiplicity
 _atom_site_fract_x
 _atom_site_fract_y
 _atom_site_fract_z
 _atom_site_occupancy
  Rb  Rb0  1  0.755386  0.244614  0.531058  1
  Rb  Rb1  1  0.244614  0.755386  0.468942  1
  Na  Na2  1  0.251921  0.251921  0.000000  1
  Na  Na3  1  0.748079  0.748079  0.000000  1
  Li  Li4  1  0.359466  0.640534  0.133998  1
  Li  Li5  1  0.323534  0.184709  0.626491  1
  Li  Li6  1  0.555129  0.929134  0.866272  1
  Li  Li7  1  0.070866  0.444871  0.866272  1
  Li  Li8  1  0.929134  0.555129  0.133728  1
  Li  Li9  1  0.444871  0.070866  0.133728  1
  Li  Li10  1  0.066800  0.933200  0.282594  1
  Li  Li11  1  0.184709  0.323534  0.373509  1
  Li  Li12  1  0.640534  0.359466  0.866002  1
  Li  Li13  1  0.815291  0.676466  0.626491  1
  Li  Li14  1  0.676466  0.815291  0.373509  1
  Li  Li15  1  0.933200  0.066800  0.717406  1
  Si  Si16  1  0.146033  0.853967  0.859553  1
  Si  Si17  1  0.853967  0.146033  0.140447  1
  Si  Si18  1  0.570728  0.429272  0.291662  1
  Si  Si19  1  0.429272  0.570728  0.708338  1
  O  O20  1  0.975981  0.585667  0.804536  1
  O  O21  1  0.818102  0.619706  0.390624  1
  O  O22  1  0.585667  0.975981  0.195464  1
  O  O23  1  0.130429  0.869571  0.067290  1
  O  O24  1  0.380294  0.181898  0.390624  1
  O  O25  1  0.052971  0.947029  0.761119  1
  O  O26  1  0.467787  0.532213  0.255897  1
  O  O27  1  0.383531  0.616469  0.896864  1
  O  O28  1  0.414333  0.024019  0.804536  1
  O  O29  1  0.532213  0.467787  0.744103  1
  O  O30  1  0.619706  0.818102  0.609376  1
  O  O31  1  0.181898  0.380294  0.609376  1
  O  O32  1  0.869571  0.130429  0.932710  1
  O  O33  1  0.947029  0.052971  0.238881  1
  O  O34  1  0.616469  0.383531  0.103136  1
  O  O35  1  0.024019  0.414333  0.195464  1
