# generated using pymatgen
data_NdMgSi2
_symmetry_space_group_name_H-M   'P 1'
_cell_length_a   18.65577711
_cell_length_b   18.65577711
_cell_length_c   18.65577711
_cell_angle_alpha   166.88595839
_cell_angle_beta   166.88595839
_cell_angle_gamma   18.58699480
_symmetry_Int_Tables_number   1
_chemical_formula_structural   NdMgSi2
_chemical_formula_sum   'Nd4 Mg4 Si8'
_cell_volume   334.22029391
_cell_formula_units_Z   4
loop_
 _symmetry_equiv_pos_site_id
 _symmetry_equiv_pos_as_xyz
  1  'x, y, z'
loop_
 _atom_site_type_symbol
 _atom_site_label
 _atom_site_symmetry_multiplicity
 _atom_site_fract_x
 _atom_site_fract_y
 _atom_site_fract_z
 _atom_site_occupancy
  Nd  Nd0  1  0.827741  0.327741  0.500000  1
  Nd  Nd1  1  0.672259  0.172259  0.500000  1
  Nd  Nd2  1  0.077741  0.077741  0.000000  1
  Nd  Nd3  1  0.922259  0.922259  0.000000  1
  Mg  Mg4  1  0.249997  0.249997  0.000000  1
  Mg  Mg5  1  0.999997  0.499997  0.500000  1
  Mg  Mg6  1  0.500003  0.000003  0.500000  1
  Mg  Mg7  1  0.750003  0.750003  0.000000  1
  Si  Si8  1  0.202106  0.702106  0.500000  1
  Si  Si9  1  0.389170  0.389170  0.000000  1
  Si  Si10  1  0.297894  0.797894  0.500000  1
  Si  Si11  1  0.547894  0.547894  0.000000  1
  Si  Si12  1  0.610830  0.610830  0.000000  1
  Si  Si13  1  0.452106  0.452106  0.000000  1
  Si  Si14  1  0.139170  0.639170  0.500000  1
  Si  Si15  1  0.360830  0.860830  0.500000  1
