# generated using pymatgen
data_Cs2Zr7CI18
_symmetry_space_group_name_H-M   'P 1'
_cell_length_a   11.87162449
_cell_length_b   11.87162449
_cell_length_c   11.87162449
_cell_angle_alpha   55.65416074
_cell_angle_beta   55.65416074
_cell_angle_gamma   55.65416074
_symmetry_Int_Tables_number   1
_chemical_formula_structural   Cs2Zr7CI18
_chemical_formula_sum   'Cs2 Zr7 C1 I18'
_cell_volume   1063.78723907
_cell_formula_units_Z   1
loop_
 _symmetry_equiv_pos_site_id
 _symmetry_equiv_pos_as_xyz
  1  'x, y, z'
loop_
 _atom_site_type_symbol
 _atom_site_label
 _atom_site_symmetry_multiplicity
 _atom_site_fract_x
 _atom_site_fract_y
 _atom_site_fract_z
 _atom_site_occupancy
  Cs  Cs0  1  0.775739  0.775739  0.775739  1
  Cs  Cs1  1  0.224261  0.224261  0.224261  1
  Zr  Zr2  1  0.814012  0.143450  0.911534  1
  Zr  Zr3  1  0.185988  0.856550  0.088466  1
  Zr  Zr4  1  0.856550  0.088466  0.185988  1
  Zr  Zr5  1  0.088466  0.185988  0.856550  1
  Zr  Zr6  1  0.143450  0.911534  0.814012  1
  Zr  Zr7  1  0.911534  0.814012  0.143450  1
  Zr  Zr8  1  0.500000  0.500000  0.500000  1
  C  C9  1  0.000000  0.000000  0.000000  1
  I  I10  1  0.644472  0.218140  0.471081  1
  I  I11  1  0.355528  0.781860  0.528919  1
  I  I12  1  0.932546  0.343336  0.054413  1
  I  I13  1  0.067454  0.656664  0.945587  1
  I  I14  1  0.054413  0.932546  0.343336  1
  I  I15  1  0.412006  0.712557  0.876351  1
  I  I16  1  0.528919  0.355528  0.781860  1
  I  I17  1  0.123649  0.587994  0.287443  1
  I  I18  1  0.587994  0.287443  0.123649  1
  I  I19  1  0.287443  0.123649  0.587994  1
  I  I20  1  0.656664  0.945587  0.067454  1
  I  I21  1  0.876351  0.412006  0.712557  1
  I  I22  1  0.712557  0.876351  0.412006  1
  I  I23  1  0.945587  0.067454  0.656664  1
  I  I24  1  0.218140  0.471081  0.644472  1
  I  I25  1  0.471081  0.644472  0.218140  1
  I  I26  1  0.781860  0.528919  0.355528  1
  I  I27  1  0.343336  0.054413  0.932546  1
