# generated using pymatgen
data_K6Be4C6O19
_symmetry_space_group_name_H-M   'P 1'
_cell_length_a   10.10427319
_cell_length_b   10.10427319
_cell_length_c   10.10427319
_cell_angle_alpha   90.80146762
_cell_angle_beta   90.80146762
_cell_angle_gamma   90.80146762
_symmetry_Int_Tables_number   1
_chemical_formula_structural   K6Be4C6O19
_chemical_formula_sum   'K12 Be8 C12 O38'
_cell_volume   1031.30364579
_cell_formula_units_Z   2
loop_
 _symmetry_equiv_pos_site_id
 _symmetry_equiv_pos_as_xyz
  1  'x, y, z'
loop_
 _atom_site_type_symbol
 _atom_site_label
 _atom_site_symmetry_multiplicity
 _atom_site_fract_x
 _atom_site_fract_y
 _atom_site_fract_z
 _atom_site_occupancy
  K  K0  1  0.976721  0.326091  0.820068  1
  K  K1  1  0.023279  0.673909  0.179932  1
  K  K2  1  0.467365  0.858827  0.351983  1
  K  K3  1  0.820068  0.976721  0.326091  1
  K  K4  1  0.141173  0.648017  0.532635  1
  K  K5  1  0.532635  0.141173  0.648017  1
  K  K6  1  0.326091  0.820068  0.976721  1
  K  K7  1  0.858827  0.351983  0.467365  1
  K  K8  1  0.648017  0.532635  0.141173  1
  K  K9  1  0.351983  0.467365  0.858827  1
  K  K10  1  0.179932  0.023279  0.673909  1
  K  K11  1  0.673909  0.179932  0.023279  1
  Be  Be12  1  0.629008  0.685833  0.838767  1
  Be  Be13  1  0.161233  0.370992  0.314167  1
  Be  Be14  1  0.153020  0.153020  0.153020  1
  Be  Be15  1  0.838767  0.629008  0.685833  1
  Be  Be16  1  0.846980  0.846980  0.846980  1
  Be  Be17  1  0.685833  0.838767  0.629008  1
  Be  Be18  1  0.370992  0.314167  0.161233  1
  Be  Be19  1  0.314167  0.161233  0.370992  1
  C  C20  1  0.869673  0.026075  0.664379  1
  C  C21  1  0.439659  0.787854  0.689515  1
  C  C22  1  0.787854  0.689515  0.439659  1
  C  C23  1  0.560341  0.212146  0.310485  1
  C  C24  1  0.212146  0.310485  0.560341  1
  C  C25  1  0.335621  0.130327  0.973925  1
  C  C26  1  0.310485  0.560341  0.212146  1
  C  C27  1  0.664379  0.869673  0.026075  1
  C  C28  1  0.130327  0.973925  0.335621  1
  C  C29  1  0.973925  0.335621  0.130327  1
  C  C30  1  0.026075  0.664379  0.869673  1
  C  C31  1  0.689515  0.439659  0.787854  1
  O  O32  1  0.073104  0.871404  0.380472  1
  O  O33  1  0.317258  0.798968  0.663854  1
  O  O34  1  0.682742  0.201032  0.336146  1
  O  O35  1  0.871404  0.380472  0.073104  1
  O  O36  1  0.251114  0.251114  0.251114  1
  O  O37  1  0.639500  0.527262  0.869483  1
  O  O38  1  0.074839  0.041862  0.240469  1
  O  O39  1  0.201032  0.336146  0.682742  1
  O  O40  1  0.305331  0.231511  0.518713  1
  O  O41  1  0.384865  0.245325  0.014678  1
  O  O42  1  0.663854  0.317258  0.798968  1
  O  O43  1  0.380472  0.073104  0.871404  1
  O  O44  1  0.518713  0.305331  0.231511  1
  O  O45  1  0.240469  0.074839  0.041862  1
  O  O46  1  0.231511  0.518713  0.305331  1
  O  O47  1  0.472738  0.130517  0.360500  1
  O  O48  1  0.768489  0.481287  0.694669  1
  O  O49  1  0.694669  0.768489  0.481287  1
  O  O50  1  0.527262  0.869483  0.639500  1
  O  O51  1  0.958138  0.759531  0.925161  1
  O  O52  1  0.985322  0.615135  0.754675  1
  O  O53  1  0.481287  0.694669  0.768489  1
  O  O54  1  0.128596  0.619528  0.926896  1
  O  O55  1  0.759531  0.925161  0.958138  1
  O  O56  1  0.748886  0.748886  0.748886  1
  O  O57  1  0.130517  0.360500  0.472738  1
  O  O58  1  0.925161  0.958138  0.759531  1
  O  O59  1  0.619528  0.926896  0.128596  1
  O  O60  1  0.926896  0.128596  0.619528  1
  O  O61  1  0.245325  0.014678  0.384865  1
  O  O62  1  0.754675  0.985322  0.615135  1
  O  O63  1  0.041862  0.240469  0.074839  1
  O  O64  1  0.360500  0.472738  0.130517  1
  O  O65  1  0.014678  0.384865  0.245325  1
  O  O66  1  0.336146  0.682742  0.201032  1
  O  O67  1  0.869483  0.639500  0.527262  1
  O  O68  1  0.798968  0.663854  0.317258  1
  O  O69  1  0.615135  0.754675  0.985322  1
