# generated using pymatgen
data_CdSbS2Cl
_symmetry_space_group_name_H-M   'P 1'
_cell_length_a   3.94832176
_cell_length_b   9.74261115
_cell_length_c   12.71390936
_cell_angle_alpha   90.00000000
_cell_angle_beta   90.00000000
_cell_angle_gamma   90.00000000
_symmetry_Int_Tables_number   1
_chemical_formula_structural   CdSbS2Cl
_chemical_formula_sum   'Cd4 Sb4 S8 Cl4'
_cell_volume   489.06548860
_cell_formula_units_Z   4
loop_
 _symmetry_equiv_pos_site_id
 _symmetry_equiv_pos_as_xyz
  1  'x, y, z'
loop_
 _atom_site_type_symbol
 _atom_site_label
 _atom_site_symmetry_multiplicity
 _atom_site_fract_x
 _atom_site_fract_y
 _atom_site_fract_z
 _atom_site_occupancy
  Cd  Cd0  1  0.750000  0.000424  0.730661  1
  Cd  Cd1  1  0.250000  0.499576  0.230661  1
  Cd  Cd2  1  0.250000  0.999576  0.269339  1
  Cd  Cd3  1  0.750000  0.500424  0.769339  1
  Sb  Sb4  1  0.750000  0.816793  0.032710  1
  Sb  Sb5  1  0.750000  0.316793  0.467290  1
  Sb  Sb6  1  0.250000  0.183207  0.967290  1
  Sb  Sb7  1  0.250000  0.683207  0.532710  1
  S  S8  1  0.750000  0.240355  0.834023  1
  S  S9  1  0.750000  0.051736  0.110515  1
  S  S10  1  0.250000  0.448264  0.610515  1
  S  S11  1  0.750000  0.551736  0.389485  1
  S  S12  1  0.250000  0.759645  0.165977  1
  S  S13  1  0.250000  0.948264  0.889485  1
  S  S14  1  0.250000  0.259645  0.334023  1
  S  S15  1  0.750000  0.740355  0.665977  1
  Cl  Cl16  1  0.250000  0.072810  0.606213  1
  Cl  Cl17  1  0.250000  0.572810  0.893787  1
  Cl  Cl18  1  0.750000  0.427190  0.106213  1
  Cl  Cl19  1  0.750000  0.927190  0.393787  1
