# generated using pymatgen
data_SnSb2As2F18
_symmetry_space_group_name_H-M   'P 1'
_cell_length_a   6.18493287
_cell_length_b   11.69836459
_cell_length_c   11.31776408
_cell_angle_alpha   90.00000000
_cell_angle_beta   90.31247139
_cell_angle_gamma   90.00000000
_symmetry_Int_Tables_number   1
_chemical_formula_structural   SnSb2As2F18
_chemical_formula_sum   'Sn2 Sb4 As4 F36'
_cell_volume   818.86879354
_cell_formula_units_Z   2
loop_
 _symmetry_equiv_pos_site_id
 _symmetry_equiv_pos_as_xyz
  1  'x, y, z'
loop_
 _atom_site_type_symbol
 _atom_site_label
 _atom_site_symmetry_multiplicity
 _atom_site_fract_x
 _atom_site_fract_y
 _atom_site_fract_z
 _atom_site_occupancy
  Sn  Sn0  1  0.002035  0.368263  0.498739  1
  Sn  Sn1  1  0.002035  0.631737  0.998739  1
  Sb  Sb2  1  0.513009  0.112637  0.531055  1
  Sb  Sb3  1  0.513009  0.887363  0.031055  1
  Sb  Sb4  1  0.512755  0.468446  0.230140  1
  Sb  Sb5  1  0.512755  0.531554  0.730140  1
  As  As6  1  0.094033  0.245606  0.871413  1
  As  As7  1  0.094033  0.754394  0.371413  1
  As  As8  1  0.887004  0.865076  0.711153  1
  As  As9  1  0.887004  0.134924  0.211153  1
  F  F10  1  0.317967  0.510321  0.103742  1
  F  F11  1  0.037649  0.293238  0.722371  1
  F  F12  1  0.273496  0.415199  0.324136  1
  F  F13  1  0.706521  0.246144  0.545367  1
  F  F14  1  0.765224  0.017677  0.540216  1
  F  F15  1  0.055925  0.022869  0.258642  1
  F  F16  1  0.710089  0.570058  0.858388  1
  F  F17  1  0.832214  0.192201  0.891761  1
  F  F18  1  0.550752  0.319550  0.166001  1
  F  F19  1  0.710089  0.429942  0.358388  1
  F  F20  1  0.968121  0.226917  0.334832  1
  F  F21  1  0.037649  0.706762  0.222371  1
  F  F22  1  0.036687  0.382409  0.932756  1
  F  F23  1  0.080024  0.800165  0.616753  1
  F  F24  1  0.484153  0.382854  0.796304  1
  F  F25  1  0.765224  0.982323  0.040216  1
  F  F26  1  0.080024  0.199835  0.116753  1
  F  F27  1  0.543461  0.874689  0.863649  1
  F  F28  1  0.543461  0.125311  0.363649  1
  F  F29  1  0.550752  0.680450  0.666001  1
  F  F30  1  0.273496  0.584801  0.824136  1
  F  F31  1  0.757471  0.518109  0.136751  1
  F  F32  1  0.832214  0.807799  0.391761  1
  F  F33  1  0.055925  0.977131  0.758642  1
  F  F34  1  0.036687  0.617591  0.432756  1
  F  F35  1  0.968121  0.773083  0.834832  1
  F  F36  1  0.484153  0.617146  0.296304  1
  F  F37  1  0.484886  0.112581  0.697786  1
  F  F38  1  0.484886  0.887419  0.197786  1
  F  F39  1  0.706521  0.753856  0.045367  1
  F  F40  1  0.317967  0.489679  0.603742  1
  F  F41  1  0.318854  0.988684  0.512241  1
  F  F42  1  0.318854  0.011316  0.012241  1
  F  F43  1  0.277769  0.224374  0.521404  1
  F  F44  1  0.277769  0.775626  0.021404  1
  F  F45  1  0.757471  0.481891  0.636751  1
