# generated using pymatgen
data_Ba(AsPd)2
_symmetry_space_group_name_H-M   'P 1'
_cell_length_a   11.00802726
_cell_length_b   11.00802726
_cell_length_c   11.00802726
_cell_angle_alpha   156.19324092
_cell_angle_beta   156.19324092
_cell_angle_gamma   33.91932572
_symmetry_Int_Tables_number   1
_chemical_formula_structural   Ba(AsPd)2
_chemical_formula_sum   'Ba2 As4 Pd4'
_cell_volume   217.12817887
_cell_formula_units_Z   2
loop_
 _symmetry_equiv_pos_site_id
 _symmetry_equiv_pos_as_xyz
  1  'x, y, z'
loop_
 _atom_site_type_symbol
 _atom_site_label
 _atom_site_symmetry_multiplicity
 _atom_site_fract_x
 _atom_site_fract_y
 _atom_site_fract_z
 _atom_site_occupancy
  Ba  Ba0  1  0.623513  0.623513  0.000000  1
  Ba  Ba1  1  0.376487  0.376487  0.000000  1
  As  As2  1  0.750000  0.250000  0.500000  1
  As  As3  1  0.933266  0.933266  0.000000  1
  As  As4  1  0.066734  0.066734  0.000000  1
  As  As5  1  0.250000  0.750000  0.500000  1
  Pd  Pd6  1  0.000000  0.500000  0.500000  1
  Pd  Pd7  1  0.192632  0.192632  0.000000  1
  Pd  Pd8  1  0.500000  0.000000  0.500000  1
  Pd  Pd9  1  0.807368  0.807368  0.000000  1
