# generated using pymatgen
data_Ba2Fe3F10
_symmetry_space_group_name_H-M   'P 1'
_cell_length_a   8.09136814
_cell_length_b   6.31583522
_cell_length_c   18.87363383
_cell_angle_alpha   90.00000000
_cell_angle_beta   111.41924763
_cell_angle_gamma   90.00000000
_symmetry_Int_Tables_number   1
_chemical_formula_structural   Ba2Fe3F10
_chemical_formula_sum   'Ba8 Fe12 F40'
_cell_volume   897.89755791
_cell_formula_units_Z   4
loop_
 _symmetry_equiv_pos_site_id
 _symmetry_equiv_pos_as_xyz
  1  'x, y, z'
loop_
 _atom_site_type_symbol
 _atom_site_label
 _atom_site_symmetry_multiplicity
 _atom_site_fract_x
 _atom_site_fract_y
 _atom_site_fract_z
 _atom_site_occupancy
  Ba  Ba0  1  0.811486  0.494525  0.715040  1
  Ba  Ba1  1  0.188514  0.994525  0.784960  1
  Ba  Ba2  1  0.188514  0.505475  0.284960  1
  Ba  Ba3  1  0.811486  0.005475  0.215040  1
  Ba  Ba4  1  0.217488  0.513640  0.613312  1
  Ba  Ba5  1  0.782512  0.013640  0.886688  1
  Ba  Ba6  1  0.782512  0.486360  0.386688  1
  Ba  Ba7  1  0.217488  0.986360  0.113312  1
  Fe  Fe8  1  0.493389  0.256242  0.499203  1
  Fe  Fe9  1  0.506611  0.756242  0.000797  1
  Fe  Fe10  1  0.506611  0.743758  0.500797  1
  Fe  Fe11  1  0.493389  0.243758  0.999203  1
  Fe  Fe12  1  0.485161  0.504085  0.821856  1
  Fe  Fe13  1  0.514839  0.004085  0.678144  1
  Fe  Fe14  1  0.514839  0.495915  0.178144  1
  Fe  Fe15  1  0.485161  0.995915  0.321856  1
  Fe  Fe16  1  0.042144  0.503689  0.922660  1
  Fe  Fe17  1  0.957856  0.003689  0.577340  1
  Fe  Fe18  1  0.957856  0.496311  0.077340  1
  Fe  Fe19  1  0.042144  0.996311  0.422660  1
  F  F20  1  0.554936  0.749979  0.758545  1
  F  F21  1  0.445064  0.249979  0.741455  1
  F  F22  1  0.445064  0.250021  0.241455  1
  F  F23  1  0.554936  0.750021  0.258545  1
  F  F24  1  0.986230  0.779220  0.493197  1
  F  F25  1  0.013770  0.279220  0.006803  1
  F  F26  1  0.013770  0.220780  0.506803  1
  F  F27  1  0.986230  0.720780  0.993197  1
  F  F28  1  0.230438  0.571567  0.762335  1
  F  F29  1  0.769562  0.071567  0.737665  1
  F  F30  1  0.769562  0.428433  0.237665  1
  F  F31  1  0.230438  0.928433  0.262335  1
  F  F32  1  0.689429  0.493148  0.516569  1
  F  F33  1  0.310571  0.993148  0.983431  1
  F  F34  1  0.317249  0.507016  0.975967  1
  F  F35  1  0.310571  0.506852  0.483431  1
  F  F36  1  0.752082  0.447007  0.861998  1
  F  F37  1  0.247918  0.947007  0.638002  1
  F  F38  1  0.247918  0.552993  0.138002  1
  F  F39  1  0.752082  0.052993  0.361998  1
  F  F40  1  0.532711  0.761571  0.113001  1
  F  F41  1  0.467289  0.261571  0.386999  1
  F  F42  1  0.467289  0.238429  0.886999  1
  F  F43  1  0.532711  0.738429  0.613001  1
  F  F44  1  0.510870  0.226699  0.110393  1
  F  F45  1  0.489130  0.726699  0.389607  1
  F  F46  1  0.489130  0.773301  0.889607  1
  F  F47  1  0.510870  0.273301  0.610393  1
  F  F48  1  0.043725  0.228364  0.350152  1
  F  F49  1  0.956275  0.728364  0.149848  1
  F  F50  1  0.956275  0.771636  0.649848  1
  F  F51  1  0.043725  0.271636  0.850152  1
  F  F52  1  0.993767  0.752395  0.341273  1
  F  F53  1  0.006233  0.252395  0.158727  1
  F  F54  1  0.006233  0.247605  0.658727  1
  F  F55  1  0.993767  0.747605  0.841273  1
  F  F56  1  0.317249  0.992984  0.475967  1
  F  F57  1  0.682751  0.492984  0.024033  1
  F  F58  1  0.682751  0.007016  0.524033  1
  F  F59  1  0.689429  0.006852  0.016569  1
