# generated using pymatgen
data_Rb2Y(NO3)5
_symmetry_space_group_name_H-M   'P 1'
_cell_length_a   11.48269077
_cell_length_b   11.48269077
_cell_length_c   9.61719618
_cell_angle_alpha   90.00000000
_cell_angle_beta   90.00000000
_cell_angle_gamma   120.00000000
_symmetry_Int_Tables_number   1
_chemical_formula_structural   Rb2Y(NO3)5
_chemical_formula_sum   'Rb6 Y3 N15 O45'
_cell_volume   1098.16208554
_cell_formula_units_Z   3
loop_
 _symmetry_equiv_pos_site_id
 _symmetry_equiv_pos_as_xyz
  1  'x, y, z'
loop_
 _atom_site_type_symbol
 _atom_site_label
 _atom_site_symmetry_multiplicity
 _atom_site_fract_x
 _atom_site_fract_y
 _atom_site_fract_z
 _atom_site_occupancy
  Rb  Rb0  1  0.729007  0.000000  0.333333  1
  Rb  Rb1  1  0.000000  0.537435  0.166667  1
  Rb  Rb2  1  0.000000  0.729007  0.666667  1
  Rb  Rb3  1  0.462565  0.462565  0.500000  1
  Rb  Rb4  1  0.270993  0.270993  0.000000  1
  Rb  Rb5  1  0.537435  0.000000  0.833333  1
  Y  Y6  1  0.673304  0.673304  0.000000  1
  Y  Y7  1  0.326696  0.000000  0.333333  1
  Y  Y8  1  0.000000  0.326696  0.666667  1
  N  N9  1  0.422569  0.670346  0.064731  1
  N  N10  1  0.247777  0.577431  0.731398  1
  N  N11  1  0.743029  0.641086  0.285325  1
  N  N12  1  0.256971  0.898057  0.048008  1
  N  N13  1  0.358914  0.101943  0.618658  1
  N  N14  1  0.752223  0.329654  0.601936  1
  N  N15  1  0.329654  0.752223  0.398064  1
  N  N16  1  0.577431  0.247777  0.268602  1
  N  N17  1  0.920292  0.920292  0.000000  1
  N  N18  1  0.000000  0.079708  0.666667  1
  N  N19  1  0.101943  0.358914  0.381342  1
  N  N20  1  0.079708  0.000000  0.333333  1
  N  N21  1  0.898057  0.256971  0.951992  1
  N  N22  1  0.641086  0.743029  0.714675  1
  N  N23  1  0.670346  0.422569  0.935269  1
  O  O24  1  0.996862  0.365945  0.412686  1
  O  O25  1  0.337301  0.650179  0.422614  1
  O  O26  1  0.756794  0.220336  0.592038  1
  O  O27  1  0.666885  0.824687  0.816633  1
  O  O28  1  0.220336  0.756794  0.407962  1
  O  O29  1  0.630917  0.634055  0.253981  1
  O  O30  1  0.175313  0.842198  0.149966  1
  O  O31  1  0.817137  0.902377  0.073894  1
  O  O32  1  0.333115  0.157802  0.516701  1
  O  O33  1  0.243206  0.463542  0.741295  1
  O  O34  1  0.145843  0.375167  0.261160  1
  O  O35  1  0.349821  0.687121  0.755947  1
  O  O36  1  0.138154  0.571984  0.692662  1
  O  O37  1  0.687121  0.349821  0.244053  1
  O  O38  1  0.085240  0.182863  0.740561  1
  O  O39  1  0.182863  0.085240  0.259439  1
  O  O40  1  0.428016  0.566170  0.025995  1
  O  O41  1  0.842198  0.175313  0.850034  1
  O  O42  1  0.229324  0.854157  0.927827  1
  O  O43  1  0.571984  0.138154  0.307338  1
  O  O44  1  0.974456  0.000000  0.333333  1
  O  O45  1  0.003138  0.369083  0.920648  1
  O  O46  1  0.157802  0.333115  0.483299  1
  O  O47  1  0.861846  0.433830  0.640672  1
  O  O48  1  0.662699  0.312879  0.910720  1
  O  O49  1  0.000000  0.974456  0.666667  1
  O  O50  1  0.770676  0.624833  0.405506  1
  O  O51  1  0.634055  0.630917  0.746019  1
  O  O52  1  0.914760  0.097623  0.592773  1
  O  O53  1  0.824687  0.666885  0.183367  1
  O  O54  1  0.566170  0.428016  0.974005  1
  O  O55  1  0.369083  0.003138  0.079352  1
  O  O56  1  0.375167  0.145843  0.738840  1
  O  O57  1  0.536458  0.779664  0.074628  1
  O  O58  1  0.624833  0.770676  0.594494  1
  O  O59  1  0.025544  0.025544  0.000000  1
  O  O60  1  0.854157  0.229324  0.072173  1
  O  O61  1  0.097623  0.914760  0.407227  1
  O  O62  1  0.312879  0.662699  0.089280  1
  O  O63  1  0.463542  0.243206  0.258705  1
  O  O64  1  0.365945  0.996862  0.587314  1
  O  O65  1  0.779664  0.536458  0.925372  1
  O  O66  1  0.650179  0.337301  0.577386  1
  O  O67  1  0.902377  0.817137  0.926106  1
  O  O68  1  0.433830  0.861846  0.359328  1
