# generated using pymatgen
data_Rb2NaAl6F21
_symmetry_space_group_name_H-M   'P 1'
_cell_length_a   7.07552157
_cell_length_b   7.07552157
_cell_length_c   10.35445505
_cell_angle_alpha   70.06415453
_cell_angle_beta   109.93584547
_cell_angle_gamma   119.94007847
_symmetry_Int_Tables_number   1
_chemical_formula_structural   Rb2NaAl6F21
_chemical_formula_sum   'Rb2 Na1 Al6 F21'
_cell_volume   412.89336543
_cell_formula_units_Z   1
loop_
 _symmetry_equiv_pos_site_id
 _symmetry_equiv_pos_as_xyz
  1  'x, y, z'
loop_
 _atom_site_type_symbol
 _atom_site_label
 _atom_site_symmetry_multiplicity
 _atom_site_fract_x
 _atom_site_fract_y
 _atom_site_fract_z
 _atom_site_occupancy
  Rb  Rb0  1  0.863102  0.134163  0.093508  1
  Rb  Rb1  1  0.134163  0.863102  0.906492  1
  Na  Na2  1  0.514077  0.514077  0.000000  1
  Al  Al3  1  0.085230  0.456539  0.692124  1
  Al  Al4  1  0.456539  0.085230  0.307876  1
  Al  Al5  1  0.583949  0.959000  0.689986  1
  Al  Al6  1  0.588437  0.460879  0.690766  1
  Al  Al7  1  0.460879  0.588437  0.309234  1
  Al  Al8  1  0.959000  0.583949  0.310014  1
  F  F9  1  0.432900  0.679782  0.124877  1
  F  F10  1  0.679782  0.432900  0.875123  1
  F  F11  1  0.509929  0.165736  0.703942  1
  F  F12  1  0.165736  0.509929  0.296058  1
  F  F13  1  0.543627  0.869704  0.328885  1
  F  F14  1  0.042587  0.512865  0.500714  1
  F  F15  1  0.657067  0.756407  0.668700  1
  F  F16  1  0.404616  0.137173  0.122036  1
  F  F17  1  0.167617  0.875554  0.311917  1
  F  F18  1  0.291412  0.750456  0.686051  1
  F  F19  1  0.756407  0.657067  0.331300  1
  F  F20  1  0.492721  0.492721  0.500000  1
  F  F21  1  0.649705  0.879112  0.874413  1
  F  F22  1  0.374230  0.301924  0.294813  1
  F  F23  1  0.137173  0.404616  0.877964  1
  F  F24  1  0.750456  0.291412  0.313949  1
  F  F25  1  0.869704  0.543627  0.671115  1
  F  F26  1  0.301924  0.374230  0.705187  1
  F  F27  1  0.875554  0.167617  0.688083  1
  F  F28  1  0.512865  0.042587  0.499286  1
  F  F29  1  0.879112  0.649705  0.125587  1
