# generated using pymatgen
data_TlCoCl3
_symmetry_space_group_name_H-M   'P 1'
_cell_length_a   12.15489675
_cell_length_b   12.15489675
_cell_length_c   5.89122649
_cell_angle_alpha   90.00000000
_cell_angle_beta   90.00000000
_cell_angle_gamma   120.00000000
_symmetry_Int_Tables_number   1
_chemical_formula_structural   TlCoCl3
_chemical_formula_sum   'Tl6 Co6 Cl18'
_cell_volume   753.77008855
_cell_formula_units_Z   6
loop_
 _symmetry_equiv_pos_site_id
 _symmetry_equiv_pos_as_xyz
  1  'x, y, z'
loop_
 _atom_site_type_symbol
 _atom_site_label
 _atom_site_symmetry_multiplicity
 _atom_site_fract_x
 _atom_site_fract_y
 _atom_site_fract_z
 _atom_site_occupancy
  Tl  Tl0  1  0.000000  0.666600  0.250629  1
  Tl  Tl1  1  0.333400  0.000000  0.750629  1
  Tl  Tl2  1  0.666600  0.666600  0.750629  1
  Tl  Tl3  1  0.333400  0.333400  0.250629  1
  Tl  Tl4  1  0.666600  0.000000  0.250629  1
  Tl  Tl5  1  0.000000  0.333400  0.750629  1
  Co  Co6  1  0.666667  0.333333  0.535630  1
  Co  Co7  1  0.333333  0.666667  0.035630  1
  Co  Co8  1  0.666667  0.333333  0.035630  1
  Co  Co9  1  0.000000  0.000000  0.463656  1
  Co  Co10  1  0.000000  0.000000  0.963656  1
  Co  Co11  1  0.333333  0.666667  0.535630  1
  Cl  Cl12  1  0.158456  0.000000  0.211498  1
  Cl  Cl13  1  0.174985  0.666844  0.787434  1
  Cl  Cl14  1  0.825015  0.491859  0.787434  1
  Cl  Cl15  1  0.508141  0.174985  0.287434  1
  Cl  Cl16  1  0.333156  0.508141  0.787434  1
  Cl  Cl17  1  0.491859  0.825015  0.787434  1
  Cl  Cl18  1  0.508141  0.333156  0.787434  1
  Cl  Cl19  1  0.491859  0.666844  0.287434  1
  Cl  Cl20  1  0.158456  0.158456  0.711498  1
  Cl  Cl21  1  0.174985  0.508141  0.287434  1
  Cl  Cl22  1  0.333156  0.825015  0.287434  1
  Cl  Cl23  1  0.000000  0.841544  0.711498  1
  Cl  Cl24  1  0.841544  0.841544  0.211498  1
  Cl  Cl25  1  0.666844  0.174985  0.787434  1
  Cl  Cl26  1  0.000000  0.158456  0.211498  1
  Cl  Cl27  1  0.841544  0.000000  0.711498  1
  Cl  Cl28  1  0.666844  0.491859  0.287434  1
  Cl  Cl29  1  0.825015  0.333156  0.287434  1
