# generated using pymatgen
data_Tl2CdGeTe4
_symmetry_space_group_name_H-M   'P 1'
_cell_length_a   7.07341698
_cell_length_b   7.07341698
_cell_length_c   7.07341698
_cell_angle_alpha   104.95391634
_cell_angle_beta   104.95391634
_cell_angle_gamma   118.94146872
_symmetry_Int_Tables_number   1
_chemical_formula_structural   Tl2CdGeTe4
_chemical_formula_sum   'Tl2 Cd1 Ge1 Te4'
_cell_volume   266.77327026
_cell_formula_units_Z   1
loop_
 _symmetry_equiv_pos_site_id
 _symmetry_equiv_pos_as_xyz
  1  'x, y, z'
loop_
 _atom_site_type_symbol
 _atom_site_label
 _atom_site_symmetry_multiplicity
 _atom_site_fract_x
 _atom_site_fract_y
 _atom_site_fract_z
 _atom_site_occupancy
  Tl  Tl0  1  0.000000  0.500000  0.500000  1
  Tl  Tl1  1  0.500000  0.000000  0.500000  1
  Cd  Cd2  1  0.000000  0.000000  0.000000  1
  Ge  Ge3  1  0.500000  0.500000  0.000000  1
  Te  Te4  1  0.449245  0.449245  0.346424  1
  Te  Te5  1  0.102821  0.102821  0.653576  1
  Te  Te6  1  0.550755  0.897179  0.000000  1
  Te  Te7  1  0.897179  0.550755  1.000000  1
