# generated using pymatgen
data_Ba12Na15Li8N6
_symmetry_space_group_name_H-M   'P 1'
_cell_length_a   13.11325936
_cell_length_b   13.11325936
_cell_length_c   13.11325936
_cell_angle_alpha   56.35117540
_cell_angle_beta   56.35117540
_cell_angle_gamma   56.35117540
_symmetry_Int_Tables_number   1
_chemical_formula_structural   Ba12Na15Li8N6
_chemical_formula_sum   'Ba12 Na15 Li8 N6'
_cell_volume   1459.90456901
_cell_formula_units_Z   1
loop_
 _symmetry_equiv_pos_site_id
 _symmetry_equiv_pos_as_xyz
  1  'x, y, z'
loop_
 _atom_site_type_symbol
 _atom_site_label
 _atom_site_symmetry_multiplicity
 _atom_site_fract_x
 _atom_site_fract_y
 _atom_site_fract_z
 _atom_site_occupancy
  Ba  Ba0  1  0.322174  0.980172  0.980172  1
  Ba  Ba1  1  0.726480  0.726480  0.361389  1
  Ba  Ba2  1  0.361389  0.726480  0.726480  1
  Ba  Ba3  1  0.019828  0.677826  0.019828  1
  Ba  Ba4  1  0.980172  0.980172  0.322174  1
  Ba  Ba5  1  0.726480  0.361389  0.726480  1
  Ba  Ba6  1  0.273520  0.638611  0.273520  1
  Ba  Ba7  1  0.273520  0.273520  0.638611  1
  Ba  Ba8  1  0.019828  0.019828  0.677826  1
  Ba  Ba9  1  0.980172  0.322174  0.980172  1
  Ba  Ba10  1  0.677826  0.019828  0.019828  1
  Ba  Ba11  1  0.638611  0.273520  0.273520  1
  Na  Na12  1  0.353580  0.353580  0.855243  1
  Na  Na13  1  0.084773  0.397566  0.397566  1
  Na  Na14  1  0.602434  0.602434  0.915227  1
  Na  Na15  1  0.855243  0.353580  0.353580  1
  Na  Na16  1  0.602434  0.915227  0.602434  1
  Na  Na17  1  0.202008  0.202008  0.202008  1
  Na  Na18  1  0.353580  0.855243  0.353580  1
  Na  Na19  1  0.500000  0.500000  0.500000  1
  Na  Na20  1  0.397566  0.084773  0.397566  1
  Na  Na21  1  0.646420  0.144757  0.646420  1
  Na  Na22  1  0.397566  0.397566  0.084773  1
  Na  Na23  1  0.915227  0.602434  0.602434  1
  Na  Na24  1  0.646420  0.646420  0.144757  1
  Na  Na25  1  0.144757  0.646420  0.646420  1
  Na  Na26  1  0.797992  0.797992  0.797992  1
  Li  Li27  1  0.038478  0.038478  0.038478  1
  Li  Li28  1  0.961522  0.961522  0.961522  1
  Li  Li29  1  0.000000  0.202928  0.797072  1
  Li  Li30  1  0.202928  0.797072  1.000000  1
  Li  Li31  1  0.797072  0.202928  0.000000  1
  Li  Li32  1  0.797072  0.000000  0.202928  1
  Li  Li33  1  0.202928  0.000000  0.797072  1
  Li  Li34  1  0.000000  0.797072  0.202928  1
  N  N35  1  0.854406  0.854406  0.144706  1
  N  N36  1  0.145594  0.145594  0.855294  1
  N  N37  1  0.854406  0.144706  0.854406  1
  N  N38  1  0.855294  0.145594  0.145594  1
  N  N39  1  0.145594  0.855294  0.145594  1
  N  N40  1  0.144706  0.854406  0.854406  1
