# generated using pymatgen
data_CaGe2
_symmetry_space_group_name_H-M   'P 1'
_cell_length_a   5.75019919
_cell_length_b   5.75019919
_cell_length_c   5.75019919
_cell_angle_alpha   40.82662238
_cell_angle_beta   40.82662238
_cell_angle_gamma   40.82662238
_symmetry_Int_Tables_number   1
_chemical_formula_structural   CaGe2
_chemical_formula_sum   'Ca1 Ge2'
_cell_volume   73.33908817
_cell_formula_units_Z   1
loop_
 _symmetry_equiv_pos_site_id
 _symmetry_equiv_pos_as_xyz
  1  'x, y, z'
loop_
 _atom_site_type_symbol
 _atom_site_label
 _atom_site_symmetry_multiplicity
 _atom_site_fract_x
 _atom_site_fract_y
 _atom_site_fract_z
 _atom_site_occupancy
  Ca  Ca0  1  0.000000  0.000000  0.000000  1
  Ge  Ge1  1  0.202048  0.202048  0.202048  1
  Ge  Ge2  1  0.797952  0.797952  0.797952  1
