# generated using pymatgen
data_BiPPbO5
_symmetry_space_group_name_H-M   'P 1'
_cell_length_a   5.91388414
_cell_length_b   7.10144481
_cell_length_c   7.10620351
_cell_angle_alpha   107.15152193
_cell_angle_beta   109.09337855
_cell_angle_gamma   101.51570072
_symmetry_Int_Tables_number   1
_chemical_formula_structural   BiPPbO5
_chemical_formula_sum   'Bi2 P2 Pb2 O10'
_cell_volume   254.57898792
_cell_formula_units_Z   2
loop_
 _symmetry_equiv_pos_site_id
 _symmetry_equiv_pos_as_xyz
  1  'x, y, z'
loop_
 _atom_site_type_symbol
 _atom_site_label
 _atom_site_symmetry_multiplicity
 _atom_site_fract_x
 _atom_site_fract_y
 _atom_site_fract_z
 _atom_site_occupancy
  Bi  Bi0  1  0.616997  0.268586  0.557643  1
  Bi  Bi1  1  0.383003  0.731414  0.442357  1
  P  P2  1  0.178993  0.656091  0.858269  1
  P  P3  1  0.821007  0.343909  0.141731  1
  Pb  Pb4  1  0.167410  0.108845  0.822063  1
  Pb  Pb5  1  0.832590  0.891155  0.177937  1
  O  O6  1  0.258278  0.998278  0.472886  1
  O  O7  1  0.935406  0.583410  0.284741  1
  O  O8  1  0.657752  0.311092  0.905414  1
  O  O9  1  0.365314  0.769191  0.781962  1
  O  O10  1  0.342248  0.688908  0.094586  1
  O  O11  1  0.741722  0.001722  0.527114  1
  O  O12  1  0.962346  0.750886  0.842683  1
  O  O13  1  0.064594  0.416590  0.715259  1
  O  O14  1  0.037654  0.249114  0.157317  1
  O  O15  1  0.634686  0.230809  0.218038  1
