# generated using pymatgen
data_LuRu2
_symmetry_space_group_name_H-M   'P 1'
_cell_length_a   5.23259766
_cell_length_b   5.23259766
_cell_length_c   8.81308470
_cell_angle_alpha   90.00000000
_cell_angle_beta   90.00000000
_cell_angle_gamma   120.00000000
_symmetry_Int_Tables_number   1
_chemical_formula_structural   LuRu2
_chemical_formula_sum   'Lu4 Ru8'
_cell_volume   208.97448360
_cell_formula_units_Z   4
loop_
 _symmetry_equiv_pos_site_id
 _symmetry_equiv_pos_as_xyz
  1  'x, y, z'
loop_
 _atom_site_type_symbol
 _atom_site_label
 _atom_site_symmetry_multiplicity
 _atom_site_fract_x
 _atom_site_fract_y
 _atom_site_fract_z
 _atom_site_occupancy
  Lu  Lu0  1  0.333333  0.666667  0.433221  1
  Lu  Lu1  1  0.666667  0.333333  0.566779  1
  Lu  Lu2  1  0.666667  0.333333  0.933221  1
  Lu  Lu3  1  0.333333  0.666667  0.066779  1
  Ru  Ru4  1  0.171600  0.343201  0.750000  1
  Ru  Ru5  1  0.171600  0.828400  0.750000  1
  Ru  Ru6  1  0.343201  0.171600  0.250000  1
  Ru  Ru7  1  0.828400  0.656799  0.250000  1
  Ru  Ru8  1  0.656799  0.828400  0.750000  1
  Ru  Ru9  1  0.000000  0.000000  0.000000  1
  Ru  Ru10  1  0.828400  0.171600  0.250000  1
  Ru  Ru11  1  0.000000  0.000000  0.500000  1
