# generated using pymatgen
data_SiO2
_symmetry_space_group_name_H-M   'P 1'
_cell_length_a   6.70432581
_cell_length_b   6.70432581
_cell_length_c   6.70432581
_cell_angle_alpha   98.06248813
_cell_angle_beta   98.06248813
_cell_angle_gamma   136.01271535
_symmetry_Int_Tables_number   1
_chemical_formula_structural   SiO2
_chemical_formula_sum   'Si4 O8'
_cell_volume   194.05378070
_cell_formula_units_Z   4
loop_
 _symmetry_equiv_pos_site_id
 _symmetry_equiv_pos_as_xyz
  1  'x, y, z'
loop_
 _atom_site_type_symbol
 _atom_site_label
 _atom_site_symmetry_multiplicity
 _atom_site_fract_x
 _atom_site_fract_y
 _atom_site_fract_z
 _atom_site_occupancy
  Si  Si0  1  0.306168  0.304104  0.647927  1
  Si  Si1  1  0.341760  0.693832  0.997936  1
  Si  Si2  1  0.695896  0.343823  0.002064  1
  Si  Si3  1  0.656177  0.658240  0.352073  1
  O  O4  1  0.484650  0.415504  0.477156  1
  O  O5  1  0.584496  0.061651  0.069146  1
  O  O6  1  0.992505  0.515350  0.930854  1
  O  O7  1  0.791039  0.592021  0.207566  1
  O  O8  1  0.384455  0.583473  0.792434  1
  O  O9  1  0.416527  0.208961  0.800982  1
  O  O10  1  0.938349  0.007495  0.522844  1
  O  O11  1  0.407979  0.615545  0.199018  1
