# generated using pymatgen
data_ZnGaNO
_symmetry_space_group_name_H-M   'P 1'
_cell_length_a   6.53030097
_cell_length_b   6.52985930
_cell_length_c   10.57084073
_cell_angle_alpha   89.98598179
_cell_angle_beta   90.12796282
_cell_angle_gamma   119.84910442
_symmetry_Int_Tables_number   1
_chemical_formula_structural   ZnGaNO
_chemical_formula_sum   'Zn8 Ga8 N8 O8'
_cell_volume   390.96171515
_cell_formula_units_Z   8
loop_
 _symmetry_equiv_pos_site_id
 _symmetry_equiv_pos_as_xyz
  1  'x, y, z'
loop_
 _atom_site_type_symbol
 _atom_site_label
 _atom_site_symmetry_multiplicity
 _atom_site_fract_x
 _atom_site_fract_y
 _atom_site_fract_z
 _atom_site_occupancy
  Zn  Zn0  1  0.671117  0.843707  0.261692  1
  Zn  Zn1  1  0.167195  0.833118  0.262086  1
  Zn  Zn2  1  0.838523  0.661132  0.510367  1
  Zn  Zn3  1  0.156712  0.328502  0.264558  1
  Zn  Zn4  1  0.827216  0.654616  0.998826  1
  Zn  Zn5  1  0.333610  0.168171  0.510963  1
  Zn  Zn6  1  0.661352  0.839809  0.746844  1
  Zn  Zn7  1  0.322102  0.660612  0.506335  1
  Ga  Ga8  1  0.334159  0.669603  0.992050  1
  Ga  Ga9  1  0.670231  0.326144  0.252557  1
  Ga  Ga10  1  0.346112  0.171420  0.994914  1
  Ga  Ga11  1  0.665167  0.323728  0.743937  1
  Ga  Ga12  1  0.163028  0.332525  0.745296  1
  Ga  Ga13  1  0.175016  0.835788  0.741492  1
  Ga  Ga14  1  0.825221  0.171746  0.993950  1
  Ga  Ga15  1  0.838390  0.177468  0.503156  1
  N  N16  1  0.828093  0.171518  0.316951  1
  N  N17  1  0.167695  0.835885  0.563611  1
  N  N18  1  0.668784  0.327665  0.565058  1
  N  N19  1  0.323295  0.660296  0.813862  1
  N  N20  1  0.839071  0.175416  0.815474  1
  N  N21  1  0.157443  0.327383  0.564492  1
  N  N22  1  0.661572  0.323658  0.066347  1
  N  N23  1  0.332973  0.167072  0.814012  1
  O  O24  1  0.335220  0.665434  0.303451  1
  O  O25  1  0.179733  0.840797  0.056698  1
  O  O26  1  0.673331  0.846008  0.555602  1
  O  O27  1  0.346407  0.174821  0.301267  1
  O  O28  1  0.168210  0.333706  0.054447  1
  O  O29  1  0.839122  0.660718  0.808358  1
  O  O30  1  0.659526  0.839205  0.054196  1
  O  O31  1  0.824371  0.652329  0.301166  1
