# generated using pymatgen
data_SNF
_symmetry_space_group_name_H-M   'P 1'
_cell_length_a   6.91258199
_cell_length_b   6.91258199
_cell_length_c   6.91258199
_cell_angle_alpha   99.14583471
_cell_angle_beta   99.14583471
_cell_angle_gamma   99.14583471
_symmetry_Int_Tables_number   1
_chemical_formula_structural   SNF
_chemical_formula_sum   'S6 N6 F6'
_cell_volume   316.16235499
_cell_formula_units_Z   6
loop_
 _symmetry_equiv_pos_site_id
 _symmetry_equiv_pos_as_xyz
  1  'x, y, z'
loop_
 _atom_site_type_symbol
 _atom_site_label
 _atom_site_symmetry_multiplicity
 _atom_site_fract_x
 _atom_site_fract_y
 _atom_site_fract_z
 _atom_site_occupancy
  S  S0  1  0.278969  0.170777  0.477687  1
  S  S1  1  0.477687  0.278969  0.170777  1
  S  S2  1  0.170777  0.477687  0.278969  1
  S  S3  1  0.829223  0.522313  0.721031  1
  S  S4  1  0.522313  0.721031  0.829223  1
  S  S5  1  0.721031  0.829223  0.522313  1
  N  N6  1  0.171847  0.358788  0.461530  1
  N  N7  1  0.641212  0.538470  0.828153  1
  N  N8  1  0.461530  0.171847  0.358788  1
  N  N9  1  0.828153  0.641212  0.538470  1
  N  N10  1  0.358788  0.461530  0.171847  1
  N  N11  1  0.538470  0.828153  0.641212  1
  F  F12  1  0.330813  0.110109  0.983478  1
  F  F13  1  0.983478  0.330813  0.110109  1
  F  F14  1  0.110109  0.983478  0.330813  1
  F  F15  1  0.016522  0.669187  0.889891  1
  F  F16  1  0.669187  0.889891  0.016522  1
  F  F17  1  0.889891  0.016522  0.669187  1
