# generated using pymatgen
data_Sr5B3BrO9
_symmetry_space_group_name_H-M   'P 1'
_cell_length_a   8.81192886
_cell_length_b   8.81192886
_cell_length_c   7.61403762
_cell_angle_alpha   90.00000000
_cell_angle_beta   90.00000000
_cell_angle_gamma   109.79250815
_symmetry_Int_Tables_number   1
_chemical_formula_structural   Sr5B3BrO9
_chemical_formula_sum   'Sr10 B6 Br2 O18'
_cell_volume   556.30378558
_cell_formula_units_Z   2
loop_
 _symmetry_equiv_pos_site_id
 _symmetry_equiv_pos_as_xyz
  1  'x, y, z'
loop_
 _atom_site_type_symbol
 _atom_site_label
 _atom_site_symmetry_multiplicity
 _atom_site_fract_x
 _atom_site_fract_y
 _atom_site_fract_z
 _atom_site_occupancy
  Sr  Sr0  1  0.757092  0.757092  0.500000  1
  Sr  Sr1  1  0.005796  0.266467  0.427271  1
  Sr  Sr2  1  0.636189  0.363811  0.250000  1
  Sr  Sr3  1  0.363376  0.636624  0.250000  1
  Sr  Sr4  1  0.994204  0.733533  0.927271  1
  Sr  Sr5  1  0.242908  0.242908  0.000000  1
  Sr  Sr6  1  0.733533  0.994204  0.072729  1
  Sr  Sr7  1  0.363811  0.636189  0.750000  1
  Sr  Sr8  1  0.636624  0.363376  0.750000  1
  Sr  Sr9  1  0.266467  0.005796  0.572729  1
  B  B10  1  0.372545  0.372545  0.500000  1
  B  B11  1  0.627455  0.627455  0.000000  1
  B  B12  1  0.013861  0.589952  0.527523  1
  B  B13  1  0.589952  0.013861  0.472477  1
  B  B14  1  0.986139  0.410048  0.027523  1
  B  B15  1  0.410048  0.986139  0.972477  1
  Br  Br16  1  0.941309  0.058691  0.750000  1
  Br  Br17  1  0.058691  0.941309  0.250000  1
  O  O18  1  0.488888  0.488888  0.000000  1
  O  O19  1  0.694918  0.689497  0.839453  1
  O  O20  1  0.521641  0.139205  0.013190  1
  O  O21  1  0.478359  0.860795  0.513190  1
  O  O22  1  0.860795  0.478359  0.486810  1
  O  O23  1  0.555814  0.152895  0.513151  1
  O  O24  1  0.152895  0.555814  0.486849  1
  O  O25  1  0.444186  0.847105  0.013151  1
  O  O26  1  0.511112  0.511112  0.500000  1
  O  O27  1  0.267813  0.974228  0.886625  1
  O  O28  1  0.847105  0.444186  0.986849  1
  O  O29  1  0.305082  0.310503  0.339453  1
  O  O30  1  0.974228  0.267813  0.113375  1
  O  O31  1  0.310503  0.305082  0.660547  1
  O  O32  1  0.025772  0.732187  0.613375  1
  O  O33  1  0.139205  0.521641  0.986810  1
  O  O34  1  0.689497  0.694918  0.160547  1
  O  O35  1  0.732187  0.025772  0.386625  1
