# generated using pymatgen
data_Ga3Pb5F19
_symmetry_space_group_name_H-M   'P 1'
_cell_length_a   11.01261080
_cell_length_b   11.01261080
_cell_length_c   11.01261080
_cell_angle_alpha   97.26761889
_cell_angle_beta   97.26761889
_cell_angle_gamma   138.33048104
_symmetry_Int_Tables_number   1
_chemical_formula_structural   Ga3Pb5F19
_chemical_formula_sum   'Ga6 Pb10 F38'
_cell_volume   829.87739202
_cell_formula_units_Z   2
loop_
 _symmetry_equiv_pos_site_id
 _symmetry_equiv_pos_as_xyz
  1  'x, y, z'
loop_
 _atom_site_type_symbol
 _atom_site_label
 _atom_site_symmetry_multiplicity
 _atom_site_fract_x
 _atom_site_fract_y
 _atom_site_fract_z
 _atom_site_occupancy
  Ga  Ga0  1  0.669676  0.669676  0.000000  1
  Ga  Ga1  1  0.312019  0.812019  0.178568  1
  Ga  Ga2  1  0.169676  0.169676  0.000000  1
  Ga  Ga3  1  0.633450  0.133450  0.821432  1
  Ga  Ga4  1  0.133450  0.312019  0.500000  1
  Ga  Ga5  1  0.812019  0.633450  0.500000  1
  Pb  Pb6  1  0.452548  0.297067  0.701803  1
  Pb  Pb7  1  0.595263  0.750745  0.298197  1
  Pb  Pb8  1  0.095263  0.797067  0.844519  1
  Pb  Pb9  1  0.131244  0.631244  0.500000  1
  Pb  Pb10  1  0.297067  0.595263  0.844519  1
  Pb  Pb11  1  0.797067  0.952548  0.701803  1
  Pb  Pb12  1  0.250745  0.095263  0.298197  1
  Pb  Pb13  1  0.952548  0.250745  0.155481  1
  Pb  Pb14  1  0.631244  0.131244  0.500000  1
  Pb  Pb15  1  0.750745  0.452548  0.155481  1
  F  F16  1  0.133021  0.633021  0.731659  1
  F  F17  1  0.793370  0.293370  0.996143  1
  F  F18  1  0.957289  0.310460  0.500000  1
  F  F19  1  0.810460  0.457289  0.500000  1
  F  F20  1  0.214406  0.569444  0.141703  1
  F  F21  1  0.443374  0.071018  0.242430  1
  F  F22  1  0.457289  0.957289  0.646830  1
  F  F23  1  0.828588  0.200944  0.757570  1
  F  F24  1  0.915044  0.915044  0.000000  1
  F  F25  1  0.602082  0.776523  0.060106  1
  F  F26  1  0.069444  0.714406  0.141703  1
  F  F27  1  0.901362  0.401362  0.268341  1
  F  F28  1  0.571018  0.943374  0.242430  1
  F  F29  1  0.072703  0.214406  0.644962  1
  F  F30  1  0.716417  0.541976  0.939894  1
  F  F31  1  0.714406  0.572703  0.644962  1
  F  F32  1  0.276523  0.102082  0.060106  1
  F  F33  1  0.927741  0.069444  0.355038  1
  F  F34  1  0.200944  0.443374  0.372356  1
  F  F35  1  0.541976  0.602082  0.825560  1
  F  F36  1  0.293370  0.297227  0.500000  1
  F  F37  1  0.297227  0.797227  0.003857  1
  F  F38  1  0.776523  0.716417  0.174441  1
  F  F39  1  0.700944  0.328588  0.757570  1
  F  F40  1  0.427741  0.072703  0.858297  1
  F  F41  1  0.415044  0.415044  0.000000  1
  F  F42  1  0.310460  0.810460  0.353170  1
  F  F43  1  0.797227  0.793370  0.500000  1
  F  F44  1  0.633021  0.901362  0.500000  1
  F  F45  1  0.569444  0.427741  0.355038  1
  F  F46  1  0.216417  0.276523  0.174441  1
  F  F47  1  0.041976  0.216417  0.939894  1
  F  F48  1  0.102082  0.041976  0.825559  1
  F  F49  1  0.071018  0.828588  0.627644  1
  F  F50  1  0.401362  0.133021  0.500000  1
  F  F51  1  0.943374  0.700944  0.372356  1
  F  F52  1  0.572703  0.927741  0.858297  1
  F  F53  1  0.328588  0.571018  0.627644  1
