# generated using pymatgen
data_K2Be2(Si2O5)3
_symmetry_space_group_name_H-M   'P 1'
_cell_length_a   8.64212454
_cell_length_b   8.64212454
_cell_length_c   11.62144600
_cell_angle_alpha   90.00000000
_cell_angle_beta   90.00000000
_cell_angle_gamma   127.88915947
_symmetry_Int_Tables_number   1
_chemical_formula_structural   K2Be2(Si2O5)3
_chemical_formula_sum   'K4 Be4 Si12 O30'
_cell_volume   684.99665122
_cell_formula_units_Z   2
loop_
 _symmetry_equiv_pos_site_id
 _symmetry_equiv_pos_as_xyz
  1  'x, y, z'
loop_
 _atom_site_type_symbol
 _atom_site_label
 _atom_site_symmetry_multiplicity
 _atom_site_fract_x
 _atom_site_fract_y
 _atom_site_fract_z
 _atom_site_occupancy
  K  K0  1  0.902684  0.097316  0.398466  1
  K  K1  1  0.207327  0.792672  0.622791  1
  K  K2  1  0.792673  0.207327  0.122791  1
  K  K3  1  0.097316  0.902684  0.898466  1
  Be  Be4  1  0.468887  0.228016  0.754796  1
  Be  Be5  1  0.531113  0.771984  0.254796  1
  Be  Be6  1  0.228016  0.468887  0.254796  1
  Be  Be7  1  0.771984  0.531113  0.754796  1
  Si  Si8  1  0.351889  0.648111  0.019061  1
  Si  Si9  1  0.448684  0.551316  0.481859  1
  Si  Si10  1  0.258609  0.151118  0.170298  1
  Si  Si11  1  0.848882  0.741391  0.170298  1
  Si  Si12  1  0.416972  0.001128  0.350904  1
  Si  Si13  1  0.741391  0.848882  0.670298  1
  Si  Si14  1  0.001128  0.416972  0.850904  1
  Si  Si15  1  0.998872  0.583028  0.350904  1
  Si  Si16  1  0.648111  0.351889  0.519061  1
  Si  Si17  1  0.551316  0.448684  0.981859  1
  Si  Si18  1  0.151118  0.258609  0.670298  1
  Si  Si19  1  0.583028  0.998872  0.850904  1
  O  O20  1  0.552044  0.447956  0.464957  1
  O  O21  1  0.071123  0.928877  0.127380  1
  O  O22  1  0.967346  0.562317  0.793027  1
  O  O23  1  0.730744  0.816550  0.215130  1
  O  O24  1  0.183450  0.269256  0.215130  1
  O  O25  1  0.269256  0.183450  0.715130  1
  O  O26  1  0.483306  0.876137  0.972767  1
  O  O27  1  0.598094  0.756755  0.554734  1
  O  O28  1  0.876137  0.483306  0.472767  1
  O  O29  1  0.648111  0.351889  0.657960  1
  O  O30  1  0.928877  0.071123  0.627380  1
  O  O31  1  0.447956  0.552044  0.964957  1
  O  O32  1  0.620584  0.871889  0.768330  1
  O  O33  1  0.596507  0.403493  0.856600  1
  O  O34  1  0.562317  0.967346  0.293027  1
  O  O35  1  0.243245  0.401906  0.554734  1
  O  O36  1  0.756755  0.598094  0.054734  1
  O  O37  1  0.123863  0.516694  0.972767  1
  O  O38  1  0.202244  0.797755  0.390355  1
  O  O39  1  0.437683  0.032654  0.793027  1
  O  O40  1  0.816550  0.730744  0.715130  1
  O  O41  1  0.403493  0.596507  0.356600  1
  O  O42  1  0.871889  0.620584  0.268330  1
  O  O43  1  0.401906  0.243245  0.054734  1
  O  O44  1  0.797756  0.202244  0.890355  1
  O  O45  1  0.351889  0.648111  0.157960  1
  O  O46  1  0.516694  0.123863  0.472767  1
  O  O47  1  0.379416  0.128111  0.268330  1
  O  O48  1  0.128111  0.379416  0.768330  1
  O  O49  1  0.032654  0.437683  0.293027  1
