# generated using pymatgen
data_HoAlB14
_symmetry_space_group_name_H-M   'P 1'
_cell_length_a   7.28971829
_cell_length_b   7.28971829
_cell_length_c   7.28971829
_cell_angle_alpha   132.18914630
_cell_angle_beta   111.20439525
_cell_angle_gamma   88.09305448
_symmetry_Int_Tables_number   1
_chemical_formula_structural   HoAlB14
_chemical_formula_sum   'Ho2 Al2 B28'
_cell_volume   254.96693576
_cell_formula_units_Z   2
loop_
 _symmetry_equiv_pos_site_id
 _symmetry_equiv_pos_as_xyz
  1  'x, y, z'
loop_
 _atom_site_type_symbol
 _atom_site_label
 _atom_site_symmetry_multiplicity
 _atom_site_fract_x
 _atom_site_fract_y
 _atom_site_fract_z
 _atom_site_occupancy
  Ho  Ho0  1  0.400479  0.250000  0.150479  1
  Ho  Ho1  1  0.599521  0.750000  0.849521  1
  Al  Al2  1  1.000000  0.500000  1.000000  1
  Al  Al3  1  0.000000  0.000000  0.500000  1
  B  B4  1  0.768889  0.642602  0.126286  1
  B  B5  1  0.968451  0.667999  0.795884  1
  B  B6  1  0.632677  0.167115  0.465563  1
  B  B7  1  0.798448  0.332885  0.465563  1
  B  B8  1  0.367323  0.832885  0.534437  1
  B  B9  1  0.398750  0.223685  0.500466  1
  B  B10  1  0.627885  0.327433  0.795884  1
  B  B11  1  0.231111  0.357398  0.873714  1
  B  B12  1  0.627885  0.832001  0.300452  1
  B  B13  1  0.372115  0.167999  0.699548  1
  B  B14  1  0.201552  0.667115  0.534437  1
  B  B15  1  0.756820  0.090146  0.666674  1
  B  B16  1  0.968451  0.172567  0.300452  1
  B  B17  1  0.776781  0.276315  0.175065  1
  B  B18  1  0.923472  0.590146  0.333326  1
  B  B19  1  0.601250  0.776315  0.499534  1
  B  B20  1  0.016316  0.142602  0.873714  1
  B  B21  1  0.243180  0.909854  0.333326  1
  B  B22  1  0.776781  0.601716  0.500466  1
  B  B23  1  0.601250  0.101716  0.824935  1
  B  B24  1  0.398750  0.898284  0.175065  1
  B  B25  1  0.223219  0.723685  0.824935  1
  B  B26  1  0.223219  0.398284  0.499534  1
  B  B27  1  0.372115  0.672567  0.204116  1
  B  B28  1  0.076528  0.409854  0.666674  1
  B  B29  1  0.983684  0.857398  0.126286  1
  B  B30  1  0.031549  0.827433  0.699548  1
  B  B31  1  0.031549  0.332001  0.204116  1
