# generated using pymatgen
data_Cs3Y2Br9
_symmetry_space_group_name_H-M   'P 1'
_cell_length_a   10.49882238
_cell_length_b   10.49882238
_cell_length_c   10.49882238
_cell_angle_alpha   83.63047211
_cell_angle_beta   83.63047211
_cell_angle_gamma   83.63047211
_symmetry_Int_Tables_number   1
_chemical_formula_structural   Cs3Y2Br9
_chemical_formula_sum   'Cs6 Y4 Br18'
_cell_volume   1137.27911178
_cell_formula_units_Z   2
loop_
 _symmetry_equiv_pos_site_id
 _symmetry_equiv_pos_as_xyz
  1  'x, y, z'
loop_
 _atom_site_type_symbol
 _atom_site_label
 _atom_site_symmetry_multiplicity
 _atom_site_fract_x
 _atom_site_fract_y
 _atom_site_fract_z
 _atom_site_occupancy
  Cs  Cs0  1  0.589679  0.250000  0.910321  1
  Cs  Cs1  1  0.910321  0.589679  0.250000  1
  Cs  Cs2  1  0.089679  0.410321  0.750000  1
  Cs  Cs3  1  0.250000  0.910321  0.589679  1
  Cs  Cs4  1  0.410321  0.750000  0.089679  1
  Cs  Cs5  1  0.750000  0.089679  0.410321  1
  Y  Y6  1  0.651869  0.651869  0.651869  1
  Y  Y7  1  0.348131  0.348131  0.348131  1
  Y  Y8  1  0.151869  0.151869  0.151869  1
  Y  Y9  1  0.848131  0.848131  0.848131  1
  Br  Br10  1  0.918493  0.079994  0.735345  1
  Br  Br11  1  0.081507  0.920006  0.264655  1
  Br  Br12  1  0.250000  0.403837  0.096163  1
  Br  Br13  1  0.264655  0.081507  0.920006  1
  Br  Br14  1  0.096163  0.250000  0.403837  1
  Br  Br15  1  0.764655  0.420006  0.581507  1
  Br  Br16  1  0.596163  0.903837  0.750000  1
  Br  Br17  1  0.735345  0.918493  0.079994  1
  Br  Br18  1  0.235345  0.579994  0.418493  1
  Br  Br19  1  0.079994  0.735345  0.918493  1
  Br  Br20  1  0.920006  0.264655  0.081507  1
  Br  Br21  1  0.418493  0.235345  0.579994  1
  Br  Br22  1  0.420006  0.581507  0.764655  1
  Br  Br23  1  0.403837  0.096163  0.250000  1
  Br  Br24  1  0.750000  0.596163  0.903837  1
  Br  Br25  1  0.579994  0.418493  0.235345  1
  Br  Br26  1  0.903837  0.750000  0.596163  1
  Br  Br27  1  0.581507  0.764655  0.420006  1
