# generated using pymatgen
data_U(Cr3P2)2
_symmetry_space_group_name_H-M   'P 1'
_cell_length_a   3.49252740
_cell_length_b   6.89016688
_cell_length_c   11.87929260
_cell_angle_alpha   90.00000000
_cell_angle_beta   90.00000000
_cell_angle_gamma   90.00000000
_symmetry_Int_Tables_number   1
_chemical_formula_structural   U(Cr3P2)2
_chemical_formula_sum   'U2 Cr12 P8'
_cell_volume   285.86444489
_cell_formula_units_Z   2
loop_
 _symmetry_equiv_pos_site_id
 _symmetry_equiv_pos_as_xyz
  1  'x, y, z'
loop_
 _atom_site_type_symbol
 _atom_site_label
 _atom_site_symmetry_multiplicity
 _atom_site_fract_x
 _atom_site_fract_y
 _atom_site_fract_z
 _atom_site_occupancy
  U  U0  1  0.500000  0.000000  0.681391  1
  U  U1  1  0.000000  0.500000  0.318609  1
  Cr  Cr2  1  0.500000  0.805922  0.423852  1
  Cr  Cr3  1  0.000000  0.803291  0.089421  1
  Cr  Cr4  1  0.500000  0.303291  0.910579  1
  Cr  Cr5  1  0.000000  0.000000  0.884074  1
  Cr  Cr6  1  0.500000  0.194078  0.423852  1
  Cr  Cr7  1  0.000000  0.196709  0.089421  1
  Cr  Cr8  1  0.500000  0.500000  0.718799  1
  Cr  Cr9  1  0.000000  0.694078  0.576148  1
  Cr  Cr10  1  0.000000  0.305922  0.576148  1
  Cr  Cr11  1  0.000000  0.000000  0.281201  1
  Cr  Cr12  1  0.500000  0.696709  0.910579  1
  Cr  Cr13  1  0.500000  0.500000  0.115926  1
  P  P14  1  0.500000  0.000000  0.011404  1
  P  P15  1  0.500000  0.782945  0.226319  1
  P  P16  1  0.500000  0.217055  0.226319  1
  P  P17  1  0.000000  0.000000  0.489714  1
  P  P18  1  0.000000  0.500000  0.988596  1
  P  P19  1  0.500000  0.500000  0.510286  1
  P  P20  1  0.000000  0.717055  0.773681  1
  P  P21  1  0.000000  0.282945  0.773681  1
