# generated using pymatgen
data_ReSbOF10
_symmetry_space_group_name_H-M   'P 1'
_cell_length_a   8.20329711
_cell_length_b   6.69807532
_cell_length_c   8.22039497
_cell_angle_alpha   90.00000000
_cell_angle_beta   94.51177053
_cell_angle_gamma   90.00000000
_symmetry_Int_Tables_number   1
_chemical_formula_structural   ReSbOF10
_chemical_formula_sum   'Re2 Sb2 O2 F20'
_cell_volume   450.28063458
_cell_formula_units_Z   2
loop_
 _symmetry_equiv_pos_site_id
 _symmetry_equiv_pos_as_xyz
  1  'x, y, z'
loop_
 _atom_site_type_symbol
 _atom_site_label
 _atom_site_symmetry_multiplicity
 _atom_site_fract_x
 _atom_site_fract_y
 _atom_site_fract_z
 _atom_site_occupancy
  Re  Re0  1  0.808043  0.010986  0.310279  1
  Re  Re1  1  0.191957  0.010986  0.689721  1
  Sb  Sb2  1  0.329258  0.513550  0.174874  1
  Sb  Sb3  1  0.670742  0.513550  0.825126  1
  O  O4  1  0.343228  0.026395  0.839946  1
  O  O5  1  0.656772  0.026395  0.160054  1
  F  F6  1  0.761599  0.282124  0.931545  1
  F  F7  1  0.016206  0.006739  0.816768  1
  F  F8  1  0.000000  0.989311  0.500000  1
  F  F9  1  0.481581  0.349913  0.300091  1
  F  F10  1  0.317454  0.013559  0.512870  1
  F  F11  1  0.154845  0.280473  0.656766  1
  F  F12  1  0.500000  0.508015  0.000000  1
  F  F13  1  0.820327  0.736784  0.326953  1
  F  F14  1  0.983794  0.006739  0.183232  1
  F  F15  1  0.173828  0.517790  0.333756  1
  F  F16  1  0.557939  0.744320  0.740912  1
  F  F17  1  0.845155  0.280473  0.343234  1
  F  F18  1  0.203593  0.677504  0.023366  1
  F  F19  1  0.682546  0.013559  0.487130  1
  F  F20  1  0.179673  0.736784  0.673047  1
  F  F21  1  0.826172  0.517790  0.666244  1
  F  F22  1  0.796407  0.677504  0.976634  1
  F  F23  1  0.518419  0.349913  0.699909  1
  F  F24  1  0.442061  0.744320  0.259088  1
  F  F25  1  0.238401  0.282124  0.068455  1
