# generated using pymatgen
data_SrAl2SiN2O3
_symmetry_space_group_name_H-M   'P 1'
_cell_length_a   4.97959488
_cell_length_b   8.12866371
_cell_length_c   11.43298070
_cell_angle_alpha   90.00000000
_cell_angle_beta   90.00000000
_cell_angle_gamma   90.00000000
_symmetry_Int_Tables_number   1
_chemical_formula_structural   SrAl2SiN2O3
_chemical_formula_sum   'Sr4 Al8 Si4 N8 O12'
_cell_volume   462.77792969
_cell_formula_units_Z   4
loop_
 _symmetry_equiv_pos_site_id
 _symmetry_equiv_pos_as_xyz
  1  'x, y, z'
loop_
 _atom_site_type_symbol
 _atom_site_label
 _atom_site_symmetry_multiplicity
 _atom_site_fract_x
 _atom_site_fract_y
 _atom_site_fract_z
 _atom_site_occupancy
  Sr  Sr0  1  0.511161  0.040679  0.162354  1
  Sr  Sr1  1  0.011161  0.459321  0.837646  1
  Sr  Sr2  1  0.988839  0.959321  0.662354  1
  Sr  Sr3  1  0.488839  0.540679  0.337646  1
  Al  Al4  1  0.499613  0.663716  0.661280  1
  Al  Al5  1  0.999613  0.836284  0.338720  1
  Al  Al6  1  0.988897  0.528284  0.542812  1
  Al  Al7  1  0.500387  0.163716  0.838720  1
  Al  Al8  1  0.000387  0.336284  0.161280  1
  Al  Al9  1  0.488897  0.971716  0.457188  1
  Al  Al10  1  0.511103  0.471716  0.042812  1
  Al  Al11  1  0.011103  0.028284  0.957188  1
  Si  Si12  1  0.994241  0.701681  0.074567  1
  Si  Si13  1  0.505759  0.298319  0.574567  1
  Si  Si14  1  0.494241  0.798319  0.925433  1
  Si  Si15  1  0.005759  0.201681  0.425433  1
  N  N16  1  0.294155  0.157387  0.506660  1
  N  N17  1  0.205845  0.842613  0.006660  1
  N  N18  1  0.335462  0.481814  0.593610  1
  N  N19  1  0.705845  0.657387  0.993340  1
  N  N20  1  0.835462  0.018186  0.406390  1
  N  N21  1  0.164538  0.518186  0.093610  1
  N  N22  1  0.794155  0.342613  0.493340  1
  N  N23  1  0.664538  0.981814  0.906390  1
  O  O24  1  0.648651  0.368867  0.167857  1
  O  O25  1  0.148651  0.131133  0.832143  1
  O  O26  1  0.351349  0.868867  0.332143  1
  O  O27  1  0.125397  0.291310  0.303793  1
  O  O28  1  0.874603  0.791310  0.196207  1
  O  O29  1  0.043852  0.152151  0.083333  1
  O  O30  1  0.543852  0.347849  0.916667  1
  O  O31  1  0.374603  0.708690  0.803793  1
  O  O32  1  0.956148  0.652151  0.416667  1
  O  O33  1  0.851349  0.631133  0.667857  1
  O  O34  1  0.456148  0.847849  0.583333  1
  O  O35  1  0.625397  0.208690  0.696207  1
