# generated using pymatgen
data_Ba4Ti4O9
_symmetry_space_group_name_H-M   'P 1'
_cell_length_a   7.01617323
_cell_length_b   7.01617323
_cell_length_c   17.30264195
_cell_angle_alpha   88.67343670
_cell_angle_beta   91.32656330
_cell_angle_gamma   110.29331003
_symmetry_Int_Tables_number   1
_chemical_formula_structural   Ba4Ti4O9
_chemical_formula_sum   'Ba12 Ti12 O27'
_cell_volume   798.56505378
_cell_formula_units_Z   3
loop_
 _symmetry_equiv_pos_site_id
 _symmetry_equiv_pos_as_xyz
  1  'x, y, z'
loop_
 _atom_site_type_symbol
 _atom_site_label
 _atom_site_symmetry_multiplicity
 _atom_site_fract_x
 _atom_site_fract_y
 _atom_site_fract_z
 _atom_site_occupancy
  Ba  Ba0  1  0.877595  0.625581  0.417620  1
  Ba  Ba1  1  0.374419  0.122405  0.417620  1
  Ba  Ba2  1  0.120450  0.373353  0.249099  1
  Ba  Ba3  1  0.873898  0.621115  0.084150  1
  Ba  Ba4  1  0.621115  0.873898  0.915850  1
  Ba  Ba5  1  0.373353  0.120450  0.750901  1
  Ba  Ba6  1  0.122405  0.374419  0.582380  1
  Ba  Ba7  1  0.626647  0.879550  0.249099  1
  Ba  Ba8  1  0.378885  0.126102  0.084150  1
  Ba  Ba9  1  0.126102  0.378885  0.915850  1
  Ba  Ba10  1  0.879550  0.626647  0.750901  1
  Ba  Ba11  1  0.625581  0.877595  0.582380  1
  Ti  Ti12  1  0.615544  0.384456  0.254722  1
  Ti  Ti13  1  0.375301  0.624699  0.082465  1
  Ti  Ti14  1  0.116271  0.883729  0.921874  1
  Ti  Ti15  1  0.873773  0.126227  0.749932  1
  Ti  Ti16  1  0.616029  0.383971  0.587964  1
  Ti  Ti17  1  0.126227  0.873773  0.250068  1
  Ti  Ti18  1  0.384456  0.615544  0.745278  1
  Ti  Ti19  1  0.883729  0.116271  0.078126  1
  Ti  Ti20  1  0.624699  0.375301  0.917535  1
  Ti  Ti21  1  0.126489  0.873511  0.583114  1
  Ti  Ti22  1  0.873511  0.126489  0.416886  1
  Ti  Ti23  1  0.383971  0.616029  0.412036  1
  O  O24  1  0.120414  0.375668  0.418277  1
  O  O25  1  0.878158  0.622725  0.247701  1
  O  O26  1  0.620598  0.875987  0.085124  1
  O  O27  1  0.379402  0.124013  0.914876  1
  O  O28  1  0.753364  0.246636  0.332032  1
  O  O29  1  0.502414  0.497586  0.164230  1
  O  O30  1  0.002114  0.997886  0.831075  1
  O  O31  1  0.753771  0.246229  0.665887  1
  O  O32  1  0.253199  0.746801  0.998576  1
  O  O33  1  0.500000  0.500000  0.500000  1
  O  O34  1  0.498946  0.501054  0.332522  1
  O  O35  1  0.000000  0.000000  0.000000  1
  O  O36  1  0.624332  0.879586  0.418277  1
  O  O37  1  0.375668  0.120414  0.581723  1
  O  O38  1  0.377275  0.121842  0.247701  1
  O  O39  1  0.124013  0.379402  0.085124  1
  O  O40  1  0.875987  0.620598  0.914876  1
  O  O41  1  0.622725  0.878158  0.752299  1
  O  O42  1  0.246229  0.753771  0.334113  1
  O  O43  1  0.997886  0.002114  0.168925  1
  O  O44  1  0.497586  0.502414  0.835770  1
  O  O45  1  0.246636  0.753364  0.667968  1
  O  O46  1  0.746801  0.253199  0.001424  1
  O  O47  1  0.000000  1.000000  0.500000  1
  O  O48  1  0.121842  0.377275  0.752299  1
  O  O49  1  0.879586  0.624332  0.581723  1
  O  O50  1  0.501054  0.498946  0.667478  1
