# generated using pymatgen
data_Mg2BiPO6
_symmetry_space_group_name_H-M   'P 1'
_cell_length_a   5.33725904
_cell_length_b   7.90216066
_cell_length_c   12.11472287
_cell_angle_alpha   90.00000000
_cell_angle_beta   90.00000000
_cell_angle_gamma   90.00000000
_symmetry_Int_Tables_number   1
_chemical_formula_structural   Mg2BiPO6
_chemical_formula_sum   'Mg8 Bi4 P4 O24'
_cell_volume   510.94907883
_cell_formula_units_Z   4
loop_
 _symmetry_equiv_pos_site_id
 _symmetry_equiv_pos_as_xyz
  1  'x, y, z'
loop_
 _atom_site_type_symbol
 _atom_site_label
 _atom_site_symmetry_multiplicity
 _atom_site_fract_x
 _atom_site_fract_y
 _atom_site_fract_z
 _atom_site_occupancy
  Mg  Mg0  1  0.750000  0.805808  0.599750  1
  Mg  Mg1  1  0.750000  0.301603  0.095343  1
  Mg  Mg2  1  0.750000  0.198397  0.595343  1
  Mg  Mg3  1  0.250000  0.305808  0.900250  1
  Mg  Mg4  1  0.250000  0.801603  0.404657  1
  Mg  Mg5  1  0.250000  0.698397  0.904657  1
  Mg  Mg6  1  0.250000  0.194192  0.400250  1
  Mg  Mg7  1  0.750000  0.694192  0.099750  1
  Bi  Bi8  1  0.250000  0.493493  0.596001  1
  Bi  Bi9  1  0.250000  0.006507  0.096001  1
  Bi  Bi10  1  0.750000  0.506507  0.403999  1
  Bi  Bi11  1  0.750000  0.993493  0.903999  1
  P  P12  1  0.750000  0.509548  0.801475  1
  P  P13  1  0.250000  0.009548  0.698525  1
  P  P14  1  0.250000  0.490452  0.198525  1
  P  P15  1  0.750000  0.990452  0.301475  1
  O  O16  1  0.499313  0.327070  0.496719  1
  O  O17  1  0.500687  0.672930  0.503281  1
  O  O18  1  0.000687  0.327070  0.496719  1
  O  O19  1  0.007546  0.001988  0.625069  1
  O  O20  1  0.992454  0.501988  0.874931  1
  O  O21  1  0.250000  0.858452  0.778258  1
  O  O22  1  0.750000  0.819803  0.240250  1
  O  O23  1  0.750000  0.141548  0.221742  1
  O  O24  1  0.250000  0.319803  0.259750  1
  O  O25  1  0.250000  0.641548  0.278258  1
  O  O26  1  0.492454  0.498012  0.125069  1
  O  O27  1  0.999313  0.827070  0.003281  1
  O  O28  1  0.999313  0.672930  0.503281  1
  O  O29  1  0.007546  0.498012  0.125069  1
  O  O30  1  0.000687  0.172930  0.996719  1
  O  O31  1  0.507546  0.998012  0.374931  1
  O  O32  1  0.250000  0.180197  0.759750  1
  O  O33  1  0.750000  0.680197  0.740250  1
  O  O34  1  0.499313  0.172930  0.996719  1
  O  O35  1  0.492454  0.001988  0.625069  1
  O  O36  1  0.992454  0.998012  0.374931  1
  O  O37  1  0.750000  0.358452  0.721742  1
  O  O38  1  0.507546  0.501988  0.874931  1
  O  O39  1  0.500687  0.827070  0.003281  1
