# generated using pymatgen
data_BaNaZr2F11
_symmetry_space_group_name_H-M   'P 1'
_cell_length_a   13.38273124
_cell_length_b   13.38273124
_cell_length_c   13.38273124
_cell_angle_alpha   143.50977513
_cell_angle_beta   143.50977513
_cell_angle_gamma   52.56098403
_symmetry_Int_Tables_number   1
_chemical_formula_structural   BaNaZr2F11
_chemical_formula_sum   'Ba4 Na4 Zr8 F44'
_cell_volume   842.61546725
_cell_formula_units_Z   4
loop_
 _symmetry_equiv_pos_site_id
 _symmetry_equiv_pos_as_xyz
  1  'x, y, z'
loop_
 _atom_site_type_symbol
 _atom_site_label
 _atom_site_symmetry_multiplicity
 _atom_site_fract_x
 _atom_site_fract_y
 _atom_site_fract_z
 _atom_site_occupancy
  Ba  Ba0  1  0.338147  0.838147  0.500000  1
  Ba  Ba1  1  0.411853  0.411853  0.000000  1
  Ba  Ba2  1  0.588147  0.588147  0.000000  1
  Ba  Ba3  1  0.161853  0.661853  0.500000  1
  Na  Na4  1  0.115142  0.115142  0.000000  1
  Na  Na5  1  0.865142  0.365142  0.500000  1
  Na  Na6  1  0.634858  0.134858  0.500000  1
  Na  Na7  1  0.884858  0.884858  0.000000  1
  Zr  Zr8  1  0.862610  0.285792  0.147392  1
  Zr  Zr9  1  0.611601  0.534783  0.647392  1
  Zr  Zr10  1  0.284783  0.137390  0.423182  1
  Zr  Zr11  1  0.714208  0.861601  0.576818  1
  Zr  Zr12  1  0.887390  0.964208  0.352608  1
  Zr  Zr13  1  0.465217  0.112610  0.076818  1
  Zr  Zr14  1  0.035792  0.388399  0.923182  1
  Zr  Zr15  1  0.138399  0.715217  0.852608  1
  F  F16  1  0.159933  0.876460  0.138835  1
  F  F17  1  0.890638  0.464682  0.198708  1
  F  F18  1  0.859362  0.785318  0.301292  1
  F  F19  1  0.007196  0.939108  0.293890  1
  F  F20  1  0.645218  0.713306  0.706110  1
  F  F21  1  0.845444  0.118353  0.866213  1
  F  F22  1  0.060892  0.354782  0.068088  1
  F  F23  1  0.441930  0.140638  0.925956  1
  F  F24  1  0.497860  0.270769  0.366213  1
  F  F25  1  0.868353  0.502140  0.772909  1
  F  F26  1  0.626460  0.987625  0.216527  1
  F  F27  1  0.130244  0.939095  0.570573  1
  F  F28  1  0.012375  0.228903  0.638835  1
  F  F29  1  0.308070  0.109362  0.574044  1
  F  F30  1  0.729231  0.095444  0.227091  1
  F  F31  1  0.689108  0.895218  0.431912  1
  F  F32  1  0.440329  0.869756  0.808851  1
  F  F33  1  0.252140  0.979231  0.133787  1
  F  F34  1  0.619756  0.310905  0.929427  1
  F  F35  1  0.498222  0.998222  0.500000  1
  F  F36  1  0.463306  0.257196  0.568088  1
  F  F37  1  0.214682  0.515974  0.074044  1
  F  F38  1  0.381478  0.690329  0.070573  1
  F  F39  1  0.060905  0.631478  0.191149  1
  F  F40  1  0.742804  0.310892  0.206110  1
  F  F41  1  0.689095  0.618522  0.308851  1
  F  F42  1  0.737625  0.021097  0.861165  1
  F  F43  1  0.904556  0.131647  0.633787  1
  F  F44  1  0.020769  0.154556  0.272909  1
  F  F45  1  0.748222  0.748222  0.000000  1
  F  F46  1  0.251778  0.251778  0.000000  1
  F  F47  1  0.535318  0.734026  0.425956  1
  F  F48  1  0.978903  0.840067  0.716527  1
  F  F49  1  0.368522  0.559671  0.429427  1
  F  F50  1  0.123540  0.262375  0.283473  1
  F  F51  1  0.001778  0.501778  0.500000  1
  F  F52  1  0.309671  0.380244  0.691149  1
  F  F53  1  0.484026  0.558070  0.698708  1
  F  F54  1  0.590067  0.373540  0.361165  1
  F  F55  1  0.104782  0.536694  0.793890  1
  F  F56  1  0.265974  0.691930  0.801292  1
  F  F57  1  0.771097  0.409933  0.783473  1
  F  F58  1  0.286694  0.992804  0.931912  1
  F  F59  1  0.881647  0.747860  0.727091  1
