# generated using pymatgen
data_K2Ce(NO3)6
_symmetry_space_group_name_H-M   'P 1'
_cell_length_a   13.97129868
_cell_length_b   13.97129868
_cell_length_c   6.80719028
_cell_angle_alpha   90.00000000
_cell_angle_beta   90.00000000
_cell_angle_gamma   120.00000000
_symmetry_Int_Tables_number   1
_chemical_formula_structural   K2Ce(NO3)6
_chemical_formula_sum   'K6 Ce3 N18 O54'
_cell_volume   1150.72639862
_cell_formula_units_Z   3
loop_
 _symmetry_equiv_pos_site_id
 _symmetry_equiv_pos_as_xyz
  1  'x, y, z'
loop_
 _atom_site_type_symbol
 _atom_site_label
 _atom_site_symmetry_multiplicity
 _atom_site_fract_x
 _atom_site_fract_y
 _atom_site_fract_z
 _atom_site_occupancy
  K  K0  1  0.674042  0.679794  0.218781  1
  K  K1  1  0.994248  0.674042  0.781219  1
  K  K2  1  0.320206  0.994248  0.218781  1
  K  K3  1  0.325958  0.320206  0.781219  1
  K  K4  1  0.005752  0.325958  0.218781  1
  K  K5  1  0.679794  0.005752  0.781219  1
  Ce  Ce6  1  0.666667  0.333333  0.489488  1
  Ce  Ce7  1  0.333333  0.666667  0.510512  1
  Ce  Ce8  1  0.000000  0.000000  0.000000  1
  N  N9  1  0.800838  0.526101  0.223450  1
  N  N10  1  0.615496  0.475629  0.748004  1
  N  N11  1  0.177276  0.009707  0.733190  1
  N  N12  1  0.822724  0.990293  0.266810  1
  N  N13  1  0.139867  0.615496  0.251996  1
  N  N14  1  0.990293  0.167569  0.733190  1
  N  N15  1  0.473899  0.274737  0.223450  1
  N  N16  1  0.832431  0.822724  0.733190  1
  N  N17  1  0.384504  0.524371  0.251996  1
  N  N18  1  0.860133  0.384504  0.748004  1
  N  N19  1  0.274737  0.800838  0.776550  1
  N  N20  1  0.524371  0.139867  0.748004  1
  N  N21  1  0.725263  0.199162  0.223450  1
  N  N22  1  0.475629  0.860133  0.251996  1
  N  N23  1  0.199162  0.473899  0.776550  1
  N  N24  1  0.526101  0.725263  0.776550  1
  N  N25  1  0.167569  0.177276  0.266810  1
  N  N26  1  0.009707  0.832431  0.266810  1
  O  O27  1  0.936800  0.861914  0.284775  1
  O  O28  1  0.799234  0.925594  0.116609  1
  O  O29  1  0.250043  0.465966  0.624427  1
  O  O30  1  0.230199  0.248528  0.382468  1
  O  O31  1  0.215923  0.749957  0.624427  1
  O  O32  1  0.869187  0.449019  0.604311  1
  O  O33  1  0.533453  0.235141  0.767974  1
  O  O34  1  0.420169  0.869187  0.395689  1
  O  O35  1  0.138086  0.074886  0.284775  1
  O  O36  1  0.433843  0.636902  0.799352  1
  O  O37  1  0.796941  0.433843  0.200648  1
  O  O38  1  0.925594  0.126360  0.883391  1
  O  O39  1  0.534034  0.784077  0.624427  1
  O  O40  1  0.248528  0.018329  0.617532  1
  O  O41  1  0.466547  0.764859  0.232026  1
  O  O42  1  0.467428  0.061788  0.857613  1
  O  O43  1  0.861914  0.925114  0.715225  1
  O  O44  1  0.769801  0.751472  0.617532  1
  O  O45  1  0.244458  0.848577  0.891977  1
  O  O46  1  0.579831  0.130813  0.604311  1
  O  O47  1  0.235141  0.701688  0.232026  1
  O  O48  1  0.604119  0.755542  0.891977  1
  O  O49  1  0.151423  0.395881  0.891977  1
  O  O50  1  0.981671  0.230199  0.617532  1
  O  O51  1  0.203059  0.566157  0.799352  1
  O  O52  1  0.532572  0.938212  0.142387  1
  O  O53  1  0.449019  0.579831  0.395689  1
  O  O54  1  0.465966  0.215923  0.375573  1
  O  O55  1  0.925114  0.063200  0.284775  1
  O  O56  1  0.405640  0.467428  0.142387  1
  O  O57  1  0.755542  0.151423  0.108023  1
  O  O58  1  0.018329  0.769801  0.382468  1
  O  O59  1  0.938212  0.405640  0.857613  1
  O  O60  1  0.074886  0.936800  0.715225  1
  O  O61  1  0.395881  0.244458  0.108023  1
  O  O62  1  0.566157  0.363098  0.200648  1
  O  O63  1  0.130813  0.550981  0.395689  1
  O  O64  1  0.848577  0.604119  0.108023  1
  O  O65  1  0.063200  0.138086  0.715225  1
  O  O66  1  0.749957  0.534034  0.375573  1
  O  O67  1  0.298312  0.533453  0.232026  1
  O  O68  1  0.764859  0.298312  0.767974  1
  O  O69  1  0.636902  0.203059  0.200648  1
  O  O70  1  0.550981  0.420169  0.604311  1
  O  O71  1  0.701688  0.466547  0.767974  1
  O  O72  1  0.074406  0.873640  0.116609  1
  O  O73  1  0.784077  0.250043  0.375573  1
  O  O74  1  0.594360  0.532572  0.857613  1
  O  O75  1  0.751472  0.981671  0.382468  1
  O  O76  1  0.363098  0.796941  0.799352  1
  O  O77  1  0.200766  0.074406  0.883391  1
  O  O78  1  0.061788  0.594360  0.142387  1
  O  O79  1  0.873640  0.799234  0.883391  1
  O  O80  1  0.126360  0.200766  0.116609  1
