# generated using pymatgen
data_Li2Cr(PO4)2
_symmetry_space_group_name_H-M   'P 1'
_cell_length_a   4.91972730
_cell_length_b   8.61197539
_cell_length_c   6.61727830
_cell_angle_alpha   90.00000000
_cell_angle_beta   95.38074666
_cell_angle_gamma   90.00000000
_symmetry_Int_Tables_number   1
_chemical_formula_structural   Li2Cr(PO4)2
_chemical_formula_sum   'Li4 Cr2 P4 O16'
_cell_volume   279.12920404
_cell_formula_units_Z   2
loop_
 _symmetry_equiv_pos_site_id
 _symmetry_equiv_pos_as_xyz
  1  'x, y, z'
loop_
 _atom_site_type_symbol
 _atom_site_label
 _atom_site_symmetry_multiplicity
 _atom_site_fract_x
 _atom_site_fract_y
 _atom_site_fract_z
 _atom_site_occupancy
  Li  Li0  1  0.758461  0.641638  0.440362  1
  Li  Li1  1  0.241539  0.141638  0.559638  1
  Li  Li2  1  0.748234  0.998760  0.758279  1
  Li  Li3  1  0.251766  0.498760  0.241721  1
  Cr  Cr4  1  0.744607  0.998045  0.242666  1
  Cr  Cr5  1  0.255393  0.498045  0.757334  1
  P  P6  1  0.782007  0.679892  0.975889  1
  P  P7  1  0.718810  0.320911  0.520142  1
  P  P8  1  0.281190  0.820911  0.479858  1
  P  P9  1  0.217993  0.179892  0.024111  1
  O  O10  1  0.076635  0.131010  0.214328  1
  O  O11  1  0.914871  0.609044  0.174092  1
  O  O12  1  0.436036  0.856967  0.292202  1
  O  O13  1  0.683291  0.141849  0.482354  1
  O  O14  1  0.198711  0.359562  0.996996  1
  O  O15  1  0.563964  0.356967  0.707798  1
  O  O16  1  0.522394  0.130346  0.052793  1
  O  O17  1  0.801289  0.859562  0.003004  1
  O  O18  1  0.396631  0.915647  0.662201  1
  O  O19  1  0.923365  0.631010  0.785672  1
  O  O20  1  0.603369  0.415647  0.337799  1
  O  O21  1  0.316709  0.641849  0.517646  1
  O  O22  1  0.029902  0.359229  0.563126  1
  O  O23  1  0.085129  0.109044  0.825908  1
  O  O24  1  0.970098  0.859229  0.436874  1
  O  O25  1  0.477606  0.630346  0.947207  1
