# generated using pymatgen
data_YSiPd
_symmetry_space_group_name_H-M   'P 1'
_cell_length_a   4.34064666
_cell_length_b   7.48360128
_cell_length_c   14.03210325
_cell_angle_alpha   90.00000000
_cell_angle_beta   90.00000000
_cell_angle_gamma   90.00000000
_symmetry_Int_Tables_number   1
_chemical_formula_structural   YSiPd
_chemical_formula_sum   'Y8 Si8 Pd8'
_cell_volume   455.81419595
_cell_formula_units_Z   8
loop_
 _symmetry_equiv_pos_site_id
 _symmetry_equiv_pos_as_xyz
  1  'x, y, z'
loop_
 _atom_site_type_symbol
 _atom_site_label
 _atom_site_symmetry_multiplicity
 _atom_site_fract_x
 _atom_site_fract_y
 _atom_site_fract_z
 _atom_site_occupancy
  Y  Y0  1  0.500000  0.789947  0.748498  1
  Y  Y1  1  0.000000  0.210053  0.751502  1
  Y  Y2  1  0.500000  0.789947  0.251502  1
  Y  Y3  1  0.000000  0.210053  0.248498  1
  Y  Y4  1  0.500000  0.707563  0.000000  1
  Y  Y5  1  0.000000  0.292437  0.500000  1
  Y  Y6  1  0.500000  0.700385  0.500000  1
  Y  Y7  1  0.000000  0.299615  0.000000  1
  Si  Si8  1  0.500000  0.408374  0.646183  1
  Si  Si9  1  0.000000  0.591626  0.853817  1
  Si  Si10  1  0.500000  0.408374  0.353817  1
  Si  Si11  1  0.000000  0.591626  0.146183  1
  Si  Si12  1  0.500000  0.090495  0.092839  1
  Si  Si13  1  0.000000  0.909505  0.407161  1
  Si  Si14  1  0.500000  0.090495  0.907161  1
  Si  Si15  1  0.000000  0.909505  0.592839  1
  Pd  Pd16  1  0.500000  0.076904  0.607874  1
  Pd  Pd17  1  0.000000  0.923096  0.892126  1
  Pd  Pd18  1  0.500000  0.076904  0.392126  1
  Pd  Pd19  1  0.000000  0.923096  0.107874  1
  Pd  Pd20  1  0.500000  0.418232  0.155691  1
  Pd  Pd21  1  0.000000  0.581768  0.344309  1
  Pd  Pd22  1  0.500000  0.418232  0.844309  1
  Pd  Pd23  1  0.000000  0.581768  0.655691  1
