# generated using pymatgen
data_Sr2YCu3(PbO4)2
_symmetry_space_group_name_H-M   'P 1'
_cell_length_a   5.36817099
_cell_length_b   5.41249082
_cell_length_c   15.67757877
_cell_angle_alpha   90.29242349
_cell_angle_beta   90.48270454
_cell_angle_gamma   90.13541262
_symmetry_Int_Tables_number   1
_chemical_formula_structural   Sr2YCu3(PbO4)2
_chemical_formula_sum   'Sr4 Y2 Cu6 Pb4 O16'
_cell_volume   455.49139722
_cell_formula_units_Z   2
loop_
 _symmetry_equiv_pos_site_id
 _symmetry_equiv_pos_as_xyz
  1  'x, y, z'
loop_
 _atom_site_type_symbol
 _atom_site_label
 _atom_site_symmetry_multiplicity
 _atom_site_fract_x
 _atom_site_fract_y
 _atom_site_fract_z
 _atom_site_occupancy
  Sr  Sr0  1  0.997684  0.996997  0.778812  1
  Sr  Sr1  1  0.002316  0.003003  0.221188  1
  Sr  Sr2  1  0.502133  0.501245  0.220818  1
  Sr  Sr3  1  0.497867  0.498755  0.779182  1
  Y  Y4  1  0.000000  0.000000  0.000000  1
  Y  Y5  1  0.500000  0.500000  0.000000  1
  Cu  Cu6  1  0.000438  0.500829  0.104033  1
  Cu  Cu7  1  0.500371  0.000119  0.103599  1
  Cu  Cu8  1  0.500000  0.500000  0.500000  1
  Cu  Cu9  1  0.999562  0.499171  0.895967  1
  Cu  Cu10  1  0.499629  0.999881  0.896401  1
  Cu  Cu11  1  0.000000  0.000000  0.500000  1
  Pb  Pb12  1  0.505040  0.987953  0.610491  1
  Pb  Pb13  1  0.004820  0.496991  0.610751  1
  Pb  Pb14  1  0.995180  0.503009  0.389249  1
  Pb  Pb15  1  0.494960  0.012047  0.389509  1
  O  O16  1  0.004652  0.510244  0.249798  1
  O  O17  1  0.250703  0.250688  0.093049  1
  O  O18  1  0.249511  0.249249  0.907859  1
  O  O19  1  0.750489  0.750751  0.092141  1
  O  O20  1  0.501768  0.993603  0.250361  1
  O  O21  1  0.995348  0.489756  0.750202  1
  O  O22  1  0.749297  0.749312  0.906951  1
  O  O23  1  0.453114  0.554346  0.615833  1
  O  O24  1  0.498232  0.006397  0.749639  1
  O  O25  1  0.249790  0.749886  0.907169  1
  O  O26  1  0.750210  0.250114  0.092831  1
  O  O27  1  0.968667  0.928638  0.615241  1
  O  O28  1  0.546886  0.445654  0.384167  1
  O  O29  1  0.031333  0.071362  0.384759  1
  O  O30  1  0.749706  0.249855  0.908627  1
  O  O31  1  0.250294  0.750145  0.091373  1
