# generated using pymatgen
data_SrMnO3
_symmetry_space_group_name_H-M   'P 1'
_cell_length_a   5.53302748
_cell_length_b   5.53302748
_cell_length_c   9.28911489
_cell_angle_alpha   90.00000000
_cell_angle_beta   90.00000000
_cell_angle_gamma   119.78192244
_symmetry_Int_Tables_number   1
_chemical_formula_structural   SrMnO3
_chemical_formula_sum   'Sr4 Mn4 O12'
_cell_volume   246.82025233
_cell_formula_units_Z   4
loop_
 _symmetry_equiv_pos_site_id
 _symmetry_equiv_pos_as_xyz
  1  'x, y, z'
loop_
 _atom_site_type_symbol
 _atom_site_label
 _atom_site_symmetry_multiplicity
 _atom_site_fract_x
 _atom_site_fract_y
 _atom_site_fract_z
 _atom_site_occupancy
  Sr  Sr0  1  0.338648  0.661352  0.750000  1
  Sr  Sr1  1  0.019921  0.019921  1.000000  1
  Sr  Sr2  1  0.661352  0.338648  0.250000  1
  Sr  Sr3  1  0.980079  0.980079  0.500000  1
  Mn  Mn4  1  0.350836  0.686103  0.112158  1
  Mn  Mn5  1  0.313897  0.649164  0.387842  1
  Mn  Mn6  1  0.649164  0.313897  0.612158  1
  Mn  Mn7  1  0.686103  0.350836  0.887842  1
  O  O8  1  0.817628  0.634624  0.732670  1
  O  O9  1  0.179926  0.820074  0.250000  1
  O  O10  1  0.365376  0.182372  0.767330  1
  O  O11  1  0.820074  0.179926  0.750000  1
  O  O12  1  0.182372  0.365376  0.232670  1
  O  O13  1  0.446200  0.947896  0.521329  1
  O  O14  1  0.553800  0.052104  0.021329  1
  O  O15  1  0.445849  0.445849  0.500000  1
  O  O16  1  0.554151  0.554151  1.000000  1
  O  O17  1  0.634624  0.817628  0.267330  1
  O  O18  1  0.947896  0.446200  0.478671  1
  O  O19  1  0.052104  0.553800  0.978671  1
