# generated using pymatgen
data_Ta6Co16Si7
_symmetry_space_group_name_H-M   'P 1'
_cell_length_a   7.89711740
_cell_length_b   7.89711740
_cell_length_c   7.89711740
_cell_angle_alpha   60.00000000
_cell_angle_beta   60.00000000
_cell_angle_gamma   60.00000000
_symmetry_Int_Tables_number   1
_chemical_formula_structural   Ta6Co16Si7
_chemical_formula_sum   'Ta6 Co16 Si7'
_cell_volume   348.24972703
_cell_formula_units_Z   1
loop_
 _symmetry_equiv_pos_site_id
 _symmetry_equiv_pos_as_xyz
  1  'x, y, z'
loop_
 _atom_site_type_symbol
 _atom_site_label
 _atom_site_symmetry_multiplicity
 _atom_site_fract_x
 _atom_site_fract_y
 _atom_site_fract_z
 _atom_site_occupancy
  Ta  Ta0  1  0.202212  0.797788  0.202212  1
  Ta  Ta1  1  0.797788  0.797788  0.202212  1
  Ta  Ta2  1  0.797788  0.202212  0.797788  1
  Ta  Ta3  1  0.202212  0.202212  0.797788  1
  Ta  Ta4  1  0.202212  0.797788  0.797788  1
  Ta  Ta5  1  0.797788  0.202212  0.202212  1
  Co  Co6  1  0.855591  0.381470  0.381470  1
  Co  Co7  1  0.833874  0.833874  0.498378  1
  Co  Co8  1  0.618530  0.618530  0.618530  1
  Co  Co9  1  0.166126  0.166126  0.166126  1
  Co  Co10  1  0.833874  0.833874  0.833874  1
  Co  Co11  1  0.501622  0.166126  0.166126  1
  Co  Co12  1  0.498378  0.833874  0.833874  1
  Co  Co13  1  0.381470  0.381470  0.381470  1
  Co  Co14  1  0.833874  0.498378  0.833874  1
  Co  Co15  1  0.144409  0.618530  0.618530  1
  Co  Co16  1  0.381470  0.855591  0.381470  1
  Co  Co17  1  0.618530  0.618530  0.144409  1
  Co  Co18  1  0.618530  0.144409  0.618530  1
  Co  Co19  1  0.166126  0.501622  0.166126  1
  Co  Co20  1  0.381470  0.381470  0.855591  1
  Co  Co21  1  0.166126  0.166126  0.501622  1
  Si  Si22  1  0.500000  0.000000  1.000000  1
  Si  Si23  1  1.000000  0.000000  0.500000  1
  Si  Si24  1  0.500000  0.500000  0.500000  1
  Si  Si25  1  0.500000  0.500000  0.000000  1
  Si  Si26  1  1.000000  0.500000  0.500000  1
  Si  Si27  1  0.500000  0.000000  0.500000  1
  Si  Si28  1  0.000000  0.500000  0.000000  1
