# generated using pymatgen
data_Ta2Te3
_symmetry_space_group_name_H-M   'P 1'
_cell_length_a   7.87659005
_cell_length_b   7.87659005
_cell_length_c   12.57896584
_cell_angle_alpha   56.24452691
_cell_angle_beta   123.75547309
_cell_angle_gamma   154.24433014
_symmetry_Int_Tables_number   1
_chemical_formula_structural   Ta2Te3
_chemical_formula_sum   'Ta4 Te6'
_cell_volume   278.63436008
_cell_formula_units_Z   2
loop_
 _symmetry_equiv_pos_site_id
 _symmetry_equiv_pos_as_xyz
  1  'x, y, z'
loop_
 _atom_site_type_symbol
 _atom_site_label
 _atom_site_symmetry_multiplicity
 _atom_site_fract_x
 _atom_site_fract_y
 _atom_site_fract_z
 _atom_site_occupancy
  Ta  Ta0  1  0.583769  0.416231  0.144771  1
  Ta  Ta1  1  0.416231  0.583769  0.855229  1
  Ta  Ta2  1  0.772508  0.227492  0.611057  1
  Ta  Ta3  1  0.227492  0.772508  0.388943  1
  Te  Te4  1  0.572488  0.427512  0.359729  1
  Te  Te5  1  0.427512  0.572488  0.640271  1
  Te  Te6  1  0.806007  0.193993  0.288329  1
  Te  Te7  1  0.193993  0.806007  0.711671  1
  Te  Te8  1  0.901045  0.098955  0.027718  1
  Te  Te9  1  0.098955  0.901045  0.972282  1
