# generated using pymatgen
data_CuH10(CO4)2
_symmetry_space_group_name_H-M   'P 1'
_cell_length_a   8.08739016
_cell_length_b   8.18954222
_cell_length_c   13.83015535
_cell_angle_alpha   90.00000000
_cell_angle_beta   115.10940763
_cell_angle_gamma   90.00000000
_symmetry_Int_Tables_number   1
_chemical_formula_structural   CuH10(CO4)2
_chemical_formula_sum   'Cu4 H40 C8 O32'
_cell_volume   829.43645583
_cell_formula_units_Z   4
loop_
 _symmetry_equiv_pos_site_id
 _symmetry_equiv_pos_as_xyz
  1  'x, y, z'
loop_
 _atom_site_type_symbol
 _atom_site_label
 _atom_site_symmetry_multiplicity
 _atom_site_fract_x
 _atom_site_fract_y
 _atom_site_fract_z
 _atom_site_occupancy
  Cu  Cu0  1  0.500000  0.500000  0.500000  1
  Cu  Cu1  1  0.500000  0.000000  0.000000  1
  Cu  Cu2  1  0.000000  0.500000  0.000000  1
  Cu  Cu3  1  0.000000  0.000000  0.500000  1
  H  H4  1  0.286799  0.032594  0.768017  1
  H  H5  1  0.749003  0.723241  0.224748  1
  H  H6  1  0.338426  0.698086  0.044003  1
  H  H7  1  0.014520  0.894078  0.712139  1
  H  H8  1  0.163698  0.198603  0.956187  1
  H  H9  1  0.184748  0.697760  0.206496  1
  H  H10  1  0.338426  0.801914  0.544003  1
  H  H11  1  0.985480  0.394078  0.787861  1
  H  H12  1  0.163698  0.301397  0.456187  1
  H  H13  1  0.836302  0.801397  0.043813  1
  H  H14  1  0.661574  0.198086  0.455997  1
  H  H15  1  0.085264  0.330134  0.668905  1
  H  H16  1  0.479456  0.384276  0.289036  1
  H  H17  1  0.914736  0.830134  0.831095  1
  H  H18  1  0.250997  0.223241  0.275252  1
  H  H19  1  0.413763  0.679093  0.826936  1
  H  H20  1  0.277963  0.958445  0.250611  1
  H  H21  1  0.713201  0.967406  0.231983  1
  H  H22  1  0.286799  0.467406  0.268017  1
  H  H23  1  0.586237  0.320907  0.173064  1
  H  H24  1  0.586237  0.179093  0.673064  1
  H  H25  1  0.085264  0.169866  0.168905  1
  H  H26  1  0.277963  0.541555  0.750611  1
  H  H27  1  0.749003  0.776759  0.724748  1
  H  H28  1  0.014520  0.605922  0.212139  1
  H  H29  1  0.815252  0.302240  0.793504  1
  H  H30  1  0.250997  0.276759  0.775252  1
  H  H31  1  0.413763  0.820907  0.326936  1
  H  H32  1  0.722037  0.041555  0.749389  1
  H  H33  1  0.985480  0.105922  0.287861  1
  H  H34  1  0.815252  0.197760  0.293504  1
  H  H35  1  0.520544  0.615724  0.710964  1
  H  H36  1  0.914736  0.669866  0.331095  1
  H  H37  1  0.722037  0.458445  0.249389  1
  H  H38  1  0.479456  0.115724  0.789036  1
  H  H39  1  0.661574  0.301914  0.955997  1
  H  H40  1  0.713201  0.532594  0.731983  1
  H  H41  1  0.184748  0.802240  0.706496  1
  H  H42  1  0.520544  0.884276  0.210964  1
  H  H43  1  0.836302  0.698603  0.543813  1
  C  C44  1  0.776055  0.273191  0.511013  1
  C  C45  1  0.223945  0.726809  0.488987  1
  C  C46  1  0.277709  0.273074  0.012304  1
  C  C47  1  0.277709  0.226926  0.512304  1
  C  C48  1  0.722291  0.773074  0.487696  1
  C  C49  1  0.223945  0.773191  0.988987  1
  C  C50  1  0.722291  0.726926  0.987696  1
  C  C51  1  0.776055  0.226809  0.011013  1
  O  O52  1  0.113487  0.906365  0.687867  1
  O  O53  1  0.937495  0.214998  0.546664  1
  O  O54  1  0.160628  0.368510  0.742590  1
  O  O55  1  0.438867  0.286236  0.549426  1
  O  O56  1  0.247814  0.413899  0.039376  1
  O  O57  1  0.746730  0.413921  0.538597  1
  O  O58  1  0.253270  0.586079  0.461403  1
  O  O59  1  0.253270  0.913921  0.961403  1
  O  O60  1  0.618541  0.612052  0.685210  1
  O  O61  1  0.342771  0.853343  0.251426  1
  O  O62  1  0.561133  0.713764  0.450574  1
  O  O63  1  0.839372  0.868510  0.757410  1
  O  O64  1  0.746730  0.086079  0.038597  1
  O  O65  1  0.657229  0.146657  0.748574  1
  O  O66  1  0.752186  0.586101  0.960624  1
  O  O67  1  0.062505  0.785002  0.453336  1
  O  O68  1  0.381459  0.387948  0.314790  1
  O  O69  1  0.247814  0.086101  0.539376  1
  O  O70  1  0.561133  0.786236  0.950574  1
  O  O71  1  0.062505  0.714998  0.953336  1
  O  O72  1  0.839372  0.631490  0.257410  1
  O  O73  1  0.937495  0.285002  0.046664  1
  O  O74  1  0.342771  0.646657  0.751426  1
  O  O75  1  0.160628  0.131490  0.242590  1
  O  O76  1  0.886513  0.093635  0.312133  1
  O  O77  1  0.113487  0.593635  0.187867  1
  O  O78  1  0.618541  0.887948  0.185210  1
  O  O79  1  0.657229  0.353343  0.248574  1
  O  O80  1  0.438867  0.213764  0.049426  1
  O  O81  1  0.886513  0.406365  0.812133  1
  O  O82  1  0.752186  0.913899  0.460624  1
  O  O83  1  0.381459  0.112052  0.814790  1
