# generated using pymatgen
data_Ti4FeBi2
_symmetry_space_group_name_H-M   'P 1'
_cell_length_a   7.87279974
_cell_length_b   7.87279974
_cell_length_c   7.87279974
_cell_angle_alpha   95.71066881
_cell_angle_beta   95.71066881
_cell_angle_gamma   143.22473832
_symmetry_Int_Tables_number   1
_chemical_formula_structural   Ti4FeBi2
_chemical_formula_sum   'Ti8 Fe2 Bi4'
_cell_volume   277.21799818
_cell_formula_units_Z   2
loop_
 _symmetry_equiv_pos_site_id
 _symmetry_equiv_pos_as_xyz
  1  'x, y, z'
loop_
 _atom_site_type_symbol
 _atom_site_label
 _atom_site_symmetry_multiplicity
 _atom_site_fract_x
 _atom_site_fract_y
 _atom_site_fract_z
 _atom_site_occupancy
  Ti  Ti0  1  0.690876  0.579714  0.270590  1
  Ti  Ti1  1  0.190876  0.920286  0.111163  1
  Ti  Ti2  1  0.579714  0.309124  0.888837  1
  Ti  Ti3  1  0.920286  0.809124  0.729410  1
  Ti  Ti4  1  0.420286  0.690876  0.111163  1
  Ti  Ti5  1  0.809124  0.079714  0.888837  1
  Ti  Ti6  1  0.309124  0.420286  0.729410  1
  Ti  Ti7  1  0.079714  0.190876  0.270590  1
  Fe  Fe8  1  0.250000  0.250000  0.000000  1
  Fe  Fe9  1  0.750000  0.750000  0.000000  1
  Bi  Bi10  1  0.860974  0.360974  0.221948  1
  Bi  Bi11  1  0.360974  0.139026  0.500000  1
  Bi  Bi12  1  0.139026  0.639026  0.778052  1
  Bi  Bi13  1  0.639026  0.860974  0.500000  1
