# generated using pymatgen
data_TiZn(BiO3)2
_symmetry_space_group_name_H-M   'P 1'
_cell_length_a   5.30076057
_cell_length_b   5.30076057
_cell_length_c   4.99544504
_cell_angle_alpha   90.00000000
_cell_angle_beta   90.00000000
_cell_angle_gamma   90.00000000
_symmetry_Int_Tables_number   1
_chemical_formula_structural   TiZn(BiO3)2
_chemical_formula_sum   'Ti1 Zn1 Bi2 O6'
_cell_volume   140.36232755
_cell_formula_units_Z   1
loop_
 _symmetry_equiv_pos_site_id
 _symmetry_equiv_pos_as_xyz
  1  'x, y, z'
loop_
 _atom_site_type_symbol
 _atom_site_label
 _atom_site_symmetry_multiplicity
 _atom_site_fract_x
 _atom_site_fract_y
 _atom_site_fract_z
 _atom_site_occupancy
  Ti  Ti0  1  0.000000  0.000000  0.585933  1
  Zn  Zn1  1  0.500000  0.500000  0.552913  1
  Bi  Bi2  1  0.000000  0.500000  0.000147  1
  Bi  Bi3  1  0.500000  0.000000  0.000147  1
  O  O4  1  0.242853  0.242853  0.727170  1
  O  O5  1  0.757147  0.242853  0.727170  1
  O  O6  1  0.500000  0.500000  0.170802  1
  O  O7  1  0.000000  0.000000  0.228377  1
  O  O8  1  0.757147  0.757147  0.727170  1
  O  O9  1  0.242853  0.757147  0.727170  1
