# generated using pymatgen
data_KTiPSe5
_symmetry_space_group_name_H-M   'P 1'
_cell_length_a   10.11478495
_cell_length_b   10.11478495
_cell_length_c   6.90934112
_cell_angle_alpha   81.72490532
_cell_angle_beta   98.27509468
_cell_angle_gamma   136.56629612
_symmetry_Int_Tables_number   1
_chemical_formula_structural   KTiPSe5
_chemical_formula_sum   'K2 Ti2 P2 Se10'
_cell_volume   480.12766091
_cell_formula_units_Z   2
loop_
 _symmetry_equiv_pos_site_id
 _symmetry_equiv_pos_as_xyz
  1  'x, y, z'
loop_
 _atom_site_type_symbol
 _atom_site_label
 _atom_site_symmetry_multiplicity
 _atom_site_fract_x
 _atom_site_fract_y
 _atom_site_fract_z
 _atom_site_occupancy
  K  K0  1  0.731253  0.268747  0.733496  1
  K  K1  1  0.268747  0.731253  0.266504  1
  Ti  Ti2  1  0.723157  0.723157  0.500000  1
  Ti  Ti3  1  0.276843  0.276843  0.500000  1
  P  P4  1  0.863907  0.136093  0.288693  1
  P  P5  1  0.136093  0.863907  0.711307  1
  Se  Se6  1  0.083497  0.916503  0.393811  1
  Se  Se7  1  0.558228  0.441772  0.317068  1
  Se  Se8  1  0.324829  0.154501  0.827333  1
  Se  Se9  1  0.916503  0.083497  0.606189  1
  Se  Se10  1  0.675171  0.845499  0.172667  1
  Se  Se11  1  0.845499  0.675171  0.827333  1
  Se  Se12  1  0.441772  0.558228  0.682932  1
  Se  Se13  1  0.746776  0.253224  0.242417  1
  Se  Se14  1  0.154501  0.324829  0.172667  1
  Se  Se15  1  0.253224  0.746776  0.757583  1
