# generated using pymatgen
data_NdSnRh
_symmetry_space_group_name_H-M   'P 1'
_cell_length_a   7.49636745
_cell_length_b   7.49636745
_cell_length_c   4.18519391
_cell_angle_alpha   90.00000000
_cell_angle_beta   90.00000000
_cell_angle_gamma   120.00000000
_symmetry_Int_Tables_number   1
_chemical_formula_structural   NdSnRh
_chemical_formula_sum   'Nd3 Sn3 Rh3'
_cell_volume   203.67979478
_cell_formula_units_Z   3
loop_
 _symmetry_equiv_pos_site_id
 _symmetry_equiv_pos_as_xyz
  1  'x, y, z'
loop_
 _atom_site_type_symbol
 _atom_site_label
 _atom_site_symmetry_multiplicity
 _atom_site_fract_x
 _atom_site_fract_y
 _atom_site_fract_z
 _atom_site_occupancy
  Nd  Nd0  1  0.000000  0.586708  0.000000  1
  Nd  Nd1  1  0.413292  0.413292  0.000000  1
  Nd  Nd2  1  0.586708  0.000000  0.000000  1
  Sn  Sn3  1  0.750644  0.750644  0.500000  1
  Sn  Sn4  1  0.000000  0.249356  0.500000  1
  Sn  Sn5  1  0.249356  0.000000  0.500000  1
  Rh  Rh6  1  0.000000  0.000000  0.000000  1
  Rh  Rh7  1  0.666667  0.333333  0.500000  1
  Rh  Rh8  1  0.333333  0.666667  0.500000  1
