# generated using pymatgen
data_Ba11Sb10
_symmetry_space_group_name_H-M   'P 1'
_cell_length_a   13.57689664
_cell_length_b   13.57689664
_cell_length_c   13.57689664
_cell_angle_alpha   123.54302818
_cell_angle_beta   120.98330582
_cell_angle_gamma   86.13812753
_symmetry_Int_Tables_number   1
_chemical_formula_structural   Ba11Sb10
_chemical_formula_sum   'Ba22 Sb20'
_cell_volume   1703.73398344
_cell_formula_units_Z   2
loop_
 _symmetry_equiv_pos_site_id
 _symmetry_equiv_pos_as_xyz
  1  'x, y, z'
loop_
 _atom_site_type_symbol
 _atom_site_label
 _atom_site_symmetry_multiplicity
 _atom_site_fract_x
 _atom_site_fract_y
 _atom_site_fract_z
 _atom_site_occupancy
  Ba  Ba0  1  0.432897  0.610060  0.822837  1
  Ba  Ba1  1  0.567103  0.389940  0.177163  1
  Ba  Ba2  1  0.212777  0.389940  0.822837  1
  Ba  Ba3  1  0.787223  0.610060  0.177163  1
  Ba  Ba4  1  0.148896  0.648896  0.500000  1
  Ba  Ba5  1  0.851104  0.351104  0.500000  1
  Ba  Ba6  1  0.565322  0.813154  0.752168  1
  Ba  Ba7  1  0.434678  0.186846  0.247832  1
  Ba  Ba8  1  0.939013  0.186846  0.752168  1
  Ba  Ba9  1  0.060987  0.813154  0.247832  1
  Ba  Ba10  1  0.100182  0.928295  0.828113  1
  Ba  Ba11  1  0.899818  0.727931  0.828113  1
  Ba  Ba12  1  0.899818  0.071705  0.171887  1
  Ba  Ba13  1  0.100182  0.272069  0.171887  1
  Ba  Ba14  1  0.304088  0.053676  0.749588  1
  Ba  Ba15  1  0.695912  0.445499  0.749588  1
  Ba  Ba16  1  0.695912  0.946324  0.250412  1
  Ba  Ba17  1  0.304088  0.554501  0.250412  1
  Ba  Ba18  1  0.335238  0.826020  0.161258  1
  Ba  Ba19  1  0.664762  0.826020  0.490782  1
  Ba  Ba20  1  0.335238  0.173980  0.509218  1
  Ba  Ba21  1  0.664762  0.173980  0.838742  1
  Sb  Sb22  1  0.385752  0.885752  0.500000  1
  Sb  Sb23  1  0.614248  0.114248  0.500000  1
  Sb  Sb24  1  0.244897  0.244897  0.000000  1
  Sb  Sb25  1  0.755103  0.755103  0.000000  1
  Sb  Sb26  1  0.848838  0.000000  0.848838  1
  Sb  Sb27  1  0.151162  0.000000  0.151162  1
  Sb  Sb28  1  0.500000  0.614820  0.114820  1
  Sb  Sb29  1  0.500000  0.385180  0.885180  1
  Sb  Sb30  1  0.395215  0.898275  0.924389  1
  Sb  Sb31  1  0.604785  0.529174  0.503060  1
  Sb  Sb32  1  0.026115  0.101725  0.496940  1
  Sb  Sb33  1  0.973885  0.470826  0.075611  1
  Sb  Sb34  1  0.604785  0.101725  0.075611  1
  Sb  Sb35  1  0.395215  0.470826  0.496940  1
  Sb  Sb36  1  0.973885  0.898275  0.503060  1
  Sb  Sb37  1  0.026115  0.529174  0.924389  1
  Sb  Sb38  1  0.129902  0.609533  0.739435  1
  Sb  Sb39  1  0.870098  0.609533  0.479630  1
  Sb  Sb40  1  0.129902  0.390467  0.520370  1
  Sb  Sb41  1  0.870098  0.390467  0.260565  1
