# generated using pymatgen
data_Na3Ga(PO4)2
_symmetry_space_group_name_H-M   'P 1'
_cell_length_a   8.98073960
_cell_length_b   9.00895558
_cell_length_c   9.37548150
_cell_angle_alpha   89.24145002
_cell_angle_beta   70.94802166
_cell_angle_gamma   87.75131778
_symmetry_Int_Tables_number   1
_chemical_formula_structural   Na3Ga(PO4)2
_chemical_formula_sum   'Na12 Ga4 P8 O32'
_cell_volume   716.43983965
_cell_formula_units_Z   4
loop_
 _symmetry_equiv_pos_site_id
 _symmetry_equiv_pos_as_xyz
  1  'x, y, z'
loop_
 _atom_site_type_symbol
 _atom_site_label
 _atom_site_symmetry_multiplicity
 _atom_site_fract_x
 _atom_site_fract_y
 _atom_site_fract_z
 _atom_site_occupancy
  Na  Na0  1  0.654923  0.750130  0.870842  1
  Na  Na1  1  0.308036  0.907922  0.069102  1
  Na  Na2  1  0.049528  0.582127  0.817227  1
  Na  Na3  1  0.691964  0.092078  0.930898  1
  Na  Na4  1  0.100792  0.700622  0.412231  1
  Na  Na5  1  0.350666  0.761111  0.677286  1
  Na  Na6  1  0.345077  0.249870  0.129158  1
  Na  Na7  1  0.926611  0.836402  0.108156  1
  Na  Na8  1  0.073389  0.163598  0.891844  1
  Na  Na9  1  0.950472  0.417873  0.182773  1
  Na  Na10  1  0.899208  0.299378  0.587769  1
  Na  Na11  1  0.649334  0.238889  0.322714  1
  Ga  Ga12  1  0.479057  0.581631  0.245680  1
  Ga  Ga13  1  0.748035  0.920081  0.488888  1
  Ga  Ga14  1  0.520943  0.418369  0.754320  1
  Ga  Ga15  1  0.251965  0.079919  0.511112  1
  P  P16  1  0.030638  0.091478  0.289485  1
  P  P17  1  0.278260  0.590790  0.016072  1
  P  P18  1  0.534375  0.926222  0.265981  1
  P  P19  1  0.465625  0.073778  0.734019  1
  P  P20  1  0.715248  0.586327  0.453611  1
  P  P21  1  0.721740  0.409210  0.983928  1
  P  P22  1  0.969362  0.908522  0.710515  1
  P  P23  1  0.284752  0.413673  0.546389  1
  O  O24  1  0.961996  0.935411  0.356947  1
  O  O25  1  0.904557  0.925742  0.883193  1
  O  O26  1  0.554064  0.417254  0.114696  1
  O  O27  1  0.095937  0.784704  0.652842  1
  O  O28  1  0.302309  0.526050  0.412641  1
  O  O29  1  0.889076  0.604740  0.365983  1
  O  O30  1  0.697691  0.473950  0.587359  1
  O  O31  1  0.368445  0.481308  0.650544  1
  O  O32  1  0.633663  0.738751  0.523380  1
  O  O33  1  0.445936  0.582746  0.885304  1
  O  O34  1  0.095443  0.074258  0.116807  1
  O  O35  1  0.430950  0.230227  0.810844  1
  O  O36  1  0.312648  0.656219  0.156749  1
  O  O37  1  0.614304  0.084821  0.588943  1
  O  O38  1  0.493128  0.958222  0.844212  1
  O  O39  1  0.506872  0.041778  0.155788  1
  O  O40  1  0.208884  0.436996  0.045416  1
  O  O41  1  0.316323  0.033276  0.694427  1
  O  O42  1  0.110924  0.395260  0.634017  1
  O  O43  1  0.827808  0.293106  0.030390  1
  O  O44  1  0.172192  0.706894  0.969610  1
  O  O45  1  0.385696  0.915179  0.411057  1
  O  O46  1  0.366337  0.261249  0.476620  1
  O  O47  1  0.631555  0.518692  0.349456  1
  O  O48  1  0.823682  0.878069  0.659113  1
  O  O49  1  0.687352  0.343781  0.843251  1
  O  O50  1  0.683677  0.966724  0.305573  1
  O  O51  1  0.038004  0.064589  0.643053  1
  O  O52  1  0.904063  0.215296  0.347158  1
  O  O53  1  0.569050  0.769773  0.189156  1
  O  O54  1  0.791116  0.563004  0.954584  1
  O  O55  1  0.176318  0.121931  0.340887  1
