# generated using pymatgen
data_Li3AlMo2(AsO7)2
_symmetry_space_group_name_H-M   'P 1'
_cell_length_a   5.28278638
_cell_length_b   5.49119680
_cell_length_c   9.58569131
_cell_angle_alpha   96.31429456
_cell_angle_beta   102.34374261
_cell_angle_gamma   105.16998624
_symmetry_Int_Tables_number   1
_chemical_formula_structural   Li3AlMo2(AsO7)2
_chemical_formula_sum   'Li3 Al1 Mo2 As2 O14'
_cell_volume   258.08394877
_cell_formula_units_Z   1
loop_
 _symmetry_equiv_pos_site_id
 _symmetry_equiv_pos_as_xyz
  1  'x, y, z'
loop_
 _atom_site_type_symbol
 _atom_site_label
 _atom_site_symmetry_multiplicity
 _atom_site_fract_x
 _atom_site_fract_y
 _atom_site_fract_z
 _atom_site_occupancy
  Li  Li0  1  0.194074  0.386542  0.847802  1
  Li  Li1  1  0.805926  0.613458  0.152198  1
  Li  Li2  1  0.000000  0.500000  0.500000  1
  Al  Al3  1  0.500000  0.000000  0.000000  1
  Mo  Mo4  1  0.495175  0.838592  0.353839  1
  Mo  Mo5  1  0.504825  0.161408  0.646161  1
  As  As6  1  0.149775  0.232072  0.174931  1
  As  As7  1  0.850225  0.767928  0.825069  1
  O  O8  1  0.582980  0.707636  0.905862  1
  O  O9  1  0.137050  0.791744  0.957005  1
  O  O10  1  0.417020  0.292364  0.094138  1
  O  O11  1  0.324763  0.836660  0.536156  1
  O  O12  1  0.560739  0.870200  0.176626  1
  O  O13  1  0.862950  0.208256  0.042995  1
  O  O14  1  0.161207  0.510508  0.288439  1
  O  O15  1  0.866621  0.019809  0.734715  1
  O  O16  1  0.279801  0.333985  0.590585  1
  O  O17  1  0.838793  0.489492  0.711561  1
  O  O18  1  0.439261  0.129800  0.823374  1
  O  O19  1  0.720199  0.666015  0.409415  1
  O  O20  1  0.675237  0.163340  0.463844  1
  O  O21  1  0.133379  0.980191  0.265285  1
