# generated using pymatgen
data_TiFe2O5
_symmetry_space_group_name_H-M   'P 1'
_cell_length_a   11.31782895
_cell_length_b   11.31782895
_cell_length_c   9.93698816
_cell_angle_alpha   64.83948606
_cell_angle_beta   115.16051394
_cell_angle_gamma   160.65526484
_symmetry_Int_Tables_number   1
_chemical_formula_structural   TiFe2O5
_chemical_formula_sum   'Ti4 Fe8 O20'
_cell_volume   380.40701817
_cell_formula_units_Z   4
loop_
 _symmetry_equiv_pos_site_id
 _symmetry_equiv_pos_as_xyz
  1  'x, y, z'
loop_
 _atom_site_type_symbol
 _atom_site_label
 _atom_site_symmetry_multiplicity
 _atom_site_fract_x
 _atom_site_fract_y
 _atom_site_fract_z
 _atom_site_occupancy
  Ti  Ti0  1  0.719179  0.280821  0.851423  1
  Ti  Ti1  1  0.877220  0.122780  0.061539  1
  Ti  Ti2  1  0.122780  0.877220  0.938461  1
  Ti  Ti3  1  0.280821  0.719179  0.148577  1
  Fe  Fe4  1  0.032065  0.967935  0.174067  1
  Fe  Fe5  1  0.217226  0.782774  0.360903  1
  Fe  Fe6  1  0.375620  0.624380  0.566188  1
  Fe  Fe7  1  0.967935  0.032065  0.825933  1
  Fe  Fe8  1  0.527483  0.472517  0.663586  1
  Fe  Fe9  1  0.624380  0.375620  0.433812  1
  Fe  Fe10  1  0.782774  0.217226  0.639097  1
  Fe  Fe11  1  0.472517  0.527483  0.336414  1
  O  O12  1  0.465049  0.534951  0.774065  1
  O  O13  1  0.558976  0.441024  0.511352  1
  O  O14  1  0.534951  0.465049  0.225935  1
  O  O15  1  0.875553  0.124447  0.636939  1
  O  O16  1  0.214678  0.785322  0.901976  1
  O  O17  1  0.713970  0.286030  0.408125  1
  O  O18  1  0.192321  0.807679  0.139922  1
  O  O19  1  0.785322  0.214678  0.098024  1
  O  O20  1  0.060807  0.939193  0.012380  1
  O  O21  1  0.043397  0.956603  0.737251  1
  O  O22  1  0.124447  0.875553  0.363061  1
  O  O23  1  0.308784  0.691216  0.346245  1
  O  O24  1  0.691216  0.308784  0.653755  1
  O  O25  1  0.286030  0.713970  0.591875  1
  O  O26  1  0.441024  0.558976  0.488648  1
  O  O27  1  0.807679  0.192321  0.860078  1
  O  O28  1  0.368248  0.631752  0.114827  1
  O  O29  1  0.956603  0.043397  0.262749  1
  O  O30  1  0.939193  0.060807  0.987620  1
  O  O31  1  0.631752  0.368248  0.885173  1
