# generated using pymatgen
data_KUN3O11
_symmetry_space_group_name_H-M   'P 1'
_cell_length_a   8.46433999
_cell_length_b   8.46433999
_cell_length_c   8.15060376
_cell_angle_alpha   68.80142675
_cell_angle_beta   111.19857325
_cell_angle_gamma   109.37281674
_symmetry_Int_Tables_number   1
_chemical_formula_structural   KUN3O11
_chemical_formula_sum   'K2 U2 N6 O22'
_cell_volume   493.84456298
_cell_formula_units_Z   2
loop_
 _symmetry_equiv_pos_site_id
 _symmetry_equiv_pos_as_xyz
  1  'x, y, z'
loop_
 _atom_site_type_symbol
 _atom_site_label
 _atom_site_symmetry_multiplicity
 _atom_site_fract_x
 _atom_site_fract_y
 _atom_site_fract_z
 _atom_site_occupancy
  K  K0  1  0.000000  0.500000  0.500000  1
  K  K1  1  0.500000  0.000000  0.000000  1
  U  U2  1  0.761432  0.761432  0.750000  1
  U  U3  1  0.238568  0.238568  0.250000  1
  N  N4  1  0.755346  0.074696  0.435073  1
  N  N5  1  0.074696  0.755346  0.064927  1
  N  N6  1  0.925304  0.244654  0.935073  1
  N  N7  1  0.244654  0.925304  0.564927  1
  N  N8  1  0.538274  0.538274  0.250000  1
  N  N9  1  0.461726  0.461726  0.750000  1
  O  O10  1  0.793176  0.250952  0.806338  1
  O  O11  1  0.749048  0.206824  0.306338  1
  O  O12  1  0.663677  0.663677  0.250000  1
  O  O13  1  0.931070  0.120982  0.085685  1
  O  O14  1  0.603071  0.461980  0.882802  1
  O  O15  1  0.856352  0.665263  0.655476  1
  O  O16  1  0.396929  0.538020  0.117198  1
  O  O17  1  0.879018  0.068930  0.585685  1
  O  O18  1  0.250952  0.793176  0.693662  1
  O  O19  1  0.143648  0.334737  0.344524  1
  O  O20  1  0.334737  0.143648  0.155476  1
  O  O21  1  0.361525  0.069039  0.570319  1
  O  O22  1  0.538020  0.396929  0.382802  1
  O  O23  1  0.461980  0.603071  0.617198  1
  O  O24  1  0.665263  0.856352  0.844524  1
  O  O25  1  0.120982  0.931070  0.414315  1
  O  O26  1  0.068930  0.879018  0.914315  1
  O  O27  1  0.206824  0.749048  0.193662  1
  O  O28  1  0.069039  0.361525  0.929681  1
  O  O29  1  0.930961  0.638475  0.070319  1
  O  O30  1  0.638475  0.930961  0.429681  1
  O  O31  1  0.336323  0.336323  0.750000  1
