# generated using pymatgen
data_LaBMoO6
_symmetry_space_group_name_H-M   'P 1'
_cell_length_a   10.42011275
_cell_length_b   4.19567097
_cell_length_c   24.02303908
_cell_angle_alpha   90.00000000
_cell_angle_beta   115.02327353
_cell_angle_gamma   90.00000000
_symmetry_Int_Tables_number   1
_chemical_formula_structural   LaBMoO6
_chemical_formula_sum   'La8 B8 Mo8 O48'
_cell_volume   951.68931892
_cell_formula_units_Z   8
loop_
 _symmetry_equiv_pos_site_id
 _symmetry_equiv_pos_as_xyz
  1  'x, y, z'
loop_
 _atom_site_type_symbol
 _atom_site_label
 _atom_site_symmetry_multiplicity
 _atom_site_fract_x
 _atom_site_fract_y
 _atom_site_fract_z
 _atom_site_occupancy
  La  La0  1  0.665989  0.256042  0.234660  1
  La  La1  1  0.665989  0.243958  0.734660  1
  La  La2  1  0.833267  0.712217  0.015801  1
  La  La3  1  0.334011  0.756042  0.265340  1
  La  La4  1  0.166733  0.212217  0.484199  1
  La  La5  1  0.833267  0.787783  0.515801  1
  La  La6  1  0.334011  0.743958  0.765340  1
  La  La7  1  0.166733  0.287783  0.984199  1
  B  B8  1  0.193084  0.666012  0.595369  1
  B  B9  1  0.806916  0.333988  0.404631  1
  B  B10  1  0.305033  0.333744  0.153881  1
  B  B11  1  0.694967  0.833744  0.346119  1
  B  B12  1  0.806916  0.166012  0.904631  1
  B  B13  1  0.193084  0.833988  0.095369  1
  B  B14  1  0.305033  0.166256  0.653881  1
  B  B15  1  0.694967  0.666256  0.846119  1
  Mo  Mo16  1  0.465805  0.324305  0.409769  1
  Mo  Mo17  1  0.035208  0.800943  0.339761  1
  Mo  Mo18  1  0.964792  0.199057  0.660239  1
  Mo  Mo19  1  0.465805  0.175695  0.909769  1
  Mo  Mo20  1  0.964792  0.300943  0.160239  1
  Mo  Mo21  1  0.035208  0.699057  0.839761  1
  Mo  Mo22  1  0.534195  0.824305  0.090231  1
  Mo  Mo23  1  0.534195  0.675695  0.590231  1
  O  O24  1  0.103963  0.783200  0.923458  1
  O  O25  1  0.103963  0.716800  0.423458  1
  O  O26  1  0.650635  0.747052  0.054833  1
  O  O27  1  0.731880  0.158070  0.350966  1
  O  O28  1  0.850310  0.715680  0.291463  1
  O  O29  1  0.349365  0.247052  0.445167  1
  O  O30  1  0.349277  0.739080  0.041592  1
  O  O31  1  0.409652  0.235176  0.206601  1
  O  O32  1  0.731880  0.341930  0.850966  1
  O  O33  1  0.397349  0.242074  0.326088  1
  O  O34  1  0.149690  0.284320  0.708537  1
  O  O35  1  0.467472  0.752136  0.902211  1
  O  O36  1  0.149690  0.215680  0.208537  1
  O  O37  1  0.590348  0.735176  0.293399  1
  O  O38  1  0.911310  0.269751  0.956885  1
  O  O39  1  0.088690  0.730249  0.043115  1
  O  O40  1  0.847865  0.223307  0.195513  1
  O  O41  1  0.152135  0.776693  0.804487  1
  O  O42  1  0.268120  0.658070  0.149034  1
  O  O43  1  0.965605  0.776025  0.652393  1
  O  O44  1  0.532528  0.247864  0.097789  1
  O  O45  1  0.409652  0.264824  0.706601  1
  O  O46  1  0.532528  0.252136  0.597789  1
  O  O47  1  0.850310  0.784320  0.791463  1
  O  O48  1  0.590348  0.764824  0.793399  1
  O  O49  1  0.268120  0.841930  0.649034  1
  O  O50  1  0.152135  0.723307  0.304487  1
  O  O51  1  0.229715  0.158136  0.100308  1
  O  O52  1  0.650723  0.239080  0.458408  1
  O  O53  1  0.467472  0.747864  0.402211  1
  O  O54  1  0.770285  0.658136  0.399692  1
  O  O55  1  0.650635  0.752948  0.554833  1
  O  O56  1  0.650723  0.260920  0.958408  1
  O  O57  1  0.965605  0.723975  0.152393  1
  O  O58  1  0.034395  0.223975  0.347607  1
  O  O59  1  0.770285  0.841864  0.899692  1
  O  O60  1  0.349277  0.760920  0.541592  1
  O  O61  1  0.896037  0.283200  0.576542  1
  O  O62  1  0.034395  0.276025  0.847607  1
  O  O63  1  0.911310  0.230249  0.456885  1
  O  O64  1  0.349365  0.252948  0.945167  1
  O  O65  1  0.847865  0.276693  0.695513  1
  O  O66  1  0.397349  0.257926  0.826088  1
  O  O67  1  0.088690  0.769751  0.543115  1
  O  O68  1  0.602651  0.742074  0.173912  1
  O  O69  1  0.229715  0.341864  0.600308  1
  O  O70  1  0.896037  0.216800  0.076542  1
  O  O71  1  0.602651  0.757926  0.673912  1
