# generated using pymatgen
data_Fe(PO3)5
_symmetry_space_group_name_H-M   'P 1'
_cell_length_a   5.22861541
_cell_length_b   13.80630812
_cell_length_c   9.12856126
_cell_angle_alpha   90.00000000
_cell_angle_beta   105.40693444
_cell_angle_gamma   90.00000000
_symmetry_Int_Tables_number   1
_chemical_formula_structural   Fe(PO3)5
_chemical_formula_sum   'Fe2 P10 O30'
_cell_volume   635.29015533
_cell_formula_units_Z   2
loop_
 _symmetry_equiv_pos_site_id
 _symmetry_equiv_pos_as_xyz
  1  'x, y, z'
loop_
 _atom_site_type_symbol
 _atom_site_label
 _atom_site_symmetry_multiplicity
 _atom_site_fract_x
 _atom_site_fract_y
 _atom_site_fract_z
 _atom_site_occupancy
  Fe  Fe0  1  0.500000  0.000000  0.500000  1
  Fe  Fe1  1  0.500000  0.500000  0.500000  1
  P  P2  1  0.010086  0.860445  0.535552  1
  P  P3  1  0.010086  0.639555  0.535552  1
  P  P4  1  0.393456  0.925908  0.818688  1
  P  P5  1  0.393456  0.574092  0.818688  1
  P  P6  1  0.445481  0.250000  0.998390  1
  P  P7  1  0.554519  0.750000  0.001610  1
  P  P8  1  0.606544  0.425908  0.181312  1
  P  P9  1  0.606544  0.074092  0.181312  1
  P  P10  1  0.989914  0.360445  0.464448  1
  P  P11  1  0.989914  0.139555  0.464448  1
  O  O12  1  0.293533  0.979122  0.939601  1
  O  O13  1  0.293533  0.520878  0.939601  1
  O  O14  1  0.072848  0.750000  0.507150  1
  O  O15  1  0.134376  0.870732  0.718353  1
  O  O16  1  0.134376  0.629268  0.718353  1
  O  O17  1  0.226884  0.250000  0.851852  1
  O  O18  1  0.166130  0.920677  0.452599  1
  O  O19  1  0.166130  0.579323  0.452599  1
  O  O20  1  0.283204  0.376336  0.497188  1
  O  O21  1  0.283204  0.123664  0.497188  1
  O  O22  1  0.531036  0.981752  0.721565  1
  O  O23  1  0.531036  0.518248  0.721565  1
  O  O24  1  0.585755  0.837497  0.891953  1
  O  O25  1  0.585755  0.662503  0.891953  1
  O  O26  1  0.294701  0.750000  0.044614  1
  O  O27  1  0.705299  0.250000  0.955386  1
  O  O28  1  0.414245  0.337497  0.108047  1
  O  O29  1  0.414245  0.162503  0.108047  1
  O  O30  1  0.468964  0.481752  0.278435  1
  O  O31  1  0.468964  0.018248  0.278435  1
  O  O32  1  0.716796  0.876336  0.502812  1
  O  O33  1  0.716796  0.623664  0.502812  1
  O  O34  1  0.833870  0.420677  0.547401  1
  O  O35  1  0.833870  0.079323  0.547401  1
  O  O36  1  0.773116  0.750000  0.148148  1
  O  O37  1  0.865624  0.370732  0.281647  1
  O  O38  1  0.865624  0.129268  0.281647  1
  O  O39  1  0.927152  0.250000  0.492850  1
  O  O40  1  0.706467  0.479122  0.060399  1
  O  O41  1  0.706467  0.020878  0.060399  1
