# generated using pymatgen
data_Na2Ti3Cl8
_symmetry_space_group_name_H-M   'P 1'
_cell_length_a   7.93656778
_cell_length_b   7.93656778
_cell_length_c   7.93656778
_cell_angle_alpha   52.03641486
_cell_angle_beta   52.03641486
_cell_angle_gamma   52.03641486
_symmetry_Int_Tables_number   1
_chemical_formula_structural   Na2Ti3Cl8
_chemical_formula_sum   'Na2 Ti3 Cl8'
_cell_volume   287.31711345
_cell_formula_units_Z   1
loop_
 _symmetry_equiv_pos_site_id
 _symmetry_equiv_pos_as_xyz
  1  'x, y, z'
loop_
 _atom_site_type_symbol
 _atom_site_label
 _atom_site_symmetry_multiplicity
 _atom_site_fract_x
 _atom_site_fract_y
 _atom_site_fract_z
 _atom_site_occupancy
  Na  Na0  1  0.171055  0.171055  0.171055  1
  Na  Na1  1  0.841869  0.841869  0.841869  1
  Ti  Ti2  1  0.529407  0.529407  0.938999  1
  Ti  Ti3  1  0.529407  0.938999  0.529407  1
  Ti  Ti4  1  0.938999  0.529407  0.529407  1
  Cl  Cl5  1  0.101015  0.594727  0.101015  1
  Cl  Cl6  1  0.594727  0.101015  0.101015  1
  Cl  Cl7  1  0.906546  0.906546  0.413979  1
  Cl  Cl8  1  0.101015  0.101015  0.594727  1
  Cl  Cl9  1  0.581351  0.581351  0.581351  1
  Cl  Cl10  1  0.413979  0.906546  0.906546  1
  Cl  Cl11  1  0.394649  0.394649  0.394649  1
  Cl  Cl12  1  0.906546  0.413979  0.906546  1
