# generated using pymatgen
data_CeH14Cl3O7
_symmetry_space_group_name_H-M   'P 1'
_cell_length_a   7.95464415
_cell_length_b   8.26213792
_cell_length_c   9.36182553
_cell_angle_alpha   69.73603413
_cell_angle_beta   73.52816433
_cell_angle_gamma   81.44288253
_symmetry_Int_Tables_number   1
_chemical_formula_structural   CeH14Cl3O7
_chemical_formula_sum   'Ce2 H28 Cl6 O14'
_cell_volume   552.63501529
_cell_formula_units_Z   2
loop_
 _symmetry_equiv_pos_site_id
 _symmetry_equiv_pos_as_xyz
  1  'x, y, z'
loop_
 _atom_site_type_symbol
 _atom_site_label
 _atom_site_symmetry_multiplicity
 _atom_site_fract_x
 _atom_site_fract_y
 _atom_site_fract_z
 _atom_site_occupancy
  Ce  Ce0  1  0.216687  0.183471  0.823930  1
  Ce  Ce1  1  0.783313  0.816529  0.176070  1
  H  H2  1  0.995971  0.150288  0.592146  1
  H  H3  1  0.004029  0.849712  0.407854  1
  H  H4  1  0.122223  0.979953  0.625649  1
  H  H5  1  0.877777  0.020047  0.374351  1
  H  H6  1  0.914482  0.463766  0.727890  1
  H  H7  1  0.085518  0.536234  0.272110  1
  H  H8  1  0.092286  0.530881  0.609992  1
  H  H9  1  0.907714  0.469119  0.390008  1
  H  H10  1  0.263938  0.175315  0.152205  1
  H  H11  1  0.736062  0.824685  0.847795  1
  H  H12  1  0.122616  0.038596  0.190245  1
  H  H13  1  0.877384  0.961404  0.809755  1
  H  H14  1  0.614291  0.129988  0.850085  1
  H  H15  1  0.385709  0.870012  0.149915  1
  H  H16  1  0.563351  0.324604  0.846927  1
  H  H17  1  0.436649  0.675396  0.153073  1
  H  H18  1  0.479012  0.864914  0.739427  1
  H  H19  1  0.520988  0.135086  0.260573  1
  H  H20  1  0.553679  0.041615  0.619479  1
  H  H21  1  0.446321  0.958385  0.380521  1
  H  H22  1  0.354463  0.362444  0.448679  1
  H  H23  1  0.645537  0.637556  0.551321  1
  H  H24  1  0.512692  0.341068  0.524126  1
  H  H25  1  0.487308  0.658932  0.475874  1
  H  H26  1  0.203067  0.571740  0.814570  1
  H  H27  1  0.796933  0.428260  0.185430  1
  H  H28  1  0.256923  0.469882  0.973786  1
  H  H29  1  0.743077  0.530118  0.026214  1
  Cl  Cl30  1  0.143489  0.820528  0.987022  1
  Cl  Cl31  1  0.856511  0.179472  0.012978  1
  Cl  Cl32  1  0.787647  0.222769  0.460599  1
  Cl  Cl33  1  0.212353  0.777231  0.539401  1
  Cl  Cl34  1  0.336650  0.385343  0.211905  1
  Cl  Cl35  1  0.663350  0.614657  0.788095  1
  O  O36  1  0.061005  0.074124  0.668949  1
  O  O37  1  0.938995  0.925876  0.331051  1
  O  O38  1  0.031514  0.423678  0.675720  1
  O  O39  1  0.968486  0.576322  0.324280  1
  O  O40  1  0.234619  0.085939  0.115958  1
  O  O41  1  0.765381  0.914061  0.884042  1
  O  O42  1  0.521815  0.223735  0.837186  1
  O  O43  1  0.478185  0.776265  0.162814  1
  O  O44  1  0.447616  0.988880  0.696573  1
  O  O45  1  0.552384  0.011120  0.303427  1
  O  O46  1  0.383143  0.351632  0.548033  1
  O  O47  1  0.616857  0.648368  0.451967  1
  O  O48  1  0.220253  0.455719  0.886998  1
  O  O49  1  0.779747  0.544281  0.113002  1
