# generated using pymatgen
data_Fe(PO3)4
_symmetry_space_group_name_H-M   'P 1'
_cell_length_a   9.13632495
_cell_length_b   9.40956429
_cell_length_c   10.48650553
_cell_angle_alpha   90.00000000
_cell_angle_beta   90.00000000
_cell_angle_gamma   90.00000000
_symmetry_Int_Tables_number   1
_chemical_formula_structural   Fe(PO3)4
_chemical_formula_sum   'Fe4 P16 O48'
_cell_volume   901.51268452
_cell_formula_units_Z   4
loop_
 _symmetry_equiv_pos_site_id
 _symmetry_equiv_pos_as_xyz
  1  'x, y, z'
loop_
 _atom_site_type_symbol
 _atom_site_label
 _atom_site_symmetry_multiplicity
 _atom_site_fract_x
 _atom_site_fract_y
 _atom_site_fract_z
 _atom_site_occupancy
  Fe  Fe0  1  0.250000  0.013174  0.788529  1
  Fe  Fe1  1  0.750000  0.486826  0.288529  1
  Fe  Fe2  1  0.250000  0.513174  0.711471  1
  Fe  Fe3  1  0.750000  0.986826  0.211471  1
  P  P4  1  0.750000  0.198260  0.609334  1
  P  P5  1  0.548813  0.211862  0.389870  1
  P  P6  1  0.951187  0.211862  0.389870  1
  P  P7  1  0.250000  0.234738  0.517360  1
  P  P8  1  0.750000  0.265262  0.017360  1
  P  P9  1  0.048813  0.288138  0.889870  1
  P  P10  1  0.451187  0.288138  0.889870  1
  P  P11  1  0.250000  0.301740  0.109334  1
  P  P12  1  0.750000  0.698260  0.890666  1
  P  P13  1  0.548813  0.711862  0.110130  1
  P  P14  1  0.951187  0.711862  0.110130  1
  P  P15  1  0.250000  0.734738  0.982640  1
  P  P16  1  0.750000  0.765262  0.482640  1
  P  P17  1  0.048813  0.788138  0.610130  1
  P  P18  1  0.451187  0.788138  0.610130  1
  P  P19  1  0.250000  0.801740  0.390666  1
  O  O20  1  0.587195  0.106858  0.287558  1
  O  O21  1  0.912805  0.106858  0.287558  1
  O  O22  1  0.750000  0.110927  0.053579  1
  O  O23  1  0.750000  0.113146  0.731000  1
  O  O24  1  0.250000  0.127389  0.622960  1
  O  O25  1  0.094028  0.136337  0.869963  1
  O  O26  1  0.405972  0.136337  0.869963  1
  O  O27  1  0.612550  0.153807  0.524686  1
  O  O28  1  0.887450  0.153807  0.524686  1
  O  O29  1  0.250000  0.146839  0.147211  1
  O  O30  1  0.120657  0.198810  0.418647  1
  O  O31  1  0.379343  0.198810  0.418647  1
  O  O32  1  0.620657  0.301190  0.918647  1
  O  O33  1  0.879343  0.301190  0.918647  1
  O  O34  1  0.750000  0.353161  0.647211  1
  O  O35  1  0.112550  0.346193  0.024686  1
  O  O36  1  0.387450  0.346193  0.024686  1
  O  O37  1  0.594028  0.363663  0.369963  1
  O  O38  1  0.905972  0.363663  0.369963  1
  O  O39  1  0.750000  0.372611  0.122960  1
  O  O40  1  0.250000  0.386854  0.231000  1
  O  O41  1  0.250000  0.389073  0.553579  1
  O  O42  1  0.087195  0.393142  0.787558  1
  O  O43  1  0.412805  0.393142  0.787558  1
  O  O44  1  0.587195  0.606858  0.212442  1
  O  O45  1  0.912805  0.606858  0.212442  1
  O  O46  1  0.750000  0.610927  0.446421  1
  O  O47  1  0.750000  0.613146  0.769000  1
  O  O48  1  0.250000  0.627389  0.877040  1
  O  O49  1  0.094028  0.636337  0.630037  1
  O  O50  1  0.405972  0.636337  0.630037  1
  O  O51  1  0.612550  0.653807  0.975314  1
  O  O52  1  0.887450  0.653807  0.975314  1
  O  O53  1  0.250000  0.646839  0.352789  1
  O  O54  1  0.120657  0.698810  0.081353  1
  O  O55  1  0.379343  0.698810  0.081353  1
  O  O56  1  0.620657  0.801190  0.581353  1
  O  O57  1  0.879343  0.801190  0.581353  1
  O  O58  1  0.750000  0.853161  0.852789  1
  O  O59  1  0.112550  0.846193  0.475314  1
  O  O60  1  0.387450  0.846193  0.475314  1
  O  O61  1  0.594028  0.863663  0.130037  1
  O  O62  1  0.905972  0.863663  0.130037  1
  O  O63  1  0.750000  0.872611  0.377040  1
  O  O64  1  0.250000  0.886854  0.269000  1
  O  O65  1  0.250000  0.889073  0.946421  1
  O  O66  1  0.087195  0.893142  0.712442  1
  O  O67  1  0.412805  0.893142  0.712442  1
