# generated using pymatgen
data_SiO2
_symmetry_space_group_name_H-M   'P 1'
_cell_length_a   11.59348596
_cell_length_b   11.59348596
_cell_length_c   5.19219973
_cell_angle_alpha   90.00000000
_cell_angle_beta   90.00000000
_cell_angle_gamma   90.00000000
_symmetry_Int_Tables_number   1
_chemical_formula_structural   SiO2
_chemical_formula_sum   'Si16 O32'
_cell_volume   697.87794042
_cell_formula_units_Z   16
loop_
 _symmetry_equiv_pos_site_id
 _symmetry_equiv_pos_as_xyz
  1  'x, y, z'
loop_
 _atom_site_type_symbol
 _atom_site_label
 _atom_site_symmetry_multiplicity
 _atom_site_fract_x
 _atom_site_fract_y
 _atom_site_fract_z
 _atom_site_occupancy
  Si  Si0  1  0.155652  0.075946  0.989295  1
  Si  Si1  1  0.597462  0.199906  0.723101  1
  Si  Si2  1  0.655652  0.424054  0.510705  1
  Si  Si3  1  0.575946  0.655652  0.489295  1
  Si  Si4  1  0.699906  0.097462  0.223101  1
  Si  Si5  1  0.924054  0.155652  0.010705  1
  Si  Si6  1  0.344348  0.575946  0.510705  1
  Si  Si7  1  0.402538  0.800094  0.723101  1
  Si  Si8  1  0.902538  0.699906  0.776899  1
  Si  Si9  1  0.800094  0.597462  0.276899  1
  Si  Si10  1  0.300094  0.902538  0.223101  1
  Si  Si11  1  0.097462  0.300094  0.776899  1
  Si  Si12  1  0.199906  0.402538  0.276899  1
  Si  Si13  1  0.424054  0.344348  0.489295  1
  Si  Si14  1  0.844348  0.924054  0.989295  1
  Si  Si15  1  0.075946  0.844348  0.010705  1
  O  O16  1  0.820099  0.816807  0.792488  1
  O  O17  1  0.183193  0.820099  0.207512  1
  O  O18  1  0.860304  0.608526  0.998771  1
  O  O19  1  0.608526  0.139696  0.001229  1
  O  O20  1  0.618969  0.544047  0.666002  1
  O  O21  1  0.235420  0.538501  0.329622  1
  O  O22  1  0.264580  0.038501  0.170378  1
  O  O23  1  0.118969  0.955953  0.833998  1
  O  O24  1  0.455953  0.618969  0.333998  1
  O  O25  1  0.538501  0.764580  0.670378  1
  O  O26  1  0.381031  0.455953  0.666002  1
  O  O27  1  0.955953  0.881031  0.166002  1
  O  O28  1  0.764580  0.461499  0.329622  1
  O  O29  1  0.179901  0.183193  0.792488  1
  O  O30  1  0.816807  0.179901  0.207512  1
  O  O31  1  0.461499  0.235420  0.670378  1
  O  O32  1  0.108526  0.360304  0.498771  1
  O  O33  1  0.891474  0.639696  0.498771  1
  O  O34  1  0.316807  0.320099  0.292488  1
  O  O35  1  0.038501  0.735420  0.829622  1
  O  O36  1  0.683193  0.679901  0.292488  1
  O  O37  1  0.044047  0.118969  0.166002  1
  O  O38  1  0.639696  0.108526  0.501229  1
  O  O39  1  0.360304  0.891474  0.501229  1
  O  O40  1  0.961499  0.264580  0.829622  1
  O  O41  1  0.735420  0.961499  0.170378  1
  O  O42  1  0.881031  0.044047  0.833998  1
  O  O43  1  0.320099  0.683193  0.707512  1
  O  O44  1  0.679901  0.316807  0.707512  1
  O  O45  1  0.544047  0.381031  0.333998  1
  O  O46  1  0.391474  0.860304  0.001229  1
  O  O47  1  0.139696  0.391474  0.998771  1
