# generated using pymatgen
data_Gd2WO6
_symmetry_space_group_name_H-M   'P 1'
_cell_length_a   5.34825163
_cell_length_b   9.26501703
_cell_length_c   10.12362835
_cell_angle_alpha   90.00000000
_cell_angle_beta   90.00000000
_cell_angle_gamma   90.00000000
_symmetry_Int_Tables_number   1
_chemical_formula_structural   Gd2WO6
_chemical_formula_sum   'Gd8 W4 O24'
_cell_volume   501.64241212
_cell_formula_units_Z   4
loop_
 _symmetry_equiv_pos_site_id
 _symmetry_equiv_pos_as_xyz
  1  'x, y, z'
loop_
 _atom_site_type_symbol
 _atom_site_label
 _atom_site_symmetry_multiplicity
 _atom_site_fract_x
 _atom_site_fract_y
 _atom_site_fract_z
 _atom_site_occupancy
  Gd  Gd0  1  0.479885  0.603632  0.535716  1
  Gd  Gd1  1  0.979885  0.896368  0.464284  1
  Gd  Gd2  1  0.520115  0.103632  0.964284  1
  Gd  Gd3  1  0.020115  0.396368  0.035716  1
  Gd  Gd4  1  0.963158  0.781091  0.869800  1
  Gd  Gd5  1  0.463158  0.718909  0.130200  1
  Gd  Gd6  1  0.036842  0.281091  0.630200  1
  Gd  Gd7  1  0.536842  0.218909  0.369800  1
  W  W8  1  0.460541  0.995919  0.650696  1
  W  W9  1  0.960541  0.504081  0.349304  1
  W  W10  1  0.539459  0.495919  0.849304  1
  W  W11  1  0.039459  0.004081  0.150696  1
  O  O12  1  0.252508  0.088703  0.507044  1
  O  O13  1  0.752508  0.411297  0.492956  1
  O  O14  1  0.747492  0.588703  0.992956  1
  O  O15  1  0.247492  0.911297  0.007044  1
  O  O16  1  0.728599  0.114077  0.567369  1
  O  O17  1  0.228599  0.385923  0.432631  1
  O  O18  1  0.271401  0.614077  0.932631  1
  O  O19  1  0.771401  0.885923  0.067369  1
  O  O20  1  0.184303  0.863853  0.680481  1
  O  O21  1  0.684303  0.636147  0.319519  1
  O  O22  1  0.815697  0.363853  0.819519  1
  O  O23  1  0.315697  0.136147  0.180481  1
  O  O24  1  0.189136  0.860025  0.262460  1
  O  O25  1  0.689136  0.639975  0.737540  1
  O  O26  1  0.810864  0.360025  0.237540  1
  O  O27  1  0.310864  0.139975  0.762460  1
  O  O28  1  0.827108  0.048009  0.295282  1
  O  O29  1  0.327108  0.451991  0.704718  1
  O  O30  1  0.172892  0.548009  0.204718  1
  O  O31  1  0.672892  0.951991  0.795282  1
  O  O32  1  0.916681  0.154938  0.030379  1
  O  O33  1  0.416681  0.345062  0.969621  1
  O  O34  1  0.083319  0.654938  0.469621  1
  O  O35  1  0.583319  0.845062  0.530379  1
