# generated using pymatgen
data_Na4Ce(As2O7)2
_symmetry_space_group_name_H-M   'P 1'
_cell_length_a   11.00105832
_cell_length_b   11.00105832
_cell_length_c   10.41413076
_cell_angle_alpha   90.00000000
_cell_angle_beta   90.00000000
_cell_angle_gamma   90.00000000
_symmetry_Int_Tables_number   1
_chemical_formula_structural   Na4Ce(As2O7)2
_chemical_formula_sum   'Na16 Ce4 As16 O56'
_cell_volume   1260.35230625
_cell_formula_units_Z   4
loop_
 _symmetry_equiv_pos_site_id
 _symmetry_equiv_pos_as_xyz
  1  'x, y, z'
loop_
 _atom_site_type_symbol
 _atom_site_label
 _atom_site_symmetry_multiplicity
 _atom_site_fract_x
 _atom_site_fract_y
 _atom_site_fract_z
 _atom_site_occupancy
  Na  Na0  1  0.425113  0.351138  0.395632  1
  Na  Na1  1  0.148862  0.074887  0.895632  1
  Na  Na2  1  0.648862  0.425113  0.604368  1
  Na  Na3  1  0.574887  0.648862  0.395632  1
  Na  Na4  1  0.851138  0.074887  0.395632  1
  Na  Na5  1  0.425113  0.648862  0.895632  1
  Na  Na6  1  0.925113  0.148862  0.104368  1
  Na  Na7  1  0.574887  0.351138  0.895632  1
  Na  Na8  1  0.925113  0.851138  0.604368  1
  Na  Na9  1  0.148862  0.925113  0.395632  1
  Na  Na10  1  0.851138  0.925113  0.895632  1
  Na  Na11  1  0.074887  0.851138  0.104368  1
  Na  Na12  1  0.074887  0.148862  0.604368  1
  Na  Na13  1  0.648862  0.574887  0.104368  1
  Na  Na14  1  0.351138  0.574887  0.604368  1
  Na  Na15  1  0.351138  0.425113  0.104368  1
  Ce  Ce16  1  0.500000  0.000000  0.930658  1
  Ce  Ce17  1  0.000000  0.500000  0.069342  1
  Ce  Ce18  1  0.500000  0.000000  0.430658  1
  Ce  Ce19  1  0.000000  0.500000  0.569342  1
  As  As20  1  0.773552  0.600615  0.822722  1
  As  As21  1  0.600615  0.773552  0.677278  1
  As  As22  1  0.773552  0.399385  0.322722  1
  As  As23  1  0.399385  0.226448  0.677278  1
  As  As24  1  0.600615  0.226448  0.177278  1
  As  As25  1  0.226448  0.600615  0.322722  1
  As  As26  1  0.226448  0.399385  0.822722  1
  As  As27  1  0.100615  0.273552  0.322722  1
  As  As28  1  0.399385  0.773552  0.177278  1
  As  As29  1  0.899385  0.726448  0.322722  1
  As  As30  1  0.273552  0.100615  0.177278  1
  As  As31  1  0.726448  0.899385  0.177278  1
  As  As32  1  0.899385  0.273552  0.822722  1
  As  As33  1  0.100615  0.726448  0.822722  1
  As  As34  1  0.726448  0.100615  0.677278  1
  As  As35  1  0.273552  0.899385  0.677278  1
  O  O36  1  0.947261  0.138293  0.881143  1
  O  O37  1  0.750183  0.249817  0.250000  1
  O  O38  1  0.488471  0.821476  0.302498  1
  O  O39  1  0.321476  0.988471  0.802498  1
  O  O40  1  0.011529  0.678524  0.697502  1
  O  O41  1  0.866935  0.625636  0.442963  1
  O  O42  1  0.133065  0.625636  0.942963  1
  O  O43  1  0.138293  0.052739  0.118857  1
  O  O44  1  0.874364  0.366935  0.442963  1
  O  O45  1  0.625636  0.866935  0.057037  1
  O  O46  1  0.552739  0.361707  0.118857  1
  O  O47  1  0.374364  0.866935  0.557037  1
  O  O48  1  0.678524  0.988471  0.302498  1
  O  O49  1  0.749817  0.749817  0.250000  1
  O  O50  1  0.366935  0.874364  0.057037  1
  O  O51  1  0.488471  0.178524  0.802498  1
  O  O52  1  0.361707  0.552739  0.381143  1
  O  O53  1  0.321476  0.011529  0.302498  1
  O  O54  1  0.125636  0.633065  0.442963  1
  O  O55  1  0.633065  0.874364  0.557037  1
  O  O56  1  0.874364  0.633065  0.942963  1
  O  O57  1  0.821476  0.511529  0.697502  1
  O  O58  1  0.178524  0.488471  0.697502  1
  O  O59  1  0.638293  0.447261  0.381143  1
  O  O60  1  0.511529  0.821476  0.802498  1
  O  O61  1  0.250183  0.250183  0.250000  1
  O  O62  1  0.178524  0.511529  0.197502  1
  O  O63  1  0.249817  0.249817  0.750000  1
  O  O64  1  0.678524  0.011529  0.802498  1
  O  O65  1  0.552739  0.638293  0.618857  1
  O  O66  1  0.988471  0.678524  0.197502  1
  O  O67  1  0.374364  0.133065  0.057037  1
  O  O68  1  0.249817  0.750183  0.250000  1
  O  O69  1  0.821476  0.488471  0.197502  1
  O  O70  1  0.366935  0.125636  0.557037  1
  O  O71  1  0.861707  0.947261  0.118857  1
  O  O72  1  0.361707  0.447261  0.881143  1
  O  O73  1  0.511529  0.178524  0.302498  1
  O  O74  1  0.866935  0.374364  0.942963  1
  O  O75  1  0.447261  0.361707  0.618857  1
  O  O76  1  0.638293  0.552739  0.881143  1
  O  O77  1  0.052739  0.861707  0.881143  1
  O  O78  1  0.947261  0.861707  0.381143  1
  O  O79  1  0.625636  0.133065  0.557037  1
  O  O80  1  0.749817  0.250183  0.750000  1
  O  O81  1  0.011529  0.321476  0.197502  1
  O  O82  1  0.988471  0.321476  0.697502  1
  O  O83  1  0.861707  0.052739  0.618857  1
  O  O84  1  0.447261  0.638293  0.118857  1
  O  O85  1  0.750183  0.750183  0.750000  1
  O  O86  1  0.052739  0.138293  0.381143  1
  O  O87  1  0.633065  0.125636  0.057037  1
  O  O88  1  0.125636  0.366935  0.942963  1
  O  O89  1  0.133065  0.374364  0.442963  1
  O  O90  1  0.250183  0.749817  0.750000  1
  O  O91  1  0.138293  0.947261  0.618857  1
