# generated using pymatgen
data_BaCaSn3
_symmetry_space_group_name_H-M   'P 1'
_cell_length_a   9.36561949
_cell_length_b   9.36561949
_cell_length_c   17.42364974
_cell_angle_alpha   90.00000000
_cell_angle_beta   90.00000000
_cell_angle_gamma   118.56927221
_symmetry_Int_Tables_number   1
_chemical_formula_structural   BaCaSn3
_chemical_formula_sum   'Ba8 Ca8 Sn24'
_cell_volume   1342.22446980
_cell_formula_units_Z   8
loop_
 _symmetry_equiv_pos_site_id
 _symmetry_equiv_pos_as_xyz
  1  'x, y, z'
loop_
 _atom_site_type_symbol
 _atom_site_label
 _atom_site_symmetry_multiplicity
 _atom_site_fract_x
 _atom_site_fract_y
 _atom_site_fract_z
 _atom_site_occupancy
  Ba  Ba0  1  0.323500  0.323500  0.413958  1
  Ba  Ba1  1  0.716543  0.283457  0.000000  1
  Ba  Ba2  1  0.676500  0.676500  0.586042  1
  Ba  Ba3  1  0.176500  0.176500  0.913958  1
  Ba  Ba4  1  0.283457  0.716543  1.000000  1
  Ba  Ba5  1  0.783457  0.216543  0.500000  1
  Ba  Ba6  1  0.823500  0.823500  0.086042  1
  Ba  Ba7  1  0.216543  0.783457  0.500000  1
  Ca  Ca8  1  0.144137  0.875579  0.728490  1
  Ca  Ca9  1  0.124421  0.855863  0.271510  1
  Ca  Ca10  1  0.355863  0.624421  0.228490  1
  Ca  Ca11  1  0.375579  0.644137  0.771510  1
  Ca  Ca12  1  0.624421  0.355863  0.228490  1
  Ca  Ca13  1  0.644137  0.375579  0.771510  1
  Ca  Ca14  1  0.875579  0.144137  0.728490  1
  Ca  Ca15  1  0.855863  0.124421  0.271510  1
  Sn  Sn16  1  0.066404  0.303201  0.091908  1
  Sn  Sn17  1  0.433596  0.196799  0.591908  1
  Sn  Sn18  1  0.433656  0.433656  0.084993  1
  Sn  Sn19  1  0.488025  0.041245  0.336378  1
  Sn  Sn20  1  0.779746  0.779746  0.780739  1
  Sn  Sn21  1  0.988025  0.541245  0.163622  1
  Sn  Sn22  1  0.541245  0.988025  0.163622  1
  Sn  Sn23  1  0.303201  0.066404  0.091908  1
  Sn  Sn24  1  0.011975  0.458755  0.836378  1
  Sn  Sn25  1  0.511975  0.958755  0.663622  1
  Sn  Sn26  1  0.196799  0.433596  0.591908  1
  Sn  Sn27  1  0.720254  0.720254  0.280739  1
  Sn  Sn28  1  0.566344  0.566344  0.915007  1
  Sn  Sn29  1  0.279746  0.279746  0.719261  1
  Sn  Sn30  1  0.566404  0.803201  0.408092  1
  Sn  Sn31  1  0.803201  0.566404  0.408092  1
  Sn  Sn32  1  0.041245  0.488025  0.336378  1
  Sn  Sn33  1  0.066344  0.066344  0.584993  1
  Sn  Sn34  1  0.458755  0.011975  0.836378  1
  Sn  Sn35  1  0.220254  0.220254  0.219261  1
  Sn  Sn36  1  0.696799  0.933596  0.908092  1
  Sn  Sn37  1  0.958755  0.511975  0.663622  1
  Sn  Sn38  1  0.933596  0.696799  0.908092  1
  Sn  Sn39  1  0.933656  0.933656  0.415007  1
