# generated using pymatgen
data_Pr7CoI12
_symmetry_space_group_name_H-M   'P 1'
_cell_length_a   10.04951308
_cell_length_b   10.04951308
_cell_length_c   10.04951308
_cell_angle_alpha   107.08823528
_cell_angle_beta   107.08823528
_cell_angle_gamma   107.08823528
_symmetry_Int_Tables_number   1
_chemical_formula_structural   Pr7CoI12
_chemical_formula_sum   'Pr7 Co1 I12'
_cell_volume   843.19868057
_cell_formula_units_Z   1
loop_
 _symmetry_equiv_pos_site_id
 _symmetry_equiv_pos_as_xyz
  1  'x, y, z'
loop_
 _atom_site_type_symbol
 _atom_site_label
 _atom_site_symmetry_multiplicity
 _atom_site_fract_x
 _atom_site_fract_y
 _atom_site_fract_z
 _atom_site_occupancy
  Pr  Pr0  1  0.026884  0.299070  0.098021  1
  Pr  Pr1  1  0.973116  0.700930  0.901979  1
  Pr  Pr2  1  0.901979  0.973116  0.700930  1
  Pr  Pr3  1  0.700930  0.901979  0.973116  1
  Pr  Pr4  1  0.500000  0.500000  0.500000  1
  Pr  Pr5  1  0.098021  0.026884  0.299070  1
  Pr  Pr6  1  0.299070  0.098021  0.026884  1
  Co  Co7  1  0.000000  0.000000  0.000000  1
  I  I8  1  0.469108  0.158177  0.389338  1
  I  I9  1  0.530892  0.841823  0.610662  1
  I  I10  1  0.682346  0.227783  0.074670  1
  I  I11  1  0.610662  0.530892  0.841823  1
  I  I12  1  0.074670  0.682346  0.227783  1
  I  I13  1  0.317654  0.772217  0.925330  1
  I  I14  1  0.925330  0.317654  0.772217  1
  I  I15  1  0.227783  0.074670  0.682346  1
  I  I16  1  0.772217  0.925330  0.317654  1
  I  I17  1  0.158177  0.389338  0.469108  1
  I  I18  1  0.841823  0.610662  0.530892  1
  I  I19  1  0.389338  0.469108  0.158177  1
