# generated using pymatgen
data_Ta
_symmetry_space_group_name_H-M   'P 1'
_cell_length_a   10.24957404
_cell_length_b   10.24957404
_cell_length_c   5.34421987
_cell_angle_alpha   90.00000000
_cell_angle_beta   90.00000000
_cell_angle_gamma   90.00000000
_symmetry_Int_Tables_number   1
_chemical_formula_structural   Ta
_chemical_formula_sum   Ta30
_cell_volume   561.43043437
_cell_formula_units_Z   30
loop_
 _symmetry_equiv_pos_site_id
 _symmetry_equiv_pos_as_xyz
  1  'x, y, z'
loop_
 _atom_site_type_symbol
 _atom_site_label
 _atom_site_symmetry_multiplicity
 _atom_site_fract_x
 _atom_site_fract_y
 _atom_site_fract_z
 _atom_site_occupancy
  Ta  Ta0  1  0.965334  0.370954  0.000000  1
  Ta  Ta1  1  0.261126  0.932835  0.500000  1
  Ta  Ta2  1  0.318645  0.681355  0.750025  1
  Ta  Ta3  1  0.129046  0.465334  0.500000  1
  Ta  Ta4  1  0.870954  0.534666  0.500000  1
  Ta  Ta5  1  0.895267  0.104733  0.000000  1
  Ta  Ta6  1  0.818645  0.818645  0.749975  1
  Ta  Ta7  1  0.181355  0.181355  0.250025  1
  Ta  Ta8  1  0.738874  0.067165  0.500000  1
  Ta  Ta9  1  0.932835  0.261126  0.500000  1
  Ta  Ta10  1  0.395267  0.395267  0.500000  1
  Ta  Ta11  1  0.500000  0.500000  0.000000  1
  Ta  Ta12  1  0.534666  0.870954  0.500000  1
  Ta  Ta13  1  0.567165  0.761126  0.000000  1
  Ta  Ta14  1  0.034666  0.629046  0.000000  1
  Ta  Ta15  1  0.604733  0.604733  0.500000  1
  Ta  Ta16  1  0.318645  0.681355  0.249975  1
  Ta  Ta17  1  0.681355  0.318645  0.249975  1
  Ta  Ta18  1  0.000000  0.000000  0.500000  1
  Ta  Ta19  1  0.818645  0.818645  0.250025  1
  Ta  Ta20  1  0.681355  0.318645  0.750025  1
  Ta  Ta21  1  0.432835  0.238874  0.000000  1
  Ta  Ta22  1  0.181355  0.181355  0.749975  1
  Ta  Ta23  1  0.761126  0.567165  0.000000  1
  Ta  Ta24  1  0.370954  0.965334  0.000000  1
  Ta  Ta25  1  0.067165  0.738874  0.500000  1
  Ta  Ta26  1  0.629046  0.034666  0.000000  1
  Ta  Ta27  1  0.465334  0.129046  0.500000  1
  Ta  Ta28  1  0.238874  0.432835  0.000000  1
  Ta  Ta29  1  0.104733  0.895267  0.000000  1
