# generated using pymatgen
data_YbHg6As4Br7
_symmetry_space_group_name_H-M   'P 1'
_cell_length_a   12.68179274
_cell_length_b   12.68179274
_cell_length_c   12.68179274
_cell_angle_alpha   90.00000000
_cell_angle_beta   90.00000000
_cell_angle_gamma   90.00000000
_symmetry_Int_Tables_number   1
_chemical_formula_structural   YbHg6As4Br7
_chemical_formula_sum   'Yb4 Hg24 As16 Br28'
_cell_volume   2039.58567738
_cell_formula_units_Z   4
loop_
 _symmetry_equiv_pos_site_id
 _symmetry_equiv_pos_as_xyz
  1  'x, y, z'
loop_
 _atom_site_type_symbol
 _atom_site_label
 _atom_site_symmetry_multiplicity
 _atom_site_fract_x
 _atom_site_fract_y
 _atom_site_fract_z
 _atom_site_occupancy
  Yb  Yb0  1  0.500000  0.500000  0.500000  1
  Yb  Yb1  1  0.000000  0.000000  0.500000  1
  Yb  Yb2  1  0.000000  0.500000  0.000000  1
  Yb  Yb3  1  0.500000  0.000000  0.000000  1
  Hg  Hg4  1  0.190986  0.293894  0.459865  1
  Hg  Hg5  1  0.706106  0.540135  0.809014  1
  Hg  Hg6  1  0.293894  0.040135  0.690986  1
  Hg  Hg7  1  0.459865  0.190986  0.293894  1
  Hg  Hg8  1  0.793894  0.459865  0.309014  1
  Hg  Hg9  1  0.959865  0.190986  0.206106  1
  Hg  Hg10  1  0.190986  0.206106  0.959865  1
  Hg  Hg11  1  0.309014  0.793894  0.459865  1
  Hg  Hg12  1  0.309014  0.706106  0.959865  1
  Hg  Hg13  1  0.959865  0.309014  0.706106  1
  Hg  Hg14  1  0.793894  0.040135  0.809014  1
  Hg  Hg15  1  0.040135  0.690986  0.293894  1
  Hg  Hg16  1  0.206106  0.540135  0.690986  1
  Hg  Hg17  1  0.206106  0.959865  0.190986  1
  Hg  Hg18  1  0.690986  0.206106  0.540135  1
  Hg  Hg19  1  0.540135  0.690986  0.206106  1
  Hg  Hg20  1  0.040135  0.809014  0.793894  1
  Hg  Hg21  1  0.459865  0.309014  0.793894  1
  Hg  Hg22  1  0.809014  0.706106  0.540135  1
  Hg  Hg23  1  0.540135  0.809014  0.706106  1
  Hg  Hg24  1  0.690986  0.293894  0.040135  1
  Hg  Hg25  1  0.706106  0.959865  0.309014  1
  Hg  Hg26  1  0.293894  0.459865  0.190986  1
  Hg  Hg27  1  0.809014  0.793894  0.040135  1
  As  As28  1  0.270854  0.229146  0.770854  1
  As  As29  1  0.770854  0.270854  0.229146  1
  As  As30  1  0.770854  0.229146  0.729146  1
  As  As31  1  0.729146  0.729146  0.729146  1
  As  As32  1  0.342115  0.842115  0.657885  1
  As  As33  1  0.657885  0.157885  0.342115  1
  As  As34  1  0.157885  0.342115  0.657885  1
  As  As35  1  0.657885  0.342115  0.842115  1
  As  As36  1  0.157885  0.157885  0.157885  1
  As  As37  1  0.270854  0.270854  0.270854  1
  As  As38  1  0.729146  0.770854  0.229146  1
  As  As39  1  0.842115  0.657885  0.342115  1
  As  As40  1  0.842115  0.842115  0.842115  1
  As  As41  1  0.229146  0.729146  0.770854  1
  As  As42  1  0.229146  0.770854  0.270854  1
  As  As43  1  0.342115  0.657885  0.157885  1
  Br  Br44  1  0.544442  0.452767  0.283393  1
  Br  Br45  1  0.455558  0.952767  0.216607  1
  Br  Br46  1  0.216607  0.044442  0.452767  1
  Br  Br47  1  0.716607  0.044442  0.047233  1
  Br  Br48  1  0.783393  0.955558  0.547233  1
  Br  Br49  1  0.952767  0.216607  0.455558  1
  Br  Br50  1  0.716607  0.455558  0.547233  1
  Br  Br51  1  0.000000  0.000000  0.000000  1
  Br  Br52  1  0.952767  0.283393  0.955558  1
  Br  Br53  1  0.452767  0.283393  0.544442  1
  Br  Br54  1  0.283393  0.544442  0.452767  1
  Br  Br55  1  0.452767  0.216607  0.044442  1
  Br  Br56  1  0.544442  0.047233  0.783393  1
  Br  Br57  1  0.000000  0.500000  0.500000  1
  Br  Br58  1  0.500000  0.000000  0.500000  1
  Br  Br59  1  0.283393  0.955558  0.952767  1
  Br  Br60  1  0.500000  0.500000  0.000000  1
  Br  Br61  1  0.455558  0.547233  0.716607  1
  Br  Br62  1  0.783393  0.544442  0.047233  1
  Br  Br63  1  0.547233  0.716607  0.455558  1
  Br  Br64  1  0.044442  0.452767  0.216607  1
  Br  Br65  1  0.547233  0.783393  0.955558  1
  Br  Br66  1  0.955558  0.952767  0.283393  1
  Br  Br67  1  0.047233  0.783393  0.544442  1
  Br  Br68  1  0.216607  0.455558  0.952767  1
  Br  Br69  1  0.044442  0.047233  0.716607  1
  Br  Br70  1  0.047233  0.716607  0.044442  1
  Br  Br71  1  0.955558  0.547233  0.783393  1
