# generated using pymatgen
data_Li3Ni2(PO4)3
_symmetry_space_group_name_H-M   'P 1'
_cell_length_a   8.98881666
_cell_length_b   8.98881666
_cell_length_c   8.98881666
_cell_angle_alpha   56.21194094
_cell_angle_beta   56.21194094
_cell_angle_gamma   56.21194094
_symmetry_Int_Tables_number   1
_chemical_formula_structural   Li3Ni2(PO4)3
_chemical_formula_sum   'Li6 Ni4 P6 O24'
_cell_volume   468.53593721
_cell_formula_units_Z   2
loop_
 _symmetry_equiv_pos_site_id
 _symmetry_equiv_pos_as_xyz
  1  'x, y, z'
loop_
 _atom_site_type_symbol
 _atom_site_label
 _atom_site_symmetry_multiplicity
 _atom_site_fract_x
 _atom_site_fract_y
 _atom_site_fract_z
 _atom_site_occupancy
  Li  Li0  1  0.921346  0.662350  0.266548  1
  Li  Li1  1  0.078654  0.337650  0.733452  1
  Li  Li2  1  0.733452  0.078654  0.337650  1
  Li  Li3  1  0.337650  0.733452  0.078654  1
  Li  Li4  1  0.266548  0.921346  0.662350  1
  Li  Li5  1  0.662350  0.266548  0.921346  1
  Ni  Ni6  1  0.855906  0.855906  0.855906  1
  Ni  Ni7  1  0.347234  0.347234  0.347234  1
  Ni  Ni8  1  0.652766  0.652766  0.652766  1
  Ni  Ni9  1  0.144094  0.144094  0.144094  1
  P  P10  1  0.253867  0.541651  0.956534  1
  P  P11  1  0.541651  0.956534  0.253867  1
  P  P12  1  0.746133  0.458349  0.043466  1
  P  P13  1  0.043466  0.746133  0.458349  1
  P  P14  1  0.458349  0.043466  0.746133  1
  P  P15  1  0.956534  0.253867  0.541651  1
  O  O16  1  0.209165  0.542740  0.152752  1
  O  O17  1  0.498473  0.167600  0.531539  1
  O  O18  1  0.138466  0.870438  0.253544  1
  O  O19  1  0.805230  0.607693  0.010482  1
  O  O20  1  0.832400  0.468461  0.501527  1
  O  O21  1  0.129562  0.746456  0.861534  1
  O  O22  1  0.542740  0.152752  0.209165  1
  O  O23  1  0.392307  0.989518  0.194770  1
  O  O24  1  0.531539  0.498473  0.167600  1
  O  O25  1  0.847248  0.790835  0.457260  1
  O  O26  1  0.253544  0.138466  0.870438  1
  O  O27  1  0.746456  0.861534  0.129562  1
  O  O28  1  0.167600  0.531539  0.498473  1
  O  O29  1  0.010482  0.805230  0.607693  1
  O  O30  1  0.989518  0.194770  0.392307  1
  O  O31  1  0.468461  0.501527  0.832400  1
  O  O32  1  0.790835  0.457260  0.847248  1
  O  O33  1  0.861534  0.129562  0.746456  1
  O  O34  1  0.870438  0.253544  0.138466  1
  O  O35  1  0.607693  0.010482  0.805230  1
  O  O36  1  0.194770  0.392307  0.989518  1
  O  O37  1  0.152752  0.209165  0.542740  1
  O  O38  1  0.501527  0.832400  0.468461  1
  O  O39  1  0.457260  0.847248  0.790835  1
