# generated using pymatgen
data_Na2ZrSi2O7
_symmetry_space_group_name_H-M   'P 1'
_cell_length_a   5.52997248
_cell_length_b   6.67475686
_cell_length_c   9.00019785
_cell_angle_alpha   70.84751981
_cell_angle_beta   87.69456773
_cell_angle_gamma   86.01152245
_symmetry_Int_Tables_number   1
_chemical_formula_structural   Na2ZrSi2O7
_chemical_formula_sum   'Na4 Zr2 Si4 O14'
_cell_volume   313.00670680
_cell_formula_units_Z   2
loop_
 _symmetry_equiv_pos_site_id
 _symmetry_equiv_pos_as_xyz
  1  'x, y, z'
loop_
 _atom_site_type_symbol
 _atom_site_label
 _atom_site_symmetry_multiplicity
 _atom_site_fract_x
 _atom_site_fract_y
 _atom_site_fract_z
 _atom_site_occupancy
  Na  Na0  1  0.737343  0.880196  0.104202  1
  Na  Na1  1  0.262657  0.119804  0.895798  1
  Na  Na2  1  0.239578  0.342234  0.491018  1
  Na  Na3  1  0.760422  0.657766  0.508982  1
  Zr  Zr4  1  0.222827  0.709914  0.728421  1
  Zr  Zr5  1  0.777173  0.290086  0.271579  1
  Si  Si6  1  0.311629  0.936722  0.334544  1
  Si  Si7  1  0.772802  0.353260  0.854251  1
  Si  Si8  1  0.688371  0.063278  0.665456  1
  Si  Si9  1  0.227198  0.646740  0.145749  1
  O  O10  1  0.889572  0.875616  0.665250  1
  O  O11  1  0.717823  0.279292  0.513958  1
  O  O12  1  0.279351  0.883067  0.165575  1
  O  O13  1  0.816733  0.287155  0.041965  1
  O  O14  1  0.406423  0.995430  0.676520  1
  O  O15  1  0.593577  0.004570  0.323480  1
  O  O16  1  0.023847  0.432321  0.755248  1
  O  O17  1  0.110428  0.124384  0.334750  1
  O  O18  1  0.536488  0.509093  0.785309  1
  O  O19  1  0.463512  0.490907  0.214691  1
  O  O20  1  0.282177  0.720708  0.486042  1
  O  O21  1  0.183267  0.712845  0.958035  1
  O  O22  1  0.976153  0.567679  0.244752  1
  O  O23  1  0.720649  0.116933  0.834425  1
