# generated using pymatgen
data_Ga2Au7
_symmetry_space_group_name_H-M   'P 1'
_cell_length_a   7.84077924
_cell_length_b   7.84077924
_cell_length_c   9.02118445
_cell_angle_alpha   90.00000000
_cell_angle_beta   90.00000000
_cell_angle_gamma   120.00000000
_symmetry_Int_Tables_number   1
_chemical_formula_structural   Ga2Au7
_chemical_formula_sum   'Ga6 Au21'
_cell_volume   480.30006654
_cell_formula_units_Z   3
loop_
 _symmetry_equiv_pos_site_id
 _symmetry_equiv_pos_as_xyz
  1  'x, y, z'
loop_
 _atom_site_type_symbol
 _atom_site_label
 _atom_site_symmetry_multiplicity
 _atom_site_fract_x
 _atom_site_fract_y
 _atom_site_fract_z
 _atom_site_occupancy
  Ga  Ga0  1  0.333333  0.666667  0.677344  1
  Ga  Ga1  1  0.000000  0.000000  0.189580  1
  Ga  Ga2  1  0.333333  0.666667  0.322656  1
  Ga  Ga3  1  0.666667  0.333333  0.322656  1
  Ga  Ga4  1  0.666667  0.333333  0.677344  1
  Ga  Ga5  1  0.000000  0.000000  0.810420  1
  Au  Au6  1  0.000000  0.360820  0.831276  1
  Au  Au7  1  0.686124  0.000000  0.331258  1
  Au  Au8  1  0.000000  0.722640  0.000000  1
  Au  Au9  1  0.000000  0.686124  0.331258  1
  Au  Au10  1  0.313876  0.313876  0.668742  1
  Au  Au11  1  0.277360  0.277360  0.000000  1
  Au  Au12  1  0.000000  0.686124  0.668742  1
  Au  Au13  1  0.722640  0.000000  0.000000  1
  Au  Au14  1  0.360820  0.000000  0.831276  1
  Au  Au15  1  0.639180  0.639180  0.168724  1
  Au  Au16  1  0.368292  0.000000  0.500000  1
  Au  Au17  1  0.666667  0.333333  0.000000  1
  Au  Au18  1  0.360820  0.000000  0.168724  1
  Au  Au19  1  0.000000  0.000000  0.500000  1
  Au  Au20  1  0.313876  0.313876  0.331258  1
  Au  Au21  1  0.631708  0.631708  0.500000  1
  Au  Au22  1  0.686124  0.000000  0.668742  1
  Au  Au23  1  0.639180  0.639180  0.831276  1
  Au  Au24  1  0.000000  0.368292  0.500000  1
  Au  Au25  1  0.333333  0.666667  0.000000  1
  Au  Au26  1  0.000000  0.360820  0.168724  1
