# generated using pymatgen
data_Zr2CS
_symmetry_space_group_name_H-M   'P 1'
_cell_length_a   3.43299833
_cell_length_b   3.43299833
_cell_length_c   12.25626273
_cell_angle_alpha   90.00000000
_cell_angle_beta   90.00000000
_cell_angle_gamma   120.00000000
_symmetry_Int_Tables_number   1
_chemical_formula_structural   Zr2CS
_chemical_formula_sum   'Zr4 C2 S2'
_cell_volume   125.09382696
_cell_formula_units_Z   2
loop_
 _symmetry_equiv_pos_site_id
 _symmetry_equiv_pos_as_xyz
  1  'x, y, z'
loop_
 _atom_site_type_symbol
 _atom_site_label
 _atom_site_symmetry_multiplicity
 _atom_site_fract_x
 _atom_site_fract_y
 _atom_site_fract_z
 _atom_site_occupancy
  Zr  Zr0  1  0.333333  0.666667  0.399287  1
  Zr  Zr1  1  0.666667  0.333333  0.899287  1
  Zr  Zr2  1  0.666667  0.333333  0.600713  1
  Zr  Zr3  1  0.333333  0.666667  0.100713  1
  C  C4  1  0.000000  0.000000  0.500000  1
  C  C5  1  0.000000  0.000000  0.000000  1
  S  S6  1  0.666667  0.333333  0.250000  1
  S  S7  1  0.333333  0.666667  0.750000  1
