# generated using pymatgen
data_KRe2O4F7
_symmetry_space_group_name_H-M   'P 1'
_cell_length_a   5.68977420
_cell_length_b   5.31460289
_cell_length_c   15.81942243
_cell_angle_alpha   90.00000000
_cell_angle_beta   105.77802277
_cell_angle_gamma   90.00000000
_symmetry_Int_Tables_number   1
_chemical_formula_structural   KRe2O4F7
_chemical_formula_sum   'K2 Re4 O8 F14'
_cell_volume   460.33823951
_cell_formula_units_Z   2
loop_
 _symmetry_equiv_pos_site_id
 _symmetry_equiv_pos_as_xyz
  1  'x, y, z'
loop_
 _atom_site_type_symbol
 _atom_site_label
 _atom_site_symmetry_multiplicity
 _atom_site_fract_x
 _atom_site_fract_y
 _atom_site_fract_z
 _atom_site_occupancy
  K  K0  1  0.500000  0.306859  0.750000  1
  K  K1  1  0.500000  0.693141  0.250000  1
  Re  Re2  1  0.125226  0.752866  0.886676  1
  Re  Re3  1  0.874774  0.752866  0.613324  1
  Re  Re4  1  0.125226  0.247134  0.386676  1
  Re  Re5  1  0.874774  0.247134  0.113324  1
  O  O6  1  0.129163  0.408476  0.103795  1
  O  O7  1  0.753468  0.134324  0.009677  1
  O  O8  1  0.870837  0.591524  0.896205  1
  O  O9  1  0.753468  0.865676  0.509677  1
  O  O10  1  0.870837  0.408476  0.396205  1
  O  O11  1  0.246532  0.865676  0.990323  1
  O  O12  1  0.129163  0.591524  0.603795  1
  O  O13  1  0.246532  0.134324  0.490323  1
  F  F14  1  0.321110  0.460258  0.895977  1
  F  F15  1  0.000000  0.621858  0.750000  1
  F  F16  1  0.048942  0.046005  0.661393  1
  F  F17  1  0.000000  0.378142  0.250000  1
  F  F18  1  0.370224  0.887163  0.832454  1
  F  F19  1  0.321110  0.539742  0.395977  1
  F  F20  1  0.629776  0.112837  0.167546  1
  F  F21  1  0.951058  0.046005  0.838607  1
  F  F22  1  0.370224  0.112837  0.332454  1
  F  F23  1  0.678890  0.539742  0.104023  1
  F  F24  1  0.951058  0.953995  0.338607  1
  F  F25  1  0.629776  0.887163  0.667546  1
  F  F26  1  0.048942  0.953995  0.161393  1
  F  F27  1  0.678890  0.460258  0.604023  1
