# generated using pymatgen
data_Zn2TeBr2O3
_symmetry_space_group_name_H-M   'P 1'
_cell_length_a   7.83068107
_cell_length_b   10.74964739
_cell_length_c   16.48590307
_cell_angle_alpha   90.00000000
_cell_angle_beta   90.00000000
_cell_angle_gamma   90.00000000
_symmetry_Int_Tables_number   1
_chemical_formula_structural   Zn2TeBr2O3
_chemical_formula_sum   'Zn16 Te8 Br16 O24'
_cell_volume   1387.73485725
_cell_formula_units_Z   8
loop_
 _symmetry_equiv_pos_site_id
 _symmetry_equiv_pos_as_xyz
  1  'x, y, z'
loop_
 _atom_site_type_symbol
 _atom_site_label
 _atom_site_symmetry_multiplicity
 _atom_site_fract_x
 _atom_site_fract_y
 _atom_site_fract_z
 _atom_site_occupancy
  Zn  Zn0  1  0.399762  0.235420  0.977961  1
  Zn  Zn1  1  0.342425  0.989570  0.393169  1
  Zn  Zn2  1  0.657575  0.489570  0.893169  1
  Zn  Zn3  1  0.657575  0.010430  0.606831  1
  Zn  Zn4  1  0.600238  0.764580  0.022039  1
  Zn  Zn5  1  0.399762  0.264580  0.522039  1
  Zn  Zn6  1  0.842425  0.510430  0.393169  1
  Zn  Zn7  1  0.600238  0.735420  0.477961  1
  Zn  Zn8  1  0.842425  0.989570  0.106831  1
  Zn  Zn9  1  0.157575  0.010430  0.893169  1
  Zn  Zn10  1  0.342425  0.510430  0.106831  1
  Zn  Zn11  1  0.100238  0.764580  0.477961  1
  Zn  Zn12  1  0.899762  0.235420  0.522039  1
  Zn  Zn13  1  0.157575  0.489570  0.606831  1
  Zn  Zn14  1  0.100238  0.735420  0.022039  1
  Zn  Zn15  1  0.899762  0.264580  0.977961  1
  Te  Te16  1  0.788527  0.969353  0.407426  1
  Te  Te17  1  0.288527  0.530647  0.407426  1
  Te  Te18  1  0.711473  0.469353  0.592574  1
  Te  Te19  1  0.211473  0.469353  0.907426  1
  Te  Te20  1  0.288527  0.969353  0.092574  1
  Te  Te21  1  0.788527  0.530647  0.092574  1
  Te  Te22  1  0.211473  0.030647  0.592574  1
  Te  Te23  1  0.711473  0.030647  0.907426  1
  Br  Br24  1  0.342789  0.415587  0.709878  1
  Br  Br25  1  0.936159  0.294521  0.374373  1
  Br  Br26  1  0.157211  0.584413  0.209878  1
  Br  Br27  1  0.563841  0.705479  0.874373  1
  Br  Br28  1  0.157211  0.915587  0.290122  1
  Br  Br29  1  0.436159  0.294521  0.125627  1
  Br  Br30  1  0.063841  0.705479  0.625627  1
  Br  Br31  1  0.657211  0.584413  0.290122  1
  Br  Br32  1  0.936159  0.205479  0.125627  1
  Br  Br33  1  0.657211  0.915587  0.209878  1
  Br  Br34  1  0.342789  0.084413  0.790122  1
  Br  Br35  1  0.842789  0.415587  0.790122  1
  Br  Br36  1  0.436159  0.205479  0.374373  1
  Br  Br37  1  0.842789  0.084413  0.709878  1
  Br  Br38  1  0.063841  0.794521  0.874373  1
  Br  Br39  1  0.563841  0.794521  0.625627  1
  O  O40  1  0.856190  0.811943  0.448401  1
  O  O41  1  0.356190  0.688057  0.448401  1
  O  O42  1  0.643810  0.188057  0.948401  1
  O  O43  1  0.697873  0.558494  0.490543  1
  O  O44  1  0.197873  0.941506  0.490543  1
  O  O45  1  0.438197  0.092386  0.578909  1
  O  O46  1  0.197873  0.558494  0.009457  1
  O  O47  1  0.356190  0.811943  0.051599  1
  O  O48  1  0.561803  0.907614  0.421091  1
  O  O49  1  0.143810  0.188057  0.551599  1
  O  O50  1  0.697873  0.941506  0.009457  1
  O  O51  1  0.643810  0.311943  0.551599  1
  O  O52  1  0.302127  0.058494  0.990543  1
  O  O53  1  0.938197  0.407614  0.578909  1
  O  O54  1  0.561803  0.592386  0.078909  1
  O  O55  1  0.061803  0.907614  0.078909  1
  O  O56  1  0.802127  0.058494  0.509457  1
  O  O57  1  0.302127  0.441506  0.509457  1
  O  O58  1  0.061803  0.592386  0.421091  1
  O  O59  1  0.143810  0.311943  0.948401  1
  O  O60  1  0.856190  0.688057  0.051599  1
  O  O61  1  0.802127  0.441506  0.990543  1
  O  O62  1  0.438197  0.407614  0.921091  1
  O  O63  1  0.938197  0.092386  0.921091  1
