# generated using pymatgen
data_Tl2Ge2Se5
_symmetry_space_group_name_H-M   'P 1'
_cell_length_a   11.33730151
_cell_length_b   11.33730151
_cell_length_c   9.28403191
_cell_angle_alpha   78.43574228
_cell_angle_beta   101.56425772
_cell_angle_gamma   90.26436675
_symmetry_Int_Tables_number   1
_chemical_formula_structural   Tl2Ge2Se5
_chemical_formula_sum   'Tl8 Ge8 Se20'
_cell_volume   1144.57482944
_cell_formula_units_Z   4
loop_
 _symmetry_equiv_pos_site_id
 _symmetry_equiv_pos_as_xyz
  1  'x, y, z'
loop_
 _atom_site_type_symbol
 _atom_site_label
 _atom_site_symmetry_multiplicity
 _atom_site_fract_x
 _atom_site_fract_y
 _atom_site_fract_z
 _atom_site_occupancy
  Tl  Tl0  1  0.455112  0.801951  0.096970  1
  Tl  Tl1  1  0.801951  0.455112  0.403030  1
  Tl  Tl2  1  0.544888  0.198049  0.903030  1
  Tl  Tl3  1  0.198049  0.544888  0.596970  1
  Tl  Tl4  1  0.798700  0.078160  0.403577  1
  Tl  Tl5  1  0.078160  0.798700  0.096423  1
  Tl  Tl6  1  0.201300  0.921840  0.596423  1
  Tl  Tl7  1  0.921840  0.201300  0.903577  1
  Ge  Ge8  1  0.521456  0.732755  0.591688  1
  Ge  Ge9  1  0.732755  0.521456  0.908312  1
  Ge  Ge10  1  0.478544  0.267245  0.408312  1
  Ge  Ge11  1  0.267245  0.478544  0.091688  1
  Ge  Ge12  1  0.270147  0.136056  0.109845  1
  Ge  Ge13  1  0.136056  0.270147  0.390155  1
  Ge  Ge14  1  0.729853  0.863944  0.890155  1
  Ge  Ge15  1  0.863944  0.729853  0.609845  1
  Se  Se16  1  0.532395  0.892724  0.732227  1
  Se  Se17  1  0.892724  0.532395  0.767773  1
  Se  Se18  1  0.467605  0.107276  0.267773  1
  Se  Se19  1  0.107276  0.467605  0.232227  1
  Se  Se20  1  0.328497  0.239352  0.561930  1
  Se  Se21  1  0.239352  0.328497  0.938070  1
  Se  Se22  1  0.671503  0.760648  0.438070  1
  Se  Se23  1  0.760648  0.671503  0.061930  1
  Se  Se24  1  0.332701  0.758485  0.430320  1
  Se  Se25  1  0.758485  0.332701  0.069680  1
  Se  Se26  1  0.667299  0.241515  0.569680  1
  Se  Se27  1  0.241515  0.667299  0.930320  1
  Se  Se28  1  0.756340  0.002086  0.046253  1
  Se  Se29  1  0.002086  0.756340  0.453747  1
  Se  Se30  1  0.243660  0.997914  0.953747  1
  Se  Se31  1  0.997914  0.243660  0.546253  1
  Se  Se32  1  0.891186  0.891186  0.750000  1
  Se  Se33  1  0.108814  0.108814  0.250000  1
  Se  Se34  1  0.535392  0.535392  0.750000  1
  Se  Se35  1  0.464608  0.464608  0.250000  1
