# generated using pymatgen
data_Sr2P2O7
_symmetry_space_group_name_H-M   'P 1'
_cell_length_a   5.46693751
_cell_length_b   9.02767647
_cell_length_c   13.31989222
_cell_angle_alpha   90.00000000
_cell_angle_beta   90.00000000
_cell_angle_gamma   90.00000000
_symmetry_Int_Tables_number   1
_chemical_formula_structural   Sr2P2O7
_chemical_formula_sum   'Sr8 P8 O28'
_cell_volume   657.38653904
_cell_formula_units_Z   4
loop_
 _symmetry_equiv_pos_site_id
 _symmetry_equiv_pos_as_xyz
  1  'x, y, z'
loop_
 _atom_site_type_symbol
 _atom_site_label
 _atom_site_symmetry_multiplicity
 _atom_site_fract_x
 _atom_site_fract_y
 _atom_site_fract_z
 _atom_site_occupancy
  Sr  Sr0  1  0.250000  0.626062  0.913253  1
  Sr  Sr1  1  0.750000  0.373938  0.086747  1
  Sr  Sr2  1  0.250000  0.126062  0.586747  1
  Sr  Sr3  1  0.750000  0.873938  0.413253  1
  Sr  Sr4  1  0.250000  0.673269  0.239253  1
  Sr  Sr5  1  0.750000  0.326731  0.760747  1
  Sr  Sr6  1  0.250000  0.173269  0.260747  1
  Sr  Sr7  1  0.750000  0.826731  0.739253  1
  P  P8  1  0.750000  0.223362  0.464746  1
  P  P9  1  0.250000  0.776638  0.535254  1
  P  P10  1  0.750000  0.723362  0.035254  1
  P  P11  1  0.250000  0.276638  0.964746  1
  P  P12  1  0.750000  0.467426  0.317515  1
  P  P13  1  0.250000  0.532574  0.682485  1
  P  P14  1  0.750000  0.967426  0.182485  1
  P  P15  1  0.250000  0.032574  0.817515  1
  O  O16  1  0.750000  0.633882  0.334523  1
  O  O17  1  0.250000  0.366118  0.665477  1
  O  O18  1  0.750000  0.133882  0.165477  1
  O  O19  1  0.250000  0.866118  0.834523  1
  O  O20  1  0.750000  0.226575  0.579386  1
  O  O21  1  0.250000  0.773425  0.420614  1
  O  O22  1  0.750000  0.726575  0.920614  1
  O  O23  1  0.250000  0.273425  0.079386  1
  O  O24  1  0.018955  0.853990  0.576093  1
  O  O25  1  0.518955  0.146010  0.423907  1
  O  O26  1  0.481045  0.353990  0.923907  1
  O  O27  1  0.981045  0.646010  0.076093  1
  O  O28  1  0.981045  0.146010  0.423907  1
  O  O29  1  0.481045  0.853990  0.576093  1
  O  O30  1  0.518955  0.646010  0.076093  1
  O  O31  1  0.018955  0.353990  0.923907  1
  O  O32  1  0.250000  0.105481  0.929504  1
  O  O33  1  0.750000  0.894519  0.070496  1
  O  O34  1  0.250000  0.605481  0.570496  1
  O  O35  1  0.750000  0.394519  0.429504  1
  O  O36  1  0.017907  0.083206  0.762054  1
  O  O37  1  0.517907  0.916794  0.237946  1
  O  O38  1  0.482093  0.583206  0.737946  1
  O  O39  1  0.982093  0.416794  0.262055  1
  O  O40  1  0.982093  0.916794  0.237946  1
  O  O41  1  0.482093  0.083206  0.762054  1
  O  O42  1  0.517907  0.416794  0.262055  1
  O  O43  1  0.017907  0.583206  0.737946  1
