# generated using pymatgen
data_BaYb2NiO5
_symmetry_space_group_name_H-M   'P 1'
_cell_length_a   5.64831852
_cell_length_b   7.02993951
_cell_length_c   12.13034951
_cell_angle_alpha   90.00000000
_cell_angle_beta   90.00000000
_cell_angle_gamma   90.00000000
_symmetry_Int_Tables_number   1
_chemical_formula_structural   BaYb2NiO5
_chemical_formula_sum   'Ba4 Yb8 Ni4 O20'
_cell_volume   481.66388234
_cell_formula_units_Z   4
loop_
 _symmetry_equiv_pos_site_id
 _symmetry_equiv_pos_as_xyz
  1  'x, y, z'
loop_
 _atom_site_type_symbol
 _atom_site_label
 _atom_site_symmetry_multiplicity
 _atom_site_fract_x
 _atom_site_fract_y
 _atom_site_fract_z
 _atom_site_occupancy
  Ba  Ba0  1  0.250000  0.567969  0.603697  1
  Ba  Ba1  1  0.250000  0.932031  0.103697  1
  Ba  Ba2  1  0.750000  0.067969  0.896303  1
  Ba  Ba3  1  0.750000  0.432031  0.396303  1
  Yb  Yb4  1  0.750000  0.892479  0.575502  1
  Yb  Yb5  1  0.250000  0.114294  0.703963  1
  Yb  Yb6  1  0.250000  0.385706  0.203963  1
  Yb  Yb7  1  0.750000  0.614294  0.796037  1
  Yb  Yb8  1  0.250000  0.107521  0.424498  1
  Yb  Yb9  1  0.250000  0.392479  0.924498  1
  Yb  Yb10  1  0.750000  0.607521  0.075502  1
  Yb  Yb11  1  0.750000  0.885706  0.296037  1
  Ni  Ni12  1  0.750000  0.300481  0.655120  1
  Ni  Ni13  1  0.250000  0.699519  0.344880  1
  Ni  Ni14  1  0.250000  0.800481  0.844880  1
  Ni  Ni15  1  0.750000  0.199519  0.155120  1
  O  O16  1  0.750000  0.941818  0.102931  1
  O  O17  1  0.250000  0.058182  0.897069  1
  O  O18  1  0.250000  0.441818  0.397069  1
  O  O19  1  0.750000  0.558182  0.602931  1
  O  O20  1  0.516232  0.344824  0.765395  1
  O  O21  1  0.016232  0.655176  0.234605  1
  O  O22  1  0.483768  0.844824  0.734605  1
  O  O23  1  0.983768  0.155176  0.265395  1
  O  O24  1  0.483768  0.655176  0.234605  1
  O  O25  1  0.983768  0.344824  0.765395  1
  O  O26  1  0.516232  0.155176  0.265395  1
  O  O27  1  0.016232  0.844824  0.734605  1
  O  O28  1  0.978280  0.182022  0.565703  1
  O  O29  1  0.478280  0.817978  0.434297  1
  O  O30  1  0.021720  0.682022  0.934297  1
  O  O31  1  0.521720  0.317978  0.065703  1
  O  O32  1  0.478280  0.682022  0.934297  1
  O  O33  1  0.978280  0.317978  0.065703  1
  O  O34  1  0.021720  0.817978  0.434297  1
  O  O35  1  0.521720  0.182022  0.565703  1
