# generated using pymatgen
data_Cs3Ge4Au
_symmetry_space_group_name_H-M   'P 1'
_cell_length_a   6.24851438
_cell_length_b   7.34241766
_cell_length_c   13.28564118
_cell_angle_alpha   90.00000000
_cell_angle_beta   90.00000000
_cell_angle_gamma   90.00000000
_symmetry_Int_Tables_number   1
_chemical_formula_structural   Cs3Ge4Au
_chemical_formula_sum   'Cs6 Ge8 Au2'
_cell_volume   609.53461981
_cell_formula_units_Z   2
loop_
 _symmetry_equiv_pos_site_id
 _symmetry_equiv_pos_as_xyz
  1  'x, y, z'
loop_
 _atom_site_type_symbol
 _atom_site_label
 _atom_site_symmetry_multiplicity
 _atom_site_fract_x
 _atom_site_fract_y
 _atom_site_fract_z
 _atom_site_occupancy
  Cs  Cs0  1  0.842553  0.500000  0.266191  1
  Cs  Cs1  1  0.842553  0.500000  0.733809  1
  Cs  Cs2  1  0.426628  0.500000  0.500000  1
  Cs  Cs3  1  0.157447  0.000000  0.233809  1
  Cs  Cs4  1  0.157447  0.000000  0.766191  1
  Cs  Cs5  1  0.573372  0.000000  0.000000  1
  Ge  Ge6  1  0.066925  0.312265  0.000000  1
  Ge  Ge7  1  0.336683  0.500000  0.104533  1
  Ge  Ge8  1  0.663317  0.000000  0.604533  1
  Ge  Ge9  1  0.066925  0.687735  0.000000  1
  Ge  Ge10  1  0.933075  0.812265  0.500000  1
  Ge  Ge11  1  0.663317  0.000000  0.395467  1
  Ge  Ge12  1  0.336683  0.500000  0.895467  1
  Ge  Ge13  1  0.933075  0.187735  0.500000  1
  Au  Au14  1  0.700301  0.500000  0.000000  1
  Au  Au15  1  0.299699  0.000000  0.500000  1
