# generated using pymatgen
data_Cs10Si7O9
_symmetry_space_group_name_H-M   'P 1'
_cell_length_a   15.22117470
_cell_length_b   8.30661039
_cell_length_c   23.91131268
_cell_angle_alpha   90.00000000
_cell_angle_beta   93.74345144
_cell_angle_gamma   90.00000000
_symmetry_Int_Tables_number   1
_chemical_formula_structural   Cs10Si7O9
_chemical_formula_sum   'Cs40 Si28 O36'
_cell_volume   3016.80907552
_cell_formula_units_Z   4
loop_
 _symmetry_equiv_pos_site_id
 _symmetry_equiv_pos_as_xyz
  1  'x, y, z'
loop_
 _atom_site_type_symbol
 _atom_site_label
 _atom_site_symmetry_multiplicity
 _atom_site_fract_x
 _atom_site_fract_y
 _atom_site_fract_z
 _atom_site_occupancy
  Cs  Cs0  1  0.154644  0.617958  0.702282  1
  Cs  Cs1  1  0.622919  0.362937  0.038339  1
  Cs  Cs2  1  0.622919  0.637063  0.538339  1
  Cs  Cs3  1  0.878964  0.624278  0.455924  1
  Cs  Cs4  1  0.910439  0.541536  0.149568  1
  Cs  Cs5  1  0.121036  0.375722  0.544076  1
  Cs  Cs6  1  0.597049  0.473442  0.346311  1
  Cs  Cs7  1  0.351310  0.632558  0.309917  1
  Cs  Cs8  1  0.351310  0.367442  0.809917  1
  Cs  Cs9  1  0.482229  0.996843  0.092892  1
  Cs  Cs10  1  0.402951  0.526558  0.653689  1
  Cs  Cs11  1  0.845356  0.617958  0.797718  1
  Cs  Cs12  1  0.845356  0.382042  0.297718  1
  Cs  Cs13  1  0.089561  0.458464  0.850432  1
  Cs  Cs14  1  0.517771  0.996843  0.407108  1
  Cs  Cs15  1  0.722396  0.038220  0.820242  1
  Cs  Cs16  1  0.968435  0.041240  0.406047  1
  Cs  Cs17  1  0.968435  0.958760  0.906047  1
  Cs  Cs18  1  0.783338  0.037733  0.158577  1
  Cs  Cs19  1  0.648690  0.632558  0.190083  1
  Cs  Cs20  1  0.517771  0.003157  0.907108  1
  Cs  Cs21  1  0.597049  0.526558  0.846311  1
  Cs  Cs22  1  0.216662  0.037733  0.341423  1
  Cs  Cs23  1  0.402951  0.473442  0.153689  1
  Cs  Cs24  1  0.878964  0.375722  0.955924  1
  Cs  Cs25  1  0.722396  0.961780  0.320242  1
  Cs  Cs26  1  0.377081  0.362937  0.461661  1
  Cs  Cs27  1  0.089561  0.541536  0.350432  1
  Cs  Cs28  1  0.277604  0.038220  0.679758  1
  Cs  Cs29  1  0.910439  0.458464  0.649568  1
  Cs  Cs30  1  0.121036  0.624278  0.044076  1
  Cs  Cs31  1  0.482229  0.003157  0.592892  1
  Cs  Cs32  1  0.648690  0.367442  0.690083  1
  Cs  Cs33  1  0.277604  0.961780  0.179758  1
  Cs  Cs34  1  0.783338  0.962267  0.658577  1
  Cs  Cs35  1  0.031565  0.041240  0.093953  1
  Cs  Cs36  1  0.154644  0.382042  0.202282  1
  Cs  Cs37  1  0.377081  0.637063  0.961661  1
  Cs  Cs38  1  0.216662  0.962267  0.841423  1
  Cs  Cs39  1  0.031565  0.958760  0.593953  1
  Si  Si40  1  0.752720  0.013294  0.992334  1
  Si  Si41  1  0.414674  0.226972  0.284088  1
  Si  Si42  1  0.838575  0.782719  0.028007  1
  Si  Si43  1  0.752720  0.986706  0.492334  1
  Si  Si44  1  0.746021  0.242368  0.442604  1
  Si  Si45  1  0.247280  0.986706  0.007666  1
  Si  Si46  1  0.909545  0.216976  0.777531  1
  Si  Si47  1  0.161425  0.782719  0.471993  1
  Si  Si48  1  0.585326  0.773028  0.715912  1
  Si  Si49  1  0.500000  0.901413  0.250000  1
  Si  Si50  1  0.500000  0.098587  0.750000  1
  Si  Si51  1  0.909545  0.783024  0.277531  1
  Si  Si52  1  0.838575  0.217281  0.528007  1
  Si  Si53  1  0.161425  0.217281  0.971993  1
  Si  Si54  1  0.322427  0.785391  0.468143  1
  Si  Si55  1  0.090455  0.783024  0.222469  1
  Si  Si56  1  0.677573  0.785391  0.031857  1
  Si  Si57  1  0.677573  0.214609  0.531857  1
  Si  Si58  1  0.253979  0.242368  0.057396  1
  Si  Si59  1  0.090455  0.216976  0.722469  1
  Si  Si60  1  0.247280  0.013294  0.507666  1
  Si  Si61  1  0.322427  0.214609  0.968143  1
  Si  Si62  1  0.414674  0.773028  0.784088  1
  Si  Si63  1  0.000000  0.109147  0.250000  1
  Si  Si64  1  0.746021  0.757632  0.942604  1
  Si  Si65  1  0.585326  0.226972  0.215912  1
  Si  Si66  1  0.000000  0.890853  0.750000  1
  Si  Si67  1  0.253979  0.757632  0.557396  1
  O  O68  1  0.078299  0.014975  0.726433  1
  O  O69  1  0.042159  0.212545  0.302729  1
  O  O70  1  0.500000  0.697936  0.750000  1
  O  O71  1  0.426898  0.718305  0.849427  1
  O  O72  1  0.500000  0.302064  0.250000  1
  O  O73  1  0.000000  0.293920  0.750000  1
  O  O74  1  0.957841  0.212545  0.197271  1
  O  O75  1  0.450525  0.797753  0.199861  1
  O  O76  1  0.676579  0.716405  0.748603  1
  O  O77  1  0.573102  0.718305  0.650573  1
  O  O78  1  0.323421  0.716405  0.751397  1
  O  O79  1  0.573102  0.281695  0.150573  1
  O  O80  1  0.909425  0.272055  0.842644  1
  O  O81  1  0.823494  0.271089  0.738368  1
  O  O82  1  0.078299  0.985025  0.226433  1
  O  O83  1  0.921701  0.985025  0.273567  1
  O  O84  1  0.426085  0.975071  0.778651  1
  O  O85  1  0.426898  0.281695  0.349427  1
  O  O86  1  0.090575  0.272055  0.657356  1
  O  O87  1  0.000000  0.706080  0.250000  1
  O  O88  1  0.426085  0.024929  0.278651  1
  O  O89  1  0.323421  0.283595  0.251397  1
  O  O90  1  0.573915  0.024929  0.221349  1
  O  O91  1  0.450525  0.202247  0.699861  1
  O  O92  1  0.549475  0.797753  0.300139  1
  O  O93  1  0.176506  0.271089  0.761632  1
  O  O94  1  0.909425  0.727945  0.342644  1
  O  O95  1  0.042159  0.787455  0.802729  1
  O  O96  1  0.957841  0.787455  0.697271  1
  O  O97  1  0.676579  0.283595  0.248603  1
  O  O98  1  0.549475  0.202247  0.800139  1
  O  O99  1  0.176506  0.728911  0.261632  1
  O  O100  1  0.921701  0.014975  0.773567  1
  O  O101  1  0.573915  0.975071  0.721349  1
  O  O102  1  0.090575  0.727945  0.157356  1
  O  O103  1  0.823494  0.728911  0.238368  1
