# generated using pymatgen
data_U3O8
_symmetry_space_group_name_H-M   'P 1'
_cell_length_a   6.78404973
_cell_length_b   6.78404973
_cell_length_c   8.31849626
_cell_angle_alpha   90.00000000
_cell_angle_beta   90.00000000
_cell_angle_gamma   118.03675555
_symmetry_Int_Tables_number   1
_chemical_formula_structural   U3O8
_chemical_formula_sum   'U6 O16'
_cell_volume   337.91661618
_cell_formula_units_Z   2
loop_
 _symmetry_equiv_pos_site_id
 _symmetry_equiv_pos_as_xyz
  1  'x, y, z'
loop_
 _atom_site_type_symbol
 _atom_site_label
 _atom_site_symmetry_multiplicity
 _atom_site_fract_x
 _atom_site_fract_y
 _atom_site_fract_z
 _atom_site_occupancy
  U  U0  1  0.675808  0.316030  0.250000  1
  U  U1  1  0.989396  0.989396  0.250000  1
  U  U2  1  0.683970  0.324192  0.750000  1
  U  U3  1  0.324192  0.683970  0.750000  1
  U  U4  1  0.316030  0.675808  0.250000  1
  U  U5  1  0.010604  0.010604  0.750000  1
  O  O6  1  0.681747  0.318253  1.000000  1
  O  O7  1  0.472618  0.472618  0.750000  1
  O  O8  1  0.000000  0.000000  0.500000  1
  O  O9  1  0.972509  0.662733  0.250000  1
  O  O10  1  0.027491  0.337267  0.750000  1
  O  O11  1  0.662733  0.972509  0.250000  1
  O  O12  1  0.318253  0.681747  0.500000  1
  O  O13  1  0.952439  0.675039  0.750000  1
  O  O14  1  0.324961  0.047561  0.250000  1
  O  O15  1  0.675039  0.952439  0.750000  1
  O  O16  1  0.318253  0.681747  0.000000  1
  O  O17  1  0.681747  0.318253  0.500000  1
  O  O18  1  0.527382  0.527382  0.250000  1
  O  O19  1  0.047561  0.324961  0.250000  1
  O  O20  1  0.000000  0.000000  0.000000  1
  O  O21  1  0.337267  0.027491  0.750000  1
