# generated using pymatgen
data_RbTa(PO4)2
_symmetry_space_group_name_H-M   'P 1'
_cell_length_a   5.11185677
_cell_length_b   5.11185677
_cell_length_c   8.58058992
_cell_angle_alpha   87.25938570
_cell_angle_beta   92.74061430
_cell_angle_gamma   117.73653267
_symmetry_Int_Tables_number   1
_chemical_formula_structural   RbTa(PO4)2
_chemical_formula_sum   'Rb1 Ta1 P2 O8'
_cell_volume   198.14667102
_cell_formula_units_Z   1
loop_
 _symmetry_equiv_pos_site_id
 _symmetry_equiv_pos_as_xyz
  1  'x, y, z'
loop_
 _atom_site_type_symbol
 _atom_site_label
 _atom_site_symmetry_multiplicity
 _atom_site_fract_x
 _atom_site_fract_y
 _atom_site_fract_z
 _atom_site_occupancy
  Rb  Rb0  1  0.000000  0.000000  0.000000  1
  Ta  Ta1  1  0.000000  0.000000  0.500000  1
  P  P2  1  0.356406  0.643594  0.701293  1
  P  P3  1  0.643594  0.356406  0.298707  1
  O  O4  1  0.680768  0.319232  0.131591  1
  O  O5  1  0.216048  0.310627  0.655896  1
  O  O6  1  0.783952  0.689373  0.344104  1
  O  O7  1  0.689373  0.783952  0.655896  1
  O  O8  1  0.310627  0.216048  0.344104  1
  O  O9  1  0.319232  0.680768  0.868409  1
  O  O10  1  0.787648  0.212352  0.416488  1
  O  O11  1  0.212352  0.787648  0.583512  1
