# generated using pymatgen
data_Zr2Al3C4
_symmetry_space_group_name_H-M   'P 1'
_cell_length_a   3.24019499
_cell_length_b   3.24019499
_cell_length_c   26.90283087
_cell_angle_alpha   90.00000000
_cell_angle_beta   90.00000000
_cell_angle_gamma   120.00000000
_symmetry_Int_Tables_number   1
_chemical_formula_structural   Zr2Al3C4
_chemical_formula_sum   'Zr4 Al6 C8'
_cell_volume   244.60814080
_cell_formula_units_Z   2
loop_
 _symmetry_equiv_pos_site_id
 _symmetry_equiv_pos_as_xyz
  1  'x, y, z'
loop_
 _atom_site_type_symbol
 _atom_site_label
 _atom_site_symmetry_multiplicity
 _atom_site_fract_x
 _atom_site_fract_y
 _atom_site_fract_z
 _atom_site_occupancy
  Zr  Zr0  1  0.333333  0.666667  0.212106  1
  Zr  Zr1  1  0.666667  0.333333  0.312381  1
  Zr  Zr2  1  0.333333  0.666667  0.812381  1
  Zr  Zr3  1  0.666667  0.333333  0.712106  1
  Al  Al4  1  0.000000  0.000000  0.902777  1
  Al  Al5  1  0.000000  0.000000  0.123141  1
  Al  Al6  1  0.666667  0.333333  0.987376  1
  Al  Al7  1  0.000000  0.000000  0.402777  1
  Al  Al8  1  0.000000  0.000000  0.623141  1
  Al  Al9  1  0.333333  0.666667  0.487376  1
  C  C10  1  0.666667  0.333333  0.521880  1
  C  C11  1  0.333333  0.666667  0.660689  1
  C  C12  1  0.333333  0.666667  0.021880  1
  C  C13  1  0.000000  0.000000  0.266238  1
  C  C14  1  0.333333  0.666667  0.070614  1
  C  C15  1  0.666667  0.333333  0.160689  1
  C  C16  1  0.000000  0.000000  0.766238  1
  C  C17  1  0.666667  0.333333  0.570614  1
