# generated using pymatgen
data_Ca5Ir
_symmetry_space_group_name_H-M   'P 1'
_cell_length_a   6.79912908
_cell_length_b   7.64539603
_cell_length_c   15.77880639
_cell_angle_alpha   90.00000000
_cell_angle_beta   90.00000000
_cell_angle_gamma   90.00000000
_symmetry_Int_Tables_number   1
_chemical_formula_structural   Ca5Ir
_chemical_formula_sum   'Ca20 Ir4'
_cell_volume   820.21445775
_cell_formula_units_Z   4
loop_
 _symmetry_equiv_pos_site_id
 _symmetry_equiv_pos_as_xyz
  1  'x, y, z'
loop_
 _atom_site_type_symbol
 _atom_site_label
 _atom_site_symmetry_multiplicity
 _atom_site_fract_x
 _atom_site_fract_y
 _atom_site_fract_z
 _atom_site_occupancy
  Ca  Ca0  1  0.153448  0.093680  0.250000  1
  Ca  Ca1  1  0.857666  0.192457  0.566578  1
  Ca  Ca2  1  0.846552  0.906320  0.750000  1
  Ca  Ca3  1  0.823261  0.466022  0.145032  1
  Ca  Ca4  1  0.176739  0.533978  0.645032  1
  Ca  Ca5  1  0.357666  0.307543  0.066578  1
  Ca  Ca6  1  0.346552  0.593680  0.250000  1
  Ca  Ca7  1  0.823261  0.466022  0.354968  1
  Ca  Ca8  1  0.323261  0.033978  0.854968  1
  Ca  Ca9  1  0.142334  0.807543  0.066578  1
  Ca  Ca10  1  0.642334  0.692457  0.566578  1
  Ca  Ca11  1  0.676739  0.966022  0.354968  1
  Ca  Ca12  1  0.642334  0.692457  0.933422  1
  Ca  Ca13  1  0.323261  0.033978  0.645032  1
  Ca  Ca14  1  0.142334  0.807543  0.433422  1
  Ca  Ca15  1  0.653448  0.406320  0.750000  1
  Ca  Ca16  1  0.176739  0.533978  0.854968  1
  Ca  Ca17  1  0.357666  0.307543  0.433422  1
  Ca  Ca18  1  0.676739  0.966022  0.145032  1
  Ca  Ca19  1  0.857666  0.192457  0.933422  1
  Ir  Ir20  1  0.036160  0.239461  0.750000  1
  Ir  Ir21  1  0.463840  0.739461  0.750000  1
  Ir  Ir22  1  0.536160  0.260539  0.250000  1
  Ir  Ir23  1  0.963840  0.760539  0.250000  1
