# generated using pymatgen
data_IrCl3
_symmetry_space_group_name_H-M   'P 1'
_cell_length_a   11.72941769
_cell_length_b   11.18347643
_cell_length_c   6.22368849
_cell_angle_alpha   79.14099765
_cell_angle_beta   69.45267208
_cell_angle_gamma   31.40633026
_symmetry_Int_Tables_number   1
_chemical_formula_structural   IrCl3
_chemical_formula_sum   'Ir4 Cl12'
_cell_volume   387.88684980
_cell_formula_units_Z   4
loop_
 _symmetry_equiv_pos_site_id
 _symmetry_equiv_pos_as_xyz
  1  'x, y, z'
loop_
 _atom_site_type_symbol
 _atom_site_label
 _atom_site_symmetry_multiplicity
 _atom_site_fract_x
 _atom_site_fract_y
 _atom_site_fract_z
 _atom_site_occupancy
  Ir  Ir0  1  0.416332  0.416332  0.583668  1
  Ir  Ir1  1  0.833668  0.833668  0.666332  1
  Ir  Ir2  1  0.666332  0.666332  0.833668  1
  Ir  Ir3  1  0.583668  0.583668  0.416332  1
  Cl  Cl4  1  0.717759  0.282241  0.282241  1
  Cl  Cl5  1  0.879375  0.444483  0.088374  1
  Cl  Cl6  1  0.370625  0.805517  0.161626  1
  Cl  Cl7  1  0.444483  0.879375  0.587768  1
  Cl  Cl8  1  0.161626  0.662232  0.370625  1
  Cl  Cl9  1  0.282241  0.717759  0.717759  1
  Cl  Cl10  1  0.532241  0.967759  0.967759  1
  Cl  Cl11  1  0.967759  0.532241  0.532241  1
  Cl  Cl12  1  0.088374  0.587768  0.879375  1
  Cl  Cl13  1  0.805517  0.370625  0.662232  1
  Cl  Cl14  1  0.662232  0.161626  0.805517  1
  Cl  Cl15  1  0.587768  0.088374  0.444483  1
