# generated using pymatgen
data_LiPWCO7
_symmetry_space_group_name_H-M   'P 1'
_cell_length_a   5.16707316
_cell_length_b   6.53548383
_cell_length_c   8.92051060
_cell_angle_alpha   90.00000000
_cell_angle_beta   94.47208356
_cell_angle_gamma   90.00000000
_symmetry_Int_Tables_number   1
_chemical_formula_structural   LiPWCO7
_chemical_formula_sum   'Li2 P2 W2 C2 O14'
_cell_volume   300.32246343
_cell_formula_units_Z   2
loop_
 _symmetry_equiv_pos_site_id
 _symmetry_equiv_pos_as_xyz
  1  'x, y, z'
loop_
 _atom_site_type_symbol
 _atom_site_label
 _atom_site_symmetry_multiplicity
 _atom_site_fract_x
 _atom_site_fract_y
 _atom_site_fract_z
 _atom_site_occupancy
  Li  Li0  1  0.260746  0.992953  0.787675  1
  Li  Li1  1  0.739254  0.492953  0.212325  1
  P  P2  1  0.714368  0.249544  0.572927  1
  P  P3  1  0.285632  0.749544  0.427073  1
  W  W4  1  0.792568  0.744855  0.671491  1
  W  W5  1  0.207432  0.244855  0.328509  1
  C  C6  1  0.717653  0.756456  0.949748  1
  C  C7  1  0.282347  0.256456  0.050252  1
  O  O8  1  0.184612  0.558319  0.339226  1
  O  O9  1  0.951154  0.759263  0.888091  1
  O  O10  1  0.474912  0.276659  0.158788  1
  O  O11  1  0.525088  0.776659  0.841212  1
  O  O12  1  0.775386  0.434746  0.675333  1
  O  O13  1  0.159494  0.767749  0.577747  1
  O  O14  1  0.224614  0.934746  0.324667  1
  O  O15  1  0.840506  0.267749  0.422253  1
  O  O16  1  0.815388  0.058319  0.660774  1
  O  O17  1  0.413819  0.233510  0.537519  1
  O  O18  1  0.691833  0.729145  0.083723  1
  O  O19  1  0.308167  0.229145  0.916277  1
  O  O20  1  0.586181  0.733510  0.462481  1
  O  O21  1  0.048846  0.259263  0.111909  1
