# generated using pymatgen
data_Ho2TiO5
_symmetry_space_group_name_H-M   'P 1'
_cell_length_a   7.41089051
_cell_length_b   7.41089051
_cell_length_c   17.77621988
_cell_angle_alpha   89.47158463
_cell_angle_beta   90.52841537
_cell_angle_gamma   121.24722369
_symmetry_Int_Tables_number   1
_chemical_formula_structural   Ho2TiO5
_chemical_formula_sum   'Ho16 Ti8 O40'
_cell_volume   834.62233174
_cell_formula_units_Z   8
loop_
 _symmetry_equiv_pos_site_id
 _symmetry_equiv_pos_as_xyz
  1  'x, y, z'
loop_
 _atom_site_type_symbol
 _atom_site_label
 _atom_site_symmetry_multiplicity
 _atom_site_fract_x
 _atom_site_fract_y
 _atom_site_fract_z
 _atom_site_occupancy
  Ho  Ho0  1  0.341978  0.658022  0.821404  1
  Ho  Ho1  1  0.515726  0.484274  0.002237  1
  Ho  Ho2  1  0.826304  0.662831  0.833363  1
  Ho  Ho3  1  0.981925  0.018075  0.008928  1
  Ho  Ho4  1  0.182071  0.817929  0.659807  1
  Ho  Ho5  1  0.337169  0.173696  0.833363  1
  Ho  Ho6  1  0.502173  0.979273  0.495699  1
  Ho  Ho7  1  0.685131  0.314869  0.674109  1
  Ho  Ho8  1  0.826170  0.173830  0.849334  1
  Ho  Ho9  1  0.020727  0.497827  0.495699  1
  Ho  Ho10  1  0.189482  0.317984  0.178074  1
  Ho  Ho11  1  0.017349  0.982651  0.485032  1
  Ho  Ho12  1  0.346763  0.653237  0.327367  1
  Ho  Ho13  1  0.682016  0.810518  0.178074  1
  Ho  Ho14  1  0.497751  0.502249  0.489822  1
  Ho  Ho15  1  0.172314  0.827686  0.154342  1
  Ti  Ti16  1  0.024574  0.500351  0.000690  1
  Ti  Ti17  1  0.499649  0.975426  0.000690  1
  Ti  Ti18  1  0.836780  0.163220  0.327266  1
  Ti  Ti19  1  0.672828  0.831680  0.664854  1
  Ti  Ti20  1  0.168320  0.327172  0.664854  1
  Ti  Ti21  1  0.348184  0.159945  0.336418  1
  Ti  Ti22  1  0.840055  0.651816  0.336418  1
  Ti  Ti23  1  0.666367  0.333633  0.162710  1
  O  O24  1  0.807333  0.192667  0.977153  1
  O  O25  1  0.698586  0.865762  0.790413  1
  O  O26  1  0.134238  0.301414  0.790413  1
  O  O27  1  0.850013  0.705216  0.957601  1
  O  O28  1  0.363120  0.636880  0.689988  1
  O  O29  1  0.376233  0.182298  0.452794  1
  O  O30  1  0.334330  0.212055  0.682852  1
  O  O31  1  0.493818  0.506182  0.878050  1
  O  O32  1  0.161390  0.838610  0.784973  1
  O  O33  1  0.294784  0.149987  0.957601  1
  O  O34  1  0.817702  0.623767  0.452794  1
  O  O35  1  0.480899  0.946970  0.897171  1
  O  O36  1  0.519535  0.013371  0.619418  1
  O  O37  1  0.787945  0.665670  0.682852  1
  O  O38  1  0.678609  0.321391  0.795223  1
  O  O39  1  0.085551  0.914449  0.361124  1
  O  O40  1  0.964038  0.488606  0.345863  1
  O  O41  1  0.876310  0.491668  0.093859  1
  O  O42  1  0.168086  0.831914  0.536579  1
  O  O43  1  0.886939  0.113061  0.673897  1
  O  O44  1  0.844491  0.155509  0.440694  1
  O  O45  1  0.053030  0.519101  0.897171  1
  O  O46  1  0.986629  0.480465  0.619418  1
  O  O47  1  0.508332  0.123690  0.093859  1
  O  O48  1  0.131259  0.275064  0.306609  1
  O  O49  1  0.328048  0.671952  0.205309  1
  O  O50  1  0.511394  0.035962  0.345863  1
  O  O51  1  0.191122  0.312892  0.556412  1
  O  O52  1  0.341210  0.658790  0.449175  1
  O  O53  1  0.607252  0.818523  0.043339  1
  O  O54  1  0.799212  0.200788  0.217377  1
  O  O55  1  0.524850  0.475150  0.345454  1
  O  O56  1  0.518922  0.481078  0.137119  1
  O  O57  1  0.687108  0.808878  0.556412  1
  O  O58  1  0.724936  0.868741  0.306609  1
  O  O59  1  0.854984  0.643518  0.227834  1
  O  O60  1  0.181477  0.392748  0.043339  1
  O  O61  1  0.002823  0.997177  0.128227  1
  O  O62  1  0.218724  0.781276  0.034158  1
  O  O63  1  0.356482  0.145016  0.227834  1
