# generated using pymatgen
data_Nd(NiSn)2
_symmetry_space_group_name_H-M   'P 1'
_cell_length_a   6.11705178
_cell_length_b   6.11705178
_cell_length_c   6.11705178
_cell_angle_alpha   137.68673762
_cell_angle_beta   137.68673762
_cell_angle_gamma   61.38311465
_symmetry_Int_Tables_number   1
_chemical_formula_structural   Nd(NiSn)2
_chemical_formula_sum   'Nd1 Ni2 Sn2'
_cell_volume   102.55745114
_cell_formula_units_Z   1
loop_
 _symmetry_equiv_pos_site_id
 _symmetry_equiv_pos_as_xyz
  1  'x, y, z'
loop_
 _atom_site_type_symbol
 _atom_site_label
 _atom_site_symmetry_multiplicity
 _atom_site_fract_x
 _atom_site_fract_y
 _atom_site_fract_z
 _atom_site_occupancy
  Nd  Nd0  1  0.000000  0.000000  0.000000  1
  Ni  Ni1  1  0.250000  0.750000  0.500000  1
  Ni  Ni2  1  0.750000  0.250000  0.500000  1
  Sn  Sn3  1  0.635305  0.635305  0.000000  1
  Sn  Sn4  1  0.364695  0.364695  0.000000  1
