# generated using pymatgen
data_Dy6Ti4Al43
_symmetry_space_group_name_H-M   'P 1'
_cell_length_a   11.06277863
_cell_length_b   11.06277863
_cell_length_c   17.88470556
_cell_angle_alpha   90.00000000
_cell_angle_beta   90.00000000
_cell_angle_gamma   120.00000000
_symmetry_Int_Tables_number   1
_chemical_formula_structural   Dy6Ti4Al43
_chemical_formula_sum   'Dy12 Ti8 Al86'
_cell_volume   1895.57455644
_cell_formula_units_Z   2
loop_
 _symmetry_equiv_pos_site_id
 _symmetry_equiv_pos_as_xyz
  1  'x, y, z'
loop_
 _atom_site_type_symbol
 _atom_site_label
 _atom_site_symmetry_multiplicity
 _atom_site_fract_x
 _atom_site_fract_y
 _atom_site_fract_z
 _atom_site_occupancy
  Dy  Dy0  1  0.529540  0.529540  0.596383  1
  Dy  Dy1  1  0.000000  0.529540  0.403617  1
  Dy  Dy2  1  0.529540  0.000000  0.403617  1
  Dy  Dy3  1  0.000000  0.470460  0.903617  1
  Dy  Dy4  1  0.000000  0.529540  0.096383  1
  Dy  Dy5  1  0.000000  0.470460  0.596383  1
  Dy  Dy6  1  0.529540  0.000000  0.096383  1
  Dy  Dy7  1  0.470460  0.470460  0.403617  1
  Dy  Dy8  1  0.529540  0.529540  0.903617  1
  Dy  Dy9  1  0.470460  0.000000  0.596383  1
  Dy  Dy10  1  0.470460  0.000000  0.903617  1
  Dy  Dy11  1  0.470460  0.470460  0.096383  1
  Ti  Ti12  1  0.000000  0.728373  0.250000  1
  Ti  Ti13  1  0.728373  0.000000  0.250000  1
  Ti  Ti14  1  0.000000  0.000000  0.000000  1
  Ti  Ti15  1  0.728373  0.728373  0.750000  1
  Ti  Ti16  1  0.000000  0.271627  0.750000  1
  Ti  Ti17  1  0.271627  0.000000  0.750000  1
  Ti  Ti18  1  0.000000  0.000000  0.500000  1
  Ti  Ti19  1  0.271627  0.271627  0.250000  1
  Al  Al20  1  0.234918  0.841072  0.335305  1
  Al  Al21  1  0.253183  0.000000  0.471112  1
  Al  Al22  1  0.000000  0.253183  0.028888  1
  Al  Al23  1  0.156471  0.156471  0.116521  1
  Al  Al24  1  0.247872  0.752128  0.500000  1
  Al  Al25  1  0.553735  0.403106  0.250000  1
  Al  Al26  1  0.596894  0.150628  0.250000  1
  Al  Al27  1  0.752128  0.504256  0.000000  1
  Al  Al28  1  0.843529  0.843529  0.616521  1
  Al  Al29  1  0.000000  0.156471  0.616521  1
  Al  Al30  1  0.765082  0.606155  0.335305  1
  Al  Al31  1  0.841072  0.234918  0.164695  1
  Al  Al32  1  0.852824  0.000000  0.750000  1
  Al  Al33  1  0.606155  0.841072  0.835305  1
  Al  Al34  1  0.849372  0.446265  0.250000  1
  Al  Al35  1  0.666667  0.333333  0.125469  1
  Al  Al36  1  0.000000  0.253183  0.471112  1
  Al  Al37  1  0.666667  0.333333  0.374531  1
  Al  Al38  1  0.495744  0.247872  0.000000  1
  Al  Al39  1  0.253183  0.253183  0.971112  1
  Al  Al40  1  0.393845  0.234918  0.664695  1
  Al  Al41  1  0.333333  0.666667  0.625469  1
  Al  Al42  1  0.596894  0.446265  0.750000  1
  Al  Al43  1  0.765082  0.606155  0.164695  1
  Al  Al44  1  0.606155  0.765082  0.335305  1
  Al  Al45  1  0.333333  0.666667  0.874531  1
  Al  Al46  1  0.393845  0.234918  0.835305  1
  Al  Al47  1  0.253183  0.000000  0.028888  1
  Al  Al48  1  0.253183  0.253183  0.528888  1
  Al  Al49  1  0.147176  0.147176  0.750000  1
  Al  Al50  1  0.156471  0.156471  0.383479  1
  Al  Al51  1  0.746817  0.746817  0.471112  1
  Al  Al52  1  0.000000  0.147176  0.250000  1
  Al  Al53  1  0.843529  0.000000  0.116521  1
  Al  Al54  1  0.765082  0.158928  0.664695  1
  Al  Al55  1  0.247872  0.752128  0.000000  1
  Al  Al56  1  0.393845  0.158928  0.164695  1
  Al  Al57  1  0.606155  0.841072  0.664695  1
  Al  Al58  1  0.000000  0.843529  0.383479  1
  Al  Al59  1  0.000000  0.156471  0.883479  1
  Al  Al60  1  0.843529  0.843529  0.883479  1
  Al  Al61  1  0.000000  0.843529  0.116521  1
  Al  Al62  1  0.553735  0.150628  0.750000  1
  Al  Al63  1  0.158928  0.765082  0.835305  1
  Al  Al64  1  0.000000  0.852824  0.750000  1
  Al  Al65  1  0.746817  0.746817  0.028888  1
  Al  Al66  1  0.841072  0.606155  0.835305  1
  Al  Al67  1  0.446265  0.596894  0.750000  1
  Al  Al68  1  0.147176  0.000000  0.250000  1
  Al  Al69  1  0.852824  0.852824  0.250000  1
  Al  Al70  1  0.666667  0.333333  0.874531  1
  Al  Al71  1  0.158928  0.393845  0.335305  1
  Al  Al72  1  0.843529  0.000000  0.383479  1
  Al  Al73  1  0.158928  0.393845  0.164695  1
  Al  Al74  1  0.150628  0.596894  0.250000  1
  Al  Al75  1  0.752128  0.504256  0.500000  1
  Al  Al76  1  0.849372  0.403106  0.750000  1
  Al  Al77  1  0.150628  0.553735  0.750000  1
  Al  Al78  1  0.234918  0.393845  0.835305  1
  Al  Al79  1  0.156471  0.000000  0.616521  1
  Al  Al80  1  0.446265  0.849372  0.250000  1
  Al  Al81  1  0.247872  0.495744  0.000000  1
  Al  Al82  1  0.746817  0.000000  0.528888  1
  Al  Al83  1  0.000000  0.746817  0.971112  1
  Al  Al84  1  0.000000  0.746817  0.528888  1
  Al  Al85  1  0.746817  0.000000  0.971112  1
  Al  Al86  1  0.504256  0.752128  0.500000  1
  Al  Al87  1  0.765082  0.158928  0.835305  1
  Al  Al88  1  0.156471  0.000000  0.883479  1
  Al  Al89  1  0.393845  0.158928  0.335305  1
  Al  Al90  1  0.504256  0.752128  0.000000  1
  Al  Al91  1  0.234918  0.393845  0.664695  1
  Al  Al92  1  0.234918  0.841072  0.164695  1
  Al  Al93  1  0.247872  0.495744  0.500000  1
  Al  Al94  1  0.752128  0.247872  0.000000  1
  Al  Al95  1  0.606155  0.765082  0.164695  1
  Al  Al96  1  0.403106  0.553735  0.250000  1
  Al  Al97  1  0.403106  0.849372  0.750000  1
  Al  Al98  1  0.158928  0.765082  0.664695  1
  Al  Al99  1  0.666667  0.333333  0.625469  1
  Al  Al100  1  0.333333  0.666667  0.125469  1
  Al  Al101  1  0.333333  0.666667  0.374531  1
  Al  Al102  1  0.841072  0.234918  0.335305  1
  Al  Al103  1  0.752128  0.247872  0.500000  1
  Al  Al104  1  0.495744  0.247872  0.500000  1
  Al  Al105  1  0.841072  0.606155  0.664695  1
