# generated using pymatgen
data_UBC
_symmetry_space_group_name_H-M   'P 1'
_cell_length_a   6.24191917
_cell_length_b   6.24191917
_cell_length_c   3.28635017
_cell_angle_alpha   90.00000000
_cell_angle_beta   90.00000000
_cell_angle_gamma   146.20040782
_symmetry_Int_Tables_number   1
_chemical_formula_structural   UBC
_chemical_formula_sum   'U2 B2 C2'
_cell_volume   71.22806349
_cell_formula_units_Z   2
loop_
 _symmetry_equiv_pos_site_id
 _symmetry_equiv_pos_as_xyz
  1  'x, y, z'
loop_
 _atom_site_type_symbol
 _atom_site_label
 _atom_site_symmetry_multiplicity
 _atom_site_fract_x
 _atom_site_fract_y
 _atom_site_fract_z
 _atom_site_occupancy
  U  U0  1  0.862103  0.137897  0.750000  1
  U  U1  1  0.137897  0.862103  0.250000  1
  B  B2  1  0.534220  0.465780  0.750000  1
  B  B3  1  0.465780  0.534220  0.250000  1
  C  C4  1  0.666383  0.333617  0.750000  1
  C  C5  1  0.333617  0.666383  0.250000  1
