# generated using pymatgen
data_VBiPbO5
_symmetry_space_group_name_H-M   'P 1'
_cell_length_a   5.83127931
_cell_length_b   7.32071503
_cell_length_c   7.33337712
_cell_angle_alpha   106.19895270
_cell_angle_beta   97.96347468
_cell_angle_gamma   112.39290558
_symmetry_Int_Tables_number   1
_chemical_formula_structural   VBiPbO5
_chemical_formula_sum   'V2 Bi2 Pb2 O10'
_cell_volume   267.18239115
_cell_formula_units_Z   2
loop_
 _symmetry_equiv_pos_site_id
 _symmetry_equiv_pos_as_xyz
  1  'x, y, z'
loop_
 _atom_site_type_symbol
 _atom_site_label
 _atom_site_symmetry_multiplicity
 _atom_site_fract_x
 _atom_site_fract_y
 _atom_site_fract_z
 _atom_site_occupancy
  V  V0  1  0.343037  0.648334  0.348248  1
  V  V1  1  0.656963  0.351666  0.651752  1
  Bi  Bi2  1  0.909406  0.967873  0.746460  1
  Bi  Bi3  1  0.090594  0.032127  0.253540  1
  Pb  Pb4  1  0.682920  0.313025  0.111371  1
  Pb  Pb5  1  0.317080  0.686975  0.888629  1
  O  O6  1  0.241737  0.022967  0.997369  1
  O  O7  1  0.865924  0.283311  0.785953  1
  O  O8  1  0.843416  0.621574  0.698436  1
  O  O9  1  0.544976  0.203569  0.394903  1
  O  O10  1  0.758263  0.977033  0.002631  1
  O  O11  1  0.455024  0.796431  0.605097  1
  O  O12  1  0.605775  0.678462  0.260302  1
  O  O13  1  0.394225  0.321538  0.739698  1
  O  O14  1  0.134076  0.716689  0.214047  1
  O  O15  1  0.156584  0.378426  0.301564  1
