# generated using pymatgen
data_ZnGaNO
_symmetry_space_group_name_H-M   'P 1'
_cell_length_a   3.26998203
_cell_length_b   5.30466424
_cell_length_c   5.62373938
_cell_angle_alpha   90.00000000
_cell_angle_beta   90.00000000
_cell_angle_gamma   90.00000000
_symmetry_Int_Tables_number   1
_chemical_formula_structural   ZnGaNO
_chemical_formula_sum   'Zn2 Ga2 N2 O2'
_cell_volume   97.55026481
_cell_formula_units_Z   2
loop_
 _symmetry_equiv_pos_site_id
 _symmetry_equiv_pos_as_xyz
  1  'x, y, z'
loop_
 _atom_site_type_symbol
 _atom_site_label
 _atom_site_symmetry_multiplicity
 _atom_site_fract_x
 _atom_site_fract_y
 _atom_site_fract_z
 _atom_site_occupancy
  Zn  Zn0  1  0.500000  0.510034  0.821580  1
  Zn  Zn1  1  0.500000  0.010034  0.178420  1
  Ga  Ga2  1  0.000000  0.992485  0.652097  1
  Ga  Ga3  1  0.000000  0.492485  0.347903  1
  N  N4  1  0.000000  0.633452  0.660591  1
  N  N5  1  0.000000  0.133452  0.339409  1
  O  O6  1  0.500000  0.110033  0.821573  1
  O  O7  1  0.500000  0.610033  0.178427  1
