# generated using pymatgen
data_V(HgO2)2
_symmetry_space_group_name_H-M   'P 1'
_cell_length_a   3.73899247
_cell_length_b   16.87505113
_cell_length_c   15.17658968
_cell_angle_alpha   90.00000000
_cell_angle_beta   104.17039453
_cell_angle_gamma   90.00000000
_symmetry_Int_Tables_number   1
_chemical_formula_structural   V(HgO2)2
_chemical_formula_sum   'V8 Hg16 O32'
_cell_volume   928.44019369
_cell_formula_units_Z   8
loop_
 _symmetry_equiv_pos_site_id
 _symmetry_equiv_pos_as_xyz
  1  'x, y, z'
loop_
 _atom_site_type_symbol
 _atom_site_label
 _atom_site_symmetry_multiplicity
 _atom_site_fract_x
 _atom_site_fract_y
 _atom_site_fract_z
 _atom_site_occupancy
  V  V0  1  0.130708  0.827614  0.129106  1
  V  V1  1  0.869292  0.327614  0.370894  1
  V  V2  1  0.869292  0.172386  0.870894  1
  V  V3  1  0.130708  0.672386  0.629106  1
  V  V4  1  0.620859  0.678714  0.119089  1
  V  V5  1  0.379141  0.178714  0.380911  1
  V  V6  1  0.379141  0.321286  0.880911  1
  V  V7  1  0.620859  0.821286  0.619089  1
  Hg  Hg8  1  0.876675  0.678756  0.874472  1
  Hg  Hg9  1  0.000000  0.000000  0.500000  1
  Hg  Hg10  1  0.500000  0.500000  0.500000  1
  Hg  Hg11  1  0.500000  0.000000  0.000000  1
  Hg  Hg12  1  0.000000  0.500000  0.000000  1
  Hg  Hg13  1  0.123325  0.178756  0.625528  1
  Hg  Hg14  1  0.123325  0.321244  0.125528  1
  Hg  Hg15  1  0.876675  0.821244  0.374472  1
  Hg  Hg16  1  0.750158  0.493983  0.749701  1
  Hg  Hg17  1  0.249842  0.993983  0.750299  1
  Hg  Hg18  1  0.249842  0.506017  0.250299  1
  Hg  Hg19  1  0.750158  0.006017  0.249701  1
  Hg  Hg20  1  0.995528  0.831887  0.876222  1
  Hg  Hg21  1  0.004472  0.331887  0.623778  1
  Hg  Hg22  1  0.004472  0.168113  0.123778  1
  Hg  Hg23  1  0.995528  0.668113  0.376222  1
  O  O24  1  0.225682  0.622749  0.727734  1
  O  O25  1  0.774318  0.122749  0.772266  1
  O  O26  1  0.774318  0.377251  0.272266  1
  O  O27  1  0.225682  0.877251  0.227734  1
  O  O28  1  0.125572  0.790245  0.623546  1
  O  O29  1  0.874428  0.290245  0.876454  1
  O  O30  1  0.874428  0.209755  0.376454  1
  O  O31  1  0.125572  0.709755  0.123546  1
  O  O32  1  0.045441  0.606502  0.541388  1
  O  O33  1  0.954559  0.106502  0.958612  1
  O  O34  1  0.954559  0.393498  0.458612  1
  O  O35  1  0.045441  0.893498  0.041388  1
  O  O36  1  0.811825  0.551454  0.874067  1
  O  O37  1  0.188175  0.051454  0.625933  1
  O  O38  1  0.188175  0.448546  0.125933  1
  O  O39  1  0.811825  0.948546  0.374067  1
  O  O40  1  0.287330  0.385767  0.792278  1
  O  O41  1  0.712670  0.885767  0.707722  1
  O  O42  1  0.712670  0.614233  0.207722  1
  O  O43  1  0.287330  0.114233  0.292278  1
  O  O44  1  0.625428  0.703281  0.623666  1
  O  O45  1  0.374572  0.203281  0.876334  1
  O  O46  1  0.374572  0.296719  0.376334  1
  O  O47  1  0.625428  0.796719  0.123666  1
  O  O48  1  0.522644  0.872248  0.521125  1
  O  O49  1  0.477356  0.372248  0.978875  1
  O  O50  1  0.477356  0.127752  0.478875  1
  O  O51  1  0.522644  0.627752  0.021125  1
  O  O52  1  0.628490  0.434835  0.624572  1
  O  O53  1  0.371510  0.565165  0.375428  1
  O  O54  1  0.371510  0.934835  0.875428  1
  O  O55  1  0.628490  0.065165  0.124572  1
