# generated using pymatgen
data_Cu3B4Pb2O11
_symmetry_space_group_name_H-M   'P 1'
_cell_length_a   6.87475152
_cell_length_b   4.78361266
_cell_length_c   15.67709481
_cell_angle_alpha   90.00000000
_cell_angle_beta   109.20331293
_cell_angle_gamma   90.00000000
_symmetry_Int_Tables_number   1
_chemical_formula_structural   Cu3B4Pb2O11
_chemical_formula_sum   'Cu6 B8 Pb4 O22'
_cell_volume   486.87218406
_cell_formula_units_Z   2
loop_
 _symmetry_equiv_pos_site_id
 _symmetry_equiv_pos_as_xyz
  1  'x, y, z'
loop_
 _atom_site_type_symbol
 _atom_site_label
 _atom_site_symmetry_multiplicity
 _atom_site_fract_x
 _atom_site_fract_y
 _atom_site_fract_z
 _atom_site_occupancy
  Cu  Cu0  1  0.788814  0.478522  0.441535  1
  Cu  Cu1  1  0.211186  0.521478  0.558465  1
  Cu  Cu2  1  0.211186  0.478522  0.058465  1
  Cu  Cu3  1  0.500000  0.000000  0.500000  1
  Cu  Cu4  1  0.500000  0.000000  0.000000  1
  Cu  Cu5  1  0.788814  0.521478  0.941535  1
  B  B6  1  0.964120  0.054593  0.596674  1
  B  B7  1  0.638987  0.011430  0.839221  1
  B  B8  1  0.035880  0.054593  0.903326  1
  B  B9  1  0.638987  0.988570  0.339221  1
  B  B10  1  0.361013  0.988570  0.160779  1
  B  B11  1  0.361013  0.011430  0.660779  1
  B  B12  1  0.035880  0.945407  0.403326  1
  B  B13  1  0.964120  0.945407  0.096674  1
  Pb  Pb14  1  0.708419  0.578896  0.691976  1
  Pb  Pb15  1  0.291581  0.578896  0.808024  1
  Pb  Pb16  1  0.708419  0.421104  0.191976  1
  Pb  Pb17  1  0.291581  0.421104  0.308024  1
  O  O18  1  0.400906  0.698944  0.150813  1
  O  O19  1  0.778665  0.067356  0.089756  1
  O  O20  1  0.410760  0.174871  0.092324  1
  O  O21  1  0.589240  0.825129  0.907676  1
  O  O22  1  0.973386  0.290398  0.547722  1
  O  O23  1  0.854212  0.051774  0.341184  1
  O  O24  1  0.221335  0.067356  0.410244  1
  O  O25  1  0.026614  0.290398  0.952278  1
  O  O26  1  0.973386  0.709602  0.047722  1
  O  O27  1  0.500000  0.110047  0.250000  1
  O  O28  1  0.026614  0.709602  0.452278  1
  O  O29  1  0.145788  0.948226  0.658816  1
  O  O30  1  0.410760  0.825129  0.592324  1
  O  O31  1  0.778665  0.932644  0.589756  1
  O  O32  1  0.400906  0.301056  0.650813  1
  O  O33  1  0.145788  0.051774  0.158816  1
  O  O34  1  0.221335  0.932644  0.910244  1
  O  O35  1  0.854212  0.948226  0.841184  1
  O  O36  1  0.500000  0.889953  0.750000  1
  O  O37  1  0.589240  0.174871  0.407676  1
  O  O38  1  0.599094  0.698944  0.349187  1
  O  O39  1  0.599094  0.301056  0.849187  1
