# generated using pymatgen
data_La4MgCo
_symmetry_space_group_name_H-M   'P 1'
_cell_length_a   10.04521099
_cell_length_b   10.04521099
_cell_length_c   10.04521099
_cell_angle_alpha   60.00000000
_cell_angle_beta   60.00000000
_cell_angle_gamma   60.00000000
_symmetry_Int_Tables_number   1
_chemical_formula_structural   La4MgCo
_chemical_formula_sum   'La16 Mg4 Co4'
_cell_volume   716.74090710
_cell_formula_units_Z   4
loop_
 _symmetry_equiv_pos_site_id
 _symmetry_equiv_pos_as_xyz
  1  'x, y, z'
loop_
 _atom_site_type_symbol
 _atom_site_label
 _atom_site_symmetry_multiplicity
 _atom_site_fract_x
 _atom_site_fract_y
 _atom_site_fract_z
 _atom_site_occupancy
  La  La0  1  0.439765  0.060235  0.060235  1
  La  La1  1  0.188102  0.188102  0.811898  1
  La  La2  1  0.060235  0.060235  0.439765  1
  La  La3  1  0.656119  0.656119  0.656119  1
  La  La4  1  0.188102  0.811898  0.811898  1
  La  La5  1  0.811898  0.188102  0.188102  1
  La  La6  1  0.031642  0.656119  0.656119  1
  La  La7  1  0.656119  0.656119  0.031642  1
  La  La8  1  0.439765  0.439765  0.060235  1
  La  La9  1  0.439765  0.060235  0.439765  1
  La  La10  1  0.656119  0.031642  0.656119  1
  La  La11  1  0.811898  0.811898  0.188102  1
  La  La12  1  0.811898  0.188102  0.811898  1
  La  La13  1  0.060235  0.439765  0.060235  1
  La  La14  1  0.060235  0.439765  0.439765  1
  La  La15  1  0.188102  0.811898  0.188102  1
  Mg  Mg16  1  0.421807  0.734578  0.421807  1
  Mg  Mg17  1  0.421807  0.421807  0.734578  1
  Mg  Mg18  1  0.734578  0.421807  0.421807  1
  Mg  Mg19  1  0.421807  0.421807  0.421807  1
  Co  Co20  1  0.859751  0.859751  0.420746  1
  Co  Co21  1  0.859751  0.859751  0.859751  1
  Co  Co22  1  0.420746  0.859751  0.859751  1
  Co  Co23  1  0.859751  0.420746  0.859751  1
