# generated using pymatgen
data_Ga2S3
_symmetry_space_group_name_H-M   'P 1'
_cell_length_a   6.58038090
_cell_length_b   6.58038090
_cell_length_c   7.12142139
_cell_angle_alpha   63.37942045
_cell_angle_beta   116.62057955
_cell_angle_gamma   120.42257709
_symmetry_Int_Tables_number   1
_chemical_formula_structural   Ga2S3
_chemical_formula_sum   'Ga4 S6'
_cell_volume   227.72675886
_cell_formula_units_Z   2
loop_
 _symmetry_equiv_pos_site_id
 _symmetry_equiv_pos_as_xyz
  1  'x, y, z'
loop_
 _atom_site_type_symbol
 _atom_site_label
 _atom_site_symmetry_multiplicity
 _atom_site_fract_x
 _atom_site_fract_y
 _atom_site_fract_z
 _atom_site_occupancy
  Ga  Ga0  1  0.137771  0.731796  0.619234  1
  Ga  Ga1  1  0.268204  0.862229  0.119234  1
  Ga  Ga2  1  0.445467  0.358499  0.629624  1
  Ga  Ga3  1  0.641501  0.554533  0.129624  1
  S  S4  1  0.426657  0.746240  0.502975  1
  S  S5  1  0.253760  0.573343  0.002975  1
  S  S6  1  0.760137  0.415853  0.513203  1
  S  S7  1  0.584147  0.239863  0.013203  1
  S  S8  1  0.911535  0.907180  0.983964  1
  S  S9  1  0.092820  0.088465  0.483964  1
