# generated using pymatgen
data_Bi6Cl7
_symmetry_space_group_name_H-M   'P 1'
_cell_length_a   8.87117876
_cell_length_b   15.42121162
_cell_length_c   23.42753098
_cell_angle_alpha   90.00000000
_cell_angle_beta   90.00000000
_cell_angle_gamma   90.00000000
_symmetry_Int_Tables_number   1
_chemical_formula_structural   Bi6Cl7
_chemical_formula_sum   'Bi48 Cl56'
_cell_volume   3204.98756159
_cell_formula_units_Z   8
loop_
 _symmetry_equiv_pos_site_id
 _symmetry_equiv_pos_as_xyz
  1  'x, y, z'
loop_
 _atom_site_type_symbol
 _atom_site_label
 _atom_site_symmetry_multiplicity
 _atom_site_fract_x
 _atom_site_fract_y
 _atom_site_fract_z
 _atom_site_occupancy
  Bi  Bi0  1  0.000000  0.815705  0.857461  1
  Bi  Bi1  1  0.500000  0.546713  0.912699  1
  Bi  Bi2  1  0.683838  0.160886  0.299629  1
  Bi  Bi3  1  0.000000  0.597458  0.411101  1
  Bi  Bi4  1  0.000000  0.566969  0.102835  1
  Bi  Bi5  1  0.500000  0.391273  0.431825  1
  Bi  Bi6  1  0.500000  0.097458  0.088899  1
  Bi  Bi7  1  0.312144  0.217169  0.450242  1
  Bi  Bi8  1  0.763488  0.654269  0.652613  1
  Bi  Bi9  1  0.736512  0.845731  0.152613  1
  Bi  Bi10  1  0.236512  0.654269  0.652613  1
  Bi  Bi11  1  0.816162  0.660886  0.200371  1
  Bi  Bi12  1  0.183838  0.339114  0.799629  1
  Bi  Bi13  1  0.500000  0.933031  0.602835  1
  Bi  Bi14  1  0.812144  0.717169  0.049758  1
  Bi  Bi15  1  0.236512  0.345731  0.347387  1
  Bi  Bi16  1  0.500000  0.684295  0.357461  1
  Bi  Bi17  1  0.500000  0.066969  0.397165  1
  Bi  Bi18  1  0.000000  0.953287  0.412699  1
  Bi  Bi19  1  0.000000  0.171073  0.759157  1
  Bi  Bi20  1  0.763488  0.345731  0.347387  1
  Bi  Bi21  1  0.312144  0.782831  0.549758  1
  Bi  Bi22  1  0.736512  0.154269  0.847387  1
  Bi  Bi23  1  0.500000  0.902542  0.911101  1
  Bi  Bi24  1  0.000000  0.046713  0.587301  1
  Bi  Bi25  1  0.000000  0.184295  0.142539  1
  Bi  Bi26  1  0.812144  0.282831  0.950242  1
  Bi  Bi27  1  0.000000  0.828927  0.240843  1
  Bi  Bi28  1  0.500000  0.671073  0.740843  1
  Bi  Bi29  1  0.500000  0.328927  0.259157  1
  Bi  Bi30  1  0.816162  0.339114  0.799629  1
  Bi  Bi31  1  0.500000  0.608727  0.568175  1
  Bi  Bi32  1  0.000000  0.402542  0.588899  1
  Bi  Bi33  1  0.263488  0.845731  0.152613  1
  Bi  Bi34  1  0.187856  0.717169  0.049758  1
  Bi  Bi35  1  0.316162  0.160886  0.299629  1
  Bi  Bi36  1  0.187856  0.282831  0.950242  1
  Bi  Bi37  1  0.683838  0.839114  0.700371  1
  Bi  Bi38  1  0.316162  0.839114  0.700371  1
  Bi  Bi39  1  0.263488  0.154269  0.847387  1
  Bi  Bi40  1  0.687856  0.217169  0.450242  1
  Bi  Bi41  1  0.500000  0.453287  0.087301  1
  Bi  Bi42  1  0.000000  0.891273  0.068175  1
  Bi  Bi43  1  0.000000  0.108727  0.931825  1
  Bi  Bi44  1  0.687856  0.782831  0.549758  1
  Bi  Bi45  1  0.500000  0.315705  0.642539  1
  Bi  Bi46  1  0.183838  0.660886  0.200371  1
  Bi  Bi47  1  0.000000  0.433031  0.897165  1
  Cl  Cl48  1  0.194069  0.081771  0.058568  1
  Cl  Cl49  1  0.307445  0.792604  0.836307  1
  Cl  Cl50  1  0.000000  0.779752  0.462592  1
  Cl  Cl51  1  0.500000  0.822697  0.439440  1
  Cl  Cl52  1  0.192555  0.292604  0.663693  1
  Cl  Cl53  1  0.500000  0.177303  0.560560  1
  Cl  Cl54  1  0.285426  0.556851  0.836050  1
  Cl  Cl55  1  0.500000  0.375906  0.891340  1
  Cl  Cl56  1  0.805931  0.081771  0.058568  1
  Cl  Cl57  1  0.694069  0.418229  0.558568  1
  Cl  Cl58  1  0.783558  0.000000  0.500000  1
  Cl  Cl59  1  0.694069  0.581771  0.441432  1
  Cl  Cl60  1  0.214574  0.056851  0.663950  1
  Cl  Cl61  1  0.000000  0.875906  0.608660  1
  Cl  Cl62  1  0.500000  0.624094  0.108660  1
  Cl  Cl63  1  0.000000  0.322697  0.060560  1
  Cl  Cl64  1  0.000000  0.048933  0.210232  1
  Cl  Cl65  1  0.714574  0.556851  0.836050  1
  Cl  Cl66  1  0.000000  0.124094  0.391340  1
  Cl  Cl67  1  0.500000  0.782421  0.263525  1
  Cl  Cl68  1  0.000000  0.951067  0.789768  1
  Cl  Cl69  1  0.500000  0.012260  0.186877  1
  Cl  Cl70  1  0.000000  0.512260  0.313123  1
  Cl  Cl71  1  0.500000  0.075435  0.947989  1
  Cl  Cl72  1  0.500000  0.720248  0.962592  1
  Cl  Cl73  1  0.714574  0.443149  0.163950  1
  Cl  Cl74  1  0.283558  0.500000  0.000000  1
  Cl  Cl75  1  0.000000  0.717579  0.763525  1
  Cl  Cl76  1  0.805931  0.918229  0.941432  1
  Cl  Cl77  1  0.000000  0.220248  0.537408  1
  Cl  Cl78  1  0.500000  0.924565  0.052011  1
  Cl  Cl79  1  0.785426  0.943149  0.336050  1
  Cl  Cl80  1  0.785426  0.056851  0.663950  1
  Cl  Cl81  1  0.000000  0.424565  0.447989  1
  Cl  Cl82  1  0.305931  0.581771  0.441432  1
  Cl  Cl83  1  0.716442  0.500000  0.000000  1
  Cl  Cl84  1  0.692555  0.207396  0.163693  1
  Cl  Cl85  1  0.192555  0.707396  0.336307  1
  Cl  Cl86  1  0.285426  0.443149  0.163950  1
  Cl  Cl87  1  0.500000  0.548933  0.289768  1
  Cl  Cl88  1  0.194069  0.918229  0.941432  1
  Cl  Cl89  1  0.500000  0.451067  0.710232  1
  Cl  Cl90  1  0.214574  0.943149  0.336050  1
  Cl  Cl91  1  0.216442  0.000000  0.500000  1
  Cl  Cl92  1  0.500000  0.279752  0.037408  1
  Cl  Cl93  1  0.500000  0.987740  0.813123  1
  Cl  Cl94  1  0.000000  0.677303  0.939440  1
  Cl  Cl95  1  0.000000  0.282421  0.236475  1
  Cl  Cl96  1  0.305931  0.418229  0.558568  1
  Cl  Cl97  1  0.807445  0.707396  0.336307  1
  Cl  Cl98  1  0.500000  0.217579  0.736475  1
  Cl  Cl99  1  0.692555  0.792604  0.836307  1
  Cl  Cl100  1  0.807445  0.292604  0.663693  1
  Cl  Cl101  1  0.000000  0.575435  0.552011  1
  Cl  Cl102  1  0.000000  0.487740  0.686877  1
  Cl  Cl103  1  0.307445  0.207396  0.163693  1
