# generated using pymatgen
data_K2ScSi4O10F
_symmetry_space_group_name_H-M   'P 1'
_cell_length_a   9.01900790
_cell_length_b   9.01900790
_cell_length_c   9.01900790
_cell_angle_alpha   102.12896794
_cell_angle_beta   102.12896794
_cell_angle_gamma   125.43466411
_symmetry_Int_Tables_number   1
_chemical_formula_structural   K2ScSi4O10F
_chemical_formula_sum   'K4 Sc2 Si8 O20 F2'
_cell_volume   531.24844582
_cell_formula_units_Z   2
loop_
 _symmetry_equiv_pos_site_id
 _symmetry_equiv_pos_as_xyz
  1  'x, y, z'
loop_
 _atom_site_type_symbol
 _atom_site_label
 _atom_site_symmetry_multiplicity
 _atom_site_fract_x
 _atom_site_fract_y
 _atom_site_fract_z
 _atom_site_occupancy
  K  K0  1  0.684199  0.684254  0.368453  1
  K  K1  1  0.315745  0.684198  0.999944  1
  K  K2  1  0.315801  0.315745  0.631547  1
  K  K3  1  0.684255  0.315802  0.000056  1
  Sc  Sc4  1  0.755023  0.755023  0.000000  1
  Sc  Sc5  1  0.244977  0.244977  0.000000  1
  Si  Si6  1  0.797692  0.122086  0.302764  1
  Si  Si7  1  0.819322  0.494928  0.697236  1
  Si  Si8  1  0.505072  0.202308  0.324394  1
  Si  Si9  1  0.877914  0.180678  0.675606  1
  Si  Si10  1  0.180678  0.505072  0.302764  1
  Si  Si11  1  0.494928  0.797692  0.675606  1
  Si  Si12  1  0.122086  0.819322  0.324394  1
  Si  Si13  1  0.202308  0.877914  0.697236  1
  O  O14  1  0.682712  0.947944  0.630656  1
  O  O15  1  0.265873  0.448756  0.185303  1
  O  O16  1  0.408006  0.909056  0.729576  1
  O  O17  1  0.551244  0.736547  0.817117  1
  O  O18  1  0.736547  0.919430  0.185303  1
  O  O19  1  0.909056  0.179480  0.501050  1
  O  O20  1  0.678430  0.408006  0.498950  1
  O  O21  1  0.080570  0.265873  0.817117  1
  O  O22  1  0.317288  0.052056  0.369344  1
  O  O23  1  0.090944  0.820520  0.498950  1
  O  O24  1  0.820520  0.321570  0.729576  1
  O  O25  1  0.321570  0.591994  0.501050  1
  O  O26  1  0.947944  0.317288  0.265232  1
  O  O27  1  0.263453  0.080570  0.814697  1
  O  O28  1  0.448756  0.263453  0.182883  1
  O  O29  1  0.734127  0.551244  0.814697  1
  O  O30  1  0.919430  0.734127  0.182883  1
  O  O31  1  0.052056  0.682712  0.734768  1
  O  O32  1  0.591994  0.090944  0.270424  1
  O  O33  1  0.179480  0.678430  0.270424  1
  F  F34  1  0.000000  0.000000  0.000000  1
  F  F35  1  0.500000  0.500000  0.000000  1
