# generated using pymatgen
data_CaMn4(SiO3)5
_symmetry_space_group_name_H-M   'P 1'
_cell_length_a   6.80630003
_cell_length_b   7.82216717
_cell_length_c   11.99545125
_cell_angle_alpha   105.69900678
_cell_angle_beta   92.42464298
_cell_angle_gamma   93.97865071
_symmetry_Int_Tables_number   1
_chemical_formula_structural   CaMn4(SiO3)5
_chemical_formula_sum   'Ca2 Mn8 Si10 O30'
_cell_volume   612.09112708
_cell_formula_units_Z   2
loop_
 _symmetry_equiv_pos_site_id
 _symmetry_equiv_pos_as_xyz
  1  'x, y, z'
loop_
 _atom_site_type_symbol
 _atom_site_label
 _atom_site_symmetry_multiplicity
 _atom_site_fract_x
 _atom_site_fract_y
 _atom_site_fract_z
 _atom_site_occupancy
  Ca  Ca0  1  0.635161  0.045451  0.693167  1
  Ca  Ca1  1  0.364839  0.954549  0.306833  1
  Mn  Mn2  1  0.031340  0.117627  0.148306  1
  Mn  Mn3  1  0.125390  0.316649  0.445312  1
  Mn  Mn4  1  0.796408  0.305261  0.977912  1
  Mn  Mn5  1  0.203592  0.694739  0.022088  1
  Mn  Mn6  1  0.812660  0.492349  0.270513  1
  Mn  Mn7  1  0.968660  0.882373  0.851694  1
  Mn  Mn8  1  0.874610  0.683351  0.554688  1
  Mn  Mn9  1  0.187340  0.507651  0.729487  1
  Si  Si10  1  0.290490  0.538970  0.261269  1
  Si  Si11  1  0.495550  0.222057  0.125573  1
  Si  Si12  1  0.844672  0.927053  0.345209  1
  Si  Si13  1  0.155328  0.072947  0.654791  1
  Si  Si14  1  0.755088  0.746594  0.089235  1
  Si  Si15  1  0.504450  0.777943  0.874427  1
  Si  Si16  1  0.244912  0.253406  0.910765  1
  Si  Si17  1  0.638626  0.270051  0.470405  1
  Si  Si18  1  0.709510  0.461030  0.738731  1
  Si  Si19  1  0.361374  0.729949  0.529595  1
  O  O20  1  0.301254  0.943452  0.566397  1
  O  O21  1  0.883085  0.752930  0.388618  1
  O  O22  1  0.104769  0.399289  0.268226  1
  O  O23  1  0.254721  0.673024  0.183220  1
  O  O24  1  0.266566  0.795566  0.868783  1
  O  O25  1  0.299245  0.135323  0.778853  1
  O  O26  1  0.635080  0.316015  0.613021  1
  O  O27  1  0.961522  0.954383  0.676861  1
  O  O28  1  0.116915  0.247070  0.611382  1
  O  O29  1  0.418858  0.256206  0.413470  1
  O  O30  1  0.057070  0.156657  0.959365  1
  O  O31  1  0.700755  0.864677  0.221147  1
  O  O32  1  0.809621  0.401157  0.436441  1
  O  O33  1  0.895231  0.600711  0.731774  1
  O  O34  1  0.038478  0.045617  0.323139  1
  O  O35  1  0.942930  0.843343  0.040635  1
  O  O36  1  0.190379  0.598843  0.563559  1
  O  O37  1  0.581142  0.743794  0.586530  1
  O  O38  1  0.807111  0.553114  0.100033  1
  O  O39  1  0.444727  0.256979  0.995900  1
  O  O40  1  0.555273  0.743021  0.004100  1
  O  O41  1  0.192889  0.446886  0.899967  1
  O  O42  1  0.517290  0.578349  0.778449  1
  O  O43  1  0.745279  0.326976  0.816780  1
  O  O44  1  0.698746  0.056548  0.433603  1
  O  O45  1  0.658507  0.928583  0.851526  1
  O  O46  1  0.364920  0.683985  0.386979  1
  O  O47  1  0.482710  0.421651  0.221551  1
  O  O48  1  0.733434  0.204434  0.131217  1
  O  O49  1  0.341493  0.071417  0.148474  1
