# generated using pymatgen
data_Sr3Li4(GeN3)2
_symmetry_space_group_name_H-M   'P 1'
_cell_length_a   5.93188590
_cell_length_b   5.93188590
_cell_length_c   6.36369633
_cell_angle_alpha   89.32241360
_cell_angle_beta   90.67758640
_cell_angle_gamma   62.99455135
_symmetry_Int_Tables_number   1
_chemical_formula_structural   Sr3Li4(GeN3)2
_chemical_formula_sum   'Sr3 Li4 Ge2 N6'
_cell_volume   199.45438143
_cell_formula_units_Z   1
loop_
 _symmetry_equiv_pos_site_id
 _symmetry_equiv_pos_as_xyz
  1  'x, y, z'
loop_
 _atom_site_type_symbol
 _atom_site_label
 _atom_site_symmetry_multiplicity
 _atom_site_fract_x
 _atom_site_fract_y
 _atom_site_fract_z
 _atom_site_occupancy
  Sr  Sr0  1  0.810514  0.810514  0.500000  1
  Sr  Sr1  1  0.189486  0.189486  0.500000  1
  Sr  Sr2  1  0.000000  0.000000  0.000000  1
  Li  Li3  1  0.457990  0.183463  0.881742  1
  Li  Li4  1  0.542010  0.816537  0.118258  1
  Li  Li5  1  0.183463  0.457990  0.118258  1
  Li  Li6  1  0.816537  0.542010  0.881742  1
  Ge  Ge7  1  0.387709  0.612291  0.679413  1
  Ge  Ge8  1  0.612291  0.387709  0.320587  1
  N  N9  1  0.860603  0.450516  0.198884  1
  N  N10  1  0.139397  0.549484  0.801116  1
  N  N11  1  0.699482  0.300518  0.631728  1
  N  N12  1  0.300518  0.699482  0.368272  1
  N  N13  1  0.549484  0.139397  0.198884  1
  N  N14  1  0.450516  0.860603  0.801116  1
