# generated using pymatgen
data_YbSeO3F
_symmetry_space_group_name_H-M   'P 1'
_cell_length_a   6.90153442
_cell_length_b   6.96499549
_cell_length_c   7.13997690
_cell_angle_alpha   90.00000000
_cell_angle_beta   96.07699996
_cell_angle_gamma   90.00000000
_symmetry_Int_Tables_number   1
_chemical_formula_structural   YbSeO3F
_chemical_formula_sum   'Yb4 Se4 O12 F4'
_cell_volume   341.28398775
_cell_formula_units_Z   4
loop_
 _symmetry_equiv_pos_site_id
 _symmetry_equiv_pos_as_xyz
  1  'x, y, z'
loop_
 _atom_site_type_symbol
 _atom_site_label
 _atom_site_symmetry_multiplicity
 _atom_site_fract_x
 _atom_site_fract_y
 _atom_site_fract_z
 _atom_site_occupancy
  Yb  Yb0  1  0.852030  0.849345  0.187979  1
  Yb  Yb1  1  0.852030  0.650655  0.687979  1
  Yb  Yb2  1  0.147970  0.150655  0.812021  1
  Yb  Yb3  1  0.147970  0.349345  0.312021  1
  Se  Se4  1  0.323407  0.616899  0.772650  1
  Se  Se5  1  0.676593  0.116899  0.727350  1
  Se  Se6  1  0.676593  0.383101  0.227350  1
  Se  Se7  1  0.323407  0.883101  0.272650  1
  O  O8  1  0.493861  0.309259  0.350977  1
  O  O9  1  0.826377  0.966581  0.863387  1
  O  O10  1  0.829616  0.198018  0.199097  1
  O  O11  1  0.829616  0.301982  0.699097  1
  O  O12  1  0.173623  0.466581  0.636613  1
  O  O13  1  0.506139  0.809259  0.149023  1
  O  O14  1  0.170384  0.801982  0.800903  1
  O  O15  1  0.826377  0.533419  0.363387  1
  O  O16  1  0.506139  0.690741  0.649023  1
  O  O17  1  0.493861  0.190741  0.850977  1
  O  O18  1  0.170384  0.698018  0.300903  1
  O  O19  1  0.173623  0.033419  0.136613  1
  F  F20  1  0.804873  0.897857  0.486440  1
  F  F21  1  0.195127  0.397857  0.013560  1
  F  F22  1  0.195127  0.102143  0.513560  1
  F  F23  1  0.804873  0.602143  0.986440  1
