# generated using pymatgen
data_CsTm2Cu3Se5
_symmetry_space_group_name_H-M   'P 1'
_cell_length_a   7.62349276
_cell_length_b   7.62349276
_cell_length_c   17.24349365
_cell_angle_alpha   90.00000000
_cell_angle_beta   90.00000000
_cell_angle_gamma   148.67788680
_symmetry_Int_Tables_number   1
_chemical_formula_structural   CsTm2Cu3Se5
_chemical_formula_sum   'Cs2 Tm4 Cu6 Se10'
_cell_volume   520.96714254
_cell_formula_units_Z   2
loop_
 _symmetry_equiv_pos_site_id
 _symmetry_equiv_pos_as_xyz
  1  'x, y, z'
loop_
 _atom_site_type_symbol
 _atom_site_label
 _atom_site_symmetry_multiplicity
 _atom_site_fract_x
 _atom_site_fract_y
 _atom_site_fract_z
 _atom_site_occupancy
  Cs  Cs0  1  0.061115  0.938885  0.750000  1
  Cs  Cs1  1  0.938885  0.061115  0.250000  1
  Tm  Tm2  1  0.192374  0.807626  0.091572  1
  Tm  Tm3  1  0.807626  0.192374  0.591572  1
  Tm  Tm4  1  0.807626  0.192374  0.908428  1
  Tm  Tm5  1  0.192374  0.807626  0.408428  1
  Cu  Cu6  1  0.582905  0.417095  0.532989  1
  Cu  Cu7  1  0.655778  0.344222  0.250000  1
  Cu  Cu8  1  0.417095  0.582905  0.467011  1
  Cu  Cu9  1  0.417095  0.582905  0.032989  1
  Cu  Cu10  1  0.344222  0.655778  0.750000  1
  Cu  Cu11  1  0.582905  0.417095  0.967011  1
  Se  Se12  1  0.437207  0.562793  0.887847  1
  Se  Se13  1  0.830274  0.169726  0.430221  1
  Se  Se14  1  0.562793  0.437207  0.112153  1
  Se  Se15  1  0.761918  0.238082  0.750000  1
  Se  Se16  1  0.169726  0.830274  0.930221  1
  Se  Se17  1  0.169726  0.830274  0.569779  1
  Se  Se18  1  0.562793  0.437207  0.387847  1
  Se  Se19  1  0.238082  0.761918  0.250000  1
  Se  Se20  1  0.830274  0.169726  0.069779  1
  Se  Se21  1  0.437207  0.562793  0.612153  1
