# generated using pymatgen
data_Nd4(SBr2)3
_symmetry_space_group_name_H-M   'P 1'
_cell_length_a   15.27670436
_cell_length_b   15.27670436
_cell_length_c   7.20698531
_cell_angle_alpha   85.46162022
_cell_angle_beta   94.53837978
_cell_angle_gamma   153.77876340
_symmetry_Int_Tables_number   1
_chemical_formula_structural   Nd4(SBr2)3
_chemical_formula_sum   'Nd8 S6 Br12'
_cell_volume   740.69320632
_cell_formula_units_Z   2
loop_
 _symmetry_equiv_pos_site_id
 _symmetry_equiv_pos_as_xyz
  1  'x, y, z'
loop_
 _atom_site_type_symbol
 _atom_site_label
 _atom_site_symmetry_multiplicity
 _atom_site_fract_x
 _atom_site_fract_y
 _atom_site_fract_z
 _atom_site_occupancy
  Nd  Nd0  1  0.366696  0.252680  0.985074  1
  Nd  Nd1  1  0.135813  0.477925  0.906155  1
  Nd  Nd2  1  0.864187  0.522075  0.093845  1
  Nd  Nd3  1  0.633304  0.747320  0.014926  1
  Nd  Nd4  1  0.477925  0.135813  0.593845  1
  Nd  Nd5  1  0.747320  0.633304  0.485074  1
  Nd  Nd6  1  0.522075  0.864187  0.406155  1
  Nd  Nd7  1  0.252680  0.366696  0.514926  1
  S  S8  1  0.667589  0.434684  0.790756  1
  S  S9  1  0.550395  0.550395  0.750000  1
  S  S10  1  0.434684  0.667589  0.709244  1
  S  S11  1  0.332411  0.565316  0.209244  1
  S  S12  1  0.565316  0.332411  0.290756  1
  S  S13  1  0.449605  0.449605  0.250000  1
  Br  Br14  1  0.944810  0.841285  0.110020  1
  Br  Br15  1  0.055190  0.158715  0.889980  1
  Br  Br16  1  0.061732  0.749758  0.445580  1
  Br  Br17  1  0.347944  0.817749  0.685212  1
  Br  Br18  1  0.749758  0.061732  0.054420  1
  Br  Br19  1  0.938268  0.250242  0.554420  1
  Br  Br20  1  0.841285  0.944810  0.389980  1
  Br  Br21  1  0.158715  0.055190  0.610020  1
  Br  Br22  1  0.250242  0.938268  0.945580  1
  Br  Br23  1  0.817749  0.347944  0.814788  1
  Br  Br24  1  0.182251  0.652056  0.185212  1
  Br  Br25  1  0.652056  0.182251  0.314788  1
