# generated using pymatgen
data_Sn4(PO4)3
_symmetry_space_group_name_H-M   'P 1'
_cell_length_a   9.71223468
_cell_length_b   9.71223468
_cell_length_c   6.95696795
_cell_angle_alpha   90.00000000
_cell_angle_beta   90.00000000
_cell_angle_gamma   120.00000000
_symmetry_Int_Tables_number   1
_chemical_formula_structural   Sn4(PO4)3
_chemical_formula_sum   'Sn8 P6 O24'
_cell_volume   568.31480561
_cell_formula_units_Z   2
loop_
 _symmetry_equiv_pos_site_id
 _symmetry_equiv_pos_as_xyz
  1  'x, y, z'
loop_
 _atom_site_type_symbol
 _atom_site_label
 _atom_site_symmetry_multiplicity
 _atom_site_fract_x
 _atom_site_fract_y
 _atom_site_fract_z
 _atom_site_occupancy
  Sn  Sn0  1  0.761930  0.020138  0.244981  1
  Sn  Sn1  1  0.666667  0.333333  0.936629  1
  Sn  Sn2  1  0.741792  0.761930  0.744981  1
  Sn  Sn3  1  0.238070  0.979862  0.744981  1
  Sn  Sn4  1  0.333333  0.666667  0.436629  1
  Sn  Sn5  1  0.979862  0.741792  0.244981  1
  Sn  Sn6  1  0.020138  0.258208  0.744981  1
  Sn  Sn7  1  0.258208  0.238070  0.244981  1
  P  P8  1  0.386145  0.408225  0.756112  1
  P  P9  1  0.408225  0.022080  0.256112  1
  P  P10  1  0.022080  0.613855  0.756112  1
  P  P11  1  0.613855  0.591775  0.256112  1
  P  P12  1  0.977920  0.386145  0.256112  1
  P  P13  1  0.591775  0.977920  0.756112  1
  O  O14  1  0.639606  0.915908  0.573923  1
  O  O15  1  0.099216  0.507338  0.752379  1
  O  O16  1  0.163010  0.489603  0.253084  1
  O  O17  1  0.276302  0.360394  0.573923  1
  O  O18  1  0.915908  0.276302  0.073923  1
  O  O19  1  0.673407  0.163010  0.753084  1
  O  O20  1  0.507338  0.408122  0.252379  1
  O  O21  1  0.489603  0.326593  0.753084  1
  O  O22  1  0.510397  0.673407  0.253084  1
  O  O23  1  0.269120  0.345847  0.928522  1
  O  O24  1  0.591878  0.099216  0.252379  1
  O  O25  1  0.408122  0.900784  0.752379  1
  O  O26  1  0.084092  0.723698  0.573923  1
  O  O27  1  0.723698  0.639606  0.073923  1
  O  O28  1  0.654153  0.923273  0.928522  1
  O  O29  1  0.836990  0.510397  0.753084  1
  O  O30  1  0.492662  0.591878  0.752379  1
  O  O31  1  0.923273  0.269120  0.428522  1
  O  O32  1  0.900784  0.492662  0.252379  1
  O  O33  1  0.326593  0.836990  0.253084  1
  O  O34  1  0.360394  0.084092  0.073923  1
  O  O35  1  0.345847  0.076727  0.428522  1
  O  O36  1  0.730880  0.654153  0.428522  1
  O  O37  1  0.076727  0.730880  0.928522  1
