# generated using pymatgen
data_Ca7Cu(PtO6)2
_symmetry_space_group_name_H-M   'P 1'
_cell_length_a   6.60427067
_cell_length_b   6.60427067
_cell_length_c   6.55739309
_cell_angle_alpha   89.26929660
_cell_angle_beta   90.73070340
_cell_angle_gamma   88.93366244
_symmetry_Int_Tables_number   1
_chemical_formula_structural   Ca7Cu(PtO6)2
_chemical_formula_sum   'Ca7 Cu1 Pt2 O12'
_cell_volume   285.91289725
_cell_formula_units_Z   1
loop_
 _symmetry_equiv_pos_site_id
 _symmetry_equiv_pos_as_xyz
  1  'x, y, z'
loop_
 _atom_site_type_symbol
 _atom_site_label
 _atom_site_symmetry_multiplicity
 _atom_site_fract_x
 _atom_site_fract_y
 _atom_site_fract_z
 _atom_site_occupancy
  Ca  Ca0  1  0.111644  0.111644  0.500000  1
  Ca  Ca1  1  0.757301  0.383819  0.132505  1
  Ca  Ca2  1  0.246760  0.609268  0.363601  1
  Ca  Ca3  1  0.904972  0.904972  0.000000  1
  Ca  Ca4  1  0.383819  0.757301  0.867495  1
  Ca  Ca5  1  0.752515  0.752515  0.500000  1
  Ca  Ca6  1  0.609268  0.246760  0.636399  1
  Cu  Cu7  1  0.310652  0.310652  0.000000  1
  Pt  Pt8  1  0.489072  0.996570  0.250357  1
  Pt  Pt9  1  0.996570  0.489072  0.749643  1
  O  O10  1  0.522472  0.094152  0.956237  1
  O  O11  1  0.701018  0.572331  0.802692  1
  O  O12  1  0.094152  0.522472  0.043763  1
  O  O13  1  0.922922  0.447589  0.449059  1
  O  O14  1  0.447589  0.922922  0.550941  1
  O  O15  1  0.292529  0.404975  0.706579  1
  O  O16  1  0.196209  0.923225  0.187588  1
  O  O17  1  0.572331  0.701018  0.197308  1
  O  O18  1  0.404975  0.292529  0.293421  1
  O  O19  1  0.059676  0.788429  0.682818  1
  O  O20  1  0.788429  0.059676  0.317182  1
  O  O21  1  0.923225  0.196209  0.812412  1
