# generated using pymatgen
data_Tl4Ag18Te11
_symmetry_space_group_name_H-M   'P 1'
_cell_length_a   13.40809300
_cell_length_b   13.40809300
_cell_length_c   13.40809300
_cell_angle_alpha   120.06810914
_cell_angle_beta   120.06810914
_cell_angle_gamma   89.88207194
_symmetry_Int_Tables_number   1
_chemical_formula_structural   Tl4Ag18Te11
_chemical_formula_sum   'Tl8 Ag36 Te22'
_cell_volume   1702.69838132
_cell_formula_units_Z   2
loop_
 _symmetry_equiv_pos_site_id
 _symmetry_equiv_pos_as_xyz
  1  'x, y, z'
loop_
 _atom_site_type_symbol
 _atom_site_label
 _atom_site_symmetry_multiplicity
 _atom_site_fract_x
 _atom_site_fract_y
 _atom_site_fract_z
 _atom_site_occupancy
  Tl  Tl0  1  0.999168  0.999168  0.000000  1
  Tl  Tl1  1  0.764371  0.764371  0.000000  1
  Tl  Tl2  1  0.765748  0.235255  0.000000  1
  Tl  Tl3  1  0.765748  0.765748  0.530494  1
  Tl  Tl4  1  0.235255  0.235255  0.469506  1
  Tl  Tl5  1  0.440299  0.440299  0.000000  1
  Tl  Tl6  1  0.235255  0.765748  1.000000  1
  Tl  Tl7  1  0.227342  0.227342  0.000000  1
  Ag  Ag8  1  0.993631  0.257937  0.514917  1
  Ag  Ag9  1  0.993631  0.478714  0.735693  1
  Ag  Ag10  1  0.991213  0.256591  0.734621  1
  Ag  Ag11  1  0.742680  0.007781  0.265100  1
  Ag  Ag12  1  0.743021  0.257937  0.264307  1
  Ag  Ag13  1  0.743021  0.478714  0.485083  1
  Ag  Ag14  1  0.742325  0.006223  0.484813  1
  Ag  Ag15  1  0.521970  0.256591  0.265379  1
  Ag  Ag16  1  0.521410  0.006223  0.263898  1
  Ag  Ag17  1  0.742680  0.477580  0.734900  1
  Ag  Ag18  1  0.742325  0.257512  0.736102  1
  Ag  Ag19  1  0.007781  0.742680  0.265100  1
  Ag  Ag20  1  0.006223  0.521410  0.263898  1
  Ag  Ag21  1  0.521410  0.257512  0.515187  1
  Ag  Ag22  1  0.006223  0.742325  0.484813  1
  Ag  Ag23  1  0.477580  0.742680  0.734900  1
  Ag  Ag24  1  0.478714  0.993631  0.735693  1
  Ag  Ag25  1  0.257937  0.993631  0.514917  1
  Ag  Ag26  1  0.257512  0.521410  0.515187  1
  Ag  Ag27  1  0.257512  0.742325  0.736102  1
  Ag  Ag28  1  0.256591  0.991213  0.734621  1
  Ag  Ag29  1  0.613412  0.000030  0.613381  1
  Ag  Ag30  1  0.615562  0.615562  0.617849  1
  Ag  Ag31  1  0.478714  0.743021  0.485083  1
  Ag  Ag32  1  0.386649  0.000030  0.386619  1
  Ag  Ag33  1  0.385493  0.385493  0.386791  1
  Ag  Ag34  1  0.256591  0.521970  0.265379  1
  Ag  Ag35  1  0.257937  0.743021  0.264307  1
  Ag  Ag36  1  0.615562  0.997714  1.000000  1
  Ag  Ag37  1  0.997714  0.615562  0.000000  1
  Ag  Ag38  1  0.998701  0.385493  0.000000  1
  Ag  Ag39  1  0.385493  0.998701  1.000000  1
  Ag  Ag40  1  0.997714  0.997714  0.382151  1
  Ag  Ag41  1  0.000030  0.386649  0.386619  1
  Ag  Ag42  1  0.998701  0.998701  0.613209  1
  Ag  Ag43  1  0.000030  0.613412  0.613381  1
  Te  Te44  1  0.890999  0.109335  0.218336  1
  Te  Te45  1  0.890999  0.672663  0.781664  1
  Te  Te46  1  0.890064  0.108251  0.781812  1
  Te  Te47  1  0.749525  0.249525  0.500000  1
  Te  Te48  1  0.815704  0.500166  0.000000  1
  Te  Te49  1  0.326439  0.108251  0.218188  1
  Te  Te50  1  0.500506  0.185868  0.685362  1
  Te  Te51  1  0.500166  0.500166  0.684462  1
  Te  Te52  1  0.815704  0.815704  0.315538  1
  Te  Te53  1  0.815144  0.500506  0.314638  1
  Te  Te54  1  0.500166  0.815704  1.000000  1
  Te  Te55  1  0.499073  0.183225  1.000000  1
  Te  Te56  1  0.500506  0.815144  0.314638  1
  Te  Te57  1  0.499073  0.499073  0.315848  1
  Te  Te58  1  0.183225  0.183225  0.684152  1
  Te  Te59  1  0.185868  0.500506  0.685362  1
  Te  Te60  1  0.672663  0.890999  0.781664  1
  Te  Te61  1  0.183225  0.499073  0.000000  1
  Te  Te62  1  0.109335  0.890999  0.218336  1
  Te  Te63  1  0.108251  0.326439  0.218188  1
  Te  Te64  1  0.249525  0.749525  0.500000  1
  Te  Te65  1  0.108251  0.890064  0.781812  1
