# generated using pymatgen
data_K2Be(Si2O5)2
_symmetry_space_group_name_H-M   'P 1'
_cell_length_a   7.04563727
_cell_length_b   9.87571900
_cell_length_c   15.22486519
_cell_angle_alpha   90.00000000
_cell_angle_beta   113.67710174
_cell_angle_gamma   90.00000000
_symmetry_Int_Tables_number   1
_chemical_formula_structural   K2Be(Si2O5)2
_chemical_formula_sum   'K8 Be4 Si16 O40'
_cell_volume   970.18394141
_cell_formula_units_Z   4
loop_
 _symmetry_equiv_pos_site_id
 _symmetry_equiv_pos_as_xyz
  1  'x, y, z'
loop_
 _atom_site_type_symbol
 _atom_site_label
 _atom_site_symmetry_multiplicity
 _atom_site_fract_x
 _atom_site_fract_y
 _atom_site_fract_z
 _atom_site_occupancy
  K  K0  1  0.107476  0.078184  0.866870  1
  K  K1  1  0.892524  0.578184  0.633130  1
  K  K2  1  0.134035  0.124510  0.592100  1
  K  K3  1  0.107476  0.421816  0.366870  1
  K  K4  1  0.865965  0.875490  0.407900  1
  K  K5  1  0.134035  0.375490  0.092100  1
  K  K6  1  0.892524  0.921816  0.133130  1
  K  K7  1  0.865965  0.624510  0.907900  1
  Be  Be8  1  0.150736  0.635566  0.195233  1
  Be  Be9  1  0.849264  0.364434  0.804767  1
  Be  Be10  1  0.849264  0.135566  0.304767  1
  Be  Be11  1  0.150736  0.864434  0.695233  1
  Si  Si12  1  0.352139  0.783611  0.369944  1
  Si  Si13  1  0.333796  0.765382  0.066703  1
  Si  Si14  1  0.647861  0.216389  0.630056  1
  Si  Si15  1  0.558467  0.951543  0.829414  1
  Si  Si16  1  0.647861  0.283611  0.130056  1
  Si  Si17  1  0.703305  0.574016  0.166221  1
  Si  Si18  1  0.296695  0.425984  0.833779  1
  Si  Si19  1  0.703305  0.925984  0.666221  1
  Si  Si20  1  0.296695  0.074016  0.333779  1
  Si  Si21  1  0.666204  0.265382  0.433297  1
  Si  Si22  1  0.352139  0.716389  0.869944  1
  Si  Si23  1  0.333796  0.734618  0.566703  1
  Si  Si24  1  0.441533  0.048457  0.170586  1
  Si  Si25  1  0.441533  0.451543  0.670586  1
  Si  Si26  1  0.666204  0.234618  0.933297  1
  Si  Si27  1  0.558467  0.548457  0.329414  1
  O  O28  1  0.334676  0.929484  0.089510  1
  O  O29  1  0.276390  0.422712  0.720838  1
  O  O30  1  0.074864  0.433857  0.837469  1
  O  O31  1  0.074864  0.066143  0.337469  1
  O  O32  1  0.179455  0.765477  0.263795  1
  O  O33  1  0.576899  0.713192  0.114561  1
  O  O34  1  0.665324  0.429484  0.410490  1
  O  O35  1  0.334676  0.570516  0.589510  1
  O  O36  1  0.723610  0.577288  0.279162  1
  O  O37  1  0.559738  0.440988  0.111276  1
  O  O38  1  0.723610  0.922712  0.779162  1
  O  O39  1  0.824770  0.320404  0.904425  1
  O  O40  1  0.744717  0.259176  0.551383  1
  O  O41  1  0.255283  0.740824  0.448617  1
  O  O42  1  0.744717  0.240824  0.051383  1
  O  O43  1  0.175230  0.679596  0.095575  1
  O  O44  1  0.665324  0.070516  0.910490  1
  O  O45  1  0.562450  0.812174  0.892515  1
  O  O46  1  0.175230  0.820404  0.595575  1
  O  O47  1  0.325408  0.516682  0.256434  1
  O  O48  1  0.820545  0.234523  0.736205  1
  O  O49  1  0.674592  0.483318  0.743566  1
  O  O50  1  0.255283  0.759176  0.948617  1
  O  O51  1  0.562450  0.687826  0.392515  1
  O  O52  1  0.437550  0.312174  0.607485  1
  O  O53  1  0.925136  0.933857  0.662531  1
  O  O54  1  0.576899  0.786808  0.614561  1
  O  O55  1  0.440262  0.940988  0.388724  1
  O  O56  1  0.423101  0.286808  0.885439  1
  O  O57  1  0.179455  0.734523  0.763795  1
  O  O58  1  0.440262  0.559012  0.888724  1
  O  O59  1  0.276390  0.077288  0.220838  1
  O  O60  1  0.820545  0.265477  0.236205  1
  O  O61  1  0.325408  0.983318  0.756434  1
  O  O62  1  0.423101  0.213192  0.385439  1
  O  O63  1  0.824770  0.179596  0.404425  1
  O  O64  1  0.559738  0.059012  0.611276  1
  O  O65  1  0.674592  0.016682  0.243566  1
  O  O66  1  0.437550  0.187826  0.107485  1
  O  O67  1  0.925136  0.566143  0.162531  1
