# generated using pymatgen
data_Li3Gd(BO3)2
_symmetry_space_group_name_H-M   'P 1'
_cell_length_a   8.80703126
_cell_length_b   6.50026239
_cell_length_c   10.17817413
_cell_angle_alpha   90.00000000
_cell_angle_beta   116.90202306
_cell_angle_gamma   90.00000000
_symmetry_Int_Tables_number   1
_chemical_formula_structural   Li3Gd(BO3)2
_chemical_formula_sum   'Li12 Gd4 B8 O24'
_cell_volume   519.62350400
_cell_formula_units_Z   4
loop_
 _symmetry_equiv_pos_site_id
 _symmetry_equiv_pos_as_xyz
  1  'x, y, z'
loop_
 _atom_site_type_symbol
 _atom_site_label
 _atom_site_symmetry_multiplicity
 _atom_site_fract_x
 _atom_site_fract_y
 _atom_site_fract_z
 _atom_site_occupancy
  Li  Li0  1  0.295523  0.561769  0.333802  1
  Li  Li1  1  0.395301  0.256174  0.521740  1
  Li  Li2  1  0.395301  0.243826  0.021740  1
  Li  Li3  1  0.604699  0.756174  0.978260  1
  Li  Li4  1  0.163936  0.780804  0.459317  1
  Li  Li5  1  0.704477  0.061769  0.166198  1
  Li  Li6  1  0.704477  0.438231  0.666198  1
  Li  Li7  1  0.836064  0.219196  0.540683  1
  Li  Li8  1  0.604699  0.743826  0.478260  1
  Li  Li9  1  0.836064  0.280804  0.040683  1
  Li  Li10  1  0.163936  0.719196  0.959317  1
  Li  Li11  1  0.295523  0.938231  0.833802  1
  Gd  Gd12  1  0.817396  0.972338  0.800080  1
  Gd  Gd13  1  0.182604  0.472338  0.699920  1
  Gd  Gd14  1  0.182604  0.027662  0.199920  1
  Gd  Gd15  1  0.817396  0.527662  0.300080  1
  B  B16  1  0.459504  0.662857  0.677340  1
  B  B17  1  0.947751  0.672245  0.107578  1
  B  B18  1  0.540496  0.337143  0.322660  1
  B  B19  1  0.459504  0.837143  0.177340  1
  B  B20  1  0.052249  0.172245  0.392422  1
  B  B21  1  0.052249  0.327755  0.892422  1
  B  B22  1  0.540496  0.162857  0.822660  1
  B  B23  1  0.947751  0.827755  0.607578  1
  O  O24  1  0.618013  0.710008  0.688731  1
  O  O25  1  0.662987  0.439573  0.447427  1
  O  O26  1  0.989300  0.785874  0.013625  1
  O  O27  1  0.381987  0.289992  0.311269  1
  O  O28  1  0.059080  0.819666  0.757748  1
  O  O29  1  0.381987  0.210008  0.811269  1
  O  O30  1  0.337013  0.560427  0.552573  1
  O  O31  1  0.410077  0.708452  0.786540  1
  O  O32  1  0.337013  0.939573  0.052573  1
  O  O33  1  0.662987  0.060427  0.947427  1
  O  O34  1  0.010700  0.285874  0.486375  1
  O  O35  1  0.010700  0.214126  0.986375  1
  O  O36  1  0.202589  0.435199  0.938882  1
  O  O37  1  0.618013  0.789992  0.188731  1
  O  O38  1  0.410077  0.791548  0.286540  1
  O  O39  1  0.797411  0.935199  0.561118  1
  O  O40  1  0.940920  0.319666  0.742252  1
  O  O41  1  0.797411  0.564801  0.061118  1
  O  O42  1  0.940920  0.180334  0.242252  1
  O  O43  1  0.589923  0.291548  0.213460  1
  O  O44  1  0.589923  0.208452  0.713460  1
  O  O45  1  0.989300  0.714126  0.513625  1
  O  O46  1  0.202589  0.064801  0.438882  1
  O  O47  1  0.059080  0.680334  0.257748  1
