# generated using pymatgen
data_Ti5(PO5)4
_symmetry_space_group_name_H-M   'P 1'
_cell_length_a   7.60765171
_cell_length_b   12.99757081
_cell_length_c   14.57870732
_cell_angle_alpha   90.00000000
_cell_angle_beta   90.00000000
_cell_angle_gamma   90.00000000
_symmetry_Int_Tables_number   1
_chemical_formula_structural   Ti5(PO5)4
_chemical_formula_sum   'Ti20 P16 O80'
_cell_volume   1441.55703894
_cell_formula_units_Z   4
loop_
 _symmetry_equiv_pos_site_id
 _symmetry_equiv_pos_as_xyz
  1  'x, y, z'
loop_
 _atom_site_type_symbol
 _atom_site_label
 _atom_site_symmetry_multiplicity
 _atom_site_fract_x
 _atom_site_fract_y
 _atom_site_fract_z
 _atom_site_occupancy
  Ti  Ti0  1  0.605966  0.143732  0.176550  1
  Ti  Ti1  1  0.876033  0.376170  0.441607  1
  Ti  Ti2  1  0.647594  0.383903  0.053659  1
  Ti  Ti3  1  0.105966  0.356268  0.823450  1
  Ti  Ti4  1  0.394034  0.643732  0.323450  1
  Ti  Ti5  1  0.623967  0.623830  0.941607  1
  Ti  Ti6  1  0.150493  0.607450  0.705112  1
  Ti  Ti7  1  0.123967  0.876170  0.058393  1
  Ti  Ti8  1  0.904225  0.134056  0.329304  1
  Ti  Ti9  1  0.147594  0.116097  0.946341  1
  Ti  Ti10  1  0.595775  0.865944  0.829304  1
  Ti  Ti11  1  0.852406  0.616097  0.553659  1
  Ti  Ti12  1  0.894034  0.856268  0.676550  1
  Ti  Ti13  1  0.404225  0.365944  0.670696  1
  Ti  Ti14  1  0.349507  0.392550  0.205112  1
  Ti  Ti15  1  0.095775  0.634056  0.170696  1
  Ti  Ti16  1  0.376033  0.123830  0.558393  1
  Ti  Ti17  1  0.352406  0.883903  0.446341  1
  Ti  Ti18  1  0.849507  0.107450  0.794888  1
  Ti  Ti19  1  0.650493  0.892550  0.294888  1
  P  P20  1  0.479140  0.756977  0.121728  1
  P  P21  1  0.733917  0.995873  0.499815  1
  P  P22  1  0.979140  0.743023  0.878272  1
  P  P23  1  0.266083  0.495873  0.000185  1
  P  P24  1  0.020860  0.243023  0.621728  1
  P  P25  1  0.759751  0.490689  0.753288  1
  P  P26  1  0.520860  0.256977  0.378272  1
  P  P27  1  0.259751  0.009311  0.246712  1
  P  P28  1  0.500743  0.743988  0.627695  1
  P  P29  1  0.766083  0.004127  0.999815  1
  P  P30  1  0.000743  0.756012  0.372305  1
  P  P31  1  0.999257  0.256012  0.127695  1
  P  P32  1  0.240249  0.990689  0.746712  1
  P  P33  1  0.740249  0.509311  0.253288  1
  P  P34  1  0.233917  0.504127  0.500185  1
  P  P35  1  0.499257  0.243988  0.872305  1
  O  O36  1  0.115883  0.432324  0.445101  1
  O  O37  1  0.162490  0.424012  0.935917  1
  O  O38  1  0.884857  0.186329  0.192138  1
  O  O39  1  0.139107  0.556973  0.061229  1
  O  O40  1  0.860237  0.676825  0.938521  1
  O  O41  1  0.880512  0.553637  0.686927  1
  O  O42  1  0.137557  0.312097  0.686640  1
  O  O43  1  0.362443  0.687903  0.186640  1
  O  O44  1  0.639107  0.943027  0.938771  1
  O  O45  1  0.862443  0.812097  0.813360  1
  O  O46  1  0.375581  0.929406  0.803172  1
  O  O47  1  0.907464  0.689265  0.444089  1
  O  O48  1  0.799102  0.498895  0.502261  1
  O  O49  1  0.662490  0.075988  0.064083  1
  O  O50  1  0.620856  0.925540  0.433774  1
  O  O51  1  0.459018  0.249396  0.621140  1
  O  O52  1  0.618030  0.585180  0.304643  1
  O  O53  1  0.906816  0.172788  0.683440  1
  O  O54  1  0.700898  0.501105  0.002261  1
  O  O55  1  0.637848  0.184762  0.816766  1
  O  O56  1  0.139763  0.176825  0.561479  1
  O  O57  1  0.619488  0.446363  0.186927  1
  O  O58  1  0.406816  0.327212  0.316560  1
  O  O59  1  0.464466  0.764366  0.361713  1
  O  O60  1  0.875581  0.570594  0.196828  1
  O  O61  1  0.860893  0.056973  0.438771  1
  O  O62  1  0.624405  0.667873  0.578696  1
  O  O63  1  0.118030  0.914820  0.695357  1
  O  O64  1  0.904642  0.311755  0.562919  1
  O  O65  1  0.615143  0.813671  0.692138  1
  O  O66  1  0.964466  0.735634  0.638287  1
  O  O67  1  0.230280  0.488222  0.741183  1
  O  O68  1  0.535534  0.264366  0.138287  1
  O  O69  1  0.093184  0.672788  0.816560  1
  O  O70  1  0.730280  0.011778  0.258817  1
  O  O71  1  0.362152  0.684762  0.683234  1
  O  O72  1  0.615883  0.067676  0.554899  1
  O  O73  1  0.595358  0.688245  0.062919  1
  O  O74  1  0.337510  0.575988  0.435917  1
  O  O75  1  0.035534  0.235634  0.861713  1
  O  O76  1  0.881970  0.414820  0.804643  1
  O  O77  1  0.592536  0.310735  0.944089  1
  O  O78  1  0.137848  0.315238  0.183234  1
  O  O79  1  0.637557  0.187903  0.313360  1
  O  O80  1  0.115143  0.686329  0.307862  1
  O  O81  1  0.407464  0.810735  0.555911  1
  O  O82  1  0.593184  0.827212  0.183440  1
  O  O83  1  0.335078  0.061545  0.679931  1
  O  O84  1  0.879144  0.074460  0.933774  1
  O  O85  1  0.360893  0.443027  0.561229  1
  O  O86  1  0.120856  0.574460  0.566226  1
  O  O87  1  0.119488  0.053637  0.813073  1
  O  O88  1  0.200898  0.998895  0.997739  1
  O  O89  1  0.862152  0.815238  0.316766  1
  O  O90  1  0.540982  0.749396  0.878860  1
  O  O91  1  0.040982  0.750604  0.121140  1
  O  O92  1  0.884117  0.932324  0.054899  1
  O  O93  1  0.835078  0.438455  0.320069  1
  O  O94  1  0.092536  0.189265  0.055911  1
  O  O95  1  0.639763  0.323175  0.438521  1
  O  O96  1  0.375595  0.167873  0.921304  1
  O  O97  1  0.360237  0.823175  0.061479  1
  O  O98  1  0.837510  0.924012  0.564083  1
  O  O99  1  0.380512  0.946363  0.313073  1
  O  O100  1  0.664922  0.561545  0.820069  1
  O  O101  1  0.384117  0.567676  0.945101  1
  O  O102  1  0.164922  0.938455  0.179931  1
  O  O103  1  0.959018  0.250604  0.378860  1
  O  O104  1  0.095358  0.811755  0.937081  1
  O  O105  1  0.624419  0.429406  0.696828  1
  O  O106  1  0.269720  0.511778  0.241183  1
  O  O107  1  0.404642  0.188245  0.437081  1
  O  O108  1  0.769720  0.988222  0.758817  1
  O  O109  1  0.384857  0.313671  0.807862  1
  O  O110  1  0.124405  0.832127  0.421304  1
  O  O111  1  0.379144  0.425540  0.066226  1
  O  O112  1  0.381970  0.085180  0.195357  1
  O  O113  1  0.124419  0.070594  0.303172  1
  O  O114  1  0.875595  0.332127  0.078696  1
  O  O115  1  0.299102  0.001105  0.497739  1
