# generated using pymatgen
data_Y2Ni7
_symmetry_space_group_name_H-M   'P 1'
_cell_length_a   12.36865352
_cell_length_b   12.36865352
_cell_length_c   12.36865352
_cell_angle_alpha   23.02864209
_cell_angle_beta   23.02864209
_cell_angle_gamma   23.02864209
_symmetry_Int_Tables_number   1
_chemical_formula_structural   Y2Ni7
_chemical_formula_sum   'Y4 Ni14'
_cell_volume   254.14453864
_cell_formula_units_Z   2
loop_
 _symmetry_equiv_pos_site_id
 _symmetry_equiv_pos_as_xyz
  1  'x, y, z'
loop_
 _atom_site_type_symbol
 _atom_site_label
 _atom_site_symmetry_multiplicity
 _atom_site_fract_x
 _atom_site_fract_y
 _atom_site_fract_z
 _atom_site_occupancy
  Y  Y0  1  0.050436  0.050436  0.050436  1
  Y  Y1  1  0.852838  0.852838  0.852838  1
  Y  Y2  1  0.949564  0.949564  0.949564  1
  Y  Y3  1  0.147162  0.147162  0.147162  1
  Ni  Ni4  1  0.278181  0.278181  0.278181  1
  Ni  Ni5  1  0.611735  0.611735  0.611735  1
  Ni  Ni6  1  0.610012  0.610012  0.108866  1
  Ni  Ni7  1  0.388265  0.388265  0.388265  1
  Ni  Ni8  1  0.000000  0.500000  0.500000  1
  Ni  Ni9  1  0.389988  0.891134  0.389988  1
  Ni  Ni10  1  0.500000  0.500000  0.500000  1
  Ni  Ni11  1  0.610012  0.108866  0.610012  1
  Ni  Ni12  1  0.721819  0.721819  0.721819  1
  Ni  Ni13  1  0.389988  0.389988  0.891134  1
  Ni  Ni14  1  0.108866  0.610012  0.610012  1
  Ni  Ni15  1  0.500000  0.500000  0.000000  1
  Ni  Ni16  1  0.500000  1.000000  0.500000  1
  Ni  Ni17  1  0.891134  0.389988  0.389988  1
