# generated using pymatgen
data_Ba2LaTaO6
_symmetry_space_group_name_H-M   'P 1'
_cell_length_a   6.20640256
_cell_length_b   6.14933210
_cell_length_c   10.63293805
_cell_angle_alpha   90.00000000
_cell_angle_beta   125.18977845
_cell_angle_gamma   90.00000000
_symmetry_Int_Tables_number   1
_chemical_formula_structural   Ba2LaTaO6
_chemical_formula_sum   'Ba4 La2 Ta2 O12'
_cell_volume   331.64609726
_cell_formula_units_Z   2
loop_
 _symmetry_equiv_pos_site_id
 _symmetry_equiv_pos_as_xyz
  1  'x, y, z'
loop_
 _atom_site_type_symbol
 _atom_site_label
 _atom_site_symmetry_multiplicity
 _atom_site_fract_x
 _atom_site_fract_y
 _atom_site_fract_z
 _atom_site_occupancy
  Ba  Ba0  1  0.741997  0.490566  0.747994  1
  Ba  Ba1  1  0.741997  0.009434  0.247994  1
  Ba  Ba2  1  0.258003  0.990566  0.752006  1
  Ba  Ba3  1  0.258003  0.509434  0.252006  1
  La  La4  1  0.000000  0.000000  0.000000  1
  La  La5  1  0.000000  0.500000  0.500000  1
  Ta  Ta6  1  0.500000  0.500000  0.000000  1
  Ta  Ta7  1  0.500000  0.000000  0.500000  1
  O  O8  1  0.796103  0.005648  0.727139  1
  O  O9  1  0.675447  0.256076  0.962254  1
  O  O10  1  0.701744  0.718260  0.963204  1
  O  O11  1  0.324553  0.756076  0.537746  1
  O  O12  1  0.298256  0.218260  0.536796  1
  O  O13  1  0.701744  0.781740  0.463204  1
  O  O14  1  0.203897  0.994352  0.272861  1
  O  O15  1  0.324553  0.743924  0.037746  1
  O  O16  1  0.675447  0.243924  0.462254  1
  O  O17  1  0.796103  0.494352  0.227139  1
  O  O18  1  0.298256  0.281740  0.036796  1
  O  O19  1  0.203897  0.505648  0.772861  1
