# generated using pymatgen
data_ErPS4
_symmetry_space_group_name_H-M   'P 1'
_cell_length_a   12.17213771
_cell_length_b   12.17213771
_cell_length_c   12.17213771
_cell_angle_alpha   127.60425277
_cell_angle_beta   127.60425277
_cell_angle_gamma   77.26700563
_symmetry_Int_Tables_number   1
_chemical_formula_structural   ErPS4
_chemical_formula_sum   'Er8 P8 S32'
_cell_volume   1098.26082731
_cell_formula_units_Z   8
loop_
 _symmetry_equiv_pos_site_id
 _symmetry_equiv_pos_as_xyz
  1  'x, y, z'
loop_
 _atom_site_type_symbol
 _atom_site_label
 _atom_site_symmetry_multiplicity
 _atom_site_fract_x
 _atom_site_fract_y
 _atom_site_fract_z
 _atom_site_occupancy
  Er  Er0  1  0.000000  0.000000  0.000000  1
  Er  Er1  1  0.750000  0.250000  0.500000  1
  Er  Er2  1  0.250000  0.750000  0.500000  1
  Er  Er3  1  0.500000  0.500000  0.000000  1
  Er  Er4  1  0.750000  0.750000  0.000000  1
  Er  Er5  1  0.500000  0.000000  0.500000  1
  Er  Er6  1  0.000000  0.500000  0.500000  1
  Er  Er7  1  0.250000  0.250000  0.000000  1
  P  P8  1  0.125000  0.413038  0.788038  1
  P  P9  1  0.125000  0.913038  0.288038  1
  P  P10  1  0.663038  0.875000  0.288038  1
  P  P11  1  0.586962  0.375000  0.711962  1
  P  P12  1  0.625000  0.836962  0.711962  1
  P  P13  1  0.625000  0.336962  0.211962  1
  P  P14  1  0.086962  0.375000  0.211962  1
  P  P15  1  0.163038  0.875000  0.788038  1
  S  S16  1  0.485952  0.208072  0.450445  1
  S  S17  1  0.757627  0.035507  0.549555  1
  S  S18  1  0.785507  0.735952  0.777880  1
  S  S19  1  0.958072  0.007627  0.222120  1
  S  S20  1  0.492373  0.541928  0.777880  1
  S  S21  1  0.764048  0.714493  0.222120  1
  S  S22  1  0.291928  0.014048  0.549555  1
  S  S23  1  0.464493  0.742373  0.450445  1
  S  S24  1  0.279774  0.469802  0.318523  1
  S  S25  1  0.219802  0.401279  0.690028  1
  S  S26  1  0.711251  0.529774  0.309972  1
  S  S27  1  0.970226  0.788749  0.690028  1
  S  S28  1  0.098721  0.280198  0.309972  1
  S  S29  1  0.538749  0.348721  0.318523  1
  S  S30  1  0.030198  0.220226  0.681477  1
  S  S31  1  0.151279  0.961251  0.681477  1
  S  S32  1  0.470226  0.780198  0.181477  1
  S  S33  1  0.530198  0.848721  0.809972  1
  S  S34  1  0.038749  0.720226  0.190028  1
  S  S35  1  0.779774  0.461251  0.809972  1
  S  S36  1  0.651279  0.969802  0.190028  1
  S  S37  1  0.211251  0.901279  0.181477  1
  S  S38  1  0.719802  0.029774  0.818523  1
  S  S39  1  0.598721  0.288749  0.818523  1
  S  S40  1  0.992373  0.214493  0.950445  1
  S  S41  1  0.964493  0.514048  0.722120  1
  S  S42  1  0.791928  0.242373  0.277880  1
  S  S43  1  0.257627  0.708072  0.722120  1
  S  S44  1  0.985952  0.535507  0.277880  1
  S  S45  1  0.458072  0.235952  0.950445  1
  S  S46  1  0.285507  0.507627  0.049555  1
  S  S47  1  0.264048  0.041928  0.049554  1
