# generated using pymatgen
data_Na3MoN3
_symmetry_space_group_name_H-M   'P 1'
_cell_length_a   8.87876298
_cell_length_b   8.87876298
_cell_length_c   6.42522003
_cell_angle_alpha   69.00165338
_cell_angle_beta   110.99834662
_cell_angle_gamma   103.65375787
_symmetry_Int_Tables_number   1
_chemical_formula_structural   Na3MoN3
_chemical_formula_sum   'Na12 Mo4 N12'
_cell_volume   438.09497183
_cell_formula_units_Z   4
loop_
 _symmetry_equiv_pos_site_id
 _symmetry_equiv_pos_as_xyz
  1  'x, y, z'
loop_
 _atom_site_type_symbol
 _atom_site_label
 _atom_site_symmetry_multiplicity
 _atom_site_fract_x
 _atom_site_fract_y
 _atom_site_fract_z
 _atom_site_occupancy
  Na  Na0  1  0.707933  0.726356  0.021426  1
  Na  Na1  1  0.273644  0.292067  0.521426  1
  Na  Na2  1  0.399323  0.637560  0.575826  1
  Na  Na3  1  0.362440  0.600677  0.075826  1
  Na  Na4  1  0.644030  0.395783  0.808508  1
  Na  Na5  1  0.604217  0.355970  0.308508  1
  Na  Na6  1  0.475207  0.007630  0.039006  1
  Na  Na7  1  0.992370  0.524793  0.539006  1
  Na  Na8  1  0.141431  0.909586  0.623210  1
  Na  Na9  1  0.090414  0.858569  0.123210  1
  Na  Na10  1  0.854422  0.124415  0.117348  1
  Na  Na11  1  0.875585  0.145578  0.617348  1
  Mo  Mo12  1  0.237798  0.240674  0.003672  1
  Mo  Mo13  1  0.759326  0.762202  0.503672  1
  Mo  Mo14  1  0.504709  0.005457  0.578162  1
  Mo  Mo15  1  0.994543  0.495291  0.078162  1
  N  N16  1  0.401039  0.386450  0.908653  1
  N  N17  1  0.613550  0.598961  0.408653  1
  N  N18  1  0.159809  0.103012  0.823738  1
  N  N19  1  0.896988  0.840191  0.323738  1
  N  N20  1  0.632196  0.146740  0.738339  1
  N  N21  1  0.853260  0.367804  0.238339  1
  N  N22  1  0.420038  0.833364  0.780045  1
  N  N23  1  0.166636  0.579962  0.280045  1
  N  N24  1  0.887509  0.675957  0.826183  1
  N  N25  1  0.324043  0.112491  0.326183  1
  N  N26  1  0.641625  0.938203  0.459083  1
  N  N27  1  0.061797  0.358375  0.959083  1
