# generated using pymatgen
data_LiCo(PO3)4
_symmetry_space_group_name_H-M   'P 1'
_cell_length_a   7.25327201
_cell_length_b   9.16139188
_cell_length_c   7.65333480
_cell_angle_alpha   90.00000000
_cell_angle_beta   109.46168977
_cell_angle_gamma   90.00000000
_symmetry_Int_Tables_number   1
_chemical_formula_structural   LiCo(PO3)4
_chemical_formula_sum   'Li2 Co2 P8 O24'
_cell_volume   479.50750754
_cell_formula_units_Z   2
loop_
 _symmetry_equiv_pos_site_id
 _symmetry_equiv_pos_as_xyz
  1  'x, y, z'
loop_
 _atom_site_type_symbol
 _atom_site_label
 _atom_site_symmetry_multiplicity
 _atom_site_fract_x
 _atom_site_fract_y
 _atom_site_fract_z
 _atom_site_occupancy
  Li  Li0  1  0.121314  0.667091  0.912518  1
  Li  Li1  1  0.878686  0.167091  0.087482  1
  Co  Co2  1  0.255974  0.999898  0.257659  1
  Co  Co3  1  0.744026  0.499898  0.742341  1
  P  P4  1  0.589544  0.289083  0.368780  1
  P  P5  1  0.452264  0.413588  0.978209  1
  P  P6  1  0.901942  0.711891  0.140712  1
  P  P7  1  0.547736  0.913588  0.021791  1
  P  P8  1  0.055783  0.580566  0.522007  1
  P  P9  1  0.098058  0.211891  0.859288  1
  P  P10  1  0.410456  0.789083  0.631220  1
  P  P11  1  0.944217  0.080566  0.477993  1
  O  O12  1  0.845513  0.942173  0.487187  1
  O  O13  1  0.060427  0.095035  0.342561  1
  O  O14  1  0.342798  0.550109  0.976977  1
  O  O15  1  0.657202  0.050109  0.023023  1
  O  O16  1  0.405023  0.907839  0.494177  1
  O  O17  1  0.569154  0.678035  0.672697  1
  O  O18  1  0.685360  0.774109  0.081383  1
  O  O19  1  0.907964  0.600247  0.996401  1
  O  O20  1  0.196541  0.720635  0.576429  1
  O  O21  1  0.939573  0.595035  0.657439  1
  O  O22  1  0.409369  0.870237  0.817819  1
  O  O23  1  0.154487  0.442173  0.512813  1
  O  O24  1  0.590602  0.406278  0.866950  1
  O  O25  1  0.430846  0.178035  0.327303  1
  O  O26  1  0.590631  0.370237  0.182181  1
  O  O27  1  0.096017  0.129967  0.675419  1
  O  O28  1  0.940907  0.324540  0.828693  1
  O  O29  1  0.314640  0.274109  0.918617  1
  O  O30  1  0.409398  0.906278  0.133050  1
  O  O31  1  0.059093  0.824540  0.171307  1
  O  O32  1  0.903983  0.629967  0.324581  1
  O  O33  1  0.594977  0.407839  0.505823  1
  O  O34  1  0.803459  0.220635  0.423571  1
  O  O35  1  0.092036  0.100247  0.003599  1
