# generated using pymatgen
data_RbLaSi(CN2)4
_symmetry_space_group_name_H-M   'P 1'
_cell_length_a   7.01689436
_cell_length_b   7.01689436
_cell_length_c   7.01689436
_cell_angle_alpha   104.18893910
_cell_angle_beta   104.18893910
_cell_angle_gamma   120.64781405
_symmetry_Int_Tables_number   1
_chemical_formula_structural   RbLaSi(CN2)4
_chemical_formula_sum   'Rb1 La1 Si1 C4 N8'
_cell_volume   258.24515089
_cell_formula_units_Z   1
loop_
 _symmetry_equiv_pos_site_id
 _symmetry_equiv_pos_as_xyz
  1  'x, y, z'
loop_
 _atom_site_type_symbol
 _atom_site_label
 _atom_site_symmetry_multiplicity
 _atom_site_fract_x
 _atom_site_fract_y
 _atom_site_fract_z
 _atom_site_occupancy
  Rb  Rb0  1  0.250000  0.750000  0.500000  1
  La  La1  1  0.500000  0.500000  0.000000  1
  Si  Si2  1  0.000000  0.000000  0.000000  1
  C  C3  1  0.339152  0.308861  0.412945  1
  C  C4  1  0.073793  0.660848  0.969709  1
  C  C5  1  0.691139  0.104084  0.030291  1
  C  C6  1  0.895916  0.926207  0.587055  1
  N  N7  1  0.654768  0.254568  0.073925  1
  N  N8  1  0.958624  0.742644  0.020528  1
  N  N9  1  0.061904  0.041376  0.784020  1
  N  N10  1  0.257356  0.277884  0.215980  1
  N  N11  1  0.745432  0.819356  0.400200  1
  N  N12  1  0.419157  0.345232  0.599800  1
  N  N13  1  0.722116  0.938096  0.979472  1
  N  N14  1  0.180644  0.580843  0.926075  1
