# generated using pymatgen
data_ErCuTe2ClO6
_symmetry_space_group_name_H-M   'P 1'
_cell_length_a   5.41876901
_cell_length_b   14.95652792
_cell_length_c   9.28159448
_cell_angle_alpha   90.00000000
_cell_angle_beta   99.68281777
_cell_angle_gamma   90.00000000
_symmetry_Int_Tables_number   1
_chemical_formula_structural   ErCuTe2ClO6
_chemical_formula_sum   'Er4 Cu4 Te8 Cl4 O24'
_cell_volume   741.51944088
_cell_formula_units_Z   4
loop_
 _symmetry_equiv_pos_site_id
 _symmetry_equiv_pos_as_xyz
  1  'x, y, z'
loop_
 _atom_site_type_symbol
 _atom_site_label
 _atom_site_symmetry_multiplicity
 _atom_site_fract_x
 _atom_site_fract_y
 _atom_site_fract_z
 _atom_site_occupancy
  Er  Er0  1  0.745653  0.413440  0.974335  1
  Er  Er1  1  0.254347  0.913440  0.525665  1
  Er  Er2  1  0.254347  0.586560  0.025665  1
  Er  Er3  1  0.745653  0.086560  0.474335  1
  Cu  Cu4  1  0.272322  0.775546  0.825950  1
  Cu  Cu5  1  0.727678  0.275546  0.674050  1
  Cu  Cu6  1  0.272322  0.724454  0.325950  1
  Cu  Cu7  1  0.727678  0.224454  0.174050  1
  Te  Te8  1  0.254746  0.348000  0.218824  1
  Te  Te9  1  0.745254  0.652000  0.781176  1
  Te  Te10  1  0.780058  0.587239  0.294430  1
  Te  Te11  1  0.254746  0.152000  0.718824  1
  Te  Te12  1  0.219942  0.087239  0.205570  1
  Te  Te13  1  0.745254  0.848000  0.281176  1
  Te  Te14  1  0.219942  0.412761  0.705570  1
  Te  Te15  1  0.780058  0.912761  0.794430  1
  Cl  Cl16  1  0.269912  0.895611  0.055430  1
  Cl  Cl17  1  0.730088  0.104389  0.944570  1
  Cl  Cl18  1  0.269912  0.604389  0.555430  1
  Cl  Cl19  1  0.730088  0.395611  0.444570  1
  O  O20  1  0.372998  0.017548  0.366410  1
  O  O21  1  0.038787  0.639088  0.204471  1
  O  O22  1  0.372998  0.482452  0.866410  1
  O  O23  1  0.627002  0.517548  0.133590  1
  O  O24  1  0.532137  0.678145  0.226123  1
  O  O25  1  0.016277  0.787969  0.405786  1
  O  O26  1  0.498053  0.674633  0.901411  1
  O  O27  1  0.498053  0.825367  0.401411  1
  O  O28  1  0.038787  0.860912  0.704471  1
  O  O29  1  0.501947  0.325367  0.098589  1
  O  O30  1  0.016277  0.712031  0.905786  1
  O  O31  1  0.983723  0.287969  0.094214  1
  O  O32  1  0.467863  0.321855  0.773877  1
  O  O33  1  0.467863  0.178145  0.273877  1
  O  O34  1  0.961213  0.360912  0.795529  1
  O  O35  1  0.878041  0.956193  0.373803  1
  O  O36  1  0.961213  0.139088  0.295529  1
  O  O37  1  0.121959  0.456193  0.126197  1
  O  O38  1  0.532137  0.821855  0.726123  1
  O  O39  1  0.878041  0.543807  0.873803  1
  O  O40  1  0.983723  0.212031  0.594214  1
  O  O41  1  0.627002  0.982452  0.633590  1
  O  O42  1  0.121959  0.043807  0.626197  1
  O  O43  1  0.501947  0.174633  0.598589  1
