# generated using pymatgen
data_In2(WO4)3
_symmetry_space_group_name_H-M   'P 1'
_cell_length_a   9.86847826
_cell_length_b   9.95459187
_cell_length_c   13.70681879
_cell_angle_alpha   90.00000000
_cell_angle_beta   90.00000000
_cell_angle_gamma   90.00000000
_symmetry_Int_Tables_number   1
_chemical_formula_structural   In2(WO4)3
_chemical_formula_sum   'In8 W12 O48'
_cell_volume   1346.51228160
_cell_formula_units_Z   4
loop_
 _symmetry_equiv_pos_site_id
 _symmetry_equiv_pos_as_xyz
  1  'x, y, z'
loop_
 _atom_site_type_symbol
 _atom_site_label
 _atom_site_symmetry_multiplicity
 _atom_site_fract_x
 _atom_site_fract_y
 _atom_site_fract_z
 _atom_site_occupancy
  In  In0  1  0.250380  0.963769  0.119809  1
  In  In1  1  0.750380  0.536231  0.619809  1
  In  In2  1  0.249620  0.463769  0.380191  1
  In  In3  1  0.749620  0.036231  0.880191  1
  In  In4  1  0.249620  0.036231  0.619809  1
  In  In5  1  0.750380  0.963769  0.380191  1
  In  In6  1  0.250380  0.536231  0.880191  1
  In  In7  1  0.749620  0.463769  0.119809  1
  W  W8  1  0.104115  0.884935  0.855262  1
  W  W9  1  0.895885  0.384935  0.855262  1
  W  W10  1  0.604115  0.615065  0.355262  1
  W  W11  1  0.471137  0.250000  0.000000  1
  W  W12  1  0.528863  0.750000  0.000000  1
  W  W13  1  0.895885  0.115065  0.144738  1
  W  W14  1  0.395885  0.384935  0.644738  1
  W  W15  1  0.971137  0.250000  0.500000  1
  W  W16  1  0.104115  0.615065  0.144738  1
  W  W17  1  0.028863  0.750000  0.500000  1
  W  W18  1  0.604115  0.884935  0.644738  1
  W  W19  1  0.395885  0.115065  0.355262  1
  O  O20  1  0.866520  0.129992  0.435736  1
  O  O21  1  0.866520  0.370008  0.564264  1
  O  O22  1  0.826670  0.073666  0.026568  1
  O  O23  1  0.319764  0.006777  0.264290  1
  O  O24  1  0.139414  0.790226  0.170798  1
  O  O25  1  0.422013  0.907942  0.643837  1
  O  O26  1  0.826670  0.426334  0.973432  1
  O  O27  1  0.639414  0.790226  0.329202  1
  O  O28  1  0.673330  0.926334  0.526568  1
  O  O29  1  0.133480  0.870008  0.564264  1
  O  O30  1  0.680236  0.993223  0.735710  1
  O  O31  1  0.319764  0.493223  0.735710  1
  O  O32  1  0.173330  0.573666  0.026568  1
  O  O33  1  0.819764  0.006777  0.235710  1
  O  O34  1  0.133480  0.629992  0.435736  1
  O  O35  1  0.180236  0.993223  0.764290  1
  O  O36  1  0.360586  0.290226  0.329202  1
  O  O37  1  0.922013  0.907942  0.856163  1
  O  O38  1  0.639414  0.709774  0.670798  1
  O  O39  1  0.633480  0.629992  0.064264  1
  O  O40  1  0.139414  0.709774  0.829202  1
  O  O41  1  0.673330  0.573666  0.473432  1
  O  O42  1  0.180236  0.506777  0.235710  1
  O  O43  1  0.077987  0.407942  0.856163  1
  O  O44  1  0.077987  0.092058  0.143837  1
  O  O45  1  0.422123  0.834945  0.088092  1
  O  O46  1  0.860586  0.290226  0.170798  1
  O  O47  1  0.366520  0.129992  0.064264  1
  O  O48  1  0.633480  0.870008  0.935736  1
  O  O49  1  0.577877  0.334945  0.088092  1
  O  O50  1  0.360586  0.209774  0.670798  1
  O  O51  1  0.326670  0.426334  0.526568  1
  O  O52  1  0.922123  0.665055  0.588092  1
  O  O53  1  0.577987  0.092058  0.356163  1
  O  O54  1  0.819764  0.493223  0.764290  1
  O  O55  1  0.077877  0.334945  0.411908  1
  O  O56  1  0.326670  0.073666  0.473432  1
  O  O57  1  0.922123  0.834945  0.411908  1
  O  O58  1  0.077877  0.165055  0.588092  1
  O  O59  1  0.422013  0.592058  0.356163  1
  O  O60  1  0.577877  0.165055  0.911908  1
  O  O61  1  0.922013  0.592058  0.143837  1
  O  O62  1  0.577987  0.407942  0.643837  1
  O  O63  1  0.366520  0.370008  0.935736  1
  O  O64  1  0.422123  0.665055  0.911908  1
  O  O65  1  0.680236  0.506777  0.264290  1
  O  O66  1  0.860586  0.209774  0.829202  1
  O  O67  1  0.173330  0.926334  0.973432  1
