# generated using pymatgen
data_ZrTe
_symmetry_space_group_name_H-M   'P 1'
_cell_length_a   3.80397777
_cell_length_b   7.00967607
_cell_length_c   7.45095855
_cell_angle_alpha   90.00000000
_cell_angle_beta   90.00000000
_cell_angle_gamma   90.00000000
_symmetry_Int_Tables_number   1
_chemical_formula_structural   ZrTe
_chemical_formula_sum   'Zr4 Te4'
_cell_volume   198.67721639
_cell_formula_units_Z   4
loop_
 _symmetry_equiv_pos_site_id
 _symmetry_equiv_pos_as_xyz
  1  'x, y, z'
loop_
 _atom_site_type_symbol
 _atom_site_label
 _atom_site_symmetry_multiplicity
 _atom_site_fract_x
 _atom_site_fract_y
 _atom_site_fract_z
 _atom_site_occupancy
  Zr  Zr0  1  0.750000  0.310854  0.991738  1
  Zr  Zr1  1  0.750000  0.189146  0.491738  1
  Zr  Zr2  1  0.250000  0.689146  0.008262  1
  Zr  Zr3  1  0.250000  0.810854  0.508262  1
  Te  Te4  1  0.250000  0.426704  0.709027  1
  Te  Te5  1  0.750000  0.573296  0.290973  1
  Te  Te6  1  0.250000  0.073296  0.209027  1
  Te  Te7  1  0.750000  0.926704  0.790973  1
