# generated using pymatgen
data_UPbO4
_symmetry_space_group_name_H-M   'P 1'
_cell_length_a   5.65834198
_cell_length_b   8.04117286
_cell_length_c   8.29092185
_cell_angle_alpha   90.00000000
_cell_angle_beta   90.00000000
_cell_angle_gamma   90.00000000
_symmetry_Int_Tables_number   1
_chemical_formula_structural   UPbO4
_chemical_formula_sum   'U4 Pb4 O16'
_cell_volume   377.23450633
_cell_formula_units_Z   4
loop_
 _symmetry_equiv_pos_site_id
 _symmetry_equiv_pos_as_xyz
  1  'x, y, z'
loop_
 _atom_site_type_symbol
 _atom_site_label
 _atom_site_symmetry_multiplicity
 _atom_site_fract_x
 _atom_site_fract_y
 _atom_site_fract_z
 _atom_site_occupancy
  U  U0  1  0.000000  0.000000  0.000000  1
  U  U1  1  0.000000  0.500000  0.000000  1
  U  U2  1  0.000000  0.500000  0.500000  1
  U  U3  1  0.000000  0.000000  0.500000  1
  Pb  Pb4  1  0.504692  0.203606  0.250000  1
  Pb  Pb5  1  0.504692  0.296394  0.750000  1
  Pb  Pb6  1  0.495308  0.703606  0.250000  1
  Pb  Pb7  1  0.495308  0.796394  0.750000  1
  O  O8  1  0.297259  0.914727  0.078508  1
  O  O9  1  0.297259  0.585273  0.921492  1
  O  O10  1  0.702741  0.414727  0.421492  1
  O  O11  1  0.702741  0.085273  0.578508  1
  O  O12  1  0.702741  0.085273  0.921492  1
  O  O13  1  0.702741  0.414727  0.078508  1
  O  O14  1  0.297259  0.585273  0.578508  1
  O  O15  1  0.297259  0.914727  0.421492  1
  O  O16  1  0.153914  0.250000  0.000000  1
  O  O17  1  0.846086  0.750000  0.500000  1
  O  O18  1  0.846086  0.750000  0.000000  1
  O  O19  1  0.153914  0.250000  0.500000  1
  O  O20  1  0.867828  0.038143  0.250000  1
  O  O21  1  0.867828  0.461857  0.750000  1
  O  O22  1  0.132172  0.538143  0.250000  1
  O  O23  1  0.132172  0.961857  0.750000  1
