# generated using pymatgen
data_CuTeBr
_symmetry_space_group_name_H-M   'P 1'
_cell_length_a   16.30860088
_cell_length_b   11.90105993
_cell_length_c   11.73384579
_cell_angle_alpha   87.26066534
_cell_angle_beta   46.79487930
_cell_angle_gamma   45.94445535
_symmetry_Int_Tables_number   1
_chemical_formula_structural   CuTeBr
_chemical_formula_sum   'Cu8 Te8 Br8'
_cell_volume   687.03199785
_cell_formula_units_Z   8
loop_
 _symmetry_equiv_pos_site_id
 _symmetry_equiv_pos_as_xyz
  1  'x, y, z'
loop_
 _atom_site_type_symbol
 _atom_site_label
 _atom_site_symmetry_multiplicity
 _atom_site_fract_x
 _atom_site_fract_y
 _atom_site_fract_z
 _atom_site_occupancy
  Cu  Cu0  1  0.000000  1.000000  0.000000  1
  Cu  Cu1  1  0.500000  0.500000  0.500000  1
  Cu  Cu2  1  0.864209  0.135791  0.864209  1
  Cu  Cu3  1  0.114209  0.385791  0.114209  1
  Cu  Cu4  1  0.750000  0.750000  0.750000  1
  Cu  Cu5  1  0.135791  0.864209  0.135791  1
  Cu  Cu6  1  0.250000  0.250000  0.250000  1
  Cu  Cu7  1  0.385791  0.114209  0.385791  1
  Te  Te8  1  0.739309  0.656250  0.146771  1
  Te  Te9  1  0.457670  0.146771  0.656250  1
  Te  Te10  1  0.103229  0.792330  0.510691  1
  Te  Te11  1  0.146771  0.457670  0.739309  1
  Te  Te12  1  0.510691  0.593750  0.103229  1
  Te  Te13  1  0.792330  0.103229  0.593750  1
  Te  Te14  1  0.656250  0.739309  0.457670  1
  Te  Te15  1  0.593750  0.510691  0.792330  1
  Br  Br16  1  0.881233  0.247891  0.251163  1
  Br  Br17  1  0.619714  0.251163  0.247891  1
  Br  Br18  1  0.247891  0.881233  0.619714  1
  Br  Br19  1  0.630286  0.998837  0.002109  1
  Br  Br20  1  0.998837  0.630286  0.368767  1
  Br  Br21  1  0.251163  0.619714  0.881233  1
  Br  Br22  1  0.002109  0.368767  0.630286  1
  Br  Br23  1  0.368767  0.002109  0.998837  1
