# generated using pymatgen
data_Sm3Ge5
_symmetry_space_group_name_H-M   'P 1'
_cell_length_a   7.02149712
_cell_length_b   7.02149712
_cell_length_c   8.56832024
_cell_angle_alpha   90.00000000
_cell_angle_beta   90.00000000
_cell_angle_gamma   120.00000000
_symmetry_Int_Tables_number   1
_chemical_formula_structural   Sm3Ge5
_chemical_formula_sum   'Sm6 Ge10'
_cell_volume   365.83543200
_cell_formula_units_Z   2
loop_
 _symmetry_equiv_pos_site_id
 _symmetry_equiv_pos_as_xyz
  1  'x, y, z'
loop_
 _atom_site_type_symbol
 _atom_site_label
 _atom_site_symmetry_multiplicity
 _atom_site_fract_x
 _atom_site_fract_y
 _atom_site_fract_z
 _atom_site_occupancy
  Sm  Sm0  1  0.331401  0.000000  0.000000  1
  Sm  Sm1  1  0.331401  0.000000  0.500000  1
  Sm  Sm2  1  0.000000  0.331401  0.500000  1
  Sm  Sm3  1  0.000000  0.331401  0.000000  1
  Sm  Sm4  1  0.668599  0.668599  0.000000  1
  Sm  Sm5  1  0.668599  0.668599  0.500000  1
  Ge  Ge6  1  0.395835  0.331344  0.250000  1
  Ge  Ge7  1  0.668656  0.064491  0.250000  1
  Ge  Ge8  1  0.935509  0.604165  0.250000  1
  Ge  Ge9  1  0.604165  0.935509  0.750000  1
  Ge  Ge10  1  0.000000  0.000000  0.250000  1
  Ge  Ge11  1  0.666667  0.333333  0.750000  1
  Ge  Ge12  1  0.064491  0.668656  0.750000  1
  Ge  Ge13  1  0.331344  0.395835  0.750000  1
  Ge  Ge14  1  0.333333  0.666667  0.250000  1
  Ge  Ge15  1  0.000000  0.000000  0.750000  1
