# generated using pymatgen
data_U2PdS4
_symmetry_space_group_name_H-M   'P 1'
_cell_length_a   8.47205511
_cell_length_b   7.77595786
_cell_length_c   6.72269380
_cell_angle_alpha   71.08922554
_cell_angle_beta   60.26114898
_cell_angle_gamma   48.64962547
_symmetry_Int_Tables_number   1
_chemical_formula_structural   U2PdS4
_chemical_formula_sum   'U4 Pd2 S8'
_cell_volume   288.67134413
_cell_formula_units_Z   2
loop_
 _symmetry_equiv_pos_site_id
 _symmetry_equiv_pos_as_xyz
  1  'x, y, z'
loop_
 _atom_site_type_symbol
 _atom_site_label
 _atom_site_symmetry_multiplicity
 _atom_site_fract_x
 _atom_site_fract_y
 _atom_site_fract_z
 _atom_site_occupancy
  U  U0  1  0.527318  0.419727  0.869768  1
  U  U1  1  0.183187  0.869768  0.419727  1
  U  U2  1  0.380232  0.066813  0.722682  1
  U  U3  1  0.830273  0.722682  0.066813  1
  Pd  Pd4  1  0.249549  0.250451  0.250451  1
  Pd  Pd5  1  0.999549  0.000451  0.000451  1
  S  S6  1  0.555622  0.698397  0.504480  1
  S  S7  1  0.241501  0.504480  0.698397  1
  S  S8  1  0.745520  0.008499  0.694378  1
  S  S9  1  0.551603  0.694378  0.008499  1
  S  S10  1  0.587996  0.136727  0.252851  1
  S  S11  1  0.022426  0.252851  0.136727  1
  S  S12  1  0.113273  0.662004  0.227574  1
  S  S13  1  0.997149  0.227574  0.662004  1
