# generated using pymatgen
data_Mg3Si(O2F)2
_symmetry_space_group_name_H-M   'P 1'
_cell_length_a   4.76019808
_cell_length_b   8.84190246
_cell_length_c   10.39113730
_cell_angle_alpha   90.00000000
_cell_angle_beta   90.00000000
_cell_angle_gamma   90.00000000
_symmetry_Int_Tables_number   1
_chemical_formula_structural   Mg3Si(O2F)2
_chemical_formula_sum   'Mg12 Si4 O16 F8'
_cell_volume   437.35472997
_cell_formula_units_Z   4
loop_
 _symmetry_equiv_pos_site_id
 _symmetry_equiv_pos_as_xyz
  1  'x, y, z'
loop_
 _atom_site_type_symbol
 _atom_site_label
 _atom_site_symmetry_multiplicity
 _atom_site_fract_x
 _atom_site_fract_y
 _atom_site_fract_z
 _atom_site_occupancy
  Mg  Mg0  1  0.989972  0.430367  0.866760  1
  Mg  Mg1  1  0.993999  0.250000  0.592941  1
  Mg  Mg2  1  0.510028  0.069633  0.366760  1
  Mg  Mg3  1  0.989972  0.069633  0.866760  1
  Mg  Mg4  1  0.006001  0.750000  0.407059  1
  Mg  Mg5  1  0.506001  0.250000  0.092941  1
  Mg  Mg6  1  0.010028  0.930367  0.133240  1
  Mg  Mg7  1  0.510028  0.430367  0.366760  1
  Mg  Mg8  1  0.493999  0.750000  0.907059  1
  Mg  Mg9  1  0.010028  0.569633  0.133240  1
  Mg  Mg10  1  0.489972  0.569633  0.633240  1
  Mg  Mg11  1  0.489972  0.930367  0.633240  1
  Si  Si12  1  0.080306  0.250000  0.280460  1
  Si  Si13  1  0.419694  0.250000  0.780460  1
  Si  Si14  1  0.919694  0.750000  0.719540  1
  Si  Si15  1  0.580306  0.750000  0.219540  1
  O  O16  1  0.731628  0.896508  0.291110  1
  O  O17  1  0.268372  0.103492  0.708890  1
  O  O18  1  0.237705  0.750000  0.221083  1
  O  O19  1  0.777726  0.750000  0.574233  1
  O  O20  1  0.277726  0.250000  0.925767  1
  O  O21  1  0.722274  0.750000  0.074233  1
  O  O22  1  0.768372  0.896508  0.791110  1
  O  O23  1  0.762295  0.250000  0.778917  1
  O  O24  1  0.268372  0.396508  0.708890  1
  O  O25  1  0.731628  0.603492  0.291110  1
  O  O26  1  0.262295  0.750000  0.721083  1
  O  O27  1  0.231628  0.103492  0.208890  1
  O  O28  1  0.222274  0.250000  0.425767  1
  O  O29  1  0.768372  0.603492  0.791110  1
  O  O30  1  0.737705  0.250000  0.278917  1
  O  O31  1  0.231628  0.396508  0.208890  1
  F  F32  1  0.272364  0.915916  0.467388  1
  F  F33  1  0.227636  0.584084  0.967388  1
  F  F34  1  0.727636  0.084084  0.532612  1
  F  F35  1  0.727636  0.415916  0.532612  1
  F  F36  1  0.772364  0.415916  0.032612  1
  F  F37  1  0.227636  0.915916  0.967388  1
  F  F38  1  0.772364  0.084084  0.032612  1
  F  F39  1  0.272364  0.584084  0.467388  1
