# generated using pymatgen
data_Mn2Nb2Zn2O9
_symmetry_space_group_name_H-M   'P 1'
_cell_length_a   5.32157993
_cell_length_b   5.32157993
_cell_length_c   14.57756000
_cell_angle_alpha   90.00000000
_cell_angle_beta   90.00000000
_cell_angle_gamma   120.00000000
_symmetry_Int_Tables_number   1
_chemical_formula_structural   Mn2Nb2Zn2O9
_chemical_formula_sum   'Mn4 Nb4 Zn4 O18'
_cell_volume   357.51696008
_cell_formula_units_Z   2
loop_
 _symmetry_equiv_pos_site_id
 _symmetry_equiv_pos_as_xyz
  1  'x, y, z'
loop_
 _atom_site_type_symbol
 _atom_site_label
 _atom_site_symmetry_multiplicity
 _atom_site_fract_x
 _atom_site_fract_y
 _atom_site_fract_z
 _atom_site_occupancy
  Mn  Mn0  1  0.333333  0.666667  0.017596  1
  Mn  Mn1  1  0.333333  0.666667  0.517596  1
  Mn  Mn2  1  0.666667  0.333333  0.982404  1
  Mn  Mn3  1  0.666667  0.333333  0.482404  1
  Nb  Nb4  1  0.000000  0.000000  0.643975  1
  Nb  Nb5  1  0.000000  0.000000  0.143975  1
  Nb  Nb6  1  0.000000  0.000000  0.856025  1
  Nb  Nb7  1  0.000000  0.000000  0.356025  1
  Zn  Zn8  1  0.666667  0.333333  0.710244  1
  Zn  Zn9  1  0.333333  0.666667  0.297916  1
  Zn  Zn10  1  0.333333  0.666667  0.797916  1
  Zn  Zn11  1  0.666667  0.333333  0.210244  1
  O  O12  1  0.688862  0.663211  0.588291  1
  O  O13  1  0.000000  0.713448  0.750000  1
  O  O14  1  0.663211  0.974348  0.411709  1
  O  O15  1  0.311138  0.336789  0.411709  1
  O  O16  1  0.974348  0.311138  0.588291  1
  O  O17  1  0.713448  0.713448  0.250000  1
  O  O18  1  0.025652  0.336789  0.911709  1
  O  O19  1  0.336789  0.025652  0.588291  1
  O  O20  1  0.336789  0.311138  0.088291  1
  O  O21  1  0.025652  0.688862  0.411709  1
  O  O22  1  0.663211  0.688862  0.911709  1
  O  O23  1  0.688862  0.025652  0.088291  1
  O  O24  1  0.713448  0.000000  0.750000  1
  O  O25  1  0.286552  0.286552  0.750000  1
  O  O26  1  0.286552  0.000000  0.250000  1
  O  O27  1  0.974348  0.663211  0.088291  1
  O  O28  1  0.000000  0.286552  0.250000  1
  O  O29  1  0.311138  0.974348  0.911709  1
