# generated using pymatgen
data_Au2Se3O10
_symmetry_space_group_name_H-M   'P 1'
_cell_length_a   9.29309935
_cell_length_b   9.29309935
_cell_length_c   8.86195618
_cell_angle_alpha   90.00000000
_cell_angle_beta   90.00000000
_cell_angle_gamma   139.65791154
_symmetry_Int_Tables_number   1
_chemical_formula_structural   Au2Se3O10
_chemical_formula_sum   'Au4 Se6 O20'
_cell_volume   495.43856422
_cell_formula_units_Z   2
loop_
 _symmetry_equiv_pos_site_id
 _symmetry_equiv_pos_as_xyz
  1  'x, y, z'
loop_
 _atom_site_type_symbol
 _atom_site_label
 _atom_site_symmetry_multiplicity
 _atom_site_fract_x
 _atom_site_fract_y
 _atom_site_fract_z
 _atom_site_occupancy
  Au  Au0  1  0.681989  0.365439  0.816658  1
  Au  Au1  1  0.318011  0.634561  0.316658  1
  Au  Au2  1  0.634561  0.318011  0.316658  1
  Au  Au3  1  0.365439  0.681989  0.816658  1
  Se  Se4  1  0.356205  0.356205  0.960163  1
  Se  Se5  1  0.804807  0.132911  0.202252  1
  Se  Se6  1  0.867089  0.195193  0.702252  1
  Se  Se7  1  0.643795  0.643795  0.460163  1
  Se  Se8  1  0.132911  0.804807  0.202252  1
  Se  Se9  1  0.195193  0.867089  0.702252  1
  O  O10  1  0.314791  0.009102  0.338994  1
  O  O11  1  0.240808  0.718606  0.150504  1
  O  O12  1  0.618628  0.955138  0.350151  1
  O  O13  1  0.258348  0.258348  0.789356  1
  O  O14  1  0.549929  0.394035  0.482793  1
  O  O15  1  0.955138  0.618628  0.350151  1
  O  O16  1  0.795674  0.795674  0.608678  1
  O  O17  1  0.009102  0.314791  0.338994  1
  O  O18  1  0.394035  0.549929  0.482793  1
  O  O19  1  0.718606  0.240808  0.150504  1
  O  O20  1  0.990898  0.685209  0.838994  1
  O  O21  1  0.281394  0.759192  0.650504  1
  O  O22  1  0.381372  0.044862  0.850151  1
  O  O23  1  0.044862  0.381372  0.850151  1
  O  O24  1  0.741652  0.741652  0.289356  1
  O  O25  1  0.204326  0.204326  0.108678  1
  O  O26  1  0.759192  0.281394  0.650504  1
  O  O27  1  0.450071  0.605965  0.982793  1
  O  O28  1  0.685209  0.990898  0.838994  1
  O  O29  1  0.605965  0.450071  0.982793  1
