# generated using pymatgen
data_YbGeAu
_symmetry_space_group_name_H-M   'P 1'
_cell_length_a   4.53000190
_cell_length_b   7.78765785
_cell_length_c   21.35109330
_cell_angle_alpha   90.00000000
_cell_angle_beta   90.00000000
_cell_angle_gamma   90.00000000
_symmetry_Int_Tables_number   1
_chemical_formula_structural   YbGeAu
_chemical_formula_sum   'Yb12 Ge12 Au12'
_cell_volume   753.22610825
_cell_formula_units_Z   12
loop_
 _symmetry_equiv_pos_site_id
 _symmetry_equiv_pos_as_xyz
  1  'x, y, z'
loop_
 _atom_site_type_symbol
 _atom_site_label
 _atom_site_symmetry_multiplicity
 _atom_site_fract_x
 _atom_site_fract_y
 _atom_site_fract_z
 _atom_site_occupancy
  Yb  Yb0  1  0.250000  0.788053  0.166083  1
  Yb  Yb1  1  0.250000  0.781027  0.500742  1
  Yb  Yb2  1  0.250000  0.711523  0.332829  1
  Yb  Yb3  1  0.750000  0.218973  0.499258  1
  Yb  Yb4  1  0.750000  0.288477  0.667171  1
  Yb  Yb5  1  0.750000  0.281027  0.999258  1
  Yb  Yb6  1  0.250000  0.788477  0.832829  1
  Yb  Yb7  1  0.250000  0.718973  0.000742  1
  Yb  Yb8  1  0.750000  0.211523  0.167171  1
  Yb  Yb9  1  0.750000  0.288053  0.333917  1
  Yb  Yb10  1  0.250000  0.711947  0.666083  1
  Yb  Yb11  1  0.750000  0.211947  0.833917  1
  Ge  Ge12  1  0.250000  0.413368  0.897165  1
  Ge  Ge13  1  0.750000  0.916705  0.729089  1
  Ge  Ge14  1  0.750000  0.583295  0.229089  1
  Ge  Ge15  1  0.250000  0.089070  0.070179  1
  Ge  Ge16  1  0.750000  0.910930  0.929821  1
  Ge  Ge17  1  0.750000  0.913368  0.602835  1
  Ge  Ge18  1  0.250000  0.410930  0.570179  1
  Ge  Ge19  1  0.250000  0.086632  0.397165  1
  Ge  Ge20  1  0.250000  0.083295  0.270911  1
  Ge  Ge21  1  0.750000  0.589070  0.429821  1
  Ge  Ge22  1  0.250000  0.416705  0.770911  1
  Ge  Ge23  1  0.750000  0.586632  0.102835  1
  Au  Au24  1  0.750000  0.582917  0.907571  1
  Au  Au25  1  0.250000  0.416134  0.432186  1
  Au  Au26  1  0.750000  0.583866  0.567814  1
  Au  Au27  1  0.750000  0.917083  0.407571  1
  Au  Au28  1  0.250000  0.417083  0.092429  1
  Au  Au29  1  0.250000  0.412985  0.239800  1
  Au  Au30  1  0.750000  0.912985  0.260200  1
  Au  Au31  1  0.250000  0.087015  0.739800  1
  Au  Au32  1  0.250000  0.083866  0.932186  1
  Au  Au33  1  0.750000  0.916134  0.067814  1
  Au  Au34  1  0.250000  0.082917  0.592429  1
  Au  Au35  1  0.750000  0.587015  0.760200  1
