# generated using pymatgen
data_K2HoPWO8
_symmetry_space_group_name_H-M   'P 1'
_cell_length_a   12.23658735
_cell_length_b   12.23658735
_cell_length_c   12.23658735
_cell_angle_alpha   146.98740781
_cell_angle_beta   119.90070659
_cell_angle_gamma   70.30279811
_symmetry_Int_Tables_number   1
_chemical_formula_structural   K2HoPWO8
_chemical_formula_sum   'K8 Ho4 P4 W4 O32'
_cell_volume   852.55750009
_cell_formula_units_Z   4
loop_
 _symmetry_equiv_pos_site_id
 _symmetry_equiv_pos_as_xyz
  1  'x, y, z'
loop_
 _atom_site_type_symbol
 _atom_site_label
 _atom_site_symmetry_multiplicity
 _atom_site_fract_x
 _atom_site_fract_y
 _atom_site_fract_z
 _atom_site_occupancy
  K  K0  1  0.922430  0.813305  0.548646  1
  K  K1  1  0.264659  0.873784  0.951354  1
  K  K2  1  0.577570  0.626216  0.390875  1
  K  K3  1  0.422430  0.373784  0.609125  1
  K  K4  1  0.077570  0.186695  0.451354  1
  K  K5  1  0.764659  0.313305  0.890875  1
  K  K6  1  0.235341  0.686695  0.109125  1
  K  K7  1  0.735341  0.126216  0.048646  1
  Ho  Ho8  1  0.325627  0.750000  0.575627  1
  Ho  Ho9  1  0.674373  0.250000  0.424373  1
  Ho  Ho10  1  0.174373  0.250000  0.924373  1
  Ho  Ho11  1  0.825627  0.750000  0.075627  1
  P  P12  1  0.070284  0.750000  0.320284  1
  P  P13  1  0.429716  0.250000  0.179716  1
  P  P14  1  0.929716  0.250000  0.679716  1
  P  P15  1  0.570284  0.750000  0.820284  1
  W  W16  1  0.585745  0.835745  0.250000  1
  W  W17  1  0.414255  0.164255  0.750000  1
  W  W18  1  0.085745  0.335745  0.250000  1
  W  W19  1  0.914255  0.664255  0.750000  1
  O  O20  1  0.055355  0.828625  0.261542  1
  O  O21  1  0.944645  0.171375  0.738458  1
  O  O22  1  0.143816  0.915920  0.574318  1
  O  O23  1  0.349085  0.157436  0.575261  1
  O  O24  1  0.332167  0.324590  0.930943  1
  O  O25  1  0.341602  0.069498  0.925682  1
  O  O26  1  0.849085  0.773823  0.691648  1
  O  O27  1  0.444645  0.206186  0.273270  1
  O  O28  1  0.432916  0.706186  0.761542  1
  O  O29  1  0.841602  0.415920  0.772104  1
  O  O30  1  0.082175  0.657436  0.808352  1
  O  O31  1  0.650915  0.842564  0.424739  1
  O  O32  1  0.158398  0.584080  0.227896  1
  O  O33  1  0.150915  0.226177  0.308352  1
  O  O34  1  0.567084  0.293814  0.238458  1
  O  O35  1  0.932916  0.671375  0.226730  1
  O  O36  1  0.667833  0.675410  0.069057  1
  O  O37  1  0.658398  0.930502  0.074318  1
  O  O38  1  0.856184  0.084080  0.425682  1
  O  O39  1  0.606353  0.098776  0.430943  1
  O  O40  1  0.106353  0.175410  0.007577  1
  O  O41  1  0.167833  0.598776  0.492423  1
  O  O42  1  0.832167  0.401224  0.507577  1
  O  O43  1  0.393647  0.901224  0.569057  1
  O  O44  1  0.893647  0.824590  0.992423  1
  O  O45  1  0.555355  0.793814  0.726730  1
  O  O46  1  0.917825  0.342564  0.191648  1
  O  O47  1  0.582175  0.273823  0.924739  1
  O  O48  1  0.356184  0.430502  0.272104  1
  O  O49  1  0.643816  0.569498  0.727896  1
  O  O50  1  0.067084  0.328625  0.773270  1
  O  O51  1  0.417825  0.726177  0.075261  1
