# generated using pymatgen
data_P(W2O7)2
_symmetry_space_group_name_H-M   'P 1'
_cell_length_a   5.41416941
_cell_length_b   6.69933040
_cell_length_c   30.36980664
_cell_angle_alpha   90.00000000
_cell_angle_beta   90.00000000
_cell_angle_gamma   90.00000000
_symmetry_Int_Tables_number   1
_chemical_formula_structural   P(W2O7)2
_chemical_formula_sum   'P4 W16 O56'
_cell_volume   1101.55266275
_cell_formula_units_Z   4
loop_
 _symmetry_equiv_pos_site_id
 _symmetry_equiv_pos_as_xyz
  1  'x, y, z'
loop_
 _atom_site_type_symbol
 _atom_site_label
 _atom_site_symmetry_multiplicity
 _atom_site_fract_x
 _atom_site_fract_y
 _atom_site_fract_z
 _atom_site_occupancy
  P  P0  1  0.236744  0.282956  0.213285  1
  P  P1  1  0.263256  0.717044  0.713285  1
  P  P2  1  0.763256  0.782956  0.286715  1
  P  P3  1  0.736744  0.217044  0.786715  1
  W  W4  1  0.758125  0.425117  0.371481  1
  W  W5  1  0.741875  0.574883  0.871481  1
  W  W6  1  0.756887  0.086313  0.474231  1
  W  W7  1  0.244690  0.246968  0.924249  1
  W  W8  1  0.244025  0.912707  0.820882  1
  W  W9  1  0.743113  0.913687  0.974231  1
  W  W10  1  0.243113  0.586313  0.025769  1
  W  W11  1  0.258125  0.074883  0.628519  1
  W  W12  1  0.755310  0.746968  0.575751  1
  W  W13  1  0.744690  0.253032  0.075751  1
  W  W14  1  0.255310  0.753032  0.424249  1
  W  W15  1  0.744025  0.587293  0.179118  1
  W  W16  1  0.256887  0.413687  0.525769  1
  W  W17  1  0.241875  0.925117  0.128519  1
  W  W18  1  0.255975  0.087293  0.320882  1
  W  W19  1  0.755975  0.412707  0.679118  1
  O  O20  1  0.471515  0.101038  0.103264  1
  O  O21  1  0.011862  0.741867  0.161074  1
  O  O22  1  0.030191  0.571632  0.392034  1
  O  O23  1  0.756596  0.253636  0.420005  1
  O  O24  1  0.244039  0.094279  0.184511  1
  O  O25  1  0.256596  0.246364  0.579995  1
  O  O26  1  0.530191  0.928368  0.607966  1
  O  O27  1  0.743475  0.082295  0.026353  1
  O  O28  1  0.014342  0.730839  0.843105  1
  O  O29  1  0.987496  0.391564  0.207840  1
  O  O30  1  0.483199  0.932369  0.450135  1
  O  O31  1  0.012504  0.891564  0.292160  1
  O  O32  1  0.982047  0.901098  0.445316  1
  O  O33  1  0.955748  0.078772  0.797322  1
  O  O34  1  0.455748  0.421228  0.202678  1
  O  O35  1  0.030084  0.234337  0.497600  1
  O  O36  1  0.469916  0.765663  0.997600  1
  O  O37  1  0.044252  0.578772  0.702678  1
  O  O38  1  0.244736  0.074015  0.870183  1
  O  O39  1  0.243475  0.417705  0.973647  1
  O  O40  1  0.256525  0.582295  0.473647  1
  O  O41  1  0.739154  0.720216  0.238044  1
  O  O42  1  0.743404  0.746364  0.920005  1
  O  O43  1  0.514342  0.769161  0.156895  1
  O  O44  1  0.969809  0.071632  0.107966  1
  O  O45  1  0.755961  0.594279  0.315489  1
  O  O46  1  0.756525  0.917705  0.526353  1
  O  O47  1  0.983199  0.567631  0.549865  1
  O  O48  1  0.016801  0.067631  0.950135  1
  O  O49  1  0.243404  0.753636  0.079995  1
  O  O50  1  0.469809  0.428368  0.892034  1
  O  O51  1  0.985658  0.230839  0.656895  1
  O  O52  1  0.028485  0.898962  0.603264  1
  O  O53  1  0.487496  0.108436  0.792160  1
  O  O54  1  0.544252  0.921228  0.297322  1
  O  O55  1  0.017953  0.401098  0.054684  1
  O  O56  1  0.528485  0.601038  0.396736  1
  O  O57  1  0.482047  0.598902  0.554684  1
  O  O58  1  0.485658  0.269161  0.343105  1
  O  O59  1  0.260846  0.220216  0.261956  1
  O  O60  1  0.239154  0.779784  0.761956  1
  O  O61  1  0.255264  0.925985  0.370183  1
  O  O62  1  0.511862  0.758133  0.838926  1
  O  O63  1  0.512504  0.608436  0.707840  1
  O  O64  1  0.517953  0.098902  0.945316  1
  O  O65  1  0.516801  0.432369  0.049865  1
  O  O66  1  0.744736  0.425985  0.129817  1
  O  O67  1  0.755264  0.574015  0.629817  1
  O  O68  1  0.760846  0.279784  0.738044  1
  O  O69  1  0.988138  0.241867  0.338926  1
  O  O70  1  0.255961  0.905721  0.684511  1
  O  O71  1  0.971515  0.398962  0.896736  1
  O  O72  1  0.969916  0.734337  0.002400  1
  O  O73  1  0.488138  0.258133  0.661074  1
  O  O74  1  0.744039  0.405721  0.815489  1
  O  O75  1  0.530084  0.265663  0.502400  1
