# generated using pymatgen
data_YbPS4
_symmetry_space_group_name_H-M   'P 1'
_cell_length_a   12.08757386
_cell_length_b   12.08757386
_cell_length_c   12.08757386
_cell_angle_alpha   124.80677415
_cell_angle_beta   124.80677415
_cell_angle_gamma   81.85832533
_symmetry_Int_Tables_number   1
_chemical_formula_structural   YbPS4
_chemical_formula_sum   'Yb8 P8 S32'
_cell_volume   1145.36099432
_cell_formula_units_Z   8
loop_
 _symmetry_equiv_pos_site_id
 _symmetry_equiv_pos_as_xyz
  1  'x, y, z'
loop_
 _atom_site_type_symbol
 _atom_site_label
 _atom_site_symmetry_multiplicity
 _atom_site_fract_x
 _atom_site_fract_y
 _atom_site_fract_z
 _atom_site_occupancy
  Yb  Yb0  1  0.500000  0.000000  0.500000  1
  Yb  Yb1  1  0.750000  0.750000  0.000000  1
  Yb  Yb2  1  0.000000  0.500000  0.500000  1
  Yb  Yb3  1  0.500000  0.500000  0.000000  1
  Yb  Yb4  1  0.000000  0.000000  0.000000  1
  Yb  Yb5  1  0.750000  0.250000  0.500000  1
  Yb  Yb6  1  0.250000  0.250000  0.000000  1
  Yb  Yb7  1  0.250000  0.750000  0.500000  1
  P  P8  1  0.125000  0.423826  0.798826  1
  P  P9  1  0.076174  0.375000  0.201174  1
  P  P10  1  0.576174  0.375000  0.701174  1
  P  P11  1  0.173826  0.875000  0.798826  1
  P  P12  1  0.625000  0.826174  0.701174  1
  P  P13  1  0.673826  0.875000  0.298826  1
  P  P14  1  0.625000  0.326174  0.201174  1
  P  P15  1  0.125000  0.923826  0.298826  1
  S  S16  1  0.538886  0.343567  0.312711  1
  S  S17  1  0.775129  0.724523  0.240314  1
  S  S18  1  0.038886  0.726175  0.195319  1
  S  S19  1  0.211114  0.906433  0.187289  1
  S  S20  1  0.974871  0.525477  0.259686  1
  S  S21  1  0.765790  0.025477  0.550605  1
  S  S22  1  0.273825  0.469144  0.312711  1
  S  S23  1  0.156433  0.961114  0.687289  1
  S  S24  1  0.465185  0.224871  0.949395  1
  S  S25  1  0.030856  0.226175  0.687289  1
  S  S26  1  0.093567  0.280856  0.304681  1
  S  S27  1  0.976175  0.788886  0.695319  1
  S  S28  1  0.719144  0.023825  0.812711  1
  S  S29  1  0.784815  0.234210  0.259686  1
  S  S30  1  0.265790  0.715185  0.740314  1
  S  S31  1  0.474871  0.215185  0.449395  1
  S  S32  1  0.974523  0.525129  0.740314  1
  S  S33  1  0.711114  0.523825  0.304681  1
  S  S34  1  0.275477  0.515790  0.050605  1
  S  S35  1  0.530856  0.843567  0.804681  1
  S  S36  1  0.484210  0.534815  0.759686  1
  S  S37  1  0.965185  0.015790  0.240314  1
  S  S38  1  0.474523  0.734210  0.449395  1
  S  S39  1  0.773825  0.461114  0.804681  1
  S  S40  1  0.656433  0.969144  0.195319  1
  S  S41  1  0.219144  0.406433  0.695319  1
  S  S42  1  0.984210  0.224523  0.949395  1
  S  S43  1  0.476175  0.780856  0.187289  1
  S  S44  1  0.593567  0.288886  0.812711  1
  S  S45  1  0.275129  0.034815  0.050605  1
  S  S46  1  0.284815  0.025129  0.550605  1
  S  S47  1  0.775477  0.724871  0.759686  1
