# generated using pymatgen
data_ErFe3
_symmetry_space_group_name_H-M   'P 1'
_cell_length_a   8.56020243
_cell_length_b   8.56020243
_cell_length_c   8.56020243
_cell_angle_alpha   34.43100096
_cell_angle_beta   34.43100096
_cell_angle_gamma   34.43100096
_symmetry_Int_Tables_number   1
_chemical_formula_structural   ErFe3
_chemical_formula_sum   'Er3 Fe9'
_cell_volume   178.87867071
_cell_formula_units_Z   3
loop_
 _symmetry_equiv_pos_site_id
 _symmetry_equiv_pos_as_xyz
  1  'x, y, z'
loop_
 _atom_site_type_symbol
 _atom_site_label
 _atom_site_symmetry_multiplicity
 _atom_site_fract_x
 _atom_site_fract_y
 _atom_site_fract_z
 _atom_site_occupancy
  Er  Er0  1  0.858057  0.858057  0.858057  1
  Er  Er1  1  0.000000  1.000000  0.000000  1
  Er  Er2  1  0.141943  0.141943  0.141943  1
  Fe  Fe3  1  0.581868  0.081996  0.581868  1
  Fe  Fe4  1  0.581868  0.581868  0.081996  1
  Fe  Fe5  1  0.918004  0.418132  0.418132  1
  Fe  Fe6  1  0.418132  0.918004  0.418132  1
  Fe  Fe7  1  0.081996  0.581868  0.581868  1
  Fe  Fe8  1  0.418132  0.418132  0.918004  1
  Fe  Fe9  1  0.667190  0.667190  0.667190  1
  Fe  Fe10  1  0.332810  0.332810  0.332810  1
  Fe  Fe11  1  0.500000  0.500000  0.500000  1
