# generated using pymatgen
data_Ba6Pr3I19
_symmetry_space_group_name_H-M   'P 1'
_cell_length_a   10.34407477
_cell_length_b   10.34407477
_cell_length_c   22.99510408
_cell_angle_alpha   86.06054552
_cell_angle_beta   93.93945448
_cell_angle_gamma   103.92727281
_symmetry_Int_Tables_number   1
_chemical_formula_structural   Ba6Pr3I19
_chemical_formula_sum   'Ba12 Pr6 I38'
_cell_volume   2379.03786098
_cell_formula_units_Z   2
loop_
 _symmetry_equiv_pos_site_id
 _symmetry_equiv_pos_as_xyz
  1  'x, y, z'
loop_
 _atom_site_type_symbol
 _atom_site_label
 _atom_site_symmetry_multiplicity
 _atom_site_fract_x
 _atom_site_fract_y
 _atom_site_fract_z
 _atom_site_occupancy
  Ba  Ba0  1  0.734253  0.413042  0.961400  1
  Ba  Ba1  1  0.581639  0.216275  0.715862  1
  Ba  Ba2  1  0.913900  0.853270  0.394389  1
  Ba  Ba3  1  0.418361  0.783725  0.284138  1
  Ba  Ba4  1  0.265747  0.586958  0.038600  1
  Ba  Ba5  1  0.853270  0.913900  0.105611  1
  Ba  Ba6  1  0.783725  0.418361  0.215862  1
  Ba  Ba7  1  0.586958  0.265747  0.461400  1
  Ba  Ba8  1  0.216275  0.581639  0.784138  1
  Ba  Ba9  1  0.146730  0.086100  0.894389  1
  Ba  Ba10  1  0.086100  0.146730  0.605611  1
  Ba  Ba11  1  0.413042  0.734253  0.538600  1
  Pr  Pr12  1  0.635201  0.873442  0.875010  1
  Pr  Pr13  1  0.753490  0.753490  0.750000  1
  Pr  Pr14  1  0.246510  0.246510  0.250000  1
  Pr  Pr15  1  0.364799  0.126558  0.124990  1
  Pr  Pr16  1  0.873442  0.635201  0.624990  1
  Pr  Pr17  1  0.126558  0.364799  0.375010  1
  I  I18  1  0.614155  0.698276  0.003982  1
  I  I19  1  0.538643  0.160113  0.866427  1
  I  I20  1  0.069054  0.845223  0.714686  1
  I  I21  1  0.522114  0.136202  0.256284  1
  I  I22  1  0.458350  0.443731  0.158590  1
  I  I23  1  0.096020  0.244128  0.116416  1
  I  I24  1  0.301724  0.385845  0.503982  1
  I  I25  1  0.244128  0.096020  0.383584  1
  I  I26  1  0.073810  0.840003  0.534880  1
  I  I27  1  0.863798  0.477886  0.756284  1
  I  I28  1  0.928310  0.582668  0.086006  1
  I  I29  1  0.311230  0.798703  0.901405  1
  I  I30  1  0.160113  0.538643  0.633573  1
  I  I31  1  0.798703  0.311230  0.598595  1
  I  I32  1  0.417332  0.071690  0.586006  1
  I  I33  1  0.154777  0.930946  0.214686  1
  I  I34  1  0.556269  0.541650  0.658590  1
  I  I35  1  0.698276  0.614155  0.496018  1
  I  I36  1  0.461357  0.839887  0.133573  1
  I  I37  1  0.930946  0.154777  0.285314  1
  I  I38  1  0.845223  0.069054  0.785314  1
  I  I39  1  0.245713  0.245713  0.750000  1
  I  I40  1  0.688770  0.201297  0.098595  1
  I  I41  1  0.582668  0.928310  0.413994  1
  I  I42  1  0.159997  0.926190  0.034880  1
  I  I43  1  0.477886  0.863798  0.743716  1
  I  I44  1  0.926190  0.159997  0.465120  1
  I  I45  1  0.201297  0.688770  0.401405  1
  I  I46  1  0.443731  0.458350  0.341410  1
  I  I47  1  0.903980  0.755872  0.883584  1
  I  I48  1  0.755872  0.903980  0.616416  1
  I  I49  1  0.754287  0.754287  0.250000  1
  I  I50  1  0.840003  0.073810  0.965120  1
  I  I51  1  0.071690  0.417332  0.913994  1
  I  I52  1  0.385845  0.301724  0.996018  1
  I  I53  1  0.839887  0.461357  0.366427  1
  I  I54  1  0.136202  0.522114  0.243716  1
  I  I55  1  0.541650  0.556269  0.841410  1
