# generated using pymatgen
data_KSbN(OF)3
_symmetry_space_group_name_H-M   'P 1'
_cell_length_a   8.01511183
_cell_length_b   8.07937699
_cell_length_c   18.42166754
_cell_angle_alpha   90.00000000
_cell_angle_beta   90.00000000
_cell_angle_gamma   90.00000000
_symmetry_Int_Tables_number   1
_chemical_formula_structural   KSbN(OF)3
_chemical_formula_sum   'K8 Sb8 N8 O24 F24'
_cell_volume   1192.93395296
_cell_formula_units_Z   8
loop_
 _symmetry_equiv_pos_site_id
 _symmetry_equiv_pos_as_xyz
  1  'x, y, z'
loop_
 _atom_site_type_symbol
 _atom_site_label
 _atom_site_symmetry_multiplicity
 _atom_site_fract_x
 _atom_site_fract_y
 _atom_site_fract_z
 _atom_site_occupancy
  K  K0  1  0.427202  0.075576  0.184029  1
  K  K1  1  0.927202  0.924424  0.315971  1
  K  K2  1  0.572798  0.424424  0.684029  1
  K  K3  1  0.072798  0.075576  0.684029  1
  K  K4  1  0.072798  0.575576  0.815971  1
  K  K5  1  0.572798  0.924424  0.815971  1
  K  K6  1  0.927202  0.424424  0.184029  1
  K  K7  1  0.427202  0.575576  0.315971  1
  Sb  Sb8  1  0.572509  0.445937  0.892259  1
  Sb  Sb9  1  0.927491  0.445937  0.392259  1
  Sb  Sb10  1  0.927491  0.945937  0.107741  1
  Sb  Sb11  1  0.572509  0.945937  0.607741  1
  Sb  Sb12  1  0.072509  0.054063  0.892259  1
  Sb  Sb13  1  0.427491  0.054063  0.392259  1
  Sb  Sb14  1  0.427491  0.554063  0.107741  1
  Sb  Sb15  1  0.072509  0.554063  0.607741  1
  N  N16  1  0.867840  0.849879  0.496691  1
  N  N17  1  0.367840  0.150121  0.003309  1
  N  N18  1  0.132160  0.650121  0.996691  1
  N  N19  1  0.867840  0.349879  0.003309  1
  N  N20  1  0.132160  0.150121  0.503309  1
  N  N21  1  0.632160  0.349879  0.503309  1
  N  N22  1  0.367840  0.650121  0.496691  1
  N  N23  1  0.632160  0.849879  0.996691  1
  O  O24  1  0.028909  0.235928  0.538637  1
  O  O25  1  0.711125  0.466587  0.532135  1
  O  O26  1  0.471091  0.235928  0.038637  1
  O  O27  1  0.471091  0.735928  0.461363  1
  O  O28  1  0.288875  0.533413  0.467865  1
  O  O29  1  0.971091  0.264072  0.038637  1
  O  O30  1  0.528909  0.764072  0.961363  1
  O  O31  1  0.655023  0.317554  0.435028  1
  O  O32  1  0.211125  0.533413  0.967865  1
  O  O33  1  0.971091  0.764072  0.461363  1
  O  O34  1  0.844977  0.317554  0.935028  1
  O  O35  1  0.528909  0.264072  0.538637  1
  O  O36  1  0.155023  0.182446  0.435028  1
  O  O37  1  0.155023  0.682446  0.064972  1
  O  O38  1  0.344977  0.682446  0.564972  1
  O  O39  1  0.028909  0.735928  0.961363  1
  O  O40  1  0.844977  0.817554  0.564972  1
  O  O41  1  0.788875  0.966587  0.467865  1
  O  O42  1  0.655023  0.817554  0.064972  1
  O  O43  1  0.788875  0.466587  0.032135  1
  O  O44  1  0.711125  0.966587  0.967865  1
  O  O45  1  0.211125  0.033413  0.532135  1
  O  O46  1  0.344977  0.182446  0.935028  1
  O  O47  1  0.288875  0.033413  0.032135  1
  F  F48  1  0.735049  0.588920  0.840753  1
  F  F49  1  0.235049  0.911080  0.840753  1
  F  F50  1  0.885535  0.269672  0.319923  1
  F  F51  1  0.264951  0.911080  0.340753  1
  F  F52  1  0.588180  0.964038  0.318378  1
  F  F53  1  0.614465  0.769672  0.680077  1
  F  F54  1  0.114465  0.730328  0.680077  1
  F  F55  1  0.385535  0.230328  0.319923  1
  F  F56  1  0.114465  0.230328  0.819923  1
  F  F57  1  0.614465  0.269672  0.819923  1
  F  F58  1  0.735049  0.088920  0.659247  1
  F  F59  1  0.764951  0.088920  0.159247  1
  F  F60  1  0.088180  0.535962  0.318378  1
  F  F61  1  0.885535  0.769672  0.180077  1
  F  F62  1  0.911820  0.464038  0.681622  1
  F  F63  1  0.385535  0.730328  0.180077  1
  F  F64  1  0.764951  0.588920  0.340753  1
  F  F65  1  0.264951  0.411080  0.159247  1
  F  F66  1  0.088180  0.035962  0.181622  1
  F  F67  1  0.911820  0.964038  0.818378  1
  F  F68  1  0.411820  0.035962  0.681622  1
  F  F69  1  0.235049  0.411080  0.659247  1
  F  F70  1  0.411820  0.535962  0.818378  1
  F  F71  1  0.588180  0.464038  0.181622  1
