# generated using pymatgen
data_Ba3AlF9
_symmetry_space_group_name_H-M   'P 1'
_cell_length_a   7.65853975
_cell_length_b   14.79851483
_cell_length_c   15.10369841
_cell_angle_alpha   90.00000000
_cell_angle_beta   90.00000000
_cell_angle_gamma   90.00000000
_symmetry_Int_Tables_number   1
_chemical_formula_structural   Ba3AlF9
_chemical_formula_sum   'Ba24 Al8 F72'
_cell_volume   1711.77787175
_cell_formula_units_Z   8
loop_
 _symmetry_equiv_pos_site_id
 _symmetry_equiv_pos_as_xyz
  1  'x, y, z'
loop_
 _atom_site_type_symbol
 _atom_site_label
 _atom_site_symmetry_multiplicity
 _atom_site_fract_x
 _atom_site_fract_y
 _atom_site_fract_z
 _atom_site_occupancy
  Ba  Ba0  1  0.741921  0.401789  0.108470  1
  Ba  Ba1  1  0.000000  0.856180  0.000000  1
  Ba  Ba2  1  0.241599  0.198179  0.688630  1
  Ba  Ba3  1  0.241599  0.698179  0.811370  1
  Ba  Ba4  1  0.749601  0.281337  0.773050  1
  Ba  Ba5  1  0.492458  0.004254  0.145413  1
  Ba  Ba6  1  0.250399  0.281337  0.226950  1
  Ba  Ba7  1  0.258079  0.401789  0.891530  1
  Ba  Ba8  1  0.507542  0.004254  0.854587  1
  Ba  Ba9  1  0.507542  0.504254  0.645413  1
  Ba  Ba10  1  0.492458  0.504254  0.354587  1
  Ba  Ba11  1  0.772231  0.069485  0.595082  1
  Ba  Ba12  1  0.000000  0.177370  0.000000  1
  Ba  Ba13  1  0.227769  0.069485  0.404918  1
  Ba  Ba14  1  0.000000  0.677370  0.500000  1
  Ba  Ba15  1  0.772231  0.569485  0.904918  1
  Ba  Ba16  1  0.758401  0.698179  0.188630  1
  Ba  Ba17  1  0.000000  0.356180  0.500000  1
  Ba  Ba18  1  0.250399  0.781337  0.273050  1
  Ba  Ba19  1  0.758401  0.198179  0.311370  1
  Ba  Ba20  1  0.258079  0.901789  0.608470  1
  Ba  Ba21  1  0.749601  0.781337  0.726950  1
  Ba  Ba22  1  0.227769  0.569485  0.095082  1
  Ba  Ba23  1  0.741921  0.901789  0.391530  1
  Al  Al24  1  0.500000  0.810603  0.000000  1
  Al  Al25  1  0.500000  0.204883  0.000000  1
  Al  Al26  1  0.983225  0.484082  0.300974  1
  Al  Al27  1  0.500000  0.704883  0.500000  1
  Al  Al28  1  0.016775  0.984082  0.800974  1
  Al  Al29  1  0.016775  0.484082  0.699026  1
  Al  Al30  1  0.983225  0.984082  0.199026  1
  Al  Al31  1  0.500000  0.310603  0.500000  1
  F  F32  1  0.669871  0.286767  0.971738  1
  F  F33  1  0.500000  0.492947  0.000000  1
  F  F34  1  0.934931  0.251308  0.159028  1
  F  F35  1  0.434812  0.207444  0.882859  1
  F  F36  1  0.218058  0.533716  0.744232  1
  F  F37  1  0.658873  0.903272  0.008259  1
  F  F38  1  0.150733  0.879961  0.815715  1
  F  F39  1  0.672764  0.227732  0.488394  1
  F  F40  1  0.341127  0.403272  0.508259  1
  F  F41  1  0.565188  0.707444  0.382859  1
  F  F42  1  0.340139  0.114833  0.023657  1
  F  F43  1  0.669871  0.786767  0.528262  1
  F  F44  1  0.330129  0.286767  0.028262  1
  F  F45  1  0.138882  0.567547  0.925901  1
  F  F46  1  0.330129  0.786767  0.471738  1
  F  F47  1  0.924879  0.228175  0.629537  1
  F  F48  1  0.447008  0.923627  0.300249  1
  F  F49  1  0.075121  0.728175  0.129537  1
  F  F50  1  0.076507  0.520461  0.588917  1
  F  F51  1  0.500000  0.992947  0.500000  1
  F  F52  1  0.934931  0.751308  0.340972  1
  F  F53  1  0.340139  0.614833  0.476343  1
  F  F54  1  0.659861  0.114833  0.976343  1
  F  F55  1  0.000000  0.377749  0.000000  1
  F  F56  1  0.065069  0.251308  0.840972  1
  F  F57  1  0.108321  0.085778  0.219538  1
  F  F58  1  0.658873  0.403272  0.491741  1
  F  F59  1  0.518339  0.312602  0.623268  1
  F  F60  1  0.047811  0.442109  0.191189  1
  F  F61  1  0.000000  0.877749  0.500000  1
  F  F62  1  0.923493  0.520461  0.411083  1
  F  F63  1  0.434812  0.707444  0.617141  1
  F  F64  1  0.565188  0.207444  0.117141  1
  F  F65  1  0.891679  0.085778  0.780462  1
  F  F66  1  0.952189  0.942109  0.691189  1
  F  F67  1  0.849267  0.379961  0.315715  1
  F  F68  1  0.076507  0.020461  0.911083  1
  F  F69  1  0.924879  0.728175  0.870463  1
  F  F70  1  0.781942  0.033716  0.244232  1
  F  F71  1  0.923493  0.020461  0.088917  1
  F  F72  1  0.481661  0.312602  0.376732  1
  F  F73  1  0.849267  0.879961  0.184285  1
  F  F74  1  0.171376  0.924243  0.154081  1
  F  F75  1  0.518339  0.812602  0.876732  1
  F  F76  1  0.075121  0.228175  0.370463  1
  F  F77  1  0.441890  0.135883  0.282217  1
  F  F78  1  0.341127  0.903272  0.991741  1
  F  F79  1  0.171376  0.424243  0.345919  1
  F  F80  1  0.558110  0.135883  0.717783  1
  F  F81  1  0.327236  0.227732  0.511606  1
  F  F82  1  0.828624  0.424243  0.654081  1
  F  F83  1  0.861118  0.067547  0.425901  1
  F  F84  1  0.327236  0.727732  0.988394  1
  F  F85  1  0.558110  0.635883  0.782217  1
  F  F86  1  0.108321  0.585778  0.280462  1
  F  F87  1  0.552992  0.423627  0.800249  1
  F  F88  1  0.447008  0.423627  0.199751  1
  F  F89  1  0.150733  0.379961  0.684285  1
  F  F90  1  0.218058  0.033716  0.755768  1
  F  F91  1  0.952189  0.442109  0.808811  1
  F  F92  1  0.138882  0.067547  0.574099  1
  F  F93  1  0.828624  0.924243  0.845919  1
  F  F94  1  0.659861  0.614833  0.523657  1
  F  F95  1  0.065069  0.751308  0.659028  1
  F  F96  1  0.047811  0.942109  0.308811  1
  F  F97  1  0.781942  0.533716  0.255768  1
  F  F98  1  0.672764  0.727732  0.011606  1
  F  F99  1  0.891679  0.585778  0.719538  1
  F  F100  1  0.481661  0.812602  0.123268  1
  F  F101  1  0.552992  0.923627  0.699751  1
  F  F102  1  0.861118  0.567547  0.074099  1
  F  F103  1  0.441890  0.635883  0.217783  1
