# generated using pymatgen
data_Ho2Te4O11
_symmetry_space_group_name_H-M   'P 1'
_cell_length_a   6.74478570
_cell_length_b   6.74478570
_cell_length_c   16.28275061
_cell_angle_alpha   75.88868823
_cell_angle_beta   104.11131177
_cell_angle_gamma   135.02084081
_symmetry_Int_Tables_number   1
_chemical_formula_structural   Ho2Te4O11
_chemical_formula_sum   'Ho4 Te8 O22'
_cell_volume   505.03209691
_cell_formula_units_Z   2
loop_
 _symmetry_equiv_pos_site_id
 _symmetry_equiv_pos_as_xyz
  1  'x, y, z'
loop_
 _atom_site_type_symbol
 _atom_site_label
 _atom_site_symmetry_multiplicity
 _atom_site_fract_x
 _atom_site_fract_y
 _atom_site_fract_z
 _atom_site_occupancy
  Ho  Ho0  1  0.630911  0.869611  0.962970  1
  Ho  Ho1  1  0.869611  0.630911  0.537030  1
  Ho  Ho2  1  0.369089  0.130389  0.037030  1
  Ho  Ho3  1  0.130389  0.369089  0.462970  1
  Te  Te4  1  0.589643  0.845882  0.625047  1
  Te  Te5  1  0.845882  0.589643  0.874953  1
  Te  Te6  1  0.410357  0.154118  0.374953  1
  Te  Te7  1  0.154118  0.410357  0.125047  1
  Te  Te8  1  0.157328  0.400796  0.801942  1
  Te  Te9  1  0.400796  0.157328  0.698058  1
  Te  Te10  1  0.842672  0.599204  0.198058  1
  Te  Te11  1  0.599204  0.842672  0.301942  1
  O  O12  1  0.685338  0.190883  0.627352  1
  O  O13  1  0.190883  0.685338  0.872648  1
  O  O14  1  0.314662  0.809117  0.372648  1
  O  O15  1  0.809117  0.314662  0.127352  1
  O  O16  1  0.246288  0.662129  0.551898  1
  O  O17  1  0.662129  0.246288  0.948102  1
  O  O18  1  0.753712  0.337871  0.448102  1
  O  O19  1  0.337871  0.753712  0.051898  1
  O  O20  1  0.824974  0.963146  0.544550  1
  O  O21  1  0.963146  0.824974  0.955450  1
  O  O22  1  0.175026  0.036854  0.455450  1
  O  O23  1  0.036854  0.175026  0.044550  1
  O  O24  1  0.447521  0.399092  0.595600  1
  O  O25  1  0.399092  0.447521  0.904400  1
  O  O26  1  0.552479  0.600908  0.404400  1
  O  O27  1  0.600908  0.552479  0.095600  1
  O  O28  1  0.090907  0.793111  0.666737  1
  O  O29  1  0.793111  0.090907  0.833263  1
  O  O30  1  0.909093  0.206889  0.333263  1
  O  O31  1  0.206889  0.909093  0.166737  1
  O  O32  1  0.145816  0.145816  0.750000  1
  O  O33  1  0.854184  0.854184  0.250000  1
