# generated using pymatgen
data_Ag5Hg4P8Cl5
_symmetry_space_group_name_H-M   'P 1'
_cell_length_a   9.20537711
_cell_length_b   9.20537711
_cell_length_c   6.36098080
_cell_angle_alpha   79.22837296
_cell_angle_beta   100.77162704
_cell_angle_gamma   105.44389136
_symmetry_Int_Tables_number   1
_chemical_formula_structural   Ag5Hg4P8Cl5
_chemical_formula_sum   'Ag5 Hg4 P8 Cl5'
_cell_volume   505.02480438
_cell_formula_units_Z   1
loop_
 _symmetry_equiv_pos_site_id
 _symmetry_equiv_pos_as_xyz
  1  'x, y, z'
loop_
 _atom_site_type_symbol
 _atom_site_label
 _atom_site_symmetry_multiplicity
 _atom_site_fract_x
 _atom_site_fract_y
 _atom_site_fract_z
 _atom_site_occupancy
  Ag  Ag0  1  0.146523  0.146523  0.000000  1
  Ag  Ag1  1  0.795504  0.204496  0.054661  1
  Ag  Ag2  1  0.204496  0.795504  0.945339  1
  Ag  Ag3  1  0.853477  0.853477  0.000000  1
  Ag  Ag4  1  0.500000  0.500000  0.000000  1
  Hg  Hg5  1  0.482136  0.174916  0.532976  1
  Hg  Hg6  1  0.517864  0.825084  0.467024  1
  Hg  Hg7  1  0.825084  0.517864  0.532976  1
  Hg  Hg8  1  0.174916  0.482136  0.467024  1
  P  P9  1  0.098485  0.203845  0.599686  1
  P  P10  1  0.203845  0.098485  0.400314  1
  P  P11  1  0.858241  0.141759  0.445745  1
  P  P12  1  0.796155  0.901515  0.599686  1
  P  P13  1  0.759636  0.240364  0.658839  1
  P  P14  1  0.141759  0.858241  0.554255  1
  P  P15  1  0.901515  0.796155  0.400314  1
  P  P16  1  0.240364  0.759636  0.341161  1
  Cl  Cl17  1  0.196430  0.473708  0.976963  1
  Cl  Cl18  1  0.803570  0.526292  0.023037  1
  Cl  Cl19  1  0.473708  0.196430  0.023037  1
  Cl  Cl20  1  0.526292  0.803570  0.976963  1
  Cl  Cl21  1  0.500000  0.500000  0.500000  1
