# generated using pymatgen
data_Li3Ti8O16
_symmetry_space_group_name_H-M   'P 1'
_cell_length_a   5.98881109
_cell_length_b   8.46578620
_cell_length_c   11.97036704
_cell_angle_alpha   90.00000000
_cell_angle_beta   90.00000000
_cell_angle_gamma   90.00000000
_symmetry_Int_Tables_number   1
_chemical_formula_structural   Li3Ti8O16
_chemical_formula_sum   'Li6 Ti16 O32'
_cell_volume   606.89754022
_cell_formula_units_Z   2
loop_
 _symmetry_equiv_pos_site_id
 _symmetry_equiv_pos_as_xyz
  1  'x, y, z'
loop_
 _atom_site_type_symbol
 _atom_site_label
 _atom_site_symmetry_multiplicity
 _atom_site_fract_x
 _atom_site_fract_y
 _atom_site_fract_z
 _atom_site_occupancy
  Li  Li0  1  0.500000  0.123799  0.000000  1
  Li  Li1  1  0.000000  0.625880  0.751104  1
  Li  Li2  1  0.000000  0.625880  0.248896  1
  Li  Li3  1  0.500000  0.374120  0.748896  1
  Li  Li4  1  0.000000  0.876201  0.500000  1
  Li  Li5  1  0.500000  0.374120  0.251104  1
  Ti  Ti6  1  0.000000  0.244813  0.875664  1
  Ti  Ti7  1  0.751729  0.503878  0.000000  1
  Ti  Ti8  1  0.500000  0.750979  0.876938  1
  Ti  Ti9  1  0.500000  0.755187  0.624336  1
  Ti  Ti10  1  0.250000  0.000000  0.750000  1
  Ti  Ti11  1  0.000000  0.249021  0.623062  1
  Ti  Ti12  1  0.000000  0.249021  0.376938  1
  Ti  Ti13  1  0.750000  0.000000  0.750000  1
  Ti  Ti14  1  0.748271  0.496122  0.500000  1
  Ti  Ti15  1  0.500000  0.755187  0.375663  1
  Ti  Ti16  1  0.500000  0.750979  0.123062  1
  Ti  Ti17  1  0.251729  0.496122  0.500000  1
  Ti  Ti18  1  0.250000  0.000000  0.250000  1
  Ti  Ti19  1  0.000000  0.244813  0.124336  1
  Ti  Ti20  1  0.750000  0.000000  0.250000  1
  Ti  Ti21  1  0.248271  0.503878  0.000000  1
  O  O22  1  0.000000  0.486197  0.887980  1
  O  O23  1  0.719074  0.733276  0.000000  1
  O  O24  1  0.724154  0.762564  0.749731  1
  O  O25  1  0.500000  0.512285  0.887385  1
  O  O26  1  0.500000  0.987718  0.862334  1
  O  O27  1  0.500000  0.983847  0.641574  1
  O  O28  1  0.280926  0.733276  0.000000  1
  O  O29  1  0.275846  0.762564  0.749731  1
  O  O30  1  0.224154  0.237436  0.750269  1
  O  O31  1  0.219074  0.266724  0.500000  1
  O  O32  1  0.000000  0.016153  0.858426  1
  O  O33  1  0.000000  0.487715  0.387385  1
  O  O34  1  0.000000  0.012282  0.637666  1
  O  O35  1  0.000000  0.487715  0.612615  1
  O  O36  1  0.775846  0.237436  0.750269  1
  O  O37  1  0.780926  0.266724  0.500000  1
  O  O38  1  0.724251  0.736636  0.500000  1
  O  O39  1  0.724154  0.762564  0.250269  1
  O  O40  1  0.500000  0.513803  0.612020  1
  O  O41  1  0.500000  0.513803  0.387980  1
  O  O42  1  0.500000  0.987718  0.137666  1
  O  O43  1  0.500000  0.983847  0.358426  1
  O  O44  1  0.275749  0.736636  0.500000  1
  O  O45  1  0.275846  0.762564  0.250269  1
  O  O46  1  0.224154  0.237436  0.249731  1
  O  O47  1  0.224251  0.263364  0.000000  1
  O  O48  1  0.000000  0.012282  0.362334  1
  O  O49  1  0.000000  0.016153  0.141574  1
  O  O50  1  0.000000  0.486197  0.112020  1
  O  O51  1  0.775846  0.237436  0.249731  1
  O  O52  1  0.775749  0.263364  0.000000  1
  O  O53  1  0.500000  0.512285  0.112615  1
