# generated using pymatgen
data_TlBi(PSe3)2
_symmetry_space_group_name_H-M   'P 1'
_cell_length_a   12.63351301
_cell_length_b   7.67905272
_cell_length_c   12.85188618
_cell_angle_alpha   90.00000000
_cell_angle_beta   113.61272149
_cell_angle_gamma   90.00000000
_symmetry_Int_Tables_number   1
_chemical_formula_structural   TlBi(PSe3)2
_chemical_formula_sum   'Tl4 Bi4 P8 Se24'
_cell_volume   1142.41508282
_cell_formula_units_Z   4
loop_
 _symmetry_equiv_pos_site_id
 _symmetry_equiv_pos_as_xyz
  1  'x, y, z'
loop_
 _atom_site_type_symbol
 _atom_site_label
 _atom_site_symmetry_multiplicity
 _atom_site_fract_x
 _atom_site_fract_y
 _atom_site_fract_z
 _atom_site_occupancy
  Tl  Tl0  1  0.151980  0.923263  0.421020  1
  Tl  Tl1  1  0.651980  0.576737  0.421020  1
  Tl  Tl2  1  0.348020  0.423263  0.578980  1
  Tl  Tl3  1  0.848020  0.076737  0.578980  1
  Bi  Bi4  1  0.660794  0.847513  0.879000  1
  Bi  Bi5  1  0.839206  0.347513  0.121000  1
  Bi  Bi6  1  0.160794  0.652487  0.879000  1
  Bi  Bi7  1  0.339206  0.152487  0.121000  1
  P  P8  1  0.693922  0.091225  0.237081  1
  P  P9  1  0.806078  0.591225  0.762919  1
  P  P10  1  0.193922  0.408775  0.237081  1
  P  P11  1  0.814028  0.870101  0.235781  1
  P  P12  1  0.185972  0.129899  0.764219  1
  P  P13  1  0.685972  0.370101  0.764219  1
  P  P14  1  0.306078  0.908775  0.762919  1
  P  P15  1  0.314028  0.629899  0.235781  1
  Se  Se16  1  0.684972  0.799744  0.664176  1
  Se  Se17  1  0.694781  0.681738  0.111199  1
  Se  Se18  1  0.184972  0.700256  0.664176  1
  Se  Se19  1  0.602301  0.265496  0.593112  1
  Se  Se20  1  0.397699  0.734504  0.406888  1
  Se  Se21  1  0.883389  0.685972  0.942461  1
  Se  Se22  1  0.427932  0.006143  0.694653  1
  Se  Se23  1  0.897699  0.765496  0.406888  1
  Se  Se24  1  0.572068  0.993857  0.305347  1
  Se  Se25  1  0.116611  0.314028  0.057539  1
  Se  Se26  1  0.102301  0.234504  0.593112  1
  Se  Se27  1  0.564236  0.493413  0.830838  1
  Se  Se28  1  0.305219  0.318262  0.888801  1
  Se  Se29  1  0.072068  0.506143  0.305347  1
  Se  Se30  1  0.383389  0.814028  0.942461  1
  Se  Se31  1  0.927932  0.493857  0.694653  1
  Se  Se32  1  0.435764  0.506587  0.169162  1
  Se  Se33  1  0.315028  0.200256  0.335824  1
  Se  Se34  1  0.616611  0.185972  0.057539  1
  Se  Se35  1  0.805219  0.181738  0.888801  1
  Se  Se36  1  0.194781  0.818262  0.111199  1
  Se  Se37  1  0.815028  0.299744  0.335824  1
  Se  Se38  1  0.064236  0.006587  0.830838  1
  Se  Se39  1  0.935764  0.993413  0.169162  1
