# generated using pymatgen
data_U3Tl2(IO5)4
_symmetry_space_group_name_H-M   'P 1'
_cell_length_a   7.09117686
_cell_length_b   8.22626372
_cell_length_c   9.27675682
_cell_angle_alpha   90.57414198
_cell_angle_beta   105.32521005
_cell_angle_gamma   91.68868021
_symmetry_Int_Tables_number   1
_chemical_formula_structural   U3Tl2(IO5)4
_chemical_formula_sum   'U3 Tl2 I4 O20'
_cell_volume   521.59102216
_cell_formula_units_Z   1
loop_
 _symmetry_equiv_pos_site_id
 _symmetry_equiv_pos_as_xyz
  1  'x, y, z'
loop_
 _atom_site_type_symbol
 _atom_site_label
 _atom_site_symmetry_multiplicity
 _atom_site_fract_x
 _atom_site_fract_y
 _atom_site_fract_z
 _atom_site_occupancy
  U  U0  1  0.551541  0.922296  0.193742  1
  U  U1  1  0.448459  0.077704  0.806258  1
  U  U2  1  0.000000  0.000000  0.000000  1
  Tl  Tl3  1  0.751323  0.410436  0.155515  1
  Tl  Tl4  1  0.248677  0.589564  0.844485  1
  I  I5  1  0.296254  0.351318  0.441942  1
  I  I6  1  0.876538  0.202398  0.622897  1
  I  I7  1  0.123462  0.797602  0.377103  1
  I  I8  1  0.703746  0.648682  0.558058  1
  O  O9  1  0.909720  0.398556  0.717548  1
  O  O10  1  0.690258  0.011165  0.012841  1
  O  O11  1  0.569503  0.811000  0.441497  1
  O  O12  1  0.309742  0.988835  0.987159  1
  O  O13  1  0.227277  0.909982  0.236713  1
  O  O14  1  0.424881  0.870077  0.726861  1
  O  O15  1  0.891625  0.896699  0.291652  1
  O  O16  1  0.465875  0.288920  0.876124  1
  O  O17  1  0.043712  0.287871  0.442228  1
  O  O18  1  0.351330  0.521056  0.577166  1
  O  O19  1  0.648670  0.478944  0.422834  1
  O  O20  1  0.108375  0.103301  0.708348  1
  O  O21  1  0.575119  0.129923  0.273139  1
  O  O22  1  0.956288  0.712129  0.557772  1
  O  O23  1  0.772723  0.090018  0.763287  1
  O  O24  1  0.534125  0.711080  0.123876  1
  O  O25  1  0.951762  0.790862  0.927856  1
  O  O26  1  0.090280  0.601444  0.282452  1
  O  O27  1  0.048238  0.209138  0.072144  1
  O  O28  1  0.430497  0.189000  0.558503  1
