# generated using pymatgen
data_La3CuSiSe7
_symmetry_space_group_name_H-M   'P 1'
_cell_length_a   10.78520522
_cell_length_b   10.78520522
_cell_length_c   6.15494843
_cell_angle_alpha   90.00000000
_cell_angle_beta   90.00000000
_cell_angle_gamma   120.00000000
_symmetry_Int_Tables_number   1
_chemical_formula_structural   La3CuSiSe7
_chemical_formula_sum   'La6 Cu2 Si2 Se14'
_cell_volume   620.02881978
_cell_formula_units_Z   2
loop_
 _symmetry_equiv_pos_site_id
 _symmetry_equiv_pos_as_xyz
  1  'x, y, z'
loop_
 _atom_site_type_symbol
 _atom_site_label
 _atom_site_symmetry_multiplicity
 _atom_site_fract_x
 _atom_site_fract_y
 _atom_site_fract_z
 _atom_site_occupancy
  La  La0  1  0.228919  0.873456  0.736771  1
  La  La1  1  0.644537  0.771081  0.736771  1
  La  La2  1  0.126544  0.355463  0.736771  1
  La  La3  1  0.771081  0.126544  0.236771  1
  La  La4  1  0.355463  0.228919  0.236771  1
  La  La5  1  0.873456  0.644537  0.236771  1
  Cu  Cu6  1  0.000000  0.000000  0.695611  1
  Cu  Cu7  1  0.000000  0.000000  0.195611  1
  Si  Si8  1  0.666667  0.333333  0.824638  1
  Si  Si9  1  0.333333  0.666667  0.324638  1
  Se  Se10  1  0.910473  0.747734  0.718941  1
  Se  Se11  1  0.162739  0.910473  0.218941  1
  Se  Se12  1  0.108382  0.585188  0.469887  1
  Se  Se13  1  0.333333  0.666667  0.955552  1
  Se  Se14  1  0.476806  0.891618  0.469887  1
  Se  Se15  1  0.891618  0.414812  0.969887  1
  Se  Se16  1  0.666667  0.333333  0.455552  1
  Se  Se17  1  0.837261  0.089527  0.718941  1
  Se  Se18  1  0.089527  0.252266  0.218941  1
  Se  Se19  1  0.252266  0.162739  0.718941  1
  Se  Se20  1  0.414812  0.523194  0.469887  1
  Se  Se21  1  0.585188  0.476806  0.969887  1
  Se  Se22  1  0.747734  0.837261  0.218941  1
  Se  Se23  1  0.523194  0.108382  0.969887  1
