# generated using pymatgen
data_SiO2
_symmetry_space_group_name_H-M   'P 1'
_cell_length_a   17.18680375
_cell_length_b   17.18680375
_cell_length_c   12.89236798
_cell_angle_alpha   90.00000000
_cell_angle_beta   90.00000000
_cell_angle_gamma   120.00000000
_symmetry_Int_Tables_number   1
_chemical_formula_structural   SiO2
_chemical_formula_sum   'Si54 O108'
_cell_volume   3298.02209287
_cell_formula_units_Z   54
loop_
 _symmetry_equiv_pos_site_id
 _symmetry_equiv_pos_as_xyz
  1  'x, y, z'
loop_
 _atom_site_type_symbol
 _atom_site_label
 _atom_site_symmetry_multiplicity
 _atom_site_fract_x
 _atom_site_fract_y
 _atom_site_fract_z
 _atom_site_occupancy
  Si  Si0  1  0.179108  0.984604  0.000000  1
  Si  Si1  1  0.179916  0.990616  0.379549  1
  Si  Si2  1  0.179916  0.990616  0.620451  1
  Si  Si3  1  0.302227  0.998802  0.195054  1
  Si  Si4  1  0.302227  0.998802  0.804946  1
  Si  Si5  1  0.162980  0.684113  0.123228  1
  Si  Si6  1  0.162980  0.684113  0.876772  1
  Si  Si7  1  0.001198  0.303424  0.195054  1
  Si  Si8  1  0.001198  0.303424  0.804946  1
  Si  Si9  1  0.144764  0.496711  0.123293  1
  Si  Si10  1  0.144764  0.496711  0.876707  1
  Si  Si11  1  0.009384  0.189301  0.620451  1
  Si  Si12  1  0.009384  0.189301  0.379549  1
  Si  Si13  1  0.015396  0.194504  0.000000  1
  Si  Si14  1  0.351947  0.855236  0.876707  1
  Si  Si15  1  0.351947  0.855236  0.123293  1
  Si  Si16  1  0.315887  0.478867  0.123228  1
  Si  Si17  1  0.315887  0.478867  0.876772  1
  Si  Si18  1  0.189301  0.179916  0.379549  1
  Si  Si19  1  0.189301  0.179916  0.620451  1
  Si  Si20  1  0.194504  0.179108  0.000000  1
  Si  Si21  1  0.521133  0.837020  0.876772  1
  Si  Si22  1  0.521133  0.837020  0.123228  1
  Si  Si23  1  0.303424  0.302227  0.195054  1
  Si  Si24  1  0.303424  0.302227  0.804946  1
  Si  Si25  1  0.503289  0.648053  0.123293  1
  Si  Si26  1  0.503289  0.648053  0.876707  1
  Si  Si27  1  0.496711  0.351947  0.123293  1
  Si  Si28  1  0.496711  0.351947  0.876707  1
  Si  Si29  1  0.696576  0.697773  0.195054  1
  Si  Si30  1  0.696576  0.697773  0.804946  1
  Si  Si31  1  0.478867  0.162980  0.876772  1
  Si  Si32  1  0.478867  0.162980  0.123228  1
  Si  Si33  1  0.805496  0.820892  0.000000  1
  Si  Si34  1  0.810699  0.820084  0.379549  1
  Si  Si35  1  0.810699  0.820084  0.620451  1
  Si  Si36  1  0.684113  0.521133  0.876772  1
  Si  Si37  1  0.684113  0.521133  0.123228  1
  Si  Si38  1  0.648053  0.144764  0.123293  1
  Si  Si39  1  0.648053  0.144764  0.876707  1
  Si  Si40  1  0.984604  0.805496  0.000000  1
  Si  Si41  1  0.990616  0.810699  0.379549  1
  Si  Si42  1  0.990616  0.810699  0.620451  1
  Si  Si43  1  0.855236  0.503289  0.123293  1
  Si  Si44  1  0.855236  0.503289  0.876707  1
  Si  Si45  1  0.998802  0.696576  0.195054  1
  Si  Si46  1  0.998802  0.696576  0.804946  1
  Si  Si47  1  0.837020  0.315887  0.123228  1
  Si  Si48  1  0.837020  0.315887  0.876772  1
  Si  Si49  1  0.697773  0.001198  0.804946  1
  Si  Si50  1  0.697773  0.001198  0.195054  1
  Si  Si51  1  0.820084  0.009384  0.620451  1
  Si  Si52  1  0.820084  0.009384  0.379549  1
  Si  Si53  1  0.820892  0.015396  0.000000  1
  O  O54  1  0.410739  0.339794  0.811841  1
  O  O55  1  0.410739  0.339794  0.188159  1
  O  O56  1  0.070945  0.410739  0.811841  1
  O  O57  1  0.070945  0.410739  0.188159  1
  O  O58  1  0.444219  0.859463  0.839144  1
  O  O59  1  0.444219  0.859463  0.160856  1
  O  O60  1  0.642763  0.121657  0.000000  1
  O  O61  1  0.541265  0.858818  0.000000  1
  O  O62  1  0.731678  0.245230  0.145331  1
  O  O63  1  0.731678  0.245230  0.854669  1
  O  O64  1  0.486448  0.731678  0.145331  1
  O  O65  1  0.486448  0.731678  0.854669  1
  O  O66  1  0.859463  0.415244  0.160856  1
  O  O67  1  0.859463  0.415244  0.839144  1
  O  O68  1  0.613818  0.898665  0.186440  1
  O  O69  1  0.613818  0.898665  0.813560  1
  O  O70  1  0.521106  0.642763  0.000000  1
  O  O71  1  0.858818  0.317552  0.000000  1
  O  O72  1  0.745361  0.013396  0.306958  1
  O  O73  1  0.745361  0.013396  0.693042  1
  O  O74  1  0.770144  0.021651  0.896912  1
  O  O75  1  0.770144  0.021651  0.103088  1
  O  O76  1  0.898665  0.284847  0.186440  1
  O  O77  1  0.898665  0.284847  0.813560  1
  O  O78  1  0.792713  0.011136  0.500000  1
  O  O79  1  0.731965  0.745361  0.693042  1
  O  O80  1  0.731965  0.745361  0.306958  1
  O  O81  1  0.823789  0.918600  0.644788  1
  O  O82  1  0.823789  0.918600  0.355212  1
  O  O83  1  0.748493  0.770144  0.896912  1
  O  O84  1  0.748493  0.770144  0.103088  1
  O  O85  1  0.584756  0.444219  0.839144  1
  O  O86  1  0.584756  0.444219  0.160856  1
  O  O87  1  0.823911  0.922848  0.000000  1
  O  O88  1  0.918600  0.094811  0.644788  1
  O  O89  1  0.918600  0.094811  0.355212  1
  O  O90  1  0.922848  0.098937  0.000000  1
  O  O91  1  0.339794  0.929055  0.811841  1
  O  O92  1  0.339794  0.929055  0.188159  1
  O  O93  1  0.781577  0.792713  0.500000  1
  O  O94  1  0.013396  0.268035  0.693042  1
  O  O95  1  0.013396  0.268035  0.306958  1
  O  O96  1  0.121657  0.478894  0.000000  1
  O  O97  1  0.021651  0.251507  0.103088  1
  O  O98  1  0.021651  0.251507  0.896912  1
  O  O99  1  0.011136  0.218423  0.500000  1
  O  O100  1  0.715153  0.613818  0.813560  1
  O  O101  1  0.715153  0.613818  0.186440  1
  O  O102  1  0.682448  0.541265  0.000000  1
  O  O103  1  0.245230  0.513552  0.145331  1
  O  O104  1  0.245230  0.513552  0.854669  1
  O  O105  1  0.901063  0.823911  0.000000  1
  O  O106  1  0.905189  0.823789  0.644788  1
  O  O107  1  0.905189  0.823789  0.355212  1
  O  O108  1  0.094811  0.176211  0.644788  1
  O  O109  1  0.094811  0.176211  0.355212  1
  O  O110  1  0.098937  0.176089  0.000000  1
  O  O111  1  0.754770  0.486448  0.145331  1
  O  O112  1  0.754770  0.486448  0.854669  1
  O  O113  1  0.317552  0.458735  0.000000  1
  O  O114  1  0.284847  0.386182  0.813560  1
  O  O115  1  0.284847  0.386182  0.186440  1
  O  O116  1  0.988864  0.781577  0.500000  1
  O  O117  1  0.978349  0.748493  0.103088  1
  O  O118  1  0.978349  0.748493  0.896912  1
  O  O119  1  0.878343  0.521106  0.000000  1
  O  O120  1  0.986604  0.731965  0.693042  1
  O  O121  1  0.986604  0.731965  0.306958  1
  O  O122  1  0.218423  0.207287  0.500000  1
  O  O123  1  0.660206  0.070945  0.811841  1
  O  O124  1  0.660206  0.070945  0.188159  1
  O  O125  1  0.077152  0.901063  0.000000  1
  O  O126  1  0.081400  0.905189  0.644788  1
  O  O127  1  0.081400  0.905189  0.355212  1
  O  O128  1  0.176089  0.077152  0.000000  1
  O  O129  1  0.415244  0.555781  0.839144  1
  O  O130  1  0.415244  0.555781  0.160856  1
  O  O131  1  0.251507  0.229856  0.896912  1
  O  O132  1  0.251507  0.229856  0.103088  1
  O  O133  1  0.176211  0.081400  0.644788  1
  O  O134  1  0.176211  0.081400  0.355212  1
  O  O135  1  0.268035  0.254639  0.693042  1
  O  O136  1  0.268035  0.254639  0.306958  1
  O  O137  1  0.207287  0.988864  0.500000  1
  O  O138  1  0.101335  0.715153  0.186440  1
  O  O139  1  0.101335  0.715153  0.813560  1
  O  O140  1  0.229856  0.978349  0.896912  1
  O  O141  1  0.229856  0.978349  0.103088  1
  O  O142  1  0.254639  0.986604  0.306958  1
  O  O143  1  0.254639  0.986604  0.693042  1
  O  O144  1  0.141182  0.682448  0.000000  1
  O  O145  1  0.478894  0.357237  0.000000  1
  O  O146  1  0.386182  0.101335  0.186440  1
  O  O147  1  0.386182  0.101335  0.813560  1
  O  O148  1  0.140537  0.584756  0.160856  1
  O  O149  1  0.140537  0.584756  0.839144  1
  O  O150  1  0.513552  0.268322  0.145331  1
  O  O151  1  0.513552  0.268322  0.854669  1
  O  O152  1  0.268322  0.754770  0.145331  1
  O  O153  1  0.268322  0.754770  0.854669  1
  O  O154  1  0.458735  0.141182  0.000000  1
  O  O155  1  0.357237  0.878343  0.000000  1
  O  O156  1  0.555781  0.140537  0.839144  1
  O  O157  1  0.555781  0.140537  0.160856  1
  O  O158  1  0.929055  0.589261  0.811841  1
  O  O159  1  0.929055  0.589261  0.188159  1
  O  O160  1  0.589261  0.660206  0.811841  1
  O  O161  1  0.589261  0.660206  0.188159  1
