# generated using pymatgen
data_P4N3Cl11
_symmetry_space_group_name_H-M   'P 1'
_cell_length_a   15.22091519
_cell_length_b   11.53048715
_cell_length_c   15.27227298
_cell_angle_alpha   90.00000000
_cell_angle_beta   114.57155620
_cell_angle_gamma   90.00000000
_symmetry_Int_Tables_number   1
_chemical_formula_structural   P4N3Cl11
_chemical_formula_sum   'P16 N12 Cl44'
_cell_volume   2437.62794506
_cell_formula_units_Z   4
loop_
 _symmetry_equiv_pos_site_id
 _symmetry_equiv_pos_as_xyz
  1  'x, y, z'
loop_
 _atom_site_type_symbol
 _atom_site_label
 _atom_site_symmetry_multiplicity
 _atom_site_fract_x
 _atom_site_fract_y
 _atom_site_fract_z
 _atom_site_occupancy
  P  P0  1  0.916383  0.092676  0.801431  1
  P  P1  1  0.877171  0.719656  0.366749  1
  P  P2  1  0.416383  0.907324  0.801431  1
  P  P3  1  0.122829  0.280344  0.633251  1
  P  P4  1  0.127487  0.696207  0.113358  1
  P  P5  1  0.622829  0.719656  0.633251  1
  P  P6  1  0.627487  0.303793  0.113358  1
  P  P7  1  0.509686  0.908315  0.667777  1
  P  P8  1  0.372513  0.696207  0.886642  1
  P  P9  1  0.009686  0.091685  0.667777  1
  P  P10  1  0.872513  0.303793  0.886642  1
  P  P11  1  0.990314  0.908315  0.332223  1
  P  P12  1  0.490314  0.091685  0.332223  1
  P  P13  1  0.083617  0.907324  0.198569  1
  P  P14  1  0.377171  0.280344  0.366749  1
  P  P15  1  0.583617  0.092676  0.198569  1
  N  N16  1  0.902178  0.842002  0.338816  1
  N  N17  1  0.597822  0.842002  0.661184  1
  N  N18  1  0.909038  0.179602  0.877890  1
  N  N19  1  0.090962  0.820398  0.122110  1
  N  N20  1  0.480571  0.862317  0.749537  1
  N  N21  1  0.980571  0.137683  0.749537  1
  N  N22  1  0.402178  0.157998  0.338816  1
  N  N23  1  0.019429  0.862317  0.250463  1
  N  N24  1  0.097822  0.157998  0.661184  1
  N  N25  1  0.409038  0.820398  0.877890  1
  N  N26  1  0.519429  0.137683  0.250463  1
  N  N27  1  0.590962  0.179602  0.122110  1
  Cl  Cl28  1  0.925261  0.583806  0.317265  1
  Cl  Cl29  1  0.234010  0.296824  0.316418  1
  Cl  Cl30  1  0.582017  0.339142  0.973263  1
  Cl  Cl31  1  0.765990  0.703176  0.683582  1
  Cl  Cl32  1  0.082017  0.660858  0.973263  1
  Cl  Cl33  1  0.079422  0.568929  0.171654  1
  Cl  Cl34  1  0.282266  0.951927  0.704993  1
  Cl  Cl35  1  0.920578  0.431071  0.828346  1
  Cl  Cl36  1  0.957176  0.077284  0.315372  1
  Cl  Cl37  1  0.917983  0.339142  0.026737  1
  Cl  Cl38  1  0.498458  0.362160  0.744447  1
  Cl  Cl39  1  0.574739  0.583806  0.682735  1
  Cl  Cl40  1  0.217734  0.951927  0.295007  1
  Cl  Cl41  1  0.265990  0.296824  0.683582  1
  Cl  Cl42  1  0.606017  0.097581  0.461901  1
  Cl  Cl43  1  0.393983  0.902419  0.538099  1
  Cl  Cl44  1  0.466856  0.056005  0.872560  1
  Cl  Cl45  1  0.073202  0.305953  0.490681  1
  Cl  Cl46  1  0.106017  0.902419  0.461901  1
  Cl  Cl47  1  0.501542  0.637840  0.255553  1
  Cl  Cl48  1  0.542824  0.077284  0.684628  1
  Cl  Cl49  1  0.227986  0.680151  0.828044  1
  Cl  Cl50  1  0.998458  0.637840  0.744447  1
  Cl  Cl51  1  0.782266  0.048073  0.704993  1
  Cl  Cl52  1  0.717734  0.048073  0.295007  1
  Cl  Cl53  1  0.966856  0.943995  0.872560  1
  Cl  Cl54  1  0.042824  0.922716  0.684628  1
  Cl  Cl55  1  0.579422  0.431071  0.171654  1
  Cl  Cl56  1  0.033144  0.056005  0.127440  1
  Cl  Cl57  1  0.727986  0.319849  0.828044  1
  Cl  Cl58  1  0.772014  0.319849  0.171956  1
  Cl  Cl59  1  0.893983  0.097581  0.538099  1
  Cl  Cl60  1  0.734010  0.703176  0.316418  1
  Cl  Cl61  1  0.573202  0.694047  0.490681  1
  Cl  Cl62  1  0.457176  0.922716  0.315372  1
  Cl  Cl63  1  0.426798  0.305953  0.509319  1
  Cl  Cl64  1  0.425261  0.416194  0.317265  1
  Cl  Cl65  1  0.074739  0.416194  0.682735  1
  Cl  Cl66  1  0.420578  0.568929  0.828346  1
  Cl  Cl67  1  0.272014  0.680151  0.171956  1
  Cl  Cl68  1  0.001542  0.362160  0.255553  1
  Cl  Cl69  1  0.417983  0.660858  0.026737  1
  Cl  Cl70  1  0.533144  0.943995  0.127440  1
  Cl  Cl71  1  0.926798  0.694047  0.509319  1
