# generated using pymatgen
data_Gd2Ge2O7
_symmetry_space_group_name_H-M   'P 1'
_cell_length_a   6.85814726
_cell_length_b   6.92528758
_cell_length_c   18.67922731
_cell_angle_alpha   88.59584003
_cell_angle_beta   85.65754569
_cell_angle_gamma   87.85991052
_symmetry_Int_Tables_number   1
_chemical_formula_structural   Gd2Ge2O7
_chemical_formula_sum   'Gd12 Ge12 O42'
_cell_volume   883.79021514
_cell_formula_units_Z   6
loop_
 _symmetry_equiv_pos_site_id
 _symmetry_equiv_pos_as_xyz
  1  'x, y, z'
loop_
 _atom_site_type_symbol
 _atom_site_label
 _atom_site_symmetry_multiplicity
 _atom_site_fract_x
 _atom_site_fract_y
 _atom_site_fract_z
 _atom_site_occupancy
  Gd  Gd0  1  0.098797  0.107161  0.089493  1
  Gd  Gd1  1  0.197327  0.370265  0.908031  1
  Gd  Gd2  1  0.118484  0.448190  0.410444  1
  Gd  Gd3  1  0.485822  0.461959  0.738886  1
  Gd  Gd4  1  0.988731  0.199669  0.738714  1
  Gd  Gd5  1  0.890698  0.578937  0.587528  1
  Gd  Gd6  1  0.012668  0.804409  0.259057  1
  Gd  Gd7  1  0.805605  0.628314  0.091228  1
  Gd  Gd8  1  0.903914  0.892599  0.909786  1
  Gd  Gd9  1  0.388452  0.858697  0.600261  1
  Gd  Gd10  1  0.519578  0.544956  0.261924  1
  Gd  Gd11  1  0.596358  0.130725  0.393627  1
  Ge  Ge12  1  0.700634  0.388647  0.916315  1
  Ge  Ge13  1  0.122645  0.956044  0.444361  1
  Ge  Ge14  1  0.805169  0.082244  0.557327  1
  Ge  Ge15  1  0.303542  0.609890  0.082930  1
  Ge  Ge16  1  0.989370  0.335921  0.257492  1
  Ge  Ge17  1  0.377768  0.347552  0.580285  1
  Ge  Ge18  1  0.629604  0.659666  0.420554  1
  Ge  Ge19  1  0.647851  0.140297  0.059236  1
  Ge  Ge20  1  0.520757  0.005384  0.211406  1
  Ge  Ge21  1  0.013200  0.666103  0.743781  1
  Ge  Ge22  1  0.481609  0.996476  0.786659  1
  Ge  Ge23  1  0.356030  0.857924  0.939487  1
  O  O24  1  0.818256  0.292503  0.090068  1
  O  O25  1  0.175425  0.425750  0.045305  1
  O  O26  1  0.549278  0.251341  0.982238  1
  O  O27  1  0.705504  0.784585  0.337073  1
  O  O28  1  0.455088  0.744960  0.016231  1
  O  O29  1  0.829938  0.571713  0.954039  1
  O  O30  1  0.446611  0.801954  0.732329  1
  O  O31  1  0.150279  0.481040  0.787525  1
  O  O32  1  0.550979  0.197968  0.267757  1
  O  O33  1  0.193456  0.053563  0.968066  1
  O  O34  1  0.194355  0.448791  0.528834  1
  O  O35  1  0.651227  0.165574  0.753266  1
  O  O36  1  0.491409  0.541431  0.137405  1
  O  O37  1  0.489069  0.837846  0.468319  1
  O  O38  1  0.263303  0.144959  0.407245  1
  O  O39  1  0.125262  0.703300  0.657449  1
  O  O40  1  0.810309  0.944698  0.031029  1
  O  O41  1  0.560109  0.909249  0.877431  1
  O  O42  1  0.852219  0.519014  0.212141  1
  O  O43  1  0.182169  0.489622  0.279267  1
  O  O44  1  0.297007  0.211200  0.658943  1
  O  O45  1  0.484229  0.471221  0.388685  1
  O  O46  1  0.940060  0.878984  0.787483  1
  O  O47  1  0.111350  0.768843  0.118759  1
  O  O48  1  0.889695  0.245578  0.615750  1
  O  O49  1  0.103254  0.779195  0.380510  1
  O  O50  1  0.892135  0.230165  0.879869  1
  O  O51  1  0.519489  0.535542  0.611990  1
  O  O52  1  0.264470  0.128926  0.815009  1
  O  O53  1  0.442660  0.091236  0.121106  1
  O  O54  1  0.739656  0.876023  0.182970  1
  O  O55  1  0.547145  0.180978  0.532604  1
  O  O56  1  0.724016  0.869511  0.599294  1
  O  O57  1  0.352345  0.836561  0.245228  1
  O  O58  1  0.064530  0.125977  0.211739  1
  O  O59  1  0.819495  0.516335  0.721614  1
  O  O60  1  0.512022  0.460109  0.862627  1
  O  O61  1  0.876645  0.088385  0.461980  1
  O  O62  1  0.112733  0.898697  0.536868  1
  O  O63  1  0.820107  0.554946  0.469764  1
  O  O64  1  0.878906  0.293803  0.343698  1
  O  O65  1  0.184292  0.706857  0.908780  1
