# generated using pymatgen
data_Li2MgMn3O8
_symmetry_space_group_name_H-M   'P 1'
_cell_length_a   8.32995166
_cell_length_b   8.32995166
_cell_length_c   8.32995166
_cell_angle_alpha   90.00000000
_cell_angle_beta   90.00000000
_cell_angle_gamma   90.00000000
_symmetry_Int_Tables_number   1
_chemical_formula_structural   Li2MgMn3O8
_chemical_formula_sum   'Li8 Mg4 Mn12 O32'
_cell_volume   577.99947428
_cell_formula_units_Z   4
loop_
 _symmetry_equiv_pos_site_id
 _symmetry_equiv_pos_as_xyz
  1  'x, y, z'
loop_
 _atom_site_type_symbol
 _atom_site_label
 _atom_site_symmetry_multiplicity
 _atom_site_fract_x
 _atom_site_fract_y
 _atom_site_fract_z
 _atom_site_occupancy
  Li  Li0  1  0.496742  0.996742  0.503258  1
  Li  Li1  1  0.246742  0.246742  0.246742  1
  Li  Li2  1  0.253258  0.753258  0.746742  1
  Li  Li3  1  0.746742  0.253258  0.753258  1
  Li  Li4  1  0.996742  0.503258  0.496742  1
  Li  Li5  1  0.753258  0.746742  0.253258  1
  Li  Li6  1  0.503258  0.496742  0.996742  1
  Li  Li7  1  0.003258  0.003258  0.003258  1
  Mg  Mg8  1  0.375000  0.125000  0.875000  1
  Mg  Mg9  1  0.125000  0.875000  0.375000  1
  Mg  Mg10  1  0.875000  0.375000  0.125000  1
  Mg  Mg11  1  0.625000  0.625000  0.625000  1
  Mn  Mn12  1  0.125000  0.380136  0.869864  1
  Mn  Mn13  1  0.375000  0.619864  0.369864  1
  Mn  Mn14  1  0.630136  0.875000  0.880136  1
  Mn  Mn15  1  0.619864  0.369864  0.375000  1
  Mn  Mn16  1  0.380136  0.869864  0.125000  1
  Mn  Mn17  1  0.880136  0.630136  0.875000  1
  Mn  Mn18  1  0.875000  0.880136  0.630136  1
  Mn  Mn19  1  0.625000  0.119864  0.130136  1
  Mn  Mn20  1  0.119864  0.130136  0.625000  1
  Mn  Mn21  1  0.130136  0.625000  0.119864  1
  Mn  Mn22  1  0.369864  0.375000  0.619864  1
  Mn  Mn23  1  0.869864  0.125000  0.380136  1
  O  O24  1  0.124964  0.392664  0.099211  1
  O  O25  1  0.607336  0.599211  0.375036  1
  O  O26  1  0.392664  0.099211  0.124964  1
  O  O27  1  0.624964  0.107336  0.900789  1
  O  O28  1  0.099211  0.124964  0.392664  1
  O  O29  1  0.365646  0.634354  0.134354  1
  O  O30  1  0.150789  0.857336  0.125036  1
  O  O31  1  0.875036  0.892664  0.400789  1
  O  O32  1  0.400789  0.875036  0.892664  1
  O  O33  1  0.599211  0.375036  0.607336  1
  O  O34  1  0.384354  0.384354  0.384354  1
  O  O35  1  0.374964  0.849211  0.357336  1
  O  O36  1  0.900789  0.624964  0.107336  1
  O  O37  1  0.857336  0.125036  0.150789  1
  O  O38  1  0.892664  0.400789  0.875036  1
  O  O39  1  0.142664  0.625036  0.349211  1
  O  O40  1  0.650789  0.642664  0.874964  1
  O  O41  1  0.615646  0.884354  0.115646  1
  O  O42  1  0.357336  0.374964  0.849211  1
  O  O43  1  0.874964  0.650789  0.642664  1
  O  O44  1  0.625036  0.349211  0.142664  1
  O  O45  1  0.634354  0.134354  0.365646  1
  O  O46  1  0.849211  0.357336  0.374964  1
  O  O47  1  0.884354  0.115646  0.615646  1
  O  O48  1  0.115646  0.615646  0.884354  1
  O  O49  1  0.375036  0.607336  0.599211  1
  O  O50  1  0.107336  0.900789  0.624964  1
  O  O51  1  0.349211  0.142664  0.625036  1
  O  O52  1  0.134354  0.365646  0.634354  1
  O  O53  1  0.642664  0.874964  0.650789  1
  O  O54  1  0.865646  0.865646  0.865646  1
  O  O55  1  0.125036  0.150789  0.857336  1
