# generated using pymatgen
data_Y3CuSiSe7
_symmetry_space_group_name_H-M   'P 1'
_cell_length_a   10.36455033
_cell_length_b   10.36455033
_cell_length_c   6.03296529
_cell_angle_alpha   90.00000000
_cell_angle_beta   90.00000000
_cell_angle_gamma   120.00000000
_symmetry_Int_Tables_number   1
_chemical_formula_structural   Y3CuSiSe7
_chemical_formula_sum   'Y6 Cu2 Si2 Se14'
_cell_volume   561.25779777
_cell_formula_units_Z   2
loop_
 _symmetry_equiv_pos_site_id
 _symmetry_equiv_pos_as_xyz
  1  'x, y, z'
loop_
 _atom_site_type_symbol
 _atom_site_label
 _atom_site_symmetry_multiplicity
 _atom_site_fract_x
 _atom_site_fract_y
 _atom_site_fract_z
 _atom_site_occupancy
  Y  Y0  1  0.222899  0.355910  0.923109  1
  Y  Y1  1  0.644090  0.866989  0.923109  1
  Y  Y2  1  0.866989  0.222899  0.423109  1
  Y  Y3  1  0.777101  0.644090  0.423109  1
  Y  Y4  1  0.133011  0.777101  0.923109  1
  Y  Y5  1  0.355910  0.133011  0.423109  1
  Cu  Cu6  1  0.000000  0.000000  0.971676  1
  Cu  Cu7  1  0.000000  0.000000  0.471676  1
  Si  Si8  1  0.666667  0.333333  0.833868  1
  Si  Si9  1  0.333333  0.666667  0.333868  1
  Se  Se10  1  0.837919  0.738581  0.952678  1
  Se  Se11  1  0.421008  0.899419  0.179297  1
  Se  Se12  1  0.261419  0.099338  0.952678  1
  Se  Se13  1  0.162081  0.261419  0.452678  1
  Se  Se14  1  0.478411  0.578992  0.179297  1
  Se  Se15  1  0.738581  0.900662  0.452678  1
  Se  Se16  1  0.578992  0.100581  0.679297  1
  Se  Se17  1  0.333333  0.666667  0.711112  1
  Se  Se18  1  0.899419  0.478411  0.679297  1
  Se  Se19  1  0.666667  0.333333  0.211112  1
  Se  Se20  1  0.900662  0.162081  0.952678  1
  Se  Se21  1  0.099338  0.837919  0.452678  1
  Se  Se22  1  0.100581  0.521589  0.179297  1
  Se  Se23  1  0.521589  0.421008  0.679297  1
