# generated using pymatgen
data_Sb4OsC6(O3F11)2
_symmetry_space_group_name_H-M   'P 1'
_cell_length_a   9.97986408
_cell_length_b   12.77946213
_cell_length_c   11.79274183
_cell_angle_alpha   90.00000000
_cell_angle_beta   121.45597634
_cell_angle_gamma   90.00000000
_symmetry_Int_Tables_number   1
_chemical_formula_structural   Sb4OsC6(O3F11)2
_chemical_formula_sum   'Sb8 Os2 C12 O12 F44'
_cell_volume   1282.98651314
_cell_formula_units_Z   2
loop_
 _symmetry_equiv_pos_site_id
 _symmetry_equiv_pos_as_xyz
  1  'x, y, z'
loop_
 _atom_site_type_symbol
 _atom_site_label
 _atom_site_symmetry_multiplicity
 _atom_site_fract_x
 _atom_site_fract_y
 _atom_site_fract_z
 _atom_site_occupancy
  Sb  Sb0  1  0.241708  0.369004  0.226239  1
  Sb  Sb1  1  0.758292  0.630996  0.773761  1
  Sb  Sb2  1  0.600401  0.299936  0.003333  1
  Sb  Sb3  1  0.600401  0.200064  0.503333  1
  Sb  Sb4  1  0.758292  0.869004  0.273761  1
  Sb  Sb5  1  0.241708  0.130996  0.726239  1
  Sb  Sb6  1  0.399599  0.700064  0.996667  1
  Sb  Sb7  1  0.399599  0.799936  0.496667  1
  Os  Os8  1  0.000000  0.000000  0.000000  1
  Os  Os9  1  0.000000  0.500000  0.500000  1
  C  C10  1  0.969649  0.553475  0.326915  1
  C  C11  1  0.049775  0.646937  0.573726  1
  C  C12  1  0.230864  0.476943  0.573524  1
  C  C13  1  0.969649  0.946525  0.826915  1
  C  C14  1  0.769136  0.523057  0.426476  1
  C  C15  1  0.030351  0.053475  0.173085  1
  C  C16  1  0.230864  0.023057  0.073524  1
  C  C17  1  0.950225  0.353063  0.426274  1
  C  C18  1  0.769136  0.976943  0.926476  1
  C  C19  1  0.049775  0.853063  0.073726  1
  C  C20  1  0.030351  0.446525  0.673085  1
  C  C21  1  0.950225  0.146937  0.926274  1
  O  O22  1  0.951284  0.583477  0.229039  1
  O  O23  1  0.081559  0.729204  0.616325  1
  O  O24  1  0.048716  0.083477  0.270961  1
  O  O25  1  0.637840  0.533591  0.382003  1
  O  O26  1  0.048716  0.416523  0.770961  1
  O  O27  1  0.951284  0.916523  0.729039  1
  O  O28  1  0.918441  0.229204  0.883675  1
  O  O29  1  0.362160  0.033591  0.117997  1
  O  O30  1  0.362160  0.466409  0.617997  1
  O  O31  1  0.081559  0.770796  0.116325  1
  O  O32  1  0.637840  0.966409  0.882003  1
  O  O33  1  0.918441  0.270796  0.383675  1
  F  F34  1  0.534996  0.265582  0.610303  1
  F  F35  1  0.298025  0.496200  0.324236  1
  F  F36  1  0.667436  0.588325  0.872102  1
  F  F37  1  0.178162  0.319006  0.344486  1
  F  F38  1  0.464483  0.183858  0.863118  1
  F  F39  1  0.298025  0.003800  0.824236  1
  F  F40  1  0.793562  0.730465  0.347596  1
  F  F41  1  0.034749  0.411291  0.098055  1
  F  F42  1  0.178162  0.180994  0.844486  1
  F  F43  1  0.417576  0.384802  0.919694  1
  F  F44  1  0.235668  0.802463  0.940828  1
  F  F45  1  0.206438  0.269535  0.652404  1
  F  F46  1  0.821838  0.680994  0.655514  1
  F  F47  1  0.535517  0.683858  0.636882  1
  F  F48  1  0.034749  0.088709  0.598055  1
  F  F49  1  0.965251  0.911291  0.401945  1
  F  F50  1  0.652458  0.152635  0.379167  1
  F  F51  1  0.701975  0.503800  0.675764  1
  F  F52  1  0.464483  0.316142  0.363118  1
  F  F53  1  0.764332  0.197537  0.059172  1
  F  F54  1  0.731288  0.103397  0.640334  1
  F  F55  1  0.764332  0.302463  0.559172  1
  F  F56  1  0.465004  0.765582  0.889697  1
  F  F57  1  0.268712  0.603397  0.859666  1
  F  F58  1  0.582424  0.615198  0.080306  1
  F  F59  1  0.667436  0.911675  0.372102  1
  F  F60  1  0.347542  0.847365  0.620833  1
  F  F61  1  0.701975  0.996200  0.175764  1
  F  F62  1  0.465004  0.734418  0.389697  1
  F  F63  1  0.582424  0.884802  0.580306  1
  F  F64  1  0.417576  0.115198  0.419694  1
  F  F65  1  0.268712  0.896603  0.359666  1
  F  F66  1  0.235668  0.697537  0.440828  1
  F  F67  1  0.535517  0.816142  0.136882  1
  F  F68  1  0.332564  0.088325  0.627898  1
  F  F69  1  0.534996  0.234418  0.110303  1
  F  F70  1  0.793562  0.769535  0.847596  1
  F  F71  1  0.206438  0.230465  0.152404  1
  F  F72  1  0.347542  0.652635  0.120833  1
  F  F73  1  0.965251  0.588709  0.901945  1
  F  F74  1  0.821838  0.819006  0.155514  1
  F  F75  1  0.652458  0.347365  0.879167  1
  F  F76  1  0.332564  0.411675  0.127898  1
  F  F77  1  0.731288  0.396603  0.140334  1
