# generated using pymatgen
data_Sm(CrSi)2
_symmetry_space_group_name_H-M   'P 1'
_cell_length_a   6.04579389
_cell_length_b   6.04579389
_cell_length_c   6.04579389
_cell_angle_alpha   142.37433481
_cell_angle_beta   142.37433481
_cell_angle_gamma   54.26532946
_symmetry_Int_Tables_number   1
_chemical_formula_structural   Sm(CrSi)2
_chemical_formula_sum   'Sm1 Cr2 Si2'
_cell_volume   81.80624367
_cell_formula_units_Z   1
loop_
 _symmetry_equiv_pos_site_id
 _symmetry_equiv_pos_as_xyz
  1  'x, y, z'
loop_
 _atom_site_type_symbol
 _atom_site_label
 _atom_site_symmetry_multiplicity
 _atom_site_fract_x
 _atom_site_fract_y
 _atom_site_fract_z
 _atom_site_occupancy
  Sm  Sm0  1  0.000000  0.000000  0.000000  1
  Cr  Cr1  1  0.750000  0.250000  0.500000  1
  Cr  Cr2  1  0.250000  0.750000  0.500000  1
  Si  Si3  1  0.381681  0.381681  0.000000  1
  Si  Si4  1  0.618319  0.618319  0.000000  1
