# generated using pymatgen
data_Rb4Re6S13
_symmetry_space_group_name_H-M   'P 1'
_cell_length_a   9.81291408
_cell_length_b   9.81291408
_cell_length_c   14.15527664
_cell_angle_alpha   85.11835894
_cell_angle_beta   94.88164106
_cell_angle_gamma   61.00735157
_symmetry_Int_Tables_number   1
_chemical_formula_structural   Rb4Re6S13
_chemical_formula_sum   'Rb8 Re12 S26'
_cell_volume   1175.36807489
_cell_formula_units_Z   2
loop_
 _symmetry_equiv_pos_site_id
 _symmetry_equiv_pos_as_xyz
  1  'x, y, z'
loop_
 _atom_site_type_symbol
 _atom_site_label
 _atom_site_symmetry_multiplicity
 _atom_site_fract_x
 _atom_site_fract_y
 _atom_site_fract_z
 _atom_site_occupancy
  Rb  Rb0  1  0.628514  0.093171  0.117962  1
  Rb  Rb1  1  0.093171  0.628514  0.382038  1
  Rb  Rb2  1  0.371486  0.906829  0.882038  1
  Rb  Rb3  1  0.906829  0.371486  0.617962  1
  Rb  Rb4  1  0.303366  0.756846  0.163394  1
  Rb  Rb5  1  0.756846  0.303366  0.336606  1
  Rb  Rb6  1  0.696634  0.243154  0.836606  1
  Rb  Rb7  1  0.243154  0.696634  0.663394  1
  Re  Re8  1  0.684100  0.012995  0.521397  1
  Re  Re9  1  0.012995  0.684100  0.978603  1
  Re  Re10  1  0.315900  0.987005  0.478603  1
  Re  Re11  1  0.987005  0.315900  0.021397  1
  Re  Re12  1  0.155494  0.427844  0.108243  1
  Re  Re13  1  0.427844  0.155494  0.391757  1
  Re  Re14  1  0.844506  0.572156  0.891757  1
  Re  Re15  1  0.572156  0.844506  0.608243  1
  Re  Re16  1  0.596073  0.845338  0.422921  1
  Re  Re17  1  0.845338  0.596073  0.077079  1
  Re  Re18  1  0.403927  0.154662  0.577079  1
  Re  Re19  1  0.154662  0.403927  0.922921  1
  S  S20  1  0.298038  0.511498  0.006867  1
  S  S21  1  0.511498  0.298038  0.493133  1
  S  S22  1  0.701962  0.488502  0.993133  1
  S  S23  1  0.488502  0.701962  0.506867  1
  S  S24  1  0.693707  0.007021  0.352036  1
  S  S25  1  0.007021  0.693707  0.147964  1
  S  S26  1  0.306293  0.992979  0.647964  1
  S  S27  1  0.992979  0.306293  0.852036  1
  S  S28  1  0.272277  0.175280  0.047865  1
  S  S29  1  0.175280  0.272277  0.452135  1
  S  S30  1  0.727723  0.824720  0.952135  1
  S  S31  1  0.824720  0.727723  0.547865  1
  S  S32  1  0.353165  0.988274  0.311856  1
  S  S33  1  0.988274  0.353165  0.188144  1
  S  S34  1  0.646835  0.011726  0.688144  1
  S  S35  1  0.011726  0.646835  0.811856  1
  S  S36  1  0.643927  0.736863  0.177206  1
  S  S37  1  0.736863  0.643927  0.322794  1
  S  S38  1  0.356073  0.263137  0.822794  1
  S  S39  1  0.263137  0.356073  0.677206  1
  S  S40  1  0.074882  0.960804  0.445806  1
  S  S41  1  0.960804  0.074882  0.054194  1
  S  S42  1  0.925118  0.039196  0.554194  1
  S  S43  1  0.039196  0.925118  0.945806  1
  S  S44  1  0.358536  0.358536  0.250000  1
  S  S45  1  0.641464  0.641464  0.750000  1
