# generated using pymatgen
data_Na2RuO4
_symmetry_space_group_name_H-M   'P 1'
_cell_length_a   10.84312444
_cell_length_b   7.13048160
_cell_length_c   11.05575139
_cell_angle_alpha   90.00000000
_cell_angle_beta   119.20345418
_cell_angle_gamma   90.00000000
_symmetry_Int_Tables_number   1
_chemical_formula_structural   Na2RuO4
_chemical_formula_sum   'Na16 Ru8 O32'
_cell_volume   746.14359155
_cell_formula_units_Z   8
loop_
 _symmetry_equiv_pos_site_id
 _symmetry_equiv_pos_as_xyz
  1  'x, y, z'
loop_
 _atom_site_type_symbol
 _atom_site_label
 _atom_site_symmetry_multiplicity
 _atom_site_fract_x
 _atom_site_fract_y
 _atom_site_fract_z
 _atom_site_occupancy
  Na  Na0  1  0.805673  0.540523  0.411848  1
  Na  Na1  1  0.194327  0.040523  0.088152  1
  Na  Na2  1  0.194327  0.459477  0.588152  1
  Na  Na3  1  0.805673  0.959477  0.911848  1
  Na  Na4  1  0.850487  0.431776  0.914901  1
  Na  Na5  1  0.149513  0.931776  0.585099  1
  Na  Na6  1  0.149513  0.568224  0.085099  1
  Na  Na7  1  0.850487  0.068224  0.414901  1
  Na  Na8  1  0.690486  0.487033  0.088020  1
  Na  Na9  1  0.309514  0.987033  0.411980  1
  Na  Na10  1  0.309514  0.512967  0.911980  1
  Na  Na11  1  0.690486  0.012967  0.588020  1
  Na  Na12  1  0.653164  0.997840  0.098988  1
  Na  Na13  1  0.346836  0.497840  0.401012  1
  Na  Na14  1  0.346836  0.002160  0.901012  1
  Na  Na15  1  0.653164  0.502160  0.598988  1
  Ru  Ru16  1  0.000307  0.755429  0.250773  1
  Ru  Ru17  1  0.999693  0.255429  0.249227  1
  Ru  Ru18  1  0.999693  0.244571  0.749227  1
  Ru  Ru19  1  0.000307  0.744571  0.750773  1
  Ru  Ru20  1  0.500848  0.770352  0.248205  1
  Ru  Ru21  1  0.499152  0.270352  0.251795  1
  Ru  Ru22  1  0.499152  0.229648  0.751795  1
  Ru  Ru23  1  0.500848  0.729648  0.748205  1
  O  O24  1  0.663696  0.856380  0.387139  1
  O  O25  1  0.336304  0.356380  0.112861  1
  O  O26  1  0.336304  0.143620  0.612861  1
  O  O27  1  0.663696  0.643620  0.887139  1
  O  O28  1  0.981597  0.352066  0.388737  1
  O  O29  1  0.018403  0.852066  0.111263  1
  O  O30  1  0.018403  0.647934  0.611263  1
  O  O31  1  0.981597  0.147934  0.888737  1
  O  O32  1  0.829095  0.747036  0.240135  1
  O  O33  1  0.170905  0.247036  0.259865  1
  O  O34  1  0.170905  0.252964  0.759865  1
  O  O35  1  0.829095  0.752964  0.740134  1
  O  O36  1  0.507405  0.679698  0.100796  1
  O  O37  1  0.492595  0.179698  0.399204  1
  O  O38  1  0.492595  0.320302  0.899204  1
  O  O39  1  0.507405  0.820302  0.600796  1
  O  O40  1  0.664139  0.273223  0.247907  1
  O  O41  1  0.335861  0.773223  0.252093  1
  O  O42  1  0.335861  0.726777  0.752093  1
  O  O43  1  0.664139  0.226777  0.747907  1
  O  O44  1  0.840636  0.317583  0.597043  1
  O  O45  1  0.159364  0.817583  0.902957  1
  O  O46  1  0.159364  0.682417  0.402957  1
  O  O47  1  0.840636  0.182417  0.097043  1
  O  O48  1  0.968566  0.991740  0.653013  1
  O  O49  1  0.031434  0.491740  0.846987  1
  O  O50  1  0.031434  0.008260  0.346987  1
  O  O51  1  0.968566  0.508260  0.153013  1
  O  O52  1  0.548486  0.521485  0.351085  1
  O  O53  1  0.451514  0.021485  0.148915  1
  O  O54  1  0.451514  0.478515  0.648915  1
  O  O55  1  0.548486  0.978515  0.851085  1
