# generated using pymatgen
data_Nd2Te4MoO14
_symmetry_space_group_name_H-M   'P 1'
_cell_length_a   7.04868909
_cell_length_b   10.18301643
_cell_length_c   10.27774644
_cell_angle_alpha   90.16707243
_cell_angle_beta   107.17827606
_cell_angle_gamma   93.24826758
_symmetry_Int_Tables_number   1
_chemical_formula_structural   Nd2Te4MoO14
_chemical_formula_sum   'Nd4 Te8 Mo2 O28'
_cell_volume   703.51455729
_cell_formula_units_Z   2
loop_
 _symmetry_equiv_pos_site_id
 _symmetry_equiv_pos_as_xyz
  1  'x, y, z'
loop_
 _atom_site_type_symbol
 _atom_site_label
 _atom_site_symmetry_multiplicity
 _atom_site_fract_x
 _atom_site_fract_y
 _atom_site_fract_z
 _atom_site_occupancy
  Nd  Nd0  1  0.643036  0.309594  0.085669  1
  Nd  Nd1  1  0.356964  0.690406  0.914331  1
  Nd  Nd2  1  0.221297  0.466257  0.214773  1
  Nd  Nd3  1  0.778703  0.533743  0.785227  1
  Te  Te4  1  0.742523  0.608174  0.279717  1
  Te  Te5  1  0.257477  0.391826  0.720283  1
  Te  Te6  1  0.056441  0.211709  0.958116  1
  Te  Te7  1  0.073183  0.166831  0.367426  1
  Te  Te8  1  0.365397  0.727522  0.542076  1
  Te  Te9  1  0.926817  0.833169  0.632574  1
  Te  Te10  1  0.943559  0.788291  0.041884  1
  Te  Te11  1  0.634603  0.272478  0.457924  1
  Mo  Mo12  1  0.478151  0.962856  0.231365  1
  Mo  Mo13  1  0.521849  0.037144  0.768635  1
  O  O14  1  0.893749  0.354706  0.949908  1
  O  O15  1  0.706982  0.701783  0.930908  1
  O  O16  1  0.293018  0.298217  0.069092  1
  O  O17  1  0.622886  0.117173  0.231386  1
  O  O18  1  0.584565  0.395465  0.311635  1
  O  O19  1  0.071813  0.722610  0.540391  1
  O  O20  1  0.250853  0.999882  0.264638  1
  O  O21  1  0.412801  0.876191  0.069576  1
  O  O22  1  0.749147  0.000118  0.735362  1
  O  O23  1  0.689677  0.391174  0.603751  1
  O  O24  1  0.286243  0.296636  0.398246  1
  O  O25  1  0.027158  0.772843  0.814185  1
  O  O26  1  0.587199  0.123809  0.930424  1
  O  O27  1  0.613922  0.863345  0.364298  1
  O  O28  1  0.130824  0.235793  0.790698  1
  O  O29  1  0.881374  0.490258  0.204383  1
  O  O30  1  0.928187  0.277390  0.459609  1
  O  O31  1  0.972842  0.227157  0.185815  1
  O  O32  1  0.415435  0.604535  0.688365  1
  O  O33  1  0.310323  0.608826  0.396249  1
  O  O34  1  0.498783  0.418333  0.866341  1
  O  O35  1  0.106251  0.645294  0.050092  1
  O  O36  1  0.118626  0.509742  0.795617  1
  O  O37  1  0.501217  0.581667  0.133659  1
  O  O38  1  0.377114  0.882827  0.768614  1
  O  O39  1  0.869176  0.764207  0.209302  1
  O  O40  1  0.386078  0.136655  0.635702  1
  O  O41  1  0.713757  0.703364  0.601754  1
