# generated using pymatgen
data_CrP2O7
_symmetry_space_group_name_H-M   'P 1'
_cell_length_a   7.05196954
_cell_length_b   8.19678031
_cell_length_c   9.02953318
_cell_angle_alpha   90.00000000
_cell_angle_beta   114.71815754
_cell_angle_gamma   90.00000000
_symmetry_Int_Tables_number   1
_chemical_formula_structural   CrP2O7
_chemical_formula_sum   'Cr4 P8 O28'
_cell_volume   474.11591301
_cell_formula_units_Z   4
loop_
 _symmetry_equiv_pos_site_id
 _symmetry_equiv_pos_as_xyz
  1  'x, y, z'
loop_
 _atom_site_type_symbol
 _atom_site_label
 _atom_site_symmetry_multiplicity
 _atom_site_fract_x
 _atom_site_fract_y
 _atom_site_fract_z
 _atom_site_occupancy
  Cr  Cr0  1  0.235247  0.085532  0.612644  1
  Cr  Cr1  1  0.764753  0.914468  0.387356  1
  Cr  Cr2  1  0.764753  0.585532  0.887356  1
  Cr  Cr3  1  0.235247  0.414468  0.112644  1
  P  P4  1  0.068852  0.729779  0.247231  1
  P  P5  1  0.536706  0.239974  0.961120  1
  P  P6  1  0.068852  0.770221  0.747231  1
  P  P7  1  0.536706  0.260026  0.461120  1
  P  P8  1  0.931148  0.229779  0.252769  1
  P  P9  1  0.463294  0.739974  0.538880  1
  P  P10  1  0.463294  0.760026  0.038880  1
  P  P11  1  0.931148  0.270221  0.752769  1
  O  O12  1  0.733887  0.155722  0.104510  1
  O  O13  1  0.115700  0.615220  0.680010  1
  O  O14  1  0.115700  0.884780  0.180010  1
  O  O15  1  0.609236  0.400354  0.916630  1
  O  O16  1  0.266113  0.844278  0.895490  1
  O  O17  1  0.984879  0.083087  0.377155  1
  O  O18  1  0.390764  0.599646  0.083370  1
  O  O19  1  0.467550  0.108518  0.830487  1
  O  O20  1  0.371607  0.234300  0.527614  1
  O  O21  1  0.015121  0.916913  0.622845  1
  O  O22  1  0.984879  0.416913  0.877155  1
  O  O23  1  0.900766  0.747638  0.811187  1
  O  O24  1  0.099234  0.247638  0.688813  1
  O  O25  1  0.733887  0.344278  0.604510  1
  O  O26  1  0.015121  0.583087  0.122845  1
  O  O27  1  0.884300  0.115220  0.819990  1
  O  O28  1  0.099234  0.252362  0.188813  1
  O  O29  1  0.532450  0.891482  0.169513  1
  O  O30  1  0.371607  0.265700  0.027614  1
  O  O31  1  0.628393  0.734300  0.972386  1
  O  O32  1  0.390764  0.900354  0.583370  1
  O  O33  1  0.467550  0.391482  0.330487  1
  O  O34  1  0.532450  0.608518  0.669513  1
  O  O35  1  0.884300  0.384780  0.319990  1
  O  O36  1  0.900766  0.752362  0.311187  1
  O  O37  1  0.609236  0.099646  0.416630  1
  O  O38  1  0.628393  0.765700  0.472386  1
  O  O39  1  0.266113  0.655722  0.395490  1
