# generated using pymatgen
data_LiCr2P3O10
_symmetry_space_group_name_H-M   'P 1'
_cell_length_a   4.74408983
_cell_length_b   8.65783797
_cell_length_c   9.49294030
_cell_angle_alpha   90.00000000
_cell_angle_beta   102.23630635
_cell_angle_gamma   90.00000000
_symmetry_Int_Tables_number   1
_chemical_formula_structural   LiCr2P3O10
_chemical_formula_sum   'Li2 Cr4 P6 O20'
_cell_volume   381.05083152
_cell_formula_units_Z   2
loop_
 _symmetry_equiv_pos_site_id
 _symmetry_equiv_pos_as_xyz
  1  'x, y, z'
loop_
 _atom_site_type_symbol
 _atom_site_label
 _atom_site_symmetry_multiplicity
 _atom_site_fract_x
 _atom_site_fract_y
 _atom_site_fract_z
 _atom_site_occupancy
  Li  Li0  1  0.000000  0.000000  0.000000  1
  Li  Li1  1  0.000000  0.500000  0.000000  1
  Cr  Cr2  1  0.958314  0.935820  0.669482  1
  Cr  Cr3  1  0.958314  0.564180  0.669482  1
  Cr  Cr4  1  0.041686  0.435820  0.330518  1
  Cr  Cr5  1  0.041686  0.064180  0.330518  1
  P  P6  1  0.674916  0.750000  0.175380  1
  P  P7  1  0.469122  0.250000  0.134402  1
  P  P8  1  0.580205  0.250000  0.549895  1
  P  P9  1  0.419795  0.750000  0.450105  1
  P  P10  1  0.530878  0.750000  0.865598  1
  P  P11  1  0.325084  0.250000  0.824620  1
  O  O12  1  0.847027  0.898284  0.184212  1
  O  O13  1  0.847027  0.601716  0.184212  1
  O  O14  1  0.772652  0.250000  0.235904  1
  O  O15  1  0.745623  0.397216  0.534293  1
  O  O16  1  0.745623  0.102784  0.534293  1
  O  O17  1  0.722129  0.750000  0.551497  1
  O  O18  1  0.440292  0.750000  0.026151  1
  O  O19  1  0.697963  0.897626  0.856204  1
  O  O20  1  0.697963  0.602374  0.856204  1
  O  O21  1  0.467516  0.750000  0.285227  1
  O  O22  1  0.532484  0.250000  0.714773  1
  O  O23  1  0.302037  0.397626  0.143796  1
  O  O24  1  0.302037  0.102374  0.143796  1
  O  O25  1  0.559708  0.250000  0.973849  1
  O  O26  1  0.277871  0.250000  0.448503  1
  O  O27  1  0.254377  0.897216  0.465707  1
  O  O28  1  0.254377  0.602784  0.465707  1
  O  O29  1  0.227348  0.750000  0.764096  1
  O  O30  1  0.152973  0.398284  0.815788  1
  O  O31  1  0.152973  0.101716  0.815788  1
