# generated using pymatgen
data_B2Se2O7
_symmetry_space_group_name_H-M   'P 1'
_cell_length_a   7.67600327
_cell_length_b   8.01783911
_cell_length_c   9.22066135
_cell_angle_alpha   90.00000000
_cell_angle_beta   90.00000000
_cell_angle_gamma   90.00000000
_symmetry_Int_Tables_number   1
_chemical_formula_structural   B2Se2O7
_chemical_formula_sum   'B8 Se8 O28'
_cell_volume   567.48522683
_cell_formula_units_Z   4
loop_
 _symmetry_equiv_pos_site_id
 _symmetry_equiv_pos_as_xyz
  1  'x, y, z'
loop_
 _atom_site_type_symbol
 _atom_site_label
 _atom_site_symmetry_multiplicity
 _atom_site_fract_x
 _atom_site_fract_y
 _atom_site_fract_z
 _atom_site_occupancy
  B  B0  1  0.097106  0.950890  0.852883  1
  B  B1  1  0.073132  0.982552  0.356559  1
  B  B2  1  0.902894  0.450890  0.647117  1
  B  B3  1  0.597106  0.549110  0.147117  1
  B  B4  1  0.426868  0.017448  0.856559  1
  B  B5  1  0.926868  0.482552  0.143441  1
  B  B6  1  0.573132  0.517448  0.643441  1
  B  B7  1  0.402894  0.049110  0.352883  1
  Se  Se8  1  0.592464  0.894160  0.123088  1
  Se  Se9  1  0.073767  0.166063  0.098211  1
  Se  Se10  1  0.926233  0.666063  0.401789  1
  Se  Se11  1  0.426233  0.833937  0.598211  1
  Se  Se12  1  0.407536  0.394160  0.376912  1
  Se  Se13  1  0.907536  0.105840  0.623088  1
  Se  Se14  1  0.573767  0.333937  0.901789  1
  Se  Se15  1  0.092464  0.605840  0.876912  1
  O  O16  1  0.995667  0.497851  0.297081  1
  O  O17  1  0.510718  0.200898  0.388381  1
  O  O18  1  0.916135  0.035214  0.445871  1
  O  O19  1  0.419001  0.010717  0.193139  1
  O  O20  1  0.919001  0.489283  0.806861  1
  O  O21  1  0.224480  0.077232  0.386906  1
  O  O22  1  0.083865  0.535214  0.054129  1
  O  O23  1  0.989282  0.799102  0.888381  1
  O  O24  1  0.416135  0.464786  0.554129  1
  O  O25  1  0.005794  0.091761  0.930168  1
  O  O26  1  0.489282  0.700898  0.111619  1
  O  O27  1  0.505794  0.408239  0.069832  1
  O  O28  1  0.994206  0.591761  0.569832  1
  O  O29  1  0.080999  0.989283  0.693139  1
  O  O30  1  0.010718  0.299102  0.611619  1
  O  O31  1  0.105497  0.799297  0.380833  1
  O  O32  1  0.583865  0.964786  0.945871  1
  O  O33  1  0.494206  0.908239  0.430168  1
  O  O34  1  0.580999  0.510717  0.306861  1
  O  O35  1  0.004333  0.997851  0.202919  1
  O  O36  1  0.275520  0.922768  0.886906  1
  O  O37  1  0.894503  0.299297  0.119167  1
  O  O38  1  0.724480  0.422768  0.613094  1
  O  O39  1  0.504333  0.502149  0.797081  1
  O  O40  1  0.775520  0.577232  0.113094  1
  O  O41  1  0.495667  0.002149  0.702919  1
  O  O42  1  0.605497  0.700703  0.619167  1
  O  O43  1  0.394503  0.200703  0.880833  1
