# generated using pymatgen
data_FeP2O7
_symmetry_space_group_name_H-M   'P 1'
_cell_length_a   5.41769436
_cell_length_b   5.41769436
_cell_length_c   9.16880785
_cell_angle_alpha   82.41830439
_cell_angle_beta   97.58169561
_cell_angle_gamma   77.72980900
_symmetry_Int_Tables_number   1
_chemical_formula_structural   FeP2O7
_chemical_formula_sum   'Fe2 P4 O14'
_cell_volume   257.09085341
_cell_formula_units_Z   2
loop_
 _symmetry_equiv_pos_site_id
 _symmetry_equiv_pos_as_xyz
  1  'x, y, z'
loop_
 _atom_site_type_symbol
 _atom_site_label
 _atom_site_symmetry_multiplicity
 _atom_site_fract_x
 _atom_site_fract_y
 _atom_site_fract_z
 _atom_site_occupancy
  Fe  Fe0  1  0.341970  0.309539  0.492566  1
  Fe  Fe1  1  0.690461  0.658030  0.992566  1
  P  P2  1  0.776439  0.197456  0.798834  1
  P  P3  1  0.223627  0.809280  0.704677  1
  P  P4  1  0.802544  0.223561  0.298834  1
  P  P5  1  0.190720  0.776373  0.204677  1
  O  O6  1  0.985292  0.333345  0.398993  1
  O  O7  1  0.661738  0.401710  0.154569  1
  O  O8  1  0.970578  0.985267  0.245939  1
  O  O9  1  0.598290  0.338262  0.654569  1
  O  O10  1  0.339237  0.620278  0.352795  1
  O  O11  1  0.370783  0.896578  0.117163  1
  O  O12  1  0.605155  0.124712  0.381672  1
  O  O13  1  0.875288  0.394845  0.881672  1
  O  O14  1  0.045956  0.634648  0.101431  1
  O  O15  1  0.014733  0.029422  0.745939  1
  O  O16  1  0.365352  0.954044  0.601431  1
  O  O17  1  0.103422  0.629217  0.617163  1
  O  O18  1  0.666655  0.014708  0.898993  1
  O  O19  1  0.379722  0.660763  0.852795  1
