# generated using pymatgen
data_Li3Ni3(PO4)4
_symmetry_space_group_name_H-M   'P 1'
_cell_length_a   9.85573409
_cell_length_b   9.85573409
_cell_length_c   10.37816064
_cell_angle_alpha   89.05148426
_cell_angle_beta   90.94851574
_cell_angle_gamma   141.71652166
_symmetry_Int_Tables_number   1
_chemical_formula_structural   Li3Ni3(PO4)4
_chemical_formula_sum   'Li6 Ni6 P8 O32'
_cell_volume   624.46761380
_cell_formula_units_Z   2
loop_
 _symmetry_equiv_pos_site_id
 _symmetry_equiv_pos_as_xyz
  1  'x, y, z'
loop_
 _atom_site_type_symbol
 _atom_site_label
 _atom_site_symmetry_multiplicity
 _atom_site_fract_x
 _atom_site_fract_y
 _atom_site_fract_z
 _atom_site_occupancy
  Li  Li0  1  0.764321  0.923803  0.539075  1
  Li  Li1  1  0.435603  0.435603  0.750000  1
  Li  Li2  1  0.076197  0.235679  0.039075  1
  Li  Li3  1  0.564397  0.564397  0.250000  1
  Li  Li4  1  0.235679  0.076197  0.460925  1
  Li  Li5  1  0.923803  0.764321  0.960925  1
  Ni  Ni6  1  0.676973  0.363965  0.751713  1
  Ni  Ni7  1  0.363965  0.676973  0.748287  1
  Ni  Ni8  1  0.636035  0.323027  0.251713  1
  Ni  Ni9  1  0.323027  0.636035  0.248287  1
  Ni  Ni10  1  0.000000  0.500000  0.500000  1
  Ni  Ni11  1  0.500000  0.000000  0.000000  1
  P  P12  1  0.179285  0.783790  0.246601  1
  P  P13  1  0.746548  0.586692  0.494033  1
  P  P14  1  0.216210  0.820715  0.746601  1
  P  P15  1  0.413308  0.253452  0.994033  1
  P  P16  1  0.253452  0.413308  0.505967  1
  P  P17  1  0.783790  0.179285  0.253399  1
  P  P18  1  0.820715  0.216210  0.753399  1
  P  P19  1  0.586692  0.746548  0.005967  1
  O  O20  1  0.592447  0.421270  0.888928  1
  O  O21  1  0.960193  0.670206  0.492896  1
  O  O22  1  0.719367  0.228972  0.862551  1
  O  O23  1  0.421270  0.592447  0.611072  1
  O  O24  1  0.203815  0.687999  0.356572  1
  O  O25  1  0.053963  0.358377  0.789798  1
  O  O26  1  0.783156  0.809208  0.038850  1
  O  O27  1  0.481277  0.630825  0.873329  1
  O  O28  1  0.771028  0.280633  0.362551  1
  O  O29  1  0.011888  0.312347  0.214000  1
  O  O30  1  0.946037  0.641623  0.210202  1
  O  O31  1  0.796185  0.312001  0.643428  1
  O  O32  1  0.280633  0.771028  0.137449  1
  O  O33  1  0.518723  0.369175  0.126671  1
  O  O34  1  0.216844  0.190792  0.961150  1
  O  O35  1  0.687999  0.203815  0.143428  1
  O  O36  1  0.039807  0.329794  0.507104  1
  O  O37  1  0.809208  0.783156  0.461150  1
  O  O38  1  0.630825  0.481277  0.626671  1
  O  O39  1  0.578730  0.407553  0.388928  1
  O  O40  1  0.190792  0.216844  0.538850  1
  O  O41  1  0.369175  0.518723  0.373329  1
  O  O42  1  0.358377  0.053963  0.710202  1
  O  O43  1  0.312001  0.796185  0.856572  1
  O  O44  1  0.988112  0.687653  0.786000  1
  O  O45  1  0.670206  0.960193  0.007104  1
  O  O46  1  0.228972  0.719367  0.637449  1
  O  O47  1  0.329794  0.039807  0.992896  1
  O  O48  1  0.641623  0.946037  0.289798  1
  O  O49  1  0.687653  0.988112  0.714000  1
  O  O50  1  0.312347  0.011888  0.286000  1
  O  O51  1  0.407553  0.578730  0.111072  1
