# generated using pymatgen
data_Na2Mn2Si2O7
_symmetry_space_group_name_H-M   'P 1'
_cell_length_a   5.82160037
_cell_length_b   13.47781500
_cell_length_c   10.62837932
_cell_angle_alpha   90.00000000
_cell_angle_beta   123.29712319
_cell_angle_gamma   90.00000000
_symmetry_Int_Tables_number   1
_chemical_formula_structural   Na2Mn2Si2O7
_chemical_formula_sum   'Na8 Mn8 Si8 O28'
_cell_volume   697.02674219
_cell_formula_units_Z   4
loop_
 _symmetry_equiv_pos_site_id
 _symmetry_equiv_pos_as_xyz
  1  'x, y, z'
loop_
 _atom_site_type_symbol
 _atom_site_label
 _atom_site_symmetry_multiplicity
 _atom_site_fract_x
 _atom_site_fract_y
 _atom_site_fract_z
 _atom_site_occupancy
  Na  Na0  1  0.589005  0.753360  0.305350  1
  Na  Na1  1  0.410995  0.253360  0.194650  1
  Na  Na2  1  0.410995  0.246640  0.694650  1
  Na  Na3  1  0.589005  0.746640  0.805350  1
  Na  Na4  1  0.948006  0.840466  0.616482  1
  Na  Na5  1  0.051994  0.340466  0.883518  1
  Na  Na6  1  0.051994  0.159534  0.383518  1
  Na  Na7  1  0.948006  0.659534  0.116482  1
  Mn  Mn8  1  0.571373  0.992871  0.709314  1
  Mn  Mn9  1  0.428627  0.492871  0.790686  1
  Mn  Mn10  1  0.428627  0.007129  0.290686  1
  Mn  Mn11  1  0.571373  0.507129  0.209314  1
  Mn  Mn12  1  0.780490  0.919180  0.116809  1
  Mn  Mn13  1  0.219510  0.419180  0.383191  1
  Mn  Mn14  1  0.219510  0.080820  0.883191  1
  Mn  Mn15  1  0.780490  0.580820  0.616809  1
  Si  Si16  1  0.848177  0.119243  0.028452  1
  Si  Si17  1  0.151823  0.619243  0.471548  1
  Si  Si18  1  0.151823  0.880757  0.971548  1
  Si  Si19  1  0.848177  0.380757  0.528452  1
  Si  Si20  1  0.266364  0.833454  0.450349  1
  Si  Si21  1  0.733636  0.333454  0.049651  1
  Si  Si22  1  0.733636  0.166546  0.549651  1
  Si  Si23  1  0.266364  0.666546  0.950349  1
  O  O24  1  0.335347  0.790078  0.958063  1
  O  O25  1  0.664653  0.290078  0.541937  1
  O  O26  1  0.664653  0.209922  0.041937  1
  O  O27  1  0.335347  0.709922  0.458063  1
  O  O28  1  0.394397  0.959145  0.091639  1
  O  O29  1  0.605603  0.459145  0.408361  1
  O  O30  1  0.605603  0.040855  0.908361  1
  O  O31  1  0.394397  0.540855  0.591639  1
  O  O32  1  0.340303  0.866579  0.617715  1
  O  O33  1  0.659697  0.366579  0.882285  1
  O  O34  1  0.659697  0.133421  0.382285  1
  O  O35  1  0.340303  0.633421  0.117715  1
  O  O36  1  0.956626  0.835577  0.022841  1
  O  O37  1  0.043374  0.335577  0.477159  1
  O  O38  1  0.043374  0.164423  0.977159  1
  O  O39  1  0.956626  0.664423  0.522841  1
  O  O40  1  0.942589  0.847632  0.319848  1
  O  O41  1  0.057411  0.347632  0.180152  1
  O  O42  1  0.057411  0.152368  0.680152  1
  O  O43  1  0.942589  0.652368  0.819848  1
  O  O44  1  0.981321  0.940465  0.809388  1
  O  O45  1  0.018679  0.440465  0.690612  1
  O  O46  1  0.018679  0.059535  0.190612  1
  O  O47  1  0.981321  0.559535  0.309388  1
  O  O48  1  0.485104  0.883428  0.417339  1
  O  O49  1  0.514896  0.383428  0.082661  1
  O  O50  1  0.514896  0.116572  0.582661  1
  O  O51  1  0.485104  0.616572  0.917339  1
