# generated using pymatgen
data_NpF4
_symmetry_space_group_name_H-M   'P 1'
_cell_length_a   8.38358931
_cell_length_b   8.38358931
_cell_length_c   8.37807953
_cell_angle_alpha   62.93527243
_cell_angle_beta   117.06472757
_cell_angle_gamma   99.28860230
_symmetry_Int_Tables_number   1
_chemical_formula_structural   NpF4
_chemical_formula_sum   'Np6 F24'
_cell_volume   466.17164390
_cell_formula_units_Z   6
loop_
 _symmetry_equiv_pos_site_id
 _symmetry_equiv_pos_as_xyz
  1  'x, y, z'
loop_
 _atom_site_type_symbol
 _atom_site_label
 _atom_site_symmetry_multiplicity
 _atom_site_fract_x
 _atom_site_fract_y
 _atom_site_fract_z
 _atom_site_occupancy
  Np  Np0  1  0.786752  0.786752  0.250000  1
  Np  Np1  1  0.213248  0.213248  0.750000  1
  Np  Np2  1  0.222644  0.632871  0.169415  1
  Np  Np3  1  0.367129  0.777356  0.669415  1
  Np  Np4  1  0.777356  0.367129  0.830585  1
  Np  Np5  1  0.632871  0.222644  0.330585  1
  F  F6  1  0.318479  0.741764  0.395361  1
  F  F7  1  0.815460  0.597850  0.572538  1
  F  F8  1  0.502756  0.740438  0.217597  1
  F  F9  1  0.741764  0.318479  0.104639  1
  F  F10  1  0.826108  0.065017  0.044145  1
  F  F11  1  0.402150  0.184540  0.072538  1
  F  F12  1  0.184540  0.402150  0.427462  1
  F  F13  1  0.396366  0.396366  0.250000  1
  F  F14  1  0.603634  0.603634  0.750000  1
  F  F15  1  0.259562  0.497244  0.717597  1
  F  F16  1  0.065017  0.826108  0.455855  1
  F  F17  1  0.934983  0.173892  0.544145  1
  F  F18  1  0.497244  0.259562  0.782403  1
  F  F19  1  0.681521  0.258236  0.604639  1
  F  F20  1  0.971645  0.726286  0.149866  1
  F  F21  1  0.500000  0.000000  0.500000  1
  F  F22  1  0.726286  0.971645  0.350134  1
  F  F23  1  0.597850  0.815460  0.927462  1
  F  F24  1  0.740438  0.502756  0.282403  1
  F  F25  1  0.173892  0.934983  0.955855  1
  F  F26  1  0.028355  0.273714  0.850134  1
  F  F27  1  0.258236  0.681521  0.895361  1
  F  F28  1  0.273714  0.028355  0.649866  1
  F  F29  1  0.000000  0.500000  0.000000  1
