# generated using pymatgen
data_KCdCu7Se2Cl9O8
_symmetry_space_group_name_H-M   'P 1'
_cell_length_a   8.87448416
_cell_length_b   8.87448416
_cell_length_c   15.76323670
_cell_angle_alpha   90.00000000
_cell_angle_beta   90.00000000
_cell_angle_gamma   120.00000000
_symmetry_Int_Tables_number   1
_chemical_formula_structural   KCdCu7Se2Cl9O8
_chemical_formula_sum   'K2 Cd2 Cu14 Se4 Cl18 O16'
_cell_volume   1075.13318233
_cell_formula_units_Z   2
loop_
 _symmetry_equiv_pos_site_id
 _symmetry_equiv_pos_as_xyz
  1  'x, y, z'
loop_
 _atom_site_type_symbol
 _atom_site_label
 _atom_site_symmetry_multiplicity
 _atom_site_fract_x
 _atom_site_fract_y
 _atom_site_fract_z
 _atom_site_occupancy
  K  K0  1  0.000000  0.000000  0.250000  1
  K  K1  1  0.000000  0.000000  0.750000  1
  Cd  Cd2  1  0.000000  0.000000  0.500000  1
  Cd  Cd3  1  0.000000  0.000000  0.000000  1
  Cu  Cu4  1  0.904765  0.452383  0.092163  1
  Cu  Cu5  1  0.547617  0.095235  0.407837  1
  Cu  Cu6  1  0.095235  0.547617  0.592163  1
  Cu  Cu7  1  0.452383  0.547617  0.592163  1
  Cu  Cu8  1  0.547617  0.452383  0.407837  1
  Cu  Cu9  1  0.452383  0.904765  0.592163  1
  Cu  Cu10  1  0.452383  0.904765  0.907837  1
  Cu  Cu11  1  0.452383  0.547617  0.907837  1
  Cu  Cu12  1  0.904765  0.452383  0.407837  1
  Cu  Cu13  1  0.095235  0.547617  0.907837  1
  Cu  Cu14  1  0.547617  0.095235  0.092163  1
  Cu  Cu15  1  0.547617  0.452383  0.092163  1
  Cu  Cu16  1  0.666667  0.333333  0.250000  1
  Cu  Cu17  1  0.333333  0.666667  0.750000  1
  Se  Se18  1  0.666667  0.333333  0.598582  1
  Se  Se19  1  0.333333  0.666667  0.098582  1
  Se  Se20  1  0.666667  0.333333  0.901418  1
  Se  Se21  1  0.333333  0.666667  0.401418  1
  Cl  Cl22  1  0.509064  0.018128  0.250000  1
  Cl  Cl23  1  0.277613  0.138807  0.399171  1
  Cl  Cl24  1  0.722387  0.861193  0.899171  1
  Cl  Cl25  1  0.509064  0.490936  0.250000  1
  Cl  Cl26  1  0.138807  0.861193  0.899171  1
  Cl  Cl27  1  0.138807  0.277613  0.899171  1
  Cl  Cl28  1  0.861193  0.722387  0.100829  1
  Cl  Cl29  1  0.018128  0.509064  0.750000  1
  Cl  Cl30  1  0.861193  0.722387  0.399171  1
  Cl  Cl31  1  0.490936  0.509064  0.750000  1
  Cl  Cl32  1  0.981872  0.490936  0.250000  1
  Cl  Cl33  1  0.138807  0.277613  0.600829  1
  Cl  Cl34  1  0.722387  0.861193  0.600829  1
  Cl  Cl35  1  0.490936  0.981872  0.750000  1
  Cl  Cl36  1  0.277613  0.138807  0.100829  1
  Cl  Cl37  1  0.138807  0.861193  0.600829  1
  Cl  Cl38  1  0.861193  0.138807  0.399171  1
  Cl  Cl39  1  0.861193  0.138807  0.100829  1
  O  O40  1  0.567802  0.135604  0.545067  1
  O  O41  1  0.666667  0.333333  0.128084  1
  O  O42  1  0.864396  0.432198  0.545067  1
  O  O43  1  0.567802  0.432198  0.954933  1
  O  O44  1  0.333333  0.666667  0.628084  1
  O  O45  1  0.567802  0.135604  0.954933  1
  O  O46  1  0.135604  0.567802  0.454933  1
  O  O47  1  0.135604  0.567802  0.045067  1
  O  O48  1  0.432198  0.567802  0.045067  1
  O  O49  1  0.333333  0.666667  0.871916  1
  O  O50  1  0.432198  0.864396  0.045067  1
  O  O51  1  0.567802  0.432198  0.545067  1
  O  O52  1  0.864396  0.432198  0.954933  1
  O  O53  1  0.666667  0.333333  0.371916  1
  O  O54  1  0.432198  0.567802  0.454933  1
  O  O55  1  0.432198  0.864396  0.454933  1
