# generated using pymatgen
data_Ca2B5BrO9
_symmetry_space_group_name_H-M   'P 1'
_cell_length_a   6.33787846
_cell_length_b   11.38144135
_cell_length_c   11.52693498
_cell_angle_alpha   90.00000000
_cell_angle_beta   90.00000000
_cell_angle_gamma   90.00000000
_symmetry_Int_Tables_number   1
_chemical_formula_structural   Ca2B5BrO9
_chemical_formula_sum   'Ca8 B20 Br4 O36'
_cell_volume   831.48614074
_cell_formula_units_Z   4
loop_
 _symmetry_equiv_pos_site_id
 _symmetry_equiv_pos_as_xyz
  1  'x, y, z'
loop_
 _atom_site_type_symbol
 _atom_site_label
 _atom_site_symmetry_multiplicity
 _atom_site_fract_x
 _atom_site_fract_y
 _atom_site_fract_z
 _atom_site_occupancy
  Ca  Ca0  1  0.792499  0.037596  0.752960  1
  Ca  Ca1  1  0.292499  0.462404  0.252960  1
  Ca  Ca2  1  0.460404  0.245195  0.534007  1
  Ca  Ca3  1  0.960404  0.254805  0.034007  1
  Ca  Ca4  1  0.460404  0.754805  0.465993  1
  Ca  Ca5  1  0.792499  0.962404  0.247040  1
  Ca  Ca6  1  0.960404  0.745195  0.965993  1
  Ca  Ca7  1  0.292499  0.537596  0.747040  1
  B  B8  1  0.599457  0.320727  0.774400  1
  B  B9  1  0.334223  0.013217  0.235556  1
  B  B10  1  0.998748  0.751612  0.527033  1
  B  B11  1  0.099457  0.179273  0.274400  1
  B  B12  1  0.099457  0.820727  0.725600  1
  B  B13  1  0.958261  0.720550  0.305861  1
  B  B14  1  0.958261  0.279450  0.694139  1
  B  B15  1  0.998748  0.248388  0.472967  1
  B  B16  1  0.834223  0.513217  0.264444  1
  B  B17  1  0.834223  0.486783  0.735556  1
  B  B18  1  0.458261  0.779450  0.805861  1
  B  B19  1  0.772333  0.708990  0.693325  1
  B  B20  1  0.772333  0.291010  0.306675  1
  B  B21  1  0.272333  0.791010  0.193325  1
  B  B22  1  0.272333  0.208990  0.806675  1
  B  B23  1  0.458261  0.220550  0.194139  1
  B  B24  1  0.599457  0.679273  0.225600  1
  B  B25  1  0.334223  0.986783  0.764444  1
  B  B26  1  0.498748  0.748388  0.027033  1
  B  B27  1  0.498748  0.251612  0.972967  1
  Br  Br28  1  0.877166  0.000000  0.000000  1
  Br  Br29  1  0.377166  0.500000  0.500000  1
  Br  Br30  1  0.138713  0.500000  0.000000  1
  Br  Br31  1  0.638713  0.000000  0.500000  1
  O  O32  1  0.800655  0.718870  0.563033  1
  O  O33  1  0.046472  0.206006  0.787481  1
  O  O34  1  0.377340  0.307589  0.748085  1
  O  O35  1  0.046472  0.793994  0.212519  1
  O  O36  1  0.654970  0.283105  0.894566  1
  O  O37  1  0.135169  0.049770  0.263944  1
  O  O38  1  0.228995  0.245296  0.188647  1
  O  O39  1  0.892561  0.397654  0.266878  1
  O  O40  1  0.493761  0.907798  0.786130  1
  O  O41  1  0.546472  0.293994  0.287481  1
  O  O42  1  0.565964  0.744785  0.914534  1
  O  O43  1  0.377340  0.692411  0.251915  1
  O  O44  1  0.300655  0.218870  0.936967  1
  O  O45  1  0.993761  0.592202  0.286130  1
  O  O46  1  0.565964  0.255215  0.085466  1
  O  O47  1  0.728995  0.745296  0.311353  1
  O  O48  1  0.635169  0.549770  0.236056  1
  O  O49  1  0.993761  0.407798  0.713870  1
  O  O50  1  0.065964  0.244785  0.585466  1
  O  O51  1  0.065964  0.755215  0.414534  1
  O  O52  1  0.728995  0.254704  0.688647  1
  O  O53  1  0.654970  0.716895  0.105434  1
  O  O54  1  0.154970  0.783105  0.605434  1
  O  O55  1  0.877340  0.192411  0.248085  1
  O  O56  1  0.546472  0.706006  0.712519  1
  O  O57  1  0.877340  0.807589  0.751915  1
  O  O58  1  0.892561  0.602346  0.733122  1
  O  O59  1  0.228995  0.754704  0.811353  1
  O  O60  1  0.493761  0.092202  0.213870  1
  O  O61  1  0.300655  0.781130  0.063033  1
  O  O62  1  0.392561  0.102346  0.766878  1
  O  O63  1  0.635169  0.450230  0.763944  1
  O  O64  1  0.800655  0.281130  0.436967  1
  O  O65  1  0.135169  0.950230  0.736056  1
  O  O66  1  0.392561  0.897654  0.233122  1
  O  O67  1  0.154970  0.216895  0.394566  1
