# generated using pymatgen
data_SiO2
_symmetry_space_group_name_H-M   'P 1'
_cell_length_a   4.92661961
_cell_length_b   7.05544758
_cell_length_c   7.15015586
_cell_angle_alpha   114.06212233
_cell_angle_beta   104.07312980
_cell_angle_gamma   102.22578744
_symmetry_Int_Tables_number   1
_chemical_formula_structural   SiO2
_chemical_formula_sum   'Si4 O8'
_cell_volume   206.11968322
_cell_formula_units_Z   4
loop_
 _symmetry_equiv_pos_site_id
 _symmetry_equiv_pos_as_xyz
  1  'x, y, z'
loop_
 _atom_site_type_symbol
 _atom_site_label
 _atom_site_symmetry_multiplicity
 _atom_site_fract_x
 _atom_site_fract_y
 _atom_site_fract_z
 _atom_site_occupancy
  Si  Si0  1  0.815292  0.159890  0.283829  1
  Si  Si1  1  0.437039  0.144448  0.528825  1
  Si  Si2  1  0.817028  0.569309  0.632002  1
  Si  Si3  1  0.451595  0.872317  0.772435  1
  O  O4  1  0.674748  0.397025  0.713087  1
  O  O5  1  0.609914  0.720170  0.628680  1
  O  O6  1  0.811435  0.414840  0.384267  1
  O  O7  1  0.163997  0.726197  0.791225  1
  O  O8  1  0.696661  0.045189  0.018180  1
  O  O9  1  0.336725  0.006974  0.649577  1
  O  O10  1  0.603643  0.024464  0.366768  1
  O  O11  1  0.150713  0.162119  0.375976  1
