# generated using pymatgen
data_TiFe(BiO3)2
_symmetry_space_group_name_H-M   'P 1'
_cell_length_a   5.73140999
_cell_length_b   5.73140999
_cell_length_c   5.73140999
_cell_angle_alpha   59.65624096
_cell_angle_beta   59.65624096
_cell_angle_gamma   59.65624096
_symmetry_Int_Tables_number   1
_chemical_formula_structural   TiFe(BiO3)2
_chemical_formula_sum   'Ti1 Fe1 Bi2 O6'
_cell_volume   132.08820387
_cell_formula_units_Z   1
loop_
 _symmetry_equiv_pos_site_id
 _symmetry_equiv_pos_as_xyz
  1  'x, y, z'
loop_
 _atom_site_type_symbol
 _atom_site_label
 _atom_site_symmetry_multiplicity
 _atom_site_fract_x
 _atom_site_fract_y
 _atom_site_fract_z
 _atom_site_occupancy
  Ti  Ti0  1  0.270547  0.270547  0.270547  1
  Fe  Fe1  1  0.769174  0.769174  0.769174  1
  Bi  Bi2  1  0.491187  0.491187  0.491187  1
  Bi  Bi3  1  0.994139  0.994139  0.994139  1
  O  O4  1  0.076722  0.614798  0.428893  1
  O  O5  1  0.539896  0.968761  0.117775  1
  O  O6  1  0.428893  0.076722  0.614798  1
  O  O7  1  0.614798  0.428893  0.076722  1
  O  O8  1  0.968761  0.117775  0.539896  1
  O  O9  1  0.117775  0.539896  0.968761  1
