# generated using pymatgen
data_LiZr2(PO4)3
_symmetry_space_group_name_H-M   'P 1'
_cell_length_a   9.05810559
_cell_length_b   9.05810559
_cell_length_c   9.05810559
_cell_angle_alpha   59.13024997
_cell_angle_beta   59.13024997
_cell_angle_gamma   59.13024997
_symmetry_Int_Tables_number   1
_chemical_formula_structural   LiZr2(PO4)3
_chemical_formula_sum   'Li2 Zr4 P6 O24'
_cell_volume   515.11131916
_cell_formula_units_Z   2
loop_
 _symmetry_equiv_pos_site_id
 _symmetry_equiv_pos_as_xyz
  1  'x, y, z'
loop_
 _atom_site_type_symbol
 _atom_site_label
 _atom_site_symmetry_multiplicity
 _atom_site_fract_x
 _atom_site_fract_y
 _atom_site_fract_z
 _atom_site_occupancy
  Li  Li0  1  0.000000  0.000000  0.000000  1
  Li  Li1  1  0.500000  0.500000  0.500000  1
  Zr  Zr2  1  0.856682  0.856682  0.856682  1
  Zr  Zr3  1  0.643318  0.643318  0.643318  1
  Zr  Zr4  1  0.143318  0.143318  0.143318  1
  Zr  Zr5  1  0.356682  0.356682  0.356682  1
  P  P6  1  0.043591  0.750000  0.456409  1
  P  P7  1  0.456409  0.043591  0.750000  1
  P  P8  1  0.750000  0.456409  0.043591  1
  P  P9  1  0.956409  0.250000  0.543591  1
  P  P10  1  0.543591  0.956409  0.250000  1
  P  P11  1  0.250000  0.543591  0.956409  1
  O  O12  1  0.001685  0.803918  0.613642  1
  O  O13  1  0.613642  0.001685  0.803918  1
  O  O14  1  0.803918  0.613642  0.001685  1
  O  O15  1  0.886358  0.696082  0.498315  1
  O  O16  1  0.498315  0.886358  0.696082  1
  O  O17  1  0.696082  0.498315  0.886358  1
  O  O18  1  0.998315  0.196082  0.386358  1
  O  O19  1  0.386358  0.998315  0.196082  1
  O  O20  1  0.196082  0.386358  0.998315  1
  O  O21  1  0.113642  0.303918  0.501685  1
  O  O22  1  0.501685  0.113642  0.303918  1
  O  O23  1  0.303918  0.501685  0.113642  1
  O  O24  1  0.939596  0.088731  0.727272  1
  O  O25  1  0.727272  0.939596  0.088731  1
  O  O26  1  0.088731  0.727272  0.939596  1
  O  O27  1  0.772728  0.411269  0.560404  1
  O  O28  1  0.560404  0.772728  0.411269  1
  O  O29  1  0.411269  0.560404  0.772728  1
  O  O30  1  0.060404  0.911269  0.272728  1
  O  O31  1  0.272728  0.060404  0.911269  1
  O  O32  1  0.911269  0.272728  0.060404  1
  O  O33  1  0.227272  0.588731  0.439596  1
  O  O34  1  0.439596  0.227272  0.588731  1
  O  O35  1  0.588731  0.439596  0.227272  1
