# generated using pymatgen
data_CeAs2Pd3
_symmetry_space_group_name_H-M   'P 1'
_cell_length_a   8.65265023
_cell_length_b   8.65265023
_cell_length_c   10.09712480
_cell_angle_alpha   72.70370209
_cell_angle_beta   107.29629791
_cell_angle_gamma   152.27239496
_symmetry_Int_Tables_number   1
_chemical_formula_structural   CeAs2Pd3
_chemical_formula_sum   'Ce3 As6 Pd9'
_cell_volume   334.82407745
_cell_formula_units_Z   3
loop_
 _symmetry_equiv_pos_site_id
 _symmetry_equiv_pos_as_xyz
  1  'x, y, z'
loop_
 _atom_site_type_symbol
 _atom_site_label
 _atom_site_symmetry_multiplicity
 _atom_site_fract_x
 _atom_site_fract_y
 _atom_site_fract_z
 _atom_site_occupancy
  Ce  Ce0  1  0.155691  0.844309  0.702101  1
  Ce  Ce1  1  0.844309  0.155691  0.297899  1
  Ce  Ce2  1  0.000000  0.000000  0.000000  1
  As  As3  1  0.801128  0.198872  0.870859  1
  As  As4  1  0.636617  0.363383  0.456353  1
  As  As5  1  0.363383  0.636617  0.543647  1
  As  As6  1  0.198872  0.801128  0.129141  1
  As  As7  1  0.537610  0.462390  0.787317  1
  As  As8  1  0.462390  0.537610  0.212683  1
  Pd  Pd9  1  0.042543  0.957457  0.334349  1
  Pd  Pd10  1  0.321818  0.678182  0.033061  1
  Pd  Pd11  1  0.678182  0.321818  0.966939  1
  Pd  Pd12  1  0.780267  0.219733  0.608216  1
  Pd  Pd13  1  0.374464  0.625536  0.796186  1
  Pd  Pd14  1  0.957457  0.042543  0.665651  1
  Pd  Pd15  1  0.219733  0.780267  0.391784  1
  Pd  Pd16  1  0.500000  0.500000  0.500000  1
  Pd  Pd17  1  0.625536  0.374464  0.203814  1
