# generated using pymatgen
data_MoCl5
_symmetry_space_group_name_H-M   'P 1'
_cell_length_a   6.48817808
_cell_length_b   12.35762500
_cell_length_c   18.26761393
_cell_angle_alpha   90.00000000
_cell_angle_beta   90.00000000
_cell_angle_gamma   90.00000000
_symmetry_Int_Tables_number   1
_chemical_formula_structural   MoCl5
_chemical_formula_sum   'Mo8 Cl40'
_cell_volume   1464.66936552
_cell_formula_units_Z   8
loop_
 _symmetry_equiv_pos_site_id
 _symmetry_equiv_pos_as_xyz
  1  'x, y, z'
loop_
 _atom_site_type_symbol
 _atom_site_label
 _atom_site_symmetry_multiplicity
 _atom_site_fract_x
 _atom_site_fract_y
 _atom_site_fract_z
 _atom_site_occupancy
  Mo  Mo0  1  0.909894  0.875480  0.856545  1
  Mo  Mo1  1  0.590106  0.375481  0.856545  1
  Mo  Mo2  1  0.409894  0.624520  0.143455  1
  Mo  Mo3  1  0.090106  0.124520  0.143455  1
  Mo  Mo4  1  0.090106  0.124520  0.356545  1
  Mo  Mo5  1  0.590106  0.375481  0.643455  1
  Mo  Mo6  1  0.909894  0.875480  0.643455  1
  Mo  Mo7  1  0.409894  0.624520  0.356545  1
  Cl  Cl8  1  0.634116  0.762129  0.655522  1
  Cl  Cl9  1  0.925595  0.232758  0.061729  1
  Cl  Cl10  1  0.134116  0.737871  0.155522  1
  Cl  Cl11  1  0.365884  0.237871  0.155522  1
  Cl  Cl12  1  0.184007  0.990145  0.844014  1
  Cl  Cl13  1  0.252493  0.016406  0.060963  1
  Cl  Cl14  1  0.074405  0.767242  0.938271  1
  Cl  Cl15  1  0.815993  0.009855  0.344014  1
  Cl  Cl16  1  0.315993  0.490145  0.844014  1
  Cl  Cl17  1  0.074405  0.767242  0.561729  1
  Cl  Cl18  1  0.934656  0.228822  0.250000  1
  Cl  Cl19  1  0.425595  0.267242  0.938271  1
  Cl  Cl20  1  0.753656  0.979224  0.750000  1
  Cl  Cl21  1  0.752493  0.483594  0.560963  1
  Cl  Cl22  1  0.365884  0.237871  0.344478  1
  Cl  Cl23  1  0.246344  0.020776  0.250000  1
  Cl  Cl24  1  0.746344  0.479224  0.750000  1
  Cl  Cl25  1  0.747507  0.983594  0.560963  1
  Cl  Cl26  1  0.247507  0.516406  0.060963  1
  Cl  Cl27  1  0.434656  0.271178  0.750000  1
  Cl  Cl28  1  0.253656  0.520776  0.250000  1
  Cl  Cl29  1  0.565344  0.728822  0.250000  1
  Cl  Cl30  1  0.865884  0.262129  0.844478  1
  Cl  Cl31  1  0.865884  0.262129  0.655522  1
  Cl  Cl32  1  0.747507  0.983594  0.939037  1
  Cl  Cl33  1  0.252493  0.016406  0.439037  1
  Cl  Cl34  1  0.925595  0.232758  0.438271  1
  Cl  Cl35  1  0.752493  0.483594  0.939037  1
  Cl  Cl36  1  0.815993  0.009855  0.155986  1
  Cl  Cl37  1  0.065344  0.771178  0.750000  1
  Cl  Cl38  1  0.425595  0.267242  0.561729  1
  Cl  Cl39  1  0.134116  0.737871  0.344478  1
  Cl  Cl40  1  0.247507  0.516406  0.439037  1
  Cl  Cl41  1  0.574405  0.732758  0.061729  1
  Cl  Cl42  1  0.574405  0.732758  0.438271  1
  Cl  Cl43  1  0.634116  0.762129  0.844478  1
  Cl  Cl44  1  0.184007  0.990145  0.655986  1
  Cl  Cl45  1  0.684007  0.509855  0.344014  1
  Cl  Cl46  1  0.315993  0.490145  0.655986  1
  Cl  Cl47  1  0.684007  0.509855  0.155986  1
