# generated using pymatgen
data_GaNi2BO5
_symmetry_space_group_name_H-M   'P 1'
_cell_length_a   3.00063171
_cell_length_b   9.32574262
_cell_length_c   12.28843356
_cell_angle_alpha   90.00000000
_cell_angle_beta   90.00000000
_cell_angle_gamma   90.00000000
_symmetry_Int_Tables_number   1
_chemical_formula_structural   GaNi2BO5
_chemical_formula_sum   'Ga4 Ni8 B4 O20'
_cell_volume   343.86869894
_cell_formula_units_Z   4
loop_
 _symmetry_equiv_pos_site_id
 _symmetry_equiv_pos_as_xyz
  1  'x, y, z'
loop_
 _atom_site_type_symbol
 _atom_site_label
 _atom_site_symmetry_multiplicity
 _atom_site_fract_x
 _atom_site_fract_y
 _atom_site_fract_z
 _atom_site_occupancy
  Ga  Ga0  1  0.000000  0.238872  0.116157  1
  Ga  Ga1  1  0.000000  0.761128  0.883843  1
  Ga  Ga2  1  0.000000  0.738872  0.383843  1
  Ga  Ga3  1  0.000000  0.261128  0.616157  1
  Ni  Ni4  1  0.500000  0.000069  0.281458  1
  Ni  Ni5  1  0.500000  0.999931  0.718542  1
  Ni  Ni6  1  0.500000  0.500069  0.218542  1
  Ni  Ni7  1  0.500000  0.499931  0.781458  1
  Ni  Ni8  1  0.500000  0.000000  0.000000  1
  Ni  Ni9  1  0.500000  0.500000  0.500000  1
  Ni  Ni10  1  0.000000  0.500000  0.000000  1
  Ni  Ni11  1  0.000000  0.000000  0.500000  1
  B  B12  1  0.000000  0.272098  0.361102  1
  B  B13  1  0.000000  0.727902  0.638898  1
  B  B14  1  0.000000  0.772098  0.138898  1
  B  B15  1  0.000000  0.227902  0.861102  1
  O  O16  1  0.000000  0.151416  0.958563  1
  O  O17  1  0.000000  0.848584  0.041437  1
  O  O18  1  0.000000  0.651416  0.541437  1
  O  O19  1  0.000000  0.348584  0.458563  1
  O  O20  1  0.500000  0.110036  0.143008  1
  O  O21  1  0.500000  0.889964  0.856992  1
  O  O22  1  0.500000  0.610036  0.356992  1
  O  O23  1  0.500000  0.389964  0.643008  1
  O  O24  1  0.000000  0.124145  0.359623  1
  O  O25  1  0.000000  0.875855  0.640377  1
  O  O26  1  0.000000  0.624145  0.140377  1
  O  O27  1  0.000000  0.375855  0.859623  1
  O  O28  1  0.500000  0.381387  0.079002  1
  O  O29  1  0.500000  0.618613  0.920998  1
  O  O30  1  0.500000  0.881387  0.420998  1
  O  O31  1  0.500000  0.118613  0.579002  1
  O  O32  1  0.000000  0.347218  0.262928  1
  O  O33  1  0.000000  0.652782  0.737072  1
  O  O34  1  0.000000  0.847218  0.237072  1
  O  O35  1  0.000000  0.152782  0.762928  1
