# generated using pymatgen
data_NaLa4I7N2
_symmetry_space_group_name_H-M   'P 1'
_cell_length_a   11.33630627
_cell_length_b   12.15869856
_cell_length_c   14.46636500
_cell_angle_alpha   90.00000000
_cell_angle_beta   90.00000000
_cell_angle_gamma   90.00000000
_symmetry_Int_Tables_number   1
_chemical_formula_structural   NaLa4I7N2
_chemical_formula_sum   'Na4 La16 I28 N8'
_cell_volume   1993.96752428
_cell_formula_units_Z   4
loop_
 _symmetry_equiv_pos_site_id
 _symmetry_equiv_pos_as_xyz
  1  'x, y, z'
loop_
 _atom_site_type_symbol
 _atom_site_label
 _atom_site_symmetry_multiplicity
 _atom_site_fract_x
 _atom_site_fract_y
 _atom_site_fract_z
 _atom_site_occupancy
  Na  Na0  1  0.547768  0.752038  0.592331  1
  Na  Na1  1  0.952232  0.752038  0.092331  1
  Na  Na2  1  0.047768  0.252038  0.907669  1
  Na  Na3  1  0.452232  0.252038  0.407669  1
  La  La4  1  0.086234  0.817033  0.602655  1
  La  La5  1  0.623548  0.075479  0.083859  1
  La  La6  1  0.106889  0.053226  0.412080  1
  La  La7  1  0.393111  0.053226  0.912080  1
  La  La8  1  0.621632  0.810646  0.913585  1
  La  La9  1  0.378368  0.310646  0.086415  1
  La  La10  1  0.123548  0.575479  0.416141  1
  La  La11  1  0.913766  0.317033  0.397345  1
  La  La12  1  0.606889  0.553226  0.087920  1
  La  La13  1  0.413766  0.817033  0.102655  1
  La  La14  1  0.121632  0.310646  0.586415  1
  La  La15  1  0.893111  0.553226  0.587920  1
  La  La16  1  0.586234  0.317033  0.897345  1
  La  La17  1  0.376452  0.575479  0.916141  1
  La  La18  1  0.878368  0.810646  0.413585  1
  La  La19  1  0.876452  0.075479  0.583859  1
  I  I20  1  0.574170  0.536511  0.752134  1
  I  I21  1  0.689179  0.287394  0.527828  1
  I  I22  1  0.651894  0.956543  0.481554  1
  I  I23  1  0.925830  0.536511  0.252134  1
  I  I24  1  0.820325  0.610469  0.949474  1
  I  I25  1  0.402093  0.825698  0.765037  1
  I  I26  1  0.628099  0.083988  0.775473  1
  I  I27  1  0.074170  0.036511  0.747866  1
  I  I28  1  0.814440  0.796542  0.700212  1
  I  I29  1  0.848106  0.956543  0.981554  1
  I  I30  1  0.151894  0.456543  0.018446  1
  I  I31  1  0.597907  0.325698  0.234963  1
  I  I32  1  0.097907  0.825698  0.265037  1
  I  I33  1  0.685560  0.796542  0.200212  1
  I  I34  1  0.179675  0.110469  0.050526  1
  I  I35  1  0.310821  0.787394  0.472172  1
  I  I36  1  0.314440  0.296542  0.799788  1
  I  I37  1  0.902093  0.325698  0.734963  1
  I  I38  1  0.189179  0.787394  0.972172  1
  I  I39  1  0.810821  0.287394  0.027828  1
  I  I40  1  0.425830  0.036511  0.247866  1
  I  I41  1  0.371901  0.583988  0.224527  1
  I  I42  1  0.320325  0.110469  0.550526  1
  I  I43  1  0.871901  0.083988  0.275473  1
  I  I44  1  0.128099  0.583988  0.724527  1
  I  I45  1  0.679675  0.610469  0.449474  1
  I  I46  1  0.185560  0.296542  0.299788  1
  I  I47  1  0.348106  0.456543  0.518446  1
  N  N48  1  0.995455  0.688573  0.503248  1
  N  N49  1  0.012335  0.439502  0.496931  1
  N  N50  1  0.987665  0.939502  0.503069  1
  N  N51  1  0.512335  0.939502  0.003069  1
  N  N52  1  0.487665  0.439502  0.996931  1
  N  N53  1  0.004545  0.188573  0.496752  1
  N  N54  1  0.504545  0.688573  0.003248  1
  N  N55  1  0.495455  0.188573  0.996752  1
