# generated using pymatgen
data_V2B(PO4)3
_symmetry_space_group_name_H-M   'P 1'
_cell_length_a   14.15680759
_cell_length_b   14.15680759
_cell_length_c   7.62706622
_cell_angle_alpha   90.00000000
_cell_angle_beta   90.00000000
_cell_angle_gamma   120.00000000
_symmetry_Int_Tables_number   1
_chemical_formula_structural   V2B(PO4)3
_chemical_formula_sum   'V12 B6 P18 O72'
_cell_volume   1323.78912136
_cell_formula_units_Z   6
loop_
 _symmetry_equiv_pos_site_id
 _symmetry_equiv_pos_as_xyz
  1  'x, y, z'
loop_
 _atom_site_type_symbol
 _atom_site_label
 _atom_site_symmetry_multiplicity
 _atom_site_fract_x
 _atom_site_fract_y
 _atom_site_fract_z
 _atom_site_occupancy
  V  V0  1  0.975043  0.655384  0.554619  1
  V  V1  1  0.319659  0.975043  0.054619  1
  V  V2  1  0.975043  0.655384  0.945381  1
  V  V3  1  0.024957  0.344616  0.054619  1
  V  V4  1  0.680341  0.024957  0.554619  1
  V  V5  1  0.680341  0.024957  0.945381  1
  V  V6  1  0.344616  0.319659  0.945381  1
  V  V7  1  0.024957  0.344616  0.445381  1
  V  V8  1  0.655384  0.680341  0.445381  1
  V  V9  1  0.655384  0.680341  0.054619  1
  V  V10  1  0.344616  0.319659  0.554619  1
  V  V11  1  0.319659  0.975043  0.445381  1
  B  B12  1  0.333333  0.666667  0.250000  1
  B  B13  1  0.666667  0.333333  0.250000  1
  B  B14  1  0.333333  0.666667  0.750000  1
  B  B15  1  0.666667  0.333333  0.750000  1
  B  B16  1  0.000000  0.000000  0.250000  1
  B  B17  1  0.000000  0.000000  0.750000  1
  P  P18  1  0.410184  0.516500  0.250000  1
  P  P19  1  0.221486  0.444681  0.750000  1
  P  P20  1  0.223196  0.778514  0.750000  1
  P  P21  1  0.555319  0.776804  0.750000  1
  P  P22  1  0.853599  0.778792  0.750000  1
  P  P23  1  0.074807  0.853599  0.250000  1
  P  P24  1  0.925193  0.146401  0.750000  1
  P  P25  1  0.146401  0.221208  0.250000  1
  P  P26  1  0.893684  0.410184  0.750000  1
  P  P27  1  0.483500  0.893684  0.250000  1
  P  P28  1  0.106316  0.589816  0.250000  1
  P  P29  1  0.444681  0.223196  0.250000  1
  P  P30  1  0.516500  0.106316  0.750000  1
  P  P31  1  0.776804  0.221486  0.250000  1
  P  P32  1  0.778514  0.555319  0.250000  1
  P  P33  1  0.589816  0.483500  0.750000  1
  P  P34  1  0.221208  0.074807  0.750000  1
  P  P35  1  0.778792  0.925193  0.250000  1
  O  O36  1  0.326087  0.565989  0.750000  1
  O  O37  1  0.565906  0.725186  0.918036  1
  O  O38  1  0.760098  0.326087  0.250000  1
  O  O39  1  0.570696  0.235837  0.750000  1
  O  O40  1  0.434094  0.274814  0.418036  1
  O  O41  1  0.632433  0.902365  0.750000  1
  O  O42  1  0.451921  0.069042  0.919687  1
  O  O43  1  0.695927  0.798949  0.250000  1
  O  O44  1  0.966502  0.891358  0.750000  1
  O  O45  1  0.269932  0.367567  0.750000  1
  O  O46  1  0.069042  0.617121  0.080313  1
  O  O47  1  0.206433  0.229424  0.418756  1
  O  O48  1  0.235837  0.665140  0.250000  1
  O  O49  1  0.924856  0.033498  0.750000  1
  O  O50  1  0.764163  0.334860  0.750000  1
  O  O51  1  0.451921  0.069042  0.580313  1
  O  O52  1  0.467737  0.394179  0.750000  1
  O  O53  1  0.033498  0.108642  0.250000  1
  O  O54  1  0.770576  0.977010  0.081244  1
  O  O55  1  0.725186  0.159280  0.081964  1
  O  O56  1  0.022990  0.793567  0.418756  1
  O  O57  1  0.382879  0.451921  0.419687  1
  O  O58  1  0.069042  0.617121  0.419687  1
  O  O59  1  0.108642  0.075144  0.750000  1
  O  O60  1  0.097635  0.730068  0.750000  1
  O  O61  1  0.429304  0.764163  0.250000  1
  O  O62  1  0.793567  0.770576  0.581244  1
  O  O63  1  0.548079  0.930958  0.080313  1
  O  O64  1  0.434094  0.274814  0.081964  1
  O  O65  1  0.075144  0.966502  0.250000  1
  O  O66  1  0.902365  0.269932  0.250000  1
  O  O67  1  0.840720  0.565906  0.081964  1
  O  O68  1  0.201051  0.896978  0.250000  1
  O  O69  1  0.673913  0.434011  0.250000  1
  O  O70  1  0.605821  0.073558  0.750000  1
  O  O71  1  0.926442  0.532263  0.750000  1
  O  O72  1  0.565989  0.239902  0.250000  1
  O  O73  1  0.730068  0.632433  0.250000  1
  O  O74  1  0.274814  0.840720  0.581964  1
  O  O75  1  0.159280  0.434094  0.581964  1
  O  O76  1  0.229424  0.022990  0.918756  1
  O  O77  1  0.617121  0.548079  0.919687  1
  O  O78  1  0.930958  0.382879  0.919687  1
  O  O79  1  0.382879  0.451921  0.080313  1
  O  O80  1  0.229424  0.022990  0.581244  1
  O  O81  1  0.022990  0.793567  0.081244  1
  O  O82  1  0.977010  0.206433  0.581244  1
  O  O83  1  0.548079  0.930958  0.419687  1
  O  O84  1  0.103022  0.304073  0.250000  1
  O  O85  1  0.798949  0.103022  0.750000  1
  O  O86  1  0.896978  0.695927  0.750000  1
  O  O87  1  0.565906  0.725186  0.581964  1
  O  O88  1  0.073558  0.467737  0.250000  1
  O  O89  1  0.977010  0.206433  0.918756  1
  O  O90  1  0.770576  0.977010  0.418756  1
  O  O91  1  0.304073  0.201051  0.750000  1
  O  O92  1  0.725186  0.159280  0.418036  1
  O  O93  1  0.334860  0.570696  0.250000  1
  O  O94  1  0.532263  0.605821  0.250000  1
  O  O95  1  0.930958  0.382879  0.580313  1
  O  O96  1  0.617121  0.548079  0.580313  1
  O  O97  1  0.159280  0.434094  0.918036  1
  O  O98  1  0.274814  0.840720  0.918036  1
  O  O99  1  0.394179  0.926442  0.250000  1
  O  O100  1  0.239902  0.673913  0.750000  1
  O  O101  1  0.891358  0.924856  0.250000  1
  O  O102  1  0.206433  0.229424  0.081244  1
  O  O103  1  0.367567  0.097635  0.250000  1
  O  O104  1  0.840720  0.565906  0.418036  1
  O  O105  1  0.434011  0.760098  0.750000  1
  O  O106  1  0.665140  0.429304  0.750000  1
  O  O107  1  0.793567  0.770576  0.918756  1
