# generated using pymatgen
data_CsNdNb2O7
_symmetry_space_group_name_H-M   'P 1'
_cell_length_a   5.50021709
_cell_length_b   5.56824211
_cell_length_c   11.46714332
_cell_angle_alpha   90.00000000
_cell_angle_beta   90.00000000
_cell_angle_gamma   90.00000000
_symmetry_Int_Tables_number   1
_chemical_formula_structural   CsNdNb2O7
_chemical_formula_sum   'Cs2 Nd2 Nb4 O14'
_cell_volume   351.19892833
_cell_formula_units_Z   2
loop_
 _symmetry_equiv_pos_site_id
 _symmetry_equiv_pos_as_xyz
  1  'x, y, z'
loop_
 _atom_site_type_symbol
 _atom_site_label
 _atom_site_symmetry_multiplicity
 _atom_site_fract_x
 _atom_site_fract_y
 _atom_site_fract_z
 _atom_site_occupancy
  Cs  Cs0  1  0.739335  0.748648  0.500000  1
  Cs  Cs1  1  0.260665  0.248648  0.500000  1
  Nd  Nd2  1  0.250436  0.281806  0.000000  1
  Nd  Nd3  1  0.749564  0.781806  0.000000  1
  Nb  Nb4  1  0.748864  0.241579  0.200319  1
  Nb  Nb5  1  0.748864  0.241579  0.799681  1
  Nb  Nb6  1  0.251136  0.741579  0.799681  1
  Nb  Nb7  1  0.251136  0.741579  0.200319  1
  O  O8  1  0.033939  0.010608  0.858060  1
  O  O9  1  0.670819  0.206796  0.000000  1
  O  O10  1  0.329181  0.706796  0.000000  1
  O  O11  1  0.801571  0.247503  0.644998  1
  O  O12  1  0.553732  0.926334  0.809491  1
  O  O13  1  0.198429  0.747503  0.644998  1
  O  O14  1  0.966061  0.510608  0.858060  1
  O  O15  1  0.446268  0.426334  0.809491  1
  O  O16  1  0.033939  0.010608  0.141940  1
  O  O17  1  0.446268  0.426334  0.190509  1
  O  O18  1  0.801571  0.247503  0.355002  1
  O  O19  1  0.966061  0.510608  0.141940  1
  O  O20  1  0.553732  0.926334  0.190509  1
  O  O21  1  0.198429  0.747503  0.355002  1
