# generated using pymatgen
data_Co(PO3)4
_symmetry_space_group_name_H-M   'P 1'
_cell_length_a   8.38354116
_cell_length_b   8.38354116
_cell_length_c   7.66891351
_cell_angle_alpha   83.06995964
_cell_angle_beta   96.93004036
_cell_angle_gamma   70.33380319
_symmetry_Int_Tables_number   1
_chemical_formula_structural   Co(PO3)4
_chemical_formula_sum   'Co2 P8 O24'
_cell_volume   496.29757539
_cell_formula_units_Z   2
loop_
 _symmetry_equiv_pos_site_id
 _symmetry_equiv_pos_as_xyz
  1  'x, y, z'
loop_
 _atom_site_type_symbol
 _atom_site_label
 _atom_site_symmetry_multiplicity
 _atom_site_fract_x
 _atom_site_fract_y
 _atom_site_fract_z
 _atom_site_occupancy
  Co  Co0  1  0.131743  0.131743  0.750000  1
  Co  Co1  1  0.868257  0.868257  0.250000  1
  P  P2  1  0.563946  0.757686  0.372557  1
  P  P3  1  0.798432  0.047233  0.835098  1
  P  P4  1  0.201568  0.952767  0.164902  1
  P  P5  1  0.047233  0.798432  0.664902  1
  P  P6  1  0.436054  0.242314  0.627443  1
  P  P7  1  0.952767  0.201568  0.335098  1
  P  P8  1  0.757686  0.563946  0.127443  1
  P  P9  1  0.242314  0.436054  0.872557  1
  O  O10  1  0.667020  0.609293  0.938122  1
  O  O11  1  0.332980  0.390707  0.061878  1
  O  O12  1  0.122748  0.122748  0.250000  1
  O  O13  1  0.609293  0.667020  0.561878  1
  O  O14  1  0.001671  0.735236  0.497804  1
  O  O15  1  0.079442  0.855282  0.157660  1
  O  O16  1  0.890886  0.642642  0.181791  1
  O  O17  1  0.264764  0.998329  0.997804  1
  O  O18  1  0.391056  0.391056  0.750000  1
  O  O19  1  0.842296  0.360171  0.180571  1
  O  O20  1  0.608944  0.608944  0.250000  1
  O  O21  1  0.877252  0.877252  0.750000  1
  O  O22  1  0.735236  0.001671  0.002196  1
  O  O23  1  0.998329  0.264764  0.502196  1
  O  O24  1  0.144718  0.920558  0.657660  1
  O  O25  1  0.920558  0.144718  0.842340  1
  O  O26  1  0.109114  0.357358  0.818209  1
  O  O27  1  0.855282  0.079442  0.342340  1
  O  O28  1  0.357358  0.109114  0.681791  1
  O  O29  1  0.360171  0.842296  0.319429  1
  O  O30  1  0.642642  0.890886  0.318209  1
  O  O31  1  0.157704  0.639829  0.819429  1
  O  O32  1  0.639829  0.157704  0.680571  1
  O  O33  1  0.390707  0.332980  0.438122  1
