# generated using pymatgen
data_NaLa(GaSe2)4
_symmetry_space_group_name_H-M   'P 1'
_cell_length_a   15.22744854
_cell_length_b   12.56546799
_cell_length_c   12.52617612
_cell_angle_alpha   74.72734203
_cell_angle_beta   52.75383394
_cell_angle_gamma   52.51882403
_symmetry_Int_Tables_number   1
_chemical_formula_structural   NaLa(GaSe2)4
_chemical_formula_sum   'Na4 La4 Ga16 Se32'
_cell_volume   1493.02583148
_cell_formula_units_Z   4
loop_
 _symmetry_equiv_pos_site_id
 _symmetry_equiv_pos_as_xyz
  1  'x, y, z'
loop_
 _atom_site_type_symbol
 _atom_site_label
 _atom_site_symmetry_multiplicity
 _atom_site_fract_x
 _atom_site_fract_y
 _atom_site_fract_z
 _atom_site_occupancy
  Na  Na0  1  0.496915  0.496915  0.003085  1
  Na  Na1  1  0.753085  0.753085  0.246915  1
  Na  Na2  1  0.003085  0.003085  0.496915  1
  Na  Na3  1  0.246915  0.246915  0.753085  1
  La  La4  1  0.750000  0.750000  0.750000  1
  La  La5  1  0.500000  0.500000  0.500000  1
  La  La6  1  0.250000  0.250000  0.250000  1
  La  La7  1  0.000000  0.000000  0.000000  1
  Ga  Ga8  1  0.761512  0.492906  0.509058  1
  Ga  Ga9  1  0.492906  0.761512  0.236524  1
  Ga  Ga10  1  0.985577  0.263528  0.154333  1
  Ga  Ga11  1  0.509058  0.236524  0.761512  1
  Ga  Ga12  1  0.264423  0.986472  0.095667  1
  Ga  Ga13  1  0.236524  0.509058  0.492906  1
  Ga  Ga14  1  0.653439  0.095667  0.986472  1
  Ga  Ga15  1  0.596561  0.154333  0.263528  1
  Ga  Ga16  1  0.154333  0.596561  0.985577  1
  Ga  Ga17  1  0.488488  0.757094  0.740942  1
  Ga  Ga18  1  0.095667  0.653439  0.264423  1
  Ga  Ga19  1  0.013476  0.740942  0.757094  1
  Ga  Ga20  1  0.263528  0.985577  0.596561  1
  Ga  Ga21  1  0.740942  0.013476  0.488488  1
  Ga  Ga22  1  0.757094  0.488488  0.013476  1
  Ga  Ga23  1  0.986472  0.264423  0.653439  1
  Se  Se24  1  0.776890  0.476032  0.305893  1
  Se  Se25  1  0.535659  0.542135  0.217699  1
  Se  Se26  1  0.042527  0.534493  0.210936  1
  Se  Se27  1  0.542135  0.535659  0.704507  1
  Se  Se28  1  0.715507  0.207473  0.037957  1
  Se  Se29  1  0.971659  0.282175  0.463674  1
  Se  Se30  1  0.441184  0.305893  0.476032  1
  Se  Se31  1  0.207473  0.715507  0.039064  1
  Se  Se32  1  0.282175  0.971659  0.282492  1
  Se  Se33  1  0.545493  0.032301  0.707865  1
  Se  Se34  1  0.707865  0.714341  0.545493  1
  Se  Se35  1  0.773968  0.473110  0.808816  1
  Se  Se36  1  0.786326  0.967508  0.278341  1
  Se  Se37  1  0.463674  0.282492  0.971659  1
  Se  Se38  1  0.212043  0.210936  0.534493  1
  Se  Se39  1  0.704507  0.217699  0.542135  1
  Se  Se40  1  0.808816  0.944107  0.773968  1
  Se  Se41  1  0.967825  0.278341  0.967508  1
  Se  Se42  1  0.473110  0.773968  0.944107  1
  Se  Se43  1  0.476032  0.776890  0.441184  1
  Se  Se44  1  0.217699  0.704507  0.535659  1
  Se  Se45  1  0.714341  0.707865  0.032301  1
  Se  Se46  1  0.305893  0.441184  0.776890  1
  Se  Se47  1  0.967508  0.786326  0.967825  1
  Se  Se48  1  0.278341  0.967825  0.786326  1
  Se  Se49  1  0.037957  0.039064  0.715507  1
  Se  Se50  1  0.032301  0.545493  0.714341  1
  Se  Se51  1  0.210936  0.212043  0.042527  1
  Se  Se52  1  0.944107  0.808816  0.473110  1
  Se  Se53  1  0.534493  0.042527  0.212043  1
  Se  Se54  1  0.282492  0.463674  0.282175  1
  Se  Se55  1  0.039064  0.037957  0.207473  1
