# generated using pymatgen
data_PW3O11
_symmetry_space_group_name_H-M   'P 1'
_cell_length_a   5.39658091
_cell_length_b   6.70262973
_cell_length_c   24.04863827
_cell_angle_alpha   90.00000000
_cell_angle_beta   90.00000000
_cell_angle_gamma   90.00000000
_symmetry_Int_Tables_number   1
_chemical_formula_structural   PW3O11
_chemical_formula_sum   'P4 W12 O44'
_cell_volume   869.87011621
_cell_formula_units_Z   4
loop_
 _symmetry_equiv_pos_site_id
 _symmetry_equiv_pos_as_xyz
  1  'x, y, z'
loop_
 _atom_site_type_symbol
 _atom_site_label
 _atom_site_symmetry_multiplicity
 _atom_site_fract_x
 _atom_site_fract_y
 _atom_site_fract_z
 _atom_site_occupancy
  P  P0  1  0.734833  0.883628  0.203892  1
  P  P1  1  0.234833  0.616372  0.796108  1
  P  P2  1  0.265167  0.383628  0.296108  1
  P  P3  1  0.765167  0.116372  0.703892  1
  W  W4  1  0.741112  0.243364  0.097248  1
  W  W5  1  0.256421  0.419065  0.660569  1
  W  W6  1  0.243579  0.580935  0.160569  1
  W  W7  1  0.743579  0.919065  0.839431  1
  W  W8  1  0.756421  0.080935  0.339431  1
  W  W9  1  0.241112  0.256636  0.902752  1
  W  W10  1  0.258888  0.743364  0.402752  1
  W  W11  1  0.758888  0.756636  0.597248  1
  W  W12  1  0.756254  0.416607  0.468969  1
  W  W13  1  0.256254  0.083393  0.531031  1
  W  W14  1  0.243746  0.916607  0.031031  1
  W  W15  1  0.743746  0.583393  0.968969  1
  O  O16  1  0.533961  0.600320  0.429886  1
  O  O17  1  0.033961  0.899680  0.570114  1
  O  O18  1  0.466039  0.100320  0.070114  1
  O  O19  1  0.966039  0.399680  0.929886  1
  O  O20  1  0.482857  0.777012  0.197862  1
  O  O21  1  0.982857  0.722988  0.802138  1
  O  O22  1  0.517143  0.277012  0.302138  1
  O  O23  1  0.017143  0.222988  0.697862  1
  O  O24  1  0.950876  0.742891  0.189561  1
  O  O25  1  0.450876  0.757109  0.810439  1
  O  O26  1  0.049124  0.242891  0.310439  1
  O  O27  1  0.549124  0.257109  0.689561  1
  O  O28  1  0.019940  0.731420  0.996647  1
  O  O29  1  0.519940  0.768580  0.003353  1
  O  O30  1  0.032845  0.565382  0.436558  1
  O  O31  1  0.480060  0.268580  0.496647  1
  O  O32  1  0.254334  0.257861  0.598280  1
  O  O33  1  0.754334  0.242139  0.401720  1
  O  O34  1  0.745666  0.757861  0.901720  1
  O  O35  1  0.245666  0.742139  0.098280  1
  O  O36  1  0.242162  0.085349  0.965002  1
  O  O37  1  0.742162  0.414651  0.034998  1
  O  O38  1  0.757838  0.585349  0.534998  1
  O  O39  1  0.257838  0.914651  0.465002  1
  O  O40  1  0.242283  0.428505  0.832695  1
  O  O41  1  0.742283  0.071495  0.167305  1
  O  O42  1  0.757717  0.928505  0.667305  1
  O  O43  1  0.257717  0.571495  0.332695  1
  O  O44  1  0.014894  0.072069  0.861838  1
  O  O45  1  0.514894  0.427931  0.138162  1
  O  O46  1  0.985106  0.572069  0.638162  1
  O  O47  1  0.485106  0.927931  0.361838  1
  O  O48  1  0.517623  0.103751  0.868419  1
  O  O49  1  0.017623  0.396249  0.131581  1
  O  O50  1  0.482377  0.603751  0.631581  1
  O  O51  1  0.982377  0.896249  0.368419  1
  O  O52  1  0.735339  0.054385  0.765166  1
  O  O53  1  0.235339  0.445615  0.234834  1
  O  O54  1  0.264661  0.554385  0.734834  1
  O  O55  1  0.764661  0.945615  0.265166  1
  O  O56  1  0.467155  0.434618  0.936558  1
  O  O57  1  0.967155  0.065382  0.063442  1
  O  O58  1  0.532845  0.934618  0.563442  1
  O  O59  1  0.980060  0.231420  0.503353  1
