# generated using pymatgen
data_K3(PdO2)2
_symmetry_space_group_name_H-M   'P 1'
_cell_length_a   5.60577731
_cell_length_b   5.60577731
_cell_length_c   11.55507682
_cell_angle_alpha   90.00000000
_cell_angle_beta   90.00000000
_cell_angle_gamma   112.51762917
_symmetry_Int_Tables_number   1
_chemical_formula_structural   K3(PdO2)2
_chemical_formula_sum   'K6 Pd4 O8'
_cell_volume   335.43200058
_cell_formula_units_Z   2
loop_
 _symmetry_equiv_pos_site_id
 _symmetry_equiv_pos_as_xyz
  1  'x, y, z'
loop_
 _atom_site_type_symbol
 _atom_site_label
 _atom_site_symmetry_multiplicity
 _atom_site_fract_x
 _atom_site_fract_y
 _atom_site_fract_z
 _atom_site_occupancy
  K  K0  1  0.649014  0.350986  0.431804  1
  K  K1  1  0.350986  0.649014  0.931804  1
  K  K2  1  0.710126  0.289874  0.750000  1
  K  K3  1  0.350986  0.649014  0.568196  1
  K  K4  1  0.289874  0.710126  0.250000  1
  K  K5  1  0.649014  0.350986  0.068196  1
  Pd  Pd6  1  0.925201  0.074799  0.250000  1
  Pd  Pd7  1  0.000000  0.000000  0.000000  1
  Pd  Pd8  1  0.074799  0.925201  0.750000  1
  Pd  Pd9  1  0.000000  0.000000  0.500000  1
  O  O10  1  0.291153  0.133970  0.616073  1
  O  O11  1  0.866030  0.708847  0.616073  1
  O  O12  1  0.133970  0.291153  0.383927  1
  O  O13  1  0.866030  0.708847  0.883927  1
  O  O14  1  0.708847  0.866030  0.383927  1
  O  O15  1  0.133970  0.291153  0.116073  1
  O  O16  1  0.291153  0.133970  0.883927  1
  O  O17  1  0.708847  0.866030  0.116073  1
