# generated using pymatgen
data_CsSnI3
_symmetry_space_group_name_H-M   'P 1'
_cell_length_a   8.73317055
_cell_length_b   8.87221046
_cell_length_c   12.66308172
_cell_angle_alpha   90.00000000
_cell_angle_beta   90.00000000
_cell_angle_gamma   90.00000000
_symmetry_Int_Tables_number   1
_chemical_formula_structural   CsSnI3
_chemical_formula_sum   'Cs4 Sn4 I12'
_cell_volume   981.16757257
_cell_formula_units_Z   4
loop_
 _symmetry_equiv_pos_site_id
 _symmetry_equiv_pos_as_xyz
  1  'x, y, z'
loop_
 _atom_site_type_symbol
 _atom_site_label
 _atom_site_symmetry_multiplicity
 _atom_site_fract_x
 _atom_site_fract_y
 _atom_site_fract_z
 _atom_site_occupancy
  Cs  Cs0  1  0.504683  0.023333  0.250000  1
  Cs  Cs1  1  0.004683  0.476667  0.250000  1
  Cs  Cs2  1  0.495317  0.976667  0.750000  1
  Cs  Cs3  1  0.995317  0.523333  0.750000  1
  Sn  Sn4  1  0.000000  0.000000  0.000000  1
  Sn  Sn5  1  0.500000  0.500000  0.500000  1
  Sn  Sn6  1  0.500000  0.500000  0.000000  1
  Sn  Sn7  1  0.000000  0.000000  0.500000  1
  I  I8  1  0.203098  0.703672  0.007564  1
  I  I9  1  0.796902  0.296328  0.507564  1
  I  I10  1  0.203098  0.703672  0.492436  1
  I  I11  1  0.796902  0.296328  0.992436  1
  I  I12  1  0.002648  0.980018  0.750000  1
  I  I13  1  0.703098  0.796328  0.492436  1
  I  I14  1  0.497352  0.480018  0.250000  1
  I  I15  1  0.296902  0.203672  0.507564  1
  I  I16  1  0.296902  0.203672  0.992436  1
  I  I17  1  0.997352  0.019982  0.250000  1
  I  I18  1  0.502648  0.519982  0.750000  1
  I  I19  1  0.703098  0.796328  0.007564  1
