# generated using pymatgen
data_BaZnSO
_symmetry_space_group_name_H-M   'P 1'
_cell_length_a   6.81844158
_cell_length_b   6.81844158
_cell_length_c   6.19643549
_cell_angle_alpha   90.00000000
_cell_angle_beta   90.00000000
_cell_angle_gamma   145.95892645
_symmetry_Int_Tables_number   1
_chemical_formula_structural   BaZnSO
_chemical_formula_sum   'Ba2 Zn2 S2 O2'
_cell_volume   161.26311467
_cell_formula_units_Z   2
loop_
 _symmetry_equiv_pos_site_id
 _symmetry_equiv_pos_as_xyz
  1  'x, y, z'
loop_
 _atom_site_type_symbol
 _atom_site_label
 _atom_site_symmetry_multiplicity
 _atom_site_fract_x
 _atom_site_fract_y
 _atom_site_fract_z
 _atom_site_occupancy
  Ba  Ba0  1  0.892088  0.107912  0.750000  1
  Ba  Ba1  1  0.107912  0.892088  0.250000  1
  Zn  Zn2  1  0.401512  0.598488  0.250000  1
  Zn  Zn3  1  0.598488  0.401512  0.750000  1
  S  S4  1  0.806508  0.193492  0.250000  1
  S  S5  1  0.193492  0.806508  0.750000  1
  O  O6  1  0.500000  0.500000  0.500000  1
  O  O7  1  0.500000  0.500000  0.000000  1
