# generated using pymatgen
data_FeTe6O13
_symmetry_space_group_name_H-M   'P 1'
_cell_length_a   8.82009542
_cell_length_b   8.82009542
_cell_length_c   8.82009542
_cell_angle_alpha   72.09594085
_cell_angle_beta   72.09594085
_cell_angle_gamma   72.09594085
_symmetry_Int_Tables_number   1
_chemical_formula_structural   FeTe6O13
_chemical_formula_sum   'Fe2 Te12 O26'
_cell_volume   603.88341293
_cell_formula_units_Z   2
loop_
 _symmetry_equiv_pos_site_id
 _symmetry_equiv_pos_as_xyz
  1  'x, y, z'
loop_
 _atom_site_type_symbol
 _atom_site_label
 _atom_site_symmetry_multiplicity
 _atom_site_fract_x
 _atom_site_fract_y
 _atom_site_fract_z
 _atom_site_occupancy
  Fe  Fe0  1  0.256250  0.256250  0.256250  1
  Fe  Fe1  1  0.743750  0.743750  0.743750  1
  Te  Te2  1  0.010847  0.942734  0.333413  1
  Te  Te3  1  0.422390  0.823467  0.531334  1
  Te  Te4  1  0.531334  0.422390  0.823467  1
  Te  Te5  1  0.666587  0.989153  0.057266  1
  Te  Te6  1  0.176533  0.468666  0.577610  1
  Te  Te7  1  0.577610  0.176533  0.468666  1
  Te  Te8  1  0.468666  0.577610  0.176533  1
  Te  Te9  1  0.333413  0.010847  0.942734  1
  Te  Te10  1  0.989153  0.057266  0.666587  1
  Te  Te11  1  0.057266  0.666587  0.989153  1
  Te  Te12  1  0.942734  0.333413  0.010847  1
  Te  Te13  1  0.823467  0.531334  0.422390  1
  O  O14  1  0.374740  0.298850  0.612677  1
  O  O15  1  0.088351  0.088351  0.088351  1
  O  O16  1  0.399200  0.080129  0.100782  1
  O  O17  1  0.701150  0.387323  0.625260  1
  O  O18  1  0.456416  0.114578  0.363836  1
  O  O19  1  0.056110  0.302581  0.799450  1
  O  O20  1  0.919871  0.899218  0.600800  1
  O  O21  1  0.911649  0.911649  0.911649  1
  O  O22  1  0.200550  0.943890  0.697419  1
  O  O23  1  0.885422  0.636164  0.543584  1
  O  O24  1  0.625260  0.701150  0.387323  1
  O  O25  1  0.543584  0.885422  0.636164  1
  O  O26  1  0.363836  0.456416  0.114578  1
  O  O27  1  0.302581  0.799450  0.056110  1
  O  O28  1  0.080129  0.100782  0.399200  1
  O  O29  1  0.100782  0.399200  0.080129  1
  O  O30  1  0.600800  0.919871  0.899218  1
  O  O31  1  0.799450  0.056110  0.302581  1
  O  O32  1  0.612677  0.374740  0.298850  1
  O  O33  1  0.697419  0.200550  0.943890  1
  O  O34  1  0.899218  0.600800  0.919871  1
  O  O35  1  0.114578  0.363836  0.456416  1
  O  O36  1  0.298850  0.612677  0.374740  1
  O  O37  1  0.387323  0.625260  0.701150  1
  O  O38  1  0.943890  0.697419  0.200550  1
  O  O39  1  0.636164  0.543584  0.885422  1
