# generated using pymatgen
data_Ba2CuWO6
_symmetry_space_group_name_H-M   'P 1'
_cell_length_a   6.00131367
_cell_length_b   6.00131367
_cell_length_c   6.00131367
_cell_angle_alpha   124.23566370
_cell_angle_beta   124.23566370
_cell_angle_gamma   82.80791559
_symmetry_Int_Tables_number   1
_chemical_formula_structural   Ba2CuWO6
_chemical_formula_sum   'Ba2 Cu1 W1 O6'
_cell_volume   141.82368996
_cell_formula_units_Z   1
loop_
 _symmetry_equiv_pos_site_id
 _symmetry_equiv_pos_as_xyz
  1  'x, y, z'
loop_
 _atom_site_type_symbol
 _atom_site_label
 _atom_site_symmetry_multiplicity
 _atom_site_fract_x
 _atom_site_fract_y
 _atom_site_fract_z
 _atom_site_occupancy
  Ba  Ba0  1  0.750000  0.250000  0.500000  1
  Ba  Ba1  1  0.250000  0.750000  0.500000  1
  Cu  Cu2  1  0.000000  0.000000  0.000000  1
  W  W3  1  0.500000  0.500000  0.000000  1
  O  O4  1  0.758023  0.736539  0.494561  1
  O  O5  1  0.736539  0.241977  0.978516  1
  O  O6  1  0.263461  0.758023  0.021484  1
  O  O7  1  0.241977  0.263461  0.505439  1
  O  O8  1  0.283531  0.283531  0.000000  1
  O  O9  1  0.716469  0.716469  0.000000  1
