# generated using pymatgen
data_K2SbPO6
_symmetry_space_group_name_H-M   'P 1'
_cell_length_a   5.98601024
_cell_length_b   9.57660046
_cell_length_c   11.25444063
_cell_angle_alpha   90.00000000
_cell_angle_beta   90.00000000
_cell_angle_gamma   90.00000000
_symmetry_Int_Tables_number   1
_chemical_formula_structural   K2SbPO6
_chemical_formula_sum   'K8 Sb4 P4 O24'
_cell_volume   645.16788161
_cell_formula_units_Z   4
loop_
 _symmetry_equiv_pos_site_id
 _symmetry_equiv_pos_as_xyz
  1  'x, y, z'
loop_
 _atom_site_type_symbol
 _atom_site_label
 _atom_site_symmetry_multiplicity
 _atom_site_fract_x
 _atom_site_fract_y
 _atom_site_fract_z
 _atom_site_occupancy
  K  K0  1  0.250000  0.617744  0.160266  1
  K  K1  1  0.250000  0.670402  0.807512  1
  K  K2  1  0.250000  0.170402  0.692488  1
  K  K3  1  0.250000  0.117744  0.339734  1
  K  K4  1  0.750000  0.329598  0.192488  1
  K  K5  1  0.750000  0.829598  0.307512  1
  K  K6  1  0.750000  0.882256  0.660266  1
  K  K7  1  0.750000  0.382256  0.839734  1
  Sb  Sb8  1  0.000000  0.500000  0.500000  1
  Sb  Sb9  1  0.500000  0.000000  0.000000  1
  Sb  Sb10  1  0.500000  0.500000  0.500000  1
  Sb  Sb11  1  0.000000  0.000000  0.000000  1
  P  P12  1  0.750000  0.696668  0.990984  1
  P  P13  1  0.250000  0.803332  0.490984  1
  P  P14  1  0.750000  0.196668  0.509016  1
  P  P15  1  0.250000  0.303332  0.009016  1
  O  O16  1  0.464896  0.710979  0.527318  1
  O  O17  1  0.750000  0.034297  0.117049  1
  O  O18  1  0.250000  0.965703  0.882951  1
  O  O19  1  0.750000  0.169693  0.642083  1
  O  O20  1  0.750000  0.570150  0.072151  1
  O  O21  1  0.964896  0.789021  0.027318  1
  O  O22  1  0.250000  0.330307  0.142083  1
  O  O23  1  0.250000  0.429850  0.927849  1
  O  O24  1  0.750000  0.669693  0.857917  1
  O  O25  1  0.250000  0.830307  0.357917  1
  O  O26  1  0.750000  0.499688  0.617569  1
  O  O27  1  0.750000  0.070150  0.427849  1
  O  O28  1  0.964896  0.289021  0.472682  1
  O  O29  1  0.750000  0.999688  0.882431  1
  O  O30  1  0.250000  0.000312  0.117569  1
  O  O31  1  0.464896  0.210979  0.972682  1
  O  O32  1  0.250000  0.465703  0.617049  1
  O  O33  1  0.250000  0.500312  0.382431  1
  O  O34  1  0.035104  0.710979  0.527318  1
  O  O35  1  0.250000  0.929850  0.572151  1
  O  O36  1  0.535104  0.289021  0.472682  1
  O  O37  1  0.035104  0.210979  0.972682  1
  O  O38  1  0.535104  0.789021  0.027318  1
  O  O39  1  0.750000  0.534297  0.382951  1
