# generated using pymatgen
data_Ba9LiSi10C(ClO4)7
_symmetry_space_group_name_H-M   'P 1'
_cell_length_a   9.56890400
_cell_length_b   11.74482400
_cell_length_c   17.99327100
_cell_angle_alpha   90.00000000
_cell_angle_beta   90.00000000
_cell_angle_gamma   90.00000000
_symmetry_Int_Tables_number   1
_chemical_formula_structural   Ba9LiSi10C(ClO4)7
_chemical_formula_sum   'Ba18 Li2 Si20 C2 Cl14 O56'
_cell_volume   2022.17544106
_cell_formula_units_Z   2
loop_
 _symmetry_equiv_pos_site_id
 _symmetry_equiv_pos_as_xyz
  1  'x, y, z'
loop_
 _atom_site_type_symbol
 _atom_site_label
 _atom_site_symmetry_multiplicity
 _atom_site_fract_x
 _atom_site_fract_y
 _atom_site_fract_z
 _atom_site_occupancy
  Ba  Ba0  1  0.005596  0.709354  0.000000  1
  Ba  Ba1  1  0.600600  0.295327  0.143875  1
  Ba  Ba2  1  0.292619  0.000000  0.140029  1
  Ba  Ba3  1  0.268461  0.500000  0.500000  1
  Ba  Ba4  1  0.600600  0.704673  0.143875  1
  Ba  Ba5  1  0.707381  0.500000  0.640029  1
  Ba  Ba6  1  0.731539  0.000000  0.000000  1
  Ba  Ba7  1  0.707381  0.500000  0.359971  1
  Ba  Ba8  1  0.994404  0.209354  0.500000  1
  Ba  Ba9  1  0.005596  0.290646  0.000000  1
  Ba  Ba10  1  0.399400  0.204673  0.356125  1
  Ba  Ba11  1  0.399400  0.795327  0.643875  1
  Ba  Ba12  1  0.600600  0.704673  0.856125  1
  Ba  Ba13  1  0.292619  0.000000  0.859971  1
  Ba  Ba14  1  0.399400  0.795327  0.356125  1
  Ba  Ba15  1  0.994404  0.790646  0.500000  1
  Ba  Ba16  1  0.399400  0.204673  0.643875  1
  Ba  Ba17  1  0.600600  0.295327  0.856125  1
  Li  Li18  1  0.539641  0.500000  0.000000  1
  Li  Li19  1  0.460359  0.000000  0.500000  1
  Si  Si20  1  0.715726  0.000000  0.587990  1
  Si  Si21  1  0.068707  0.635149  0.341238  1
  Si  Si22  1  0.797683  0.783523  0.315533  1
  Si  Si23  1  0.202317  0.283523  0.815533  1
  Si  Si24  1  0.202317  0.716477  0.815533  1
  Si  Si25  1  0.931293  0.864851  0.158762  1
  Si  Si26  1  0.284274  0.500000  0.912010  1
  Si  Si27  1  0.931293  0.864851  0.841238  1
  Si  Si28  1  0.284274  0.500000  0.087990  1
  Si  Si29  1  0.797683  0.783523  0.684467  1
  Si  Si30  1  0.715726  0.000000  0.412010  1
  Si  Si31  1  0.797683  0.216477  0.684467  1
  Si  Si32  1  0.931293  0.135149  0.158762  1
  Si  Si33  1  0.068707  0.364851  0.341238  1
  Si  Si34  1  0.931293  0.135149  0.841238  1
  Si  Si35  1  0.068707  0.364851  0.658762  1
  Si  Si36  1  0.068707  0.635149  0.658762  1
  Si  Si37  1  0.202317  0.716477  0.184467  1
  Si  Si38  1  0.202317  0.283523  0.184467  1
  Si  Si39  1  0.797683  0.216477  0.315533  1
  C  C40  1  0.779368  0.500000  0.000000  1
  C  C41  1  0.220632  0.000000  0.500000  1
  Cl  Cl42  1  0.546831  0.667186  0.500000  1
  Cl  Cl43  1  0.453169  0.167186  0.000000  1
  Cl  Cl44  1  0.599961  0.000000  0.826790  1
  Cl  Cl45  1  0.211601  0.000000  0.690595  1
  Cl  Cl46  1  0.211601  0.000000  0.309405  1
  Cl  Cl47  1  0.453169  0.832814  0.000000  1
  Cl  Cl48  1  0.546831  0.332814  0.500000  1
  Cl  Cl49  1  0.901084  0.500000  0.500000  1
  Cl  Cl50  1  0.788399  0.500000  0.809405  1
  Cl  Cl51  1  0.400039  0.500000  0.673210  1
  Cl  Cl52  1  0.400039  0.500000  0.326790  1
  Cl  Cl53  1  0.599961  0.000000  0.173210  1
  Cl  Cl54  1  0.098916  0.000000  0.000000  1
  Cl  Cl55  1  0.788399  0.500000  0.190595  1
  O  O56  1  0.132109  0.674523  0.261754  1
  O  O57  1  0.350005  0.777683  0.197211  1
  O  O58  1  0.089067  0.806588  0.854342  1
  O  O59  1  0.205260  0.613012  0.877363  1
  O  O60  1  0.867891  0.825477  0.761754  1
  O  O61  1  0.288983  0.903574  0.500000  1
  O  O62  1  0.450815  0.500000  0.096102  1
  O  O63  1  0.833735  0.826331  0.090733  1
  O  O64  1  0.166265  0.326331  0.590733  1
  O  O65  1  0.910933  0.306588  0.354342  1
  O  O66  1  0.711017  0.596426  0.000000  1
  O  O67  1  0.794740  0.113012  0.377363  1
  O  O68  1  0.969021  0.000000  0.162996  1
  O  O69  1  0.910933  0.306588  0.645658  1
  O  O70  1  0.794740  0.886988  0.622637  1
  O  O71  1  0.649995  0.277683  0.697211  1
  O  O72  1  0.350005  0.222317  0.802789  1
  O  O73  1  0.794740  0.113012  0.622637  1
  O  O74  1  0.649995  0.277683  0.302789  1
  O  O75  1  0.711017  0.403574  0.000000  1
  O  O76  1  0.132109  0.674523  0.738246  1
  O  O77  1  0.205260  0.386988  0.122637  1
  O  O78  1  0.833735  0.173669  0.090733  1
  O  O79  1  0.549185  0.000000  0.596102  1
  O  O80  1  0.089067  0.193412  0.145658  1
  O  O81  1  0.350005  0.222317  0.197211  1
  O  O82  1  0.166265  0.673669  0.590733  1
  O  O83  1  0.030979  0.500000  0.337004  1
  O  O84  1  0.288983  0.096426  0.500000  1
  O  O85  1  0.833735  0.826331  0.909267  1
  O  O86  1  0.450815  0.500000  0.903898  1
  O  O87  1  0.089067  0.806588  0.145658  1
  O  O88  1  0.205260  0.386988  0.877363  1
  O  O89  1  0.867891  0.174523  0.761754  1
  O  O90  1  0.132109  0.325477  0.738246  1
  O  O91  1  0.910933  0.693412  0.354342  1
  O  O92  1  0.649995  0.722317  0.302789  1
  O  O93  1  0.769069  0.000000  0.500000  1
  O  O94  1  0.867891  0.825477  0.238246  1
  O  O95  1  0.649995  0.722317  0.697211  1
  O  O96  1  0.910933  0.693412  0.645658  1
  O  O97  1  0.794740  0.886988  0.377363  1
  O  O98  1  0.969021  0.000000  0.837004  1
  O  O99  1  0.132109  0.325477  0.261754  1
  O  O100  1  0.085572  0.000000  0.500000  1
  O  O101  1  0.833735  0.173669  0.909267  1
  O  O102  1  0.230931  0.500000  0.000000  1
  O  O103  1  0.350005  0.777683  0.802789  1
  O  O104  1  0.205260  0.613012  0.122637  1
  O  O105  1  0.914428  0.500000  0.000000  1
  O  O106  1  0.030979  0.500000  0.662996  1
  O  O107  1  0.166265  0.673669  0.409267  1
  O  O108  1  0.867891  0.174523  0.238246  1
  O  O109  1  0.089067  0.193412  0.854342  1
  O  O110  1  0.549185  0.000000  0.403898  1
  O  O111  1  0.166265  0.326331  0.409267  1
