# generated using pymatgen
data_TaNi3
_symmetry_space_group_name_H-M   'P 1'
_cell_length_a   4.53954885
_cell_length_b   5.11739594
_cell_length_c   8.63239373
_cell_angle_alpha   90.00000000
_cell_angle_beta   100.82077340
_cell_angle_gamma   90.00000000
_symmetry_Int_Tables_number   1
_chemical_formula_structural   TaNi3
_chemical_formula_sum   'Ta4 Ni12'
_cell_volume   196.97059436
_cell_formula_units_Z   4
loop_
 _symmetry_equiv_pos_site_id
 _symmetry_equiv_pos_as_xyz
  1  'x, y, z'
loop_
 _atom_site_type_symbol
 _atom_site_label
 _atom_site_symmetry_multiplicity
 _atom_site_fract_x
 _atom_site_fract_y
 _atom_site_fract_z
 _atom_site_occupancy
  Ta  Ta0  1  0.611845  0.250000  0.378154  1
  Ta  Ta1  1  0.388155  0.750000  0.621846  1
  Ta  Ta2  1  0.790284  0.250000  0.872401  1
  Ta  Ta3  1  0.209716  0.750000  0.127599  1
  Ni  Ni4  1  0.704717  0.001303  0.123372  1
  Ni  Ni5  1  0.113596  0.002502  0.373410  1
  Ni  Ni6  1  0.200927  0.250000  0.126430  1
  Ni  Ni7  1  0.886404  0.502502  0.626590  1
  Ni  Ni8  1  0.367906  0.250000  0.623926  1
  Ni  Ni9  1  0.704717  0.498697  0.123372  1
  Ni  Ni10  1  0.632094  0.750000  0.376074  1
  Ni  Ni11  1  0.295283  0.998697  0.876628  1
  Ni  Ni12  1  0.295283  0.501303  0.876628  1
  Ni  Ni13  1  0.886404  0.997498  0.626590  1
  Ni  Ni14  1  0.799073  0.750000  0.873570  1
  Ni  Ni15  1  0.113596  0.497498  0.373410  1
