# generated using pymatgen
data_BaThBr6
_symmetry_space_group_name_H-M   'P 1'
_cell_length_a   4.38756383
_cell_length_b   9.66950386
_cell_length_c   13.42085963
_cell_angle_alpha   90.00000000
_cell_angle_beta   90.00000000
_cell_angle_gamma   90.00000000
_symmetry_Int_Tables_number   1
_chemical_formula_structural   BaThBr6
_chemical_formula_sum   'Ba2 Th2 Br12'
_cell_volume   569.38755783
_cell_formula_units_Z   2
loop_
 _symmetry_equiv_pos_site_id
 _symmetry_equiv_pos_as_xyz
  1  'x, y, z'
loop_
 _atom_site_type_symbol
 _atom_site_label
 _atom_site_symmetry_multiplicity
 _atom_site_fract_x
 _atom_site_fract_y
 _atom_site_fract_z
 _atom_site_occupancy
  Ba  Ba0  1  0.500000  0.250000  0.264168  1
  Ba  Ba1  1  0.500000  0.750000  0.735832  1
  Th  Th2  1  0.000000  0.250000  0.751327  1
  Th  Th3  1  0.000000  0.750000  0.248673  1
  Br  Br4  1  0.000000  0.532423  0.846246  1
  Br  Br5  1  0.000000  0.250000  0.431627  1
  Br  Br6  1  0.500000  0.750000  0.099519  1
  Br  Br7  1  0.500000  0.250000  0.900481  1
  Br  Br8  1  0.000000  0.750000  0.568373  1
  Br  Br9  1  0.500000  0.918295  0.350187  1
  Br  Br10  1  0.000000  0.967577  0.846246  1
  Br  Br11  1  0.000000  0.467577  0.153754  1
  Br  Br12  1  0.500000  0.081705  0.649813  1
  Br  Br13  1  0.500000  0.418295  0.649813  1
  Br  Br14  1  0.000000  0.032423  0.153754  1
  Br  Br15  1  0.500000  0.581705  0.350187  1
