# generated using pymatgen
data_Nd2Zn15Ge2
_symmetry_space_group_name_H-M   'P 1'
_cell_length_a   6.89838108
_cell_length_b   6.89838108
_cell_length_c   6.89838108
_cell_angle_alpha   84.88699592
_cell_angle_beta   84.88699592
_cell_angle_gamma   84.88699592
_symmetry_Int_Tables_number   1
_chemical_formula_structural   Nd2Zn15Ge2
_chemical_formula_sum   'Nd2 Zn15 Ge2'
_cell_volume   324.57835470
_cell_formula_units_Z   1
loop_
 _symmetry_equiv_pos_site_id
 _symmetry_equiv_pos_as_xyz
  1  'x, y, z'
loop_
 _atom_site_type_symbol
 _atom_site_label
 _atom_site_symmetry_multiplicity
 _atom_site_fract_x
 _atom_site_fract_y
 _atom_site_fract_z
 _atom_site_occupancy
  Nd  Nd0  1  0.666427  0.666427  0.666427  1
  Nd  Nd1  1  0.333573  0.333573  0.333573  1
  Zn  Zn2  1  0.500000  0.000000  0.000000  1
  Zn  Zn3  1  0.000000  0.500000  1.000000  1
  Zn  Zn4  1  0.000000  0.000000  0.500000  1
  Zn  Zn5  1  1.000000  0.691171  0.308829  1
  Zn  Zn6  1  0.308829  0.000000  0.691171  1
  Zn  Zn7  1  0.691171  0.308829  0.000000  1
  Zn  Zn8  1  0.000000  0.308829  0.691171  1
  Zn  Zn9  1  0.691171  0.000000  0.308829  1
  Zn  Zn10  1  0.308829  0.691171  0.000000  1
  Zn  Zn11  1  0.351589  0.351589  0.829462  1
  Zn  Zn12  1  0.829462  0.351589  0.351589  1
  Zn  Zn13  1  0.351589  0.829462  0.351589  1
  Zn  Zn14  1  0.648411  0.170538  0.648411  1
  Zn  Zn15  1  0.648411  0.648411  0.170538  1
  Zn  Zn16  1  0.170538  0.648411  0.648411  1
  Ge  Ge17  1  0.900864  0.900864  0.900864  1
  Ge  Ge18  1  0.099136  0.099136  0.099136  1
