# generated using pymatgen
data_Tl2Cd2(SO4)3
_symmetry_space_group_name_H-M   'P 1'
_cell_length_a   10.52294520
_cell_length_b   10.54490573
_cell_length_c   10.63212966
_cell_angle_alpha   90.00000000
_cell_angle_beta   90.00000000
_cell_angle_gamma   90.00000000
_symmetry_Int_Tables_number   1
_chemical_formula_structural   Tl2Cd2(SO4)3
_chemical_formula_sum   'Tl8 Cd8 S12 O48'
_cell_volume   1179.77794885
_cell_formula_units_Z   4
loop_
 _symmetry_equiv_pos_site_id
 _symmetry_equiv_pos_as_xyz
  1  'x, y, z'
loop_
 _atom_site_type_symbol
 _atom_site_label
 _atom_site_symmetry_multiplicity
 _atom_site_fract_x
 _atom_site_fract_y
 _atom_site_fract_z
 _atom_site_occupancy
  Tl  Tl0  1  0.290019  0.191697  0.802535  1
  Tl  Tl1  1  0.577638  0.062103  0.433533  1
  Tl  Tl2  1  0.209981  0.808303  0.302535  1
  Tl  Tl3  1  0.790019  0.308303  0.197465  1
  Tl  Tl4  1  0.422362  0.562103  0.066467  1
  Tl  Tl5  1  0.077638  0.437897  0.566467  1
  Tl  Tl6  1  0.709981  0.691697  0.697465  1
  Tl  Tl7  1  0.922362  0.937897  0.933533  1
  Cd  Cd8  1  0.350967  0.828907  0.657306  1
  Cd  Cd9  1  0.065330  0.582591  0.908719  1
  Cd  Cd10  1  0.934670  0.082591  0.591281  1
  Cd  Cd11  1  0.850967  0.671093  0.342694  1
  Cd  Cd12  1  0.434670  0.417409  0.408719  1
  Cd  Cd13  1  0.565330  0.917409  0.091281  1
  Cd  Cd14  1  0.649033  0.328907  0.842694  1
  Cd  Cd15  1  0.149033  0.171093  0.157306  1
  S  S16  1  0.244076  0.118192  0.463740  1
  S  S17  1  0.369224  0.511304  0.740206  1
  S  S18  1  0.965793  0.274357  0.877239  1
  S  S19  1  0.034207  0.774357  0.622761  1
  S  S20  1  0.869224  0.988696  0.259794  1
  S  S21  1  0.744076  0.381808  0.536260  1
  S  S22  1  0.130776  0.488696  0.240206  1
  S  S23  1  0.534207  0.725643  0.377239  1
  S  S24  1  0.630776  0.011304  0.759794  1
  S  S25  1  0.255924  0.881808  0.963740  1
  S  S26  1  0.465793  0.225643  0.122761  1
  S  S27  1  0.755924  0.618192  0.036260  1
  O  O28  1  0.808935  0.487620  0.469852  1
  O  O29  1  0.164471  0.776429  0.946059  1
  O  O30  1  0.335529  0.223571  0.446059  1
  O  O31  1  0.698747  0.430480  0.661174  1
  O  O32  1  0.450333  0.423199  0.815733  1
  O  O33  1  0.333758  0.253650  0.076930  1
  O  O34  1  0.666242  0.753650  0.423070  1
  O  O35  1  0.497127  0.819985  0.279188  1
  O  O36  1  0.078798  0.357489  0.252891  1
  O  O37  1  0.421202  0.642511  0.752891  1
  O  O38  1  0.002873  0.180015  0.779188  1
  O  O39  1  0.136695  0.530200  0.106614  1
  O  O40  1  0.737565  0.996221  0.207408  1
  O  O41  1  0.191065  0.987620  0.030148  1
  O  O42  1  0.470043  0.094591  0.176607  1
  O  O43  1  0.166242  0.746350  0.576930  1
  O  O44  1  0.833758  0.246350  0.923070  1
  O  O45  1  0.529957  0.594591  0.323393  1
  O  O46  1  0.633025  0.334858  0.461486  1
  O  O47  1  0.578798  0.142511  0.747109  1
  O  O48  1  0.549667  0.923199  0.684267  1
  O  O49  1  0.049667  0.576801  0.315733  1
  O  O50  1  0.943215  0.765263  0.517013  1
  O  O51  1  0.691065  0.512380  0.969852  1
  O  O52  1  0.502873  0.319985  0.220812  1
  O  O53  1  0.363305  0.469800  0.606614  1
  O  O54  1  0.950333  0.076801  0.184267  1
  O  O55  1  0.863305  0.030200  0.393386  1
  O  O56  1  0.801253  0.569520  0.161174  1
  O  O57  1  0.997127  0.680015  0.720812  1
  O  O58  1  0.664471  0.723571  0.053941  1
  O  O59  1  0.301253  0.930480  0.838826  1
  O  O60  1  0.970043  0.405409  0.823393  1
  O  O61  1  0.262435  0.496221  0.292592  1
  O  O62  1  0.133025  0.165142  0.538514  1
  O  O63  1  0.198747  0.069520  0.338826  1
  O  O64  1  0.443215  0.734737  0.482987  1
  O  O65  1  0.921202  0.857489  0.247109  1
  O  O66  1  0.237565  0.503779  0.792592  1
  O  O67  1  0.866975  0.665142  0.961486  1
  O  O68  1  0.366975  0.834858  0.038514  1
  O  O69  1  0.056785  0.265263  0.982987  1
  O  O70  1  0.762435  0.003779  0.707408  1
  O  O71  1  0.308935  0.012380  0.530148  1
  O  O72  1  0.636695  0.969800  0.893386  1
  O  O73  1  0.835529  0.276429  0.553941  1
  O  O74  1  0.029957  0.905409  0.676607  1
  O  O75  1  0.556785  0.234737  0.017013  1
