# generated using pymatgen
data_Er2Te4O11
_symmetry_space_group_name_H-M   'P 1'
_cell_length_a   6.72543633
_cell_length_b   6.72543633
_cell_length_c   16.25693908
_cell_angle_alpha   75.89571265
_cell_angle_beta   104.10428735
_cell_angle_gamma   135.03124946
_symmetry_Int_Tables_number   1
_chemical_formula_structural   Er2Te4O11
_chemical_formula_sum   'Er4 Te8 O22'
_cell_volume   501.27114583
_cell_formula_units_Z   2
loop_
 _symmetry_equiv_pos_site_id
 _symmetry_equiv_pos_as_xyz
  1  'x, y, z'
loop_
 _atom_site_type_symbol
 _atom_site_label
 _atom_site_symmetry_multiplicity
 _atom_site_fract_x
 _atom_site_fract_y
 _atom_site_fract_z
 _atom_site_occupancy
  Er  Er0  1  0.631395  0.870452  0.962962  1
  Er  Er1  1  0.368605  0.129548  0.037038  1
  Er  Er2  1  0.129548  0.368605  0.462962  1
  Er  Er3  1  0.870452  0.631395  0.537038  1
  Te  Te4  1  0.844687  0.589619  0.875054  1
  Te  Te5  1  0.157879  0.402152  0.802185  1
  Te  Te6  1  0.589619  0.844687  0.624946  1
  Te  Te7  1  0.842121  0.597848  0.197815  1
  Te  Te8  1  0.597848  0.842121  0.302185  1
  Te  Te9  1  0.155313  0.410381  0.124946  1
  Te  Te10  1  0.410381  0.155313  0.375054  1
  Te  Te11  1  0.402152  0.157879  0.697815  1
  O  O12  1  0.909183  0.207606  0.333599  1
  O  O13  1  0.808934  0.314953  0.127112  1
  O  O14  1  0.191066  0.685047  0.872888  1
  O  O15  1  0.245508  0.661184  0.551627  1
  O  O16  1  0.207606  0.909183  0.166401  1
  O  O17  1  0.314953  0.808934  0.372888  1
  O  O18  1  0.090817  0.792394  0.666401  1
  O  O19  1  0.035949  0.173492  0.044371  1
  O  O20  1  0.826508  0.964051  0.544371  1
  O  O21  1  0.338816  0.754492  0.051627  1
  O  O22  1  0.661184  0.245508  0.948373  1
  O  O23  1  0.854358  0.854358  0.250000  1
  O  O24  1  0.400799  0.449171  0.904753  1
  O  O25  1  0.685047  0.191066  0.627112  1
  O  O26  1  0.599201  0.550829  0.095247  1
  O  O27  1  0.550829  0.599201  0.404753  1
  O  O28  1  0.145642  0.145642  0.750000  1
  O  O29  1  0.449171  0.400799  0.595247  1
  O  O30  1  0.754492  0.338816  0.448373  1
  O  O31  1  0.173492  0.035949  0.455629  1
  O  O32  1  0.964051  0.826508  0.955629  1
  O  O33  1  0.792394  0.090817  0.833599  1
