# generated using pymatgen
data_SbP2O7
_symmetry_space_group_name_H-M   'P 1'
_cell_length_a   8.98044253
_cell_length_b   5.28243846
_cell_length_c   13.88389521
_cell_angle_alpha   90.00000000
_cell_angle_beta   116.39561402
_cell_angle_gamma   90.00000000
_symmetry_Int_Tables_number   1
_chemical_formula_structural   SbP2O7
_chemical_formula_sum   'Sb4 P8 O28'
_cell_volume   589.96777315
_cell_formula_units_Z   4
loop_
 _symmetry_equiv_pos_site_id
 _symmetry_equiv_pos_as_xyz
  1  'x, y, z'
loop_
 _atom_site_type_symbol
 _atom_site_label
 _atom_site_symmetry_multiplicity
 _atom_site_fract_x
 _atom_site_fract_y
 _atom_site_fract_z
 _atom_site_occupancy
  Sb  Sb0  1  0.268648  0.238960  0.027577  1
  Sb  Sb1  1  0.731352  0.738960  0.472423  1
  Sb  Sb2  1  0.268648  0.261040  0.527577  1
  Sb  Sb3  1  0.731352  0.761040  0.972423  1
  P  P4  1  0.173144  0.750716  0.141289  1
  P  P5  1  0.692078  0.234764  0.620864  1
  P  P6  1  0.826856  0.250716  0.358711  1
  P  P7  1  0.692078  0.265236  0.120864  1
  P  P8  1  0.307922  0.734764  0.879136  1
  P  P9  1  0.173144  0.749284  0.641289  1
  P  P10  1  0.307922  0.765236  0.379136  1
  P  P11  1  0.826856  0.249284  0.858711  1
  O  O12  1  0.242725  0.019258  0.144001  1
  O  O13  1  0.288742  0.544633  0.134071  1
  O  O14  1  0.472750  0.665174  0.385612  1
  O  O15  1  0.687764  0.951166  0.595366  1
  O  O16  1  0.828872  0.278328  0.743705  1
  O  O17  1  0.006233  0.283187  0.941859  1
  O  O18  1  0.760209  0.389206  0.555566  1
  O  O19  1  0.527250  0.165174  0.114388  1
  O  O20  1  0.711258  0.044633  0.365929  1
  O  O21  1  0.757275  0.519258  0.355999  1
  O  O22  1  0.239791  0.889206  0.944434  1
  O  O23  1  0.993767  0.783187  0.558141  1
  O  O24  1  0.687764  0.548834  0.095366  1
  O  O25  1  0.171128  0.778328  0.756295  1
  O  O26  1  0.828872  0.221672  0.243705  1
  O  O27  1  0.312236  0.451166  0.904634  1
  O  O28  1  0.006233  0.216813  0.441859  1
  O  O29  1  0.760209  0.110794  0.055566  1
  O  O30  1  0.242725  0.480742  0.644001  1
  O  O31  1  0.288742  0.955367  0.634071  1
  O  O32  1  0.472750  0.834826  0.885612  1
  O  O33  1  0.239791  0.610794  0.444434  1
  O  O34  1  0.993767  0.716813  0.058141  1
  O  O35  1  0.171128  0.721672  0.256295  1
  O  O36  1  0.312236  0.048834  0.404634  1
  O  O37  1  0.527250  0.334826  0.614388  1
  O  O38  1  0.711258  0.455367  0.865929  1
  O  O39  1  0.757275  0.980742  0.855999  1
