# generated using pymatgen
data_KNaS2O7
_symmetry_space_group_name_H-M   'P 1'
_cell_length_a   5.98786539
_cell_length_b   7.34750986
_cell_length_c   7.59667768
_cell_angle_alpha   101.50331738
_cell_angle_beta   90.12623995
_cell_angle_gamma   94.39604517
_symmetry_Int_Tables_number   1
_chemical_formula_structural   KNaS2O7
_chemical_formula_sum   'K2 Na2 S4 O14'
_cell_volume   326.49335550
_cell_formula_units_Z   2
loop_
 _symmetry_equiv_pos_site_id
 _symmetry_equiv_pos_as_xyz
  1  'x, y, z'
loop_
 _atom_site_type_symbol
 _atom_site_label
 _atom_site_symmetry_multiplicity
 _atom_site_fract_x
 _atom_site_fract_y
 _atom_site_fract_z
 _atom_site_occupancy
  K  K0  1  0.225543  0.776724  0.431316  1
  K  K1  1  0.774457  0.223276  0.568684  1
  Na  Na2  1  0.208141  0.644337  0.897922  1
  Na  Na3  1  0.791859  0.355663  0.102078  1
  S  S4  1  0.716323  0.725070  0.697430  1
  S  S5  1  0.724291  0.826113  0.098055  1
  S  S6  1  0.275709  0.173887  0.901945  1
  S  S7  1  0.283677  0.274930  0.302570  1
  O  O8  1  0.738827  0.876330  0.892560  1
  O  O9  1  0.500212  0.261315  0.887499  1
  O  O10  1  0.900750  0.699468  0.107521  1
  O  O11  1  0.503236  0.376363  0.307287  1
  O  O12  1  0.261173  0.123670  0.107440  1
  O  O13  1  0.499788  0.738685  0.112501  1
  O  O14  1  0.099250  0.300532  0.892479  1
  O  O15  1  0.496764  0.623637  0.692713  1
  O  O16  1  0.097477  0.393738  0.305490  1
  O  O17  1  0.260207  0.149046  0.428069  1
  O  O18  1  0.231998  0.988091  0.794672  1
  O  O19  1  0.739793  0.850954  0.571931  1
  O  O20  1  0.902523  0.606262  0.694510  1
  O  O21  1  0.768002  0.011909  0.205328  1
