# generated using pymatgen
data_K2Ag4Se3
_symmetry_space_group_name_H-M   'P 1'
_cell_length_a   9.37836884
_cell_length_b   9.37836884
_cell_length_c   12.06446185
_cell_angle_alpha   72.21764717
_cell_angle_beta   107.78235283
_cell_angle_gamma   152.28021587
_symmetry_Int_Tables_number   1
_chemical_formula_structural   K2Ag4Se3
_chemical_formula_sum   'K4 Ag8 Se6'
_cell_volume   468.52020083
_cell_formula_units_Z   2
loop_
 _symmetry_equiv_pos_site_id
 _symmetry_equiv_pos_as_xyz
  1  'x, y, z'
loop_
 _atom_site_type_symbol
 _atom_site_label
 _atom_site_symmetry_multiplicity
 _atom_site_fract_x
 _atom_site_fract_y
 _atom_site_fract_z
 _atom_site_occupancy
  K  K0  1  0.186066  0.813934  0.344161  1
  K  K1  1  0.813934  0.186066  0.655839  1
  K  K2  1  0.663739  0.336261  0.838539  1
  K  K3  1  0.336261  0.663739  0.161461  1
  Ag  Ag4  1  0.409199  0.590801  0.483732  1
  Ag  Ag5  1  0.992308  0.007692  0.122522  1
  Ag  Ag6  1  0.982151  0.017849  0.370268  1
  Ag  Ag7  1  0.410521  0.589479  0.912037  1
  Ag  Ag8  1  0.590801  0.409199  0.516268  1
  Ag  Ag9  1  0.589479  0.410521  0.087963  1
  Ag  Ag10  1  0.017849  0.982151  0.629732  1
  Ag  Ag11  1  0.007692  0.992308  0.877478  1
  Se  Se12  1  0.145012  0.854988  0.040091  1
  Se  Se13  1  0.838344  0.161656  0.383776  1
  Se  Se14  1  0.534134  0.465866  0.277399  1
  Se  Se15  1  0.161656  0.838344  0.616224  1
  Se  Se16  1  0.465866  0.534134  0.722601  1
  Se  Se17  1  0.854988  0.145012  0.959909  1
