# generated using pymatgen
data_Sr2RhF7
_symmetry_space_group_name_H-M   'P 1'
_cell_length_a   5.61923049
_cell_length_b   11.82805456
_cell_length_c   8.80584968
_cell_angle_alpha   90.00000000
_cell_angle_beta   90.90217015
_cell_angle_gamma   90.00000000
_symmetry_Int_Tables_number   1
_chemical_formula_structural   Sr2RhF7
_chemical_formula_sum   'Sr8 Rh4 F28'
_cell_volume   585.20441440
_cell_formula_units_Z   4
loop_
 _symmetry_equiv_pos_site_id
 _symmetry_equiv_pos_as_xyz
  1  'x, y, z'
loop_
 _atom_site_type_symbol
 _atom_site_label
 _atom_site_symmetry_multiplicity
 _atom_site_fract_x
 _atom_site_fract_y
 _atom_site_fract_z
 _atom_site_occupancy
  Sr  Sr0  1  0.223244  0.558311  0.152728  1
  Sr  Sr1  1  0.776756  0.058311  0.347272  1
  Sr  Sr2  1  0.776756  0.441689  0.847272  1
  Sr  Sr3  1  0.223244  0.941689  0.652728  1
  Sr  Sr4  1  0.767992  0.707277  0.448004  1
  Sr  Sr5  1  0.232008  0.207277  0.051996  1
  Sr  Sr6  1  0.232008  0.292723  0.551996  1
  Sr  Sr7  1  0.767992  0.792723  0.948004  1
  Rh  Rh8  1  0.310847  0.867620  0.181464  1
  Rh  Rh9  1  0.689153  0.367620  0.318536  1
  Rh  Rh10  1  0.689153  0.132380  0.818536  1
  Rh  Rh11  1  0.310847  0.632380  0.681464  1
  F  F12  1  0.107026  0.394134  0.009403  1
  F  F13  1  0.892974  0.894134  0.490597  1
  F  F14  1  0.892974  0.605866  0.990597  1
  F  F15  1  0.107026  0.105866  0.509403  1
  F  F16  1  0.132939  0.483863  0.677268  1
  F  F17  1  0.867061  0.983863  0.822732  1
  F  F18  1  0.867061  0.516137  0.322732  1
  F  F19  1  0.132939  0.016137  0.177268  1
  F  F20  1  0.385428  0.445309  0.370834  1
  F  F21  1  0.614572  0.945309  0.129166  1
  F  F22  1  0.614572  0.554691  0.629166  1
  F  F23  1  0.385428  0.054691  0.870834  1
  F  F24  1  0.583971  0.398607  0.102315  1
  F  F25  1  0.416029  0.898607  0.397685  1
  F  F26  1  0.416029  0.601393  0.897685  1
  F  F27  1  0.583971  0.101393  0.602315  1
  F  F28  1  0.765203  0.163561  0.037934  1
  F  F29  1  0.234797  0.663561  0.462066  1
  F  F30  1  0.234797  0.836439  0.962066  1
  F  F31  1  0.765203  0.336439  0.537934  1
  F  F32  1  0.509770  0.723453  0.189127  1
  F  F33  1  0.490230  0.223453  0.310873  1
  F  F34  1  0.490230  0.276547  0.810873  1
  F  F35  1  0.509770  0.776547  0.689127  1
  F  F36  1  0.011243  0.726290  0.715047  1
  F  F37  1  0.988757  0.226290  0.784953  1
  F  F38  1  0.988757  0.273710  0.284953  1
  F  F39  1  0.011243  0.773710  0.215047  1
