# generated using pymatgen
data_CeCrS2O
_symmetry_space_group_name_H-M   'P 1'
_cell_length_a   5.95918358
_cell_length_b   5.95918358
_cell_length_c   8.02688678
_cell_angle_alpha   89.79610637
_cell_angle_beta   90.20389363
_cell_angle_gamma   143.03731893
_symmetry_Int_Tables_number   1
_chemical_formula_structural   CeCrS2O
_chemical_formula_sum   'Ce2 Cr2 S4 O2'
_cell_volume   171.39770192
_cell_formula_units_Z   2
loop_
 _symmetry_equiv_pos_site_id
 _symmetry_equiv_pos_as_xyz
  1  'x, y, z'
loop_
 _atom_site_type_symbol
 _atom_site_label
 _atom_site_symmetry_multiplicity
 _atom_site_fract_x
 _atom_site_fract_y
 _atom_site_fract_z
 _atom_site_occupancy
  Ce  Ce0  1  0.734682  0.265318  0.706613  1
  Ce  Ce1  1  0.265318  0.734682  0.293387  1
  Cr  Cr2  1  0.000000  0.000000  0.500000  1
  Cr  Cr3  1  0.500000  0.500000  0.000000  1
  S  S4  1  0.451204  0.548796  0.702289  1
  S  S5  1  0.858759  0.141241  0.034777  1
  S  S6  1  0.141241  0.858759  0.965223  1
  S  S7  1  0.548796  0.451204  0.297711  1
  O  O8  1  0.173612  0.826388  0.566820  1
  O  O9  1  0.826388  0.173612  0.433180  1
