# generated using pymatgen
data_SiC
_symmetry_space_group_name_H-M   'P 1'
_cell_length_a   3.09465474
_cell_length_b   3.09465474
_cell_length_c   25.30910003
_cell_angle_alpha   90.00000000
_cell_angle_beta   90.00000000
_cell_angle_gamma   120.00000000
_symmetry_Int_Tables_number   1
_chemical_formula_structural   SiC
_chemical_formula_sum   'Si10 C10'
_cell_volume   209.90932933
_cell_formula_units_Z   10
loop_
 _symmetry_equiv_pos_site_id
 _symmetry_equiv_pos_as_xyz
  1  'x, y, z'
loop_
 _atom_site_type_symbol
 _atom_site_label
 _atom_site_symmetry_multiplicity
 _atom_site_fract_x
 _atom_site_fract_y
 _atom_site_fract_z
 _atom_site_occupancy
  Si  Si0  1  0.000000  0.000000  0.199918  1
  Si  Si1  1  0.000000  0.000000  0.399954  1
  Si  Si2  1  0.333333  0.666667  0.299981  1
  Si  Si3  1  0.000000  0.000000  0.599959  1
  Si  Si4  1  0.333333  0.666667  0.999969  1
  Si  Si5  1  0.333333  0.666667  0.699980  1
  Si  Si6  1  0.666667  0.333333  0.899905  1
  Si  Si7  1  0.000000  0.000000  0.800023  1
  Si  Si8  1  0.666667  0.333333  0.100016  1
  Si  Si9  1  0.666667  0.333333  0.499970  1
  C  C10  1  0.333333  0.666667  0.775181  1
  C  C11  1  0.333333  0.666667  0.075178  1
  C  C12  1  0.000000  0.000000  0.674890  1
  C  C13  1  0.000000  0.000000  0.274928  1
  C  C14  1  0.666667  0.333333  0.174989  1
  C  C15  1  0.666667  0.333333  0.575178  1
  C  C16  1  0.000000  0.000000  0.474889  1
  C  C17  1  0.666667  0.333333  0.974912  1
  C  C18  1  0.333333  0.666667  0.375176  1
  C  C19  1  0.000000  0.000000  0.875004  1
