# generated using pymatgen
data_Li15Au4
_symmetry_space_group_name_H-M   'P 1'
_cell_length_a   9.37532566
_cell_length_b   9.37532566
_cell_length_c   9.37532566
_cell_angle_alpha   109.47122063
_cell_angle_beta   109.47122063
_cell_angle_gamma   109.47122063
_symmetry_Int_Tables_number   1
_chemical_formula_structural   Li15Au4
_chemical_formula_sum   'Li30 Au8'
_cell_volume   634.36205240
_cell_formula_units_Z   2
loop_
 _symmetry_equiv_pos_site_id
 _symmetry_equiv_pos_as_xyz
  1  'x, y, z'
loop_
 _atom_site_type_symbol
 _atom_site_label
 _atom_site_symmetry_multiplicity
 _atom_site_fract_x
 _atom_site_fract_y
 _atom_site_fract_z
 _atom_site_occupancy
  Li  Li0  1  0.960245  0.379974  0.656442  1
  Li  Li1  1  0.696197  0.039755  0.919729  1
  Li  Li2  1  0.919729  0.696197  0.039755  1
  Li  Li3  1  0.125000  0.750000  0.875000  1
  Li  Li4  1  0.879974  0.460245  0.156442  1
  Li  Li5  1  0.276468  0.120026  0.080271  1
  Li  Li6  1  0.196197  0.419729  0.539755  1
  Li  Li7  1  0.776468  0.580271  0.620026  1
  Li  Li8  1  0.620026  0.776468  0.580271  1
  Li  Li9  1  0.419729  0.539755  0.196197  1
  Li  Li10  1  0.803803  0.723532  0.343558  1
  Li  Li11  1  0.460245  0.156442  0.879974  1
  Li  Li12  1  0.303803  0.843558  0.223532  1
  Li  Li13  1  0.120026  0.080271  0.276468  1
  Li  Li14  1  0.539755  0.196197  0.419729  1
  Li  Li15  1  0.625000  0.375000  0.250000  1
  Li  Li16  1  0.656442  0.960245  0.379974  1
  Li  Li17  1  0.875000  0.125000  0.750000  1
  Li  Li18  1  0.580271  0.620026  0.776468  1
  Li  Li19  1  0.379974  0.656442  0.960245  1
  Li  Li20  1  0.723532  0.343558  0.803803  1
  Li  Li21  1  0.080271  0.276468  0.120026  1
  Li  Li22  1  0.343558  0.803803  0.723532  1
  Li  Li23  1  0.843558  0.223532  0.303803  1
  Li  Li24  1  0.039755  0.919729  0.696197  1
  Li  Li25  1  0.156442  0.879974  0.460245  1
  Li  Li26  1  0.750000  0.875000  0.125000  1
  Li  Li27  1  0.223532  0.303803  0.843558  1
  Li  Li28  1  0.375000  0.250000  0.625000  1
  Li  Li29  1  0.250000  0.625000  0.375000  1
  Au  Au30  1  0.500000  0.000000  0.086774  1
  Au  Au31  1  0.913226  0.913226  0.913226  1
  Au  Au32  1  0.413226  0.413226  0.413226  1
  Au  Au33  1  0.000000  0.086774  0.500000  1
  Au  Au34  1  0.086774  0.500000  0.000000  1
  Au  Au35  1  0.586774  0.500000  1.000000  1
  Au  Au36  1  0.500000  0.000000  0.586774  1
  Au  Au37  1  0.000000  0.586774  0.500000  1
