# generated using pymatgen
data_HIO3
_symmetry_space_group_name_H-M   'P 1'
_cell_length_a   5.68986264
_cell_length_b   6.28102437
_cell_length_c   15.26468555
_cell_angle_alpha   90.00000000
_cell_angle_beta   90.00000000
_cell_angle_gamma   90.00000000
_symmetry_Int_Tables_number   1
_chemical_formula_structural   HIO3
_chemical_formula_sum   'H8 I8 O24'
_cell_volume   545.53186466
_cell_formula_units_Z   8
loop_
 _symmetry_equiv_pos_site_id
 _symmetry_equiv_pos_as_xyz
  1  'x, y, z'
loop_
 _atom_site_type_symbol
 _atom_site_label
 _atom_site_symmetry_multiplicity
 _atom_site_fract_x
 _atom_site_fract_y
 _atom_site_fract_z
 _atom_site_occupancy
  H  H0  1  0.141211  0.345066  0.001703  1
  H  H1  1  0.858789  0.654934  0.998297  1
  H  H2  1  0.358789  0.845066  0.001703  1
  H  H3  1  0.858789  0.845066  0.498297  1
  H  H4  1  0.141211  0.154934  0.501703  1
  H  H5  1  0.641211  0.154934  0.998297  1
  H  H6  1  0.358789  0.654934  0.501703  1
  H  H7  1  0.641211  0.345066  0.498297  1
  I  I8  1  0.004911  0.158909  0.655611  1
  I  I9  1  0.495089  0.841091  0.155611  1
  I  I10  1  0.504911  0.341091  0.344389  1
  I  I11  1  0.995089  0.841091  0.344389  1
  I  I12  1  0.004911  0.341091  0.155611  1
  I  I13  1  0.995089  0.658909  0.844389  1
  I  I14  1  0.504911  0.158909  0.844389  1
  I  I15  1  0.495089  0.658909  0.655611  1
  O  O16  1  0.746830  0.485258  0.290546  1
  O  O17  1  0.246830  0.485258  0.209454  1
  O  O18  1  0.163916  0.244588  0.052683  1
  O  O19  1  0.846054  0.943216  0.602903  1
  O  O20  1  0.753170  0.985258  0.290546  1
  O  O21  1  0.346054  0.943216  0.897097  1
  O  O22  1  0.836084  0.744588  0.447317  1
  O  O23  1  0.153946  0.056784  0.397097  1
  O  O24  1  0.153946  0.443216  0.897097  1
  O  O25  1  0.253170  0.514742  0.709454  1
  O  O26  1  0.653946  0.443216  0.602903  1
  O  O27  1  0.336084  0.755412  0.552683  1
  O  O28  1  0.746830  0.014742  0.790546  1
  O  O29  1  0.836084  0.755412  0.947317  1
  O  O30  1  0.163916  0.255412  0.552683  1
  O  O31  1  0.246830  0.014742  0.709454  1
  O  O32  1  0.336084  0.744588  0.052683  1
  O  O33  1  0.753170  0.514742  0.790546  1
  O  O34  1  0.346054  0.556784  0.397097  1
  O  O35  1  0.663916  0.244588  0.447317  1
  O  O36  1  0.846054  0.556784  0.102903  1
  O  O37  1  0.653946  0.056784  0.102903  1
  O  O38  1  0.663916  0.255412  0.947317  1
  O  O39  1  0.253170  0.985258  0.209454  1
