# generated using pymatgen
data_Cu2Mo3Se4
_symmetry_space_group_name_H-M   'P 1'
_cell_length_a   6.85871325
_cell_length_b   6.91136130
_cell_length_c   8.01230885
_cell_angle_alpha   109.25168515
_cell_angle_beta   106.81051077
_cell_angle_gamma   84.61087400
_symmetry_Int_Tables_number   1
_chemical_formula_structural   Cu2Mo3Se4
_chemical_formula_sum   'Cu4 Mo6 Se8'
_cell_volume   343.24538267
_cell_formula_units_Z   2
loop_
 _symmetry_equiv_pos_site_id
 _symmetry_equiv_pos_as_xyz
  1  'x, y, z'
loop_
 _atom_site_type_symbol
 _atom_site_label
 _atom_site_symmetry_multiplicity
 _atom_site_fract_x
 _atom_site_fract_y
 _atom_site_fract_z
 _atom_site_occupancy
  Cu  Cu0  1  0.777332  0.963228  0.064263  1
  Cu  Cu1  1  0.222668  0.036772  0.935737  1
  Cu  Cu2  1  0.463638  0.712363  0.913774  1
  Cu  Cu3  1  0.536362  0.287637  0.086226  1
  Mo  Mo4  1  0.420483  0.279499  0.546283  1
  Mo  Mo5  1  0.494335  0.988158  0.258214  1
  Mo  Mo6  1  0.505665  0.011842  0.741786  1
  Mo  Mo7  1  0.220536  0.920368  0.413093  1
  Mo  Mo8  1  0.579517  0.720501  0.453717  1
  Mo  Mo9  1  0.779464  0.079632  0.586907  1
  Se  Se10  1  0.162176  0.216054  0.703573  1
  Se  Se11  1  0.309923  0.630607  0.133430  1
  Se  Se12  1  0.705532  0.334309  0.406269  1
  Se  Se13  1  0.690077  0.369393  0.866570  1
  Se  Se14  1  0.137191  0.177717  0.229236  1
  Se  Se15  1  0.837824  0.783946  0.296427  1
  Se  Se16  1  0.862809  0.822283  0.770764  1
  Se  Se17  1  0.294468  0.665691  0.593731  1
