# generated using pymatgen
data_Al2(WO4)3
_symmetry_space_group_name_H-M   'P 1'
_cell_length_a   9.22166884
_cell_length_b   9.31193042
_cell_length_c   15.86112045
_cell_angle_alpha   90.00000000
_cell_angle_beta   125.58112818
_cell_angle_gamma   90.00000000
_symmetry_Int_Tables_number   1
_chemical_formula_structural   Al2(WO4)3
_chemical_formula_sum   'Al8 W12 O48'
_cell_volume   1107.71962565
_cell_formula_units_Z   4
loop_
 _symmetry_equiv_pos_site_id
 _symmetry_equiv_pos_as_xyz
  1  'x, y, z'
loop_
 _atom_site_type_symbol
 _atom_site_label
 _atom_site_symmetry_multiplicity
 _atom_site_fract_x
 _atom_site_fract_y
 _atom_site_fract_z
 _atom_site_occupancy
  Al  Al0  1  0.132233  0.466362  0.881625  1
  Al  Al1  1  0.867767  0.966362  0.618375  1
  Al  Al2  1  0.867767  0.533638  0.118375  1
  Al  Al3  1  0.132233  0.033638  0.381625  1
  Al  Al4  1  0.368046  0.468308  0.618120  1
  Al  Al5  1  0.631954  0.968308  0.881880  1
  Al  Al6  1  0.631954  0.531692  0.381880  1
  Al  Al7  1  0.368046  0.031692  0.118120  1
  W  W8  1  0.525583  0.250017  0.500327  1
  W  W9  1  0.474417  0.750017  0.999673  1
  W  W10  1  0.474417  0.749983  0.499673  1
  W  W11  1  0.525583  0.249983  0.000327  1
  W  W12  1  0.962049  0.116600  0.855266  1
  W  W13  1  0.037951  0.616600  0.644734  1
  W  W14  1  0.037951  0.883400  0.144734  1
  W  W15  1  0.962049  0.383400  0.355266  1
  W  W16  1  0.250296  0.117312  0.644282  1
  W  W17  1  0.749704  0.617312  0.855718  1
  W  W18  1  0.749704  0.882688  0.355718  1
  W  W19  1  0.250296  0.382688  0.144282  1
  O  O20  1  0.702647  0.119581  0.569072  1
  O  O21  1  0.297353  0.619581  0.930928  1
  O  O22  1  0.297353  0.880419  0.430928  1
  O  O23  1  0.702647  0.380419  0.069072  1
  O  O24  1  0.574735  0.374437  0.432998  1
  O  O25  1  0.425265  0.874437  0.067002  1
  O  O26  1  0.425265  0.625563  0.567002  1
  O  O27  1  0.574735  0.125563  0.932998  1
  O  O28  1  0.316053  0.162256  0.405454  1
  O  O29  1  0.683947  0.662256  0.094546  1
  O  O30  1  0.683947  0.837744  0.594546  1
  O  O31  1  0.316053  0.337744  0.905454  1
  O  O32  1  0.505514  0.344577  0.592928  1
  O  O33  1  0.494486  0.844577  0.907072  1
  O  O34  1  0.494486  0.655423  0.407072  1
  O  O35  1  0.505514  0.155423  0.092928  1
  O  O36  1  0.974166  0.306430  0.834485  1
  O  O37  1  0.025834  0.806430  0.665515  1
  O  O38  1  0.025834  0.693570  0.165515  1
  O  O39  1  0.974166  0.193570  0.334485  1
  O  O40  1  0.773161  0.088817  0.860288  1
  O  O41  1  0.226839  0.588817  0.639712  1
  O  O42  1  0.226839  0.911183  0.139712  1
  O  O43  1  0.773161  0.411183  0.360288  1
  O  O44  1  0.163412  0.066827  0.978332  1
  O  O45  1  0.836588  0.566827  0.521668  1
  O  O46  1  0.836588  0.933173  0.021668  1
  O  O47  1  0.163412  0.433173  0.478332  1
  O  O48  1  0.940825  0.007509  0.754116  1
  O  O49  1  0.059175  0.507509  0.745884  1
  O  O50  1  0.059175  0.992491  0.245884  1
  O  O51  1  0.940825  0.492491  0.254116  1
  O  O52  1  0.048953  0.089508  0.637048  1
  O  O53  1  0.951047  0.589508  0.862952  1
  O  O54  1  0.951047  0.910492  0.362952  1
  O  O55  1  0.048953  0.410492  0.137048  1
  O  O56  1  0.430805  0.009418  0.746836  1
  O  O57  1  0.569195  0.509418  0.753164  1
  O  O58  1  0.569195  0.990582  0.253164  1
  O  O59  1  0.430805  0.490582  0.246836  1
  O  O60  1  0.210200  0.067249  0.522373  1
  O  O61  1  0.789800  0.567249  0.977627  1
  O  O62  1  0.789800  0.932751  0.477627  1
  O  O63  1  0.210200  0.432751  0.022373  1
  O  O64  1  0.305969  0.306733  0.665163  1
  O  O65  1  0.694031  0.806733  0.834837  1
  O  O66  1  0.694031  0.693267  0.334837  1
  O  O67  1  0.305969  0.193267  0.165163  1
