# generated using pymatgen
data_Sr2CrCuSO3
_symmetry_space_group_name_H-M   'P 1'
_cell_length_a   3.94474714
_cell_length_b   3.94474714
_cell_length_c   15.62161931
_cell_angle_alpha   90.00000000
_cell_angle_beta   90.00000000
_cell_angle_gamma   90.00000000
_symmetry_Int_Tables_number   1
_chemical_formula_structural   Sr2CrCuSO3
_chemical_formula_sum   'Sr4 Cr2 Cu2 S2 O6'
_cell_volume   243.08848671
_cell_formula_units_Z   2
loop_
 _symmetry_equiv_pos_site_id
 _symmetry_equiv_pos_as_xyz
  1  'x, y, z'
loop_
 _atom_site_type_symbol
 _atom_site_label
 _atom_site_symmetry_multiplicity
 _atom_site_fract_x
 _atom_site_fract_y
 _atom_site_fract_z
 _atom_site_occupancy
  Sr  Sr0  1  0.000000  0.500000  0.185973  1
  Sr  Sr1  1  0.500000  0.000000  0.814027  1
  Sr  Sr2  1  0.000000  0.500000  0.413246  1
  Sr  Sr3  1  0.500000  0.000000  0.586754  1
  Cr  Cr4  1  0.500000  0.000000  0.308398  1
  Cr  Cr5  1  0.000000  0.500000  0.691602  1
  Cu  Cu6  1  0.000000  0.000000  0.000000  1
  Cu  Cu7  1  0.500000  0.500000  0.000000  1
  S  S8  1  0.500000  0.000000  0.090539  1
  S  S9  1  0.000000  0.500000  0.909461  1
  O  O10  1  0.000000  0.000000  0.290003  1
  O  O11  1  0.500000  0.500000  0.290003  1
  O  O12  1  0.500000  0.500000  0.709997  1
  O  O13  1  0.000000  0.000000  0.709997  1
  O  O14  1  0.500000  0.000000  0.431319  1
  O  O15  1  0.000000  0.500000  0.568681  1
