# generated using pymatgen
data_KTh2(PO4)3
_symmetry_space_group_name_H-M   'P 1'
_cell_length_a   9.56026672
_cell_length_b   9.56026672
_cell_length_c   8.23383209
_cell_angle_alpha   78.81059157
_cell_angle_beta   101.18940843
_cell_angle_gamma   137.63254721
_symmetry_Int_Tables_number   1
_chemical_formula_structural   KTh2(PO4)3
_chemical_formula_sum   'K2 Th4 P6 O24'
_cell_volume   496.03403883
_cell_formula_units_Z   2
loop_
 _symmetry_equiv_pos_site_id
 _symmetry_equiv_pos_as_xyz
  1  'x, y, z'
loop_
 _atom_site_type_symbol
 _atom_site_label
 _atom_site_symmetry_multiplicity
 _atom_site_fract_x
 _atom_site_fract_y
 _atom_site_fract_z
 _atom_site_occupancy
  K  K0  1  0.597586  0.597586  0.250000  1
  K  K1  1  0.402414  0.402414  0.750000  1
  Th  Th2  1  0.059356  0.751661  0.034576  1
  Th  Th3  1  0.751661  0.059356  0.465424  1
  Th  Th4  1  0.940644  0.248339  0.965424  1
  Th  Th5  1  0.248339  0.940644  0.534576  1
  P  P6  1  0.218905  0.600205  0.314946  1
  P  P7  1  0.600205  0.218905  0.185054  1
  P  P8  1  0.781095  0.399795  0.685054  1
  P  P9  1  0.399795  0.781095  0.814946  1
  P  P10  1  0.097469  0.097469  0.250000  1
  P  P11  1  0.902531  0.902531  0.750000  1
  O  O12  1  0.039588  0.896299  0.245771  1
  O  O13  1  0.896299  0.039588  0.254229  1
  O  O14  1  0.960412  0.103701  0.754229  1
  O  O15  1  0.103701  0.960412  0.745771  1
  O  O16  1  0.193656  0.245957  0.091001  1
  O  O17  1  0.245957  0.193656  0.408999  1
  O  O18  1  0.806344  0.754043  0.908999  1
  O  O19  1  0.754043  0.806344  0.591001  1
  O  O20  1  0.174237  0.725146  0.329865  1
  O  O21  1  0.725146  0.174237  0.170135  1
  O  O22  1  0.825763  0.274854  0.670135  1
  O  O23  1  0.274854  0.825763  0.829865  1
  O  O24  1  0.452358  0.736202  0.344727  1
  O  O25  1  0.736202  0.452358  0.155273  1
  O  O26  1  0.547642  0.263798  0.655273  1
  O  O27  1  0.263798  0.547642  0.844727  1
  O  O28  1  0.145033  0.551986  0.126909  1
  O  O29  1  0.551986  0.145033  0.373091  1
  O  O30  1  0.854967  0.448014  0.873091  1
  O  O31  1  0.448014  0.854967  0.626909  1
  O  O32  1  0.088397  0.396617  0.426266  1
  O  O33  1  0.396617  0.088397  0.073734  1
  O  O34  1  0.911603  0.603383  0.573734  1
  O  O35  1  0.603383  0.911603  0.926266  1
