# generated using pymatgen
data_MoP2O7
_symmetry_space_group_name_H-M   'P 1'
_cell_length_a   7.45584858
_cell_length_b   8.29899477
_cell_length_c   9.79352005
_cell_angle_alpha   90.00000000
_cell_angle_beta   111.33660183
_cell_angle_gamma   90.00000000
_symmetry_Int_Tables_number   1
_chemical_formula_structural   MoP2O7
_chemical_formula_sum   'Mo4 P8 O28'
_cell_volume   564.44953915
_cell_formula_units_Z   4
loop_
 _symmetry_equiv_pos_site_id
 _symmetry_equiv_pos_as_xyz
  1  'x, y, z'
loop_
 _atom_site_type_symbol
 _atom_site_label
 _atom_site_symmetry_multiplicity
 _atom_site_fract_x
 _atom_site_fract_y
 _atom_site_fract_z
 _atom_site_occupancy
  Mo  Mo0  1  0.267680  0.005826  0.252213  1
  Mo  Mo1  1  0.732320  0.994174  0.747787  1
  Mo  Mo2  1  0.267680  0.494174  0.752213  1
  Mo  Mo3  1  0.732320  0.505826  0.247787  1
  P  P4  1  0.677195  0.290085  0.952720  1
  P  P5  1  0.322805  0.709915  0.047280  1
  P  P6  1  0.677195  0.209915  0.452720  1
  P  P7  1  0.070396  0.259222  0.452038  1
  P  P8  1  0.322805  0.790085  0.547280  1
  P  P9  1  0.929604  0.759222  0.047962  1
  P  P10  1  0.070396  0.240778  0.952038  1
  P  P11  1  0.929604  0.740778  0.547962  1
  O  O12  1  0.185446  0.141819  0.399683  1
  O  O13  1  0.183862  0.306813  0.611930  1
  O  O14  1  0.537995  0.413028  0.851469  1
  O  O15  1  0.998978  0.408302  0.353859  1
  O  O16  1  0.884663  0.159143  0.451343  1
  O  O17  1  0.816138  0.693187  0.388070  1
  O  O18  1  0.462005  0.913028  0.648531  1
  O  O19  1  0.884663  0.340857  0.951343  1
  O  O20  1  0.462005  0.586972  0.148531  1
  O  O21  1  0.814554  0.641819  0.100317  1
  O  O22  1  0.183862  0.193187  0.111930  1
  O  O23  1  0.313636  0.691632  0.888739  1
  O  O24  1  0.636301  0.382164  0.395883  1
  O  O25  1  0.816138  0.806813  0.888070  1
  O  O26  1  0.001022  0.908302  0.146141  1
  O  O27  1  0.814554  0.858181  0.600317  1
  O  O28  1  0.115337  0.659143  0.048657  1
  O  O29  1  0.537995  0.086972  0.351469  1
  O  O30  1  0.115337  0.840857  0.548657  1
  O  O31  1  0.686364  0.191632  0.611261  1
  O  O32  1  0.363699  0.882164  0.104117  1
  O  O33  1  0.998978  0.091698  0.853859  1
  O  O34  1  0.363699  0.617836  0.604117  1
  O  O35  1  0.636301  0.117836  0.895883  1
  O  O36  1  0.185446  0.358181  0.899683  1
  O  O37  1  0.001022  0.591698  0.646141  1
  O  O38  1  0.313636  0.808368  0.388739  1
  O  O39  1  0.686364  0.308368  0.111261  1
