# generated using pymatgen
data_EuTiClO3
_symmetry_space_group_name_H-M   'P 1'
_cell_length_a   5.30831518
_cell_length_b   5.30831518
_cell_length_c   10.29770763
_cell_angle_alpha   74.68986153
_cell_angle_beta   105.31013847
_cell_angle_gamma   136.56388027
_symmetry_Int_Tables_number   1
_chemical_formula_structural   EuTiClO3
_chemical_formula_sum   'Eu2 Ti2 Cl2 O6'
_cell_volume   191.27799725
_cell_formula_units_Z   2
loop_
 _symmetry_equiv_pos_site_id
 _symmetry_equiv_pos_as_xyz
  1  'x, y, z'
loop_
 _atom_site_type_symbol
 _atom_site_label
 _atom_site_symmetry_multiplicity
 _atom_site_fract_x
 _atom_site_fract_y
 _atom_site_fract_z
 _atom_site_occupancy
  Eu  Eu0  1  0.779351  0.220649  0.798112  1
  Eu  Eu1  1  0.220649  0.779351  0.201888  1
  Ti  Ti2  1  0.619175  0.380825  0.435373  1
  Ti  Ti3  1  0.380825  0.619175  0.564627  1
  Cl  Cl4  1  0.111900  0.888100  0.902776  1
  Cl  Cl5  1  0.888100  0.111900  0.097224  1
  O  O6  1  0.649384  0.350616  0.262003  1
  O  O7  1  0.576404  0.423596  0.619317  1
  O  O8  1  0.350616  0.649384  0.737997  1
  O  O9  1  0.423596  0.576404  0.380683  1
  O  O10  1  0.166884  0.833116  0.440355  1
  O  O11  1  0.833116  0.166884  0.559645  1
