# generated using pymatgen
data_SrTiSi2O7
_symmetry_space_group_name_H-M   'P 1'
_cell_length_a   7.82830617
_cell_length_b   7.82830617
_cell_length_c   7.14840858
_cell_angle_alpha   90.00000000
_cell_angle_beta   90.00000000
_cell_angle_gamma   139.55948494
_symmetry_Int_Tables_number   1
_chemical_formula_structural   SrTiSi2O7
_chemical_formula_sum   'Sr2 Ti2 Si4 O14'
_cell_volume   284.15867010
_cell_formula_units_Z   2
loop_
 _symmetry_equiv_pos_site_id
 _symmetry_equiv_pos_as_xyz
  1  'x, y, z'
loop_
 _atom_site_type_symbol
 _atom_site_label
 _atom_site_symmetry_multiplicity
 _atom_site_fract_x
 _atom_site_fract_y
 _atom_site_fract_z
 _atom_site_occupancy
  Sr  Sr0  1  0.198791  0.801209  0.750000  1
  Sr  Sr1  1  0.801209  0.198791  0.250000  1
  Ti  Ti2  1  0.109048  0.890952  0.250000  1
  Ti  Ti3  1  0.890952  0.109048  0.750000  1
  Si  Si4  1  0.391563  0.608437  0.475005  1
  Si  Si5  1  0.391563  0.608437  0.024995  1
  Si  Si6  1  0.608437  0.391563  0.975005  1
  Si  Si7  1  0.608437  0.391563  0.524995  1
  O  O8  1  0.638569  0.361431  0.750000  1
  O  O9  1  0.994747  0.005253  0.250000  1
  O  O10  1  0.403753  0.096735  0.061586  1
  O  O11  1  0.403753  0.096735  0.438414  1
  O  O12  1  0.096735  0.403753  0.938414  1
  O  O13  1  0.361431  0.638569  0.250000  1
  O  O14  1  0.596247  0.903265  0.938414  1
  O  O15  1  0.903265  0.596247  0.061586  1
  O  O16  1  0.500000  0.500000  0.500000  1
  O  O17  1  0.596247  0.903265  0.561586  1
  O  O18  1  0.903265  0.596247  0.438414  1
  O  O19  1  0.005253  0.994747  0.750000  1
  O  O20  1  0.096735  0.403753  0.561586  1
  O  O21  1  0.500000  0.500000  0.000000  1
