# generated using pymatgen
data_Nb3SiTe6
_symmetry_space_group_name_H-M   'P 1'
_cell_length_a   6.41852624
_cell_length_b   11.63838900
_cell_length_c   14.94060416
_cell_angle_alpha   90.00000000
_cell_angle_beta   90.00000000
_cell_angle_gamma   90.00000000
_symmetry_Int_Tables_number   1
_chemical_formula_structural   Nb3SiTe6
_chemical_formula_sum   'Nb12 Si4 Te24'
_cell_volume   1116.08263105
_cell_formula_units_Z   4
loop_
 _symmetry_equiv_pos_site_id
 _symmetry_equiv_pos_as_xyz
  1  'x, y, z'
loop_
 _atom_site_type_symbol
 _atom_site_label
 _atom_site_symmetry_multiplicity
 _atom_site_fract_x
 _atom_site_fract_y
 _atom_site_fract_z
 _atom_site_occupancy
  Nb  Nb0  1  0.167012  0.835960  0.750000  1
  Nb  Nb1  1  0.667012  0.664040  0.750000  1
  Nb  Nb2  1  0.332988  0.335960  0.250000  1
  Nb  Nb3  1  0.832988  0.164040  0.250000  1
  Nb  Nb4  1  0.697784  0.966261  0.750000  1
  Nb  Nb5  1  0.197784  0.533739  0.750000  1
  Nb  Nb6  1  0.802216  0.466261  0.250000  1
  Nb  Nb7  1  0.302216  0.033739  0.250000  1
  Nb  Nb8  1  0.968399  0.311870  0.750000  1
  Nb  Nb9  1  0.468399  0.188130  0.750000  1
  Nb  Nb10  1  0.531601  0.811870  0.250000  1
  Nb  Nb11  1  0.031601  0.688130  0.250000  1
  Si  Si12  1  0.075383  0.074795  0.750000  1
  Si  Si13  1  0.575383  0.425205  0.750000  1
  Si  Si14  1  0.424617  0.574795  0.250000  1
  Si  Si15  1  0.924617  0.925205  0.250000  1
  Te  Te16  1  0.849042  0.816801  0.621904  1
  Te  Te17  1  0.349042  0.683199  0.878096  1
  Te  Te18  1  0.650958  0.316801  0.378096  1
  Te  Te19  1  0.150958  0.183199  0.121904  1
  Te  Te20  1  0.150958  0.183199  0.378096  1
  Te  Te21  1  0.650958  0.316801  0.121904  1
  Te  Te22  1  0.349042  0.683199  0.621904  1
  Te  Te23  1  0.849042  0.816801  0.878096  1
  Te  Te24  1  0.795798  0.155152  0.624592  1
  Te  Te25  1  0.295798  0.344848  0.875408  1
  Te  Te26  1  0.704202  0.655152  0.375408  1
  Te  Te27  1  0.204202  0.844848  0.124592  1
  Te  Te28  1  0.204202  0.844848  0.375408  1
  Te  Te29  1  0.704202  0.655152  0.124592  1
  Te  Te30  1  0.295798  0.344848  0.624592  1
  Te  Te31  1  0.795798  0.155152  0.875408  1
  Te  Te32  1  0.356312  0.997828  0.627993  1
  Te  Te33  1  0.856312  0.502172  0.872007  1
  Te  Te34  1  0.143688  0.497828  0.372007  1
  Te  Te35  1  0.643688  0.002172  0.127993  1
  Te  Te36  1  0.643688  0.002172  0.372007  1
  Te  Te37  1  0.143688  0.497828  0.127993  1
  Te  Te38  1  0.856312  0.502172  0.627993  1
  Te  Te39  1  0.356312  0.997828  0.872007  1
