# generated using pymatgen
data_Sm3OsO7
_symmetry_space_group_name_H-M   'P 1'
_cell_length_a   6.56989763
_cell_length_b   6.56989763
_cell_length_c   7.54655744
_cell_angle_alpha   90.00000000
_cell_angle_beta   90.00000000
_cell_angle_gamma   110.60406598
_symmetry_Int_Tables_number   1
_chemical_formula_structural   Sm3OsO7
_chemical_formula_sum   'Sm6 Os2 O14'
_cell_volume   304.90038534
_cell_formula_units_Z   2
loop_
 _symmetry_equiv_pos_site_id
 _symmetry_equiv_pos_as_xyz
  1  'x, y, z'
loop_
 _atom_site_type_symbol
 _atom_site_label
 _atom_site_symmetry_multiplicity
 _atom_site_fract_x
 _atom_site_fract_y
 _atom_site_fract_z
 _atom_site_occupancy
  Sm  Sm0  1  0.000000  0.000000  0.000000  1
  Sm  Sm1  1  0.000000  0.000000  0.500000  1
  Sm  Sm2  1  0.477795  0.926354  0.750000  1
  Sm  Sm3  1  0.522205  0.073646  0.250000  1
  Sm  Sm4  1  0.926354  0.477795  0.750000  1
  Sm  Sm5  1  0.073646  0.522205  0.250000  1
  Os  Os6  1  0.500000  0.500000  1.000000  1
  Os  Os7  1  0.500000  0.500000  0.500000  1
  O  O8  1  0.586228  0.586228  0.750000  1
  O  O9  1  0.413772  0.413772  0.250000  1
  O  O10  1  0.843978  0.108983  0.750000  1
  O  O11  1  0.156022  0.891017  0.250000  1
  O  O12  1  0.108983  0.843978  0.750000  1
  O  O13  1  0.891017  0.156022  0.250000  1
  O  O14  1  0.438378  0.185306  0.962254  1
  O  O15  1  0.561622  0.814694  0.462254  1
  O  O16  1  0.185306  0.438378  0.962254  1
  O  O17  1  0.814694  0.561622  0.462254  1
  O  O18  1  0.438378  0.185306  0.537746  1
  O  O19  1  0.561622  0.814694  0.037746  1
  O  O20  1  0.814694  0.561622  0.037746  1
  O  O21  1  0.185306  0.438378  0.537746  1
