# generated using pymatgen
data_K2Cr3O10
_symmetry_space_group_name_H-M   'P 1'
_cell_length_a   7.65577365
_cell_length_b   18.24806062
_cell_length_c   9.83858661
_cell_angle_alpha   90.00000000
_cell_angle_beta   129.92307213
_cell_angle_gamma   90.00000000
_symmetry_Int_Tables_number   1
_chemical_formula_structural   K2Cr3O10
_chemical_formula_sum   'K8 Cr12 O40'
_cell_volume   1054.09825491
_cell_formula_units_Z   4
loop_
 _symmetry_equiv_pos_site_id
 _symmetry_equiv_pos_as_xyz
  1  'x, y, z'
loop_
 _atom_site_type_symbol
 _atom_site_label
 _atom_site_symmetry_multiplicity
 _atom_site_fract_x
 _atom_site_fract_y
 _atom_site_fract_z
 _atom_site_occupancy
  K  K0  1  0.909949  0.196343  0.436140  1
  K  K1  1  0.090051  0.696343  0.063860  1
  K  K2  1  0.090051  0.803657  0.563860  1
  K  K3  1  0.909949  0.303657  0.936140  1
  K  K4  1  0.505236  0.409289  0.371642  1
  K  K5  1  0.494764  0.909289  0.128358  1
  K  K6  1  0.494764  0.590711  0.628358  1
  K  K7  1  0.505236  0.090711  0.871642  1
  Cr  Cr8  1  0.580774  0.720477  0.037584  1
  Cr  Cr9  1  0.419226  0.220477  0.462416  1
  Cr  Cr10  1  0.419226  0.279523  0.962416  1
  Cr  Cr11  1  0.580774  0.779523  0.537584  1
  Cr  Cr12  1  0.745269  0.590796  0.331559  1
  Cr  Cr13  1  0.254731  0.090796  0.168441  1
  Cr  Cr14  1  0.254731  0.409204  0.668441  1
  Cr  Cr15  1  0.745269  0.909204  0.831559  1
  Cr  Cr16  1  0.918853  0.503466  0.156867  1
  Cr  Cr17  1  0.081147  0.003466  0.343133  1
  Cr  Cr18  1  0.081147  0.496534  0.843133  1
  Cr  Cr19  1  0.918853  0.996534  0.656867  1
  O  O20  1  0.596402  0.690108  0.889693  1
  O  O21  1  0.403598  0.190108  0.610307  1
  O  O22  1  0.403598  0.309892  0.110307  1
  O  O23  1  0.596402  0.809892  0.389693  1
  O  O24  1  0.635810  0.568760  0.421426  1
  O  O25  1  0.364190  0.068760  0.078574  1
  O  O26  1  0.364190  0.431240  0.578574  1
  O  O27  1  0.635810  0.931240  0.921426  1
  O  O28  1  0.812783  0.764353  0.189918  1
  O  O29  1  0.187217  0.264353  0.310082  1
  O  O30  1  0.187217  0.235647  0.810082  1
  O  O31  1  0.812783  0.735647  0.689918  1
  O  O32  1  0.713414  0.975251  0.451881  1
  O  O33  1  0.286586  0.475251  0.048119  1
  O  O34  1  0.874507  0.063019  0.252916  1
  O  O35  1  0.286586  0.024749  0.548119  1
  O  O36  1  0.640610  0.226063  0.054861  1
  O  O37  1  0.359390  0.726063  0.445139  1
  O  O38  1  0.359390  0.773937  0.945139  1
  O  O39  1  0.640610  0.273937  0.554861  1
  O  O40  1  0.974636  0.862526  0.967890  1
  O  O41  1  0.025364  0.362526  0.532110  1
  O  O42  1  0.025364  0.137474  0.032110  1
  O  O43  1  0.974636  0.637474  0.467890  1
  O  O44  1  0.807500  0.989663  0.776065  1
  O  O45  1  0.192500  0.489663  0.723935  1
  O  O46  1  0.192500  0.010337  0.223935  1
  O  O47  1  0.807500  0.510337  0.276065  1
  O  O48  1  0.551541  0.854799  0.644692  1
  O  O49  1  0.448459  0.354799  0.855308  1
  O  O50  1  0.448459  0.145201  0.355308  1
  O  O51  1  0.551541  0.645201  0.144692  1
  O  O52  1  0.008841  0.079254  0.671026  1
  O  O53  1  0.991159  0.579254  0.828974  1
  O  O54  1  0.991159  0.920746  0.328974  1
  O  O55  1  0.008841  0.420746  0.171026  1
  O  O56  1  0.874507  0.436981  0.752916  1
  O  O57  1  0.125493  0.936981  0.747084  1
  O  O58  1  0.125493  0.563019  0.247084  1
  O  O59  1  0.713414  0.524749  0.951881  1
