# generated using pymatgen
data_K2Sm2IrO7
_symmetry_space_group_name_H-M   'P 1'
_cell_length_a   13.07392280
_cell_length_b   13.07392280
_cell_length_c   13.07392280
_cell_angle_alpha   25.34190641
_cell_angle_beta   25.34190641
_cell_angle_gamma   25.34190641
_symmetry_Int_Tables_number   1
_chemical_formula_structural   K2Sm2IrO7
_chemical_formula_sum   'K4 Sm4 Ir2 O14'
_cell_volume   360.32331123
_cell_formula_units_Z   2
loop_
 _symmetry_equiv_pos_site_id
 _symmetry_equiv_pos_as_xyz
  1  'x, y, z'
loop_
 _atom_site_type_symbol
 _atom_site_label
 _atom_site_symmetry_multiplicity
 _atom_site_fract_x
 _atom_site_fract_y
 _atom_site_fract_z
 _atom_site_occupancy
  K  K0  1  0.912951  0.912951  0.912951  1
  K  K1  1  0.412951  0.412951  0.412951  1
  K  K2  1  0.587049  0.587049  0.587049  1
  K  K3  1  0.087049  0.087049  0.087049  1
  Sm  Sm4  1  0.309152  0.309152  0.309152  1
  Sm  Sm5  1  0.809152  0.809152  0.809152  1
  Sm  Sm6  1  0.190848  0.190848  0.190848  1
  Sm  Sm7  1  0.690848  0.690848  0.690848  1
  Ir  Ir8  1  0.000000  0.000000  0.000000  1
  Ir  Ir9  1  0.500000  0.500000  0.500000  1
  O  O10  1  0.277621  0.096065  0.707963  1
  O  O11  1  0.777621  0.207963  0.596065  1
  O  O12  1  0.222379  0.792037  0.403935  1
  O  O13  1  0.707963  0.277621  0.096065  1
  O  O14  1  0.596065  0.777621  0.207963  1
  O  O15  1  0.722379  0.903935  0.292037  1
  O  O16  1  0.096065  0.707963  0.277621  1
  O  O17  1  0.292037  0.722379  0.903935  1
  O  O18  1  0.792037  0.403935  0.222379  1
  O  O19  1  0.207963  0.596065  0.777621  1
  O  O20  1  0.903935  0.292037  0.722379  1
  O  O21  1  0.250000  0.250000  0.250000  1
  O  O22  1  0.750000  0.750000  0.750000  1
  O  O23  1  0.403935  0.222379  0.792037  1
