# generated using pymatgen
data_ZnAgPS4
_symmetry_space_group_name_H-M   'P 1'
_cell_length_a   6.18035128
_cell_length_b   7.66490877
_cell_length_c   12.73057920
_cell_angle_alpha   90.00000000
_cell_angle_beta   90.00000000
_cell_angle_gamma   90.00000000
_symmetry_Int_Tables_number   1
_chemical_formula_structural   ZnAgPS4
_chemical_formula_sum   'Zn4 Ag4 P4 S16'
_cell_volume   603.07081747
_cell_formula_units_Z   4
loop_
 _symmetry_equiv_pos_site_id
 _symmetry_equiv_pos_as_xyz
  1  'x, y, z'
loop_
 _atom_site_type_symbol
 _atom_site_label
 _atom_site_symmetry_multiplicity
 _atom_site_fract_x
 _atom_site_fract_y
 _atom_site_fract_z
 _atom_site_occupancy
  Zn  Zn0  1  0.503022  0.512998  0.658957  1
  Zn  Zn1  1  0.003022  0.487002  0.341043  1
  Zn  Zn2  1  0.503022  0.987002  0.158957  1
  Zn  Zn3  1  0.003022  0.012998  0.841043  1
  Ag  Ag4  1  0.500111  0.220447  0.428255  1
  Ag  Ag5  1  0.000111  0.720447  0.071745  1
  Ag  Ag6  1  0.000111  0.779553  0.571745  1
  Ag  Ag7  1  0.500111  0.279553  0.928255  1
  P  P8  1  0.505570  0.731136  0.404895  1
  P  P9  1  0.005570  0.231136  0.095105  1
  P  P10  1  0.505570  0.768864  0.904895  1
  P  P11  1  0.005570  0.268864  0.595105  1
  S  S12  1  0.617728  0.989914  0.830382  1
  S  S13  1  0.117728  0.489914  0.669618  1
  S  S14  1  0.171889  0.749451  0.886720  1
  S  S15  1  0.171889  0.750549  0.386720  1
  S  S16  1  0.643489  0.553094  0.832914  1
  S  S17  1  0.643489  0.946906  0.332914  1
  S  S18  1  0.587490  0.765603  0.561659  1
  S  S19  1  0.117728  0.010086  0.169618  1
  S  S20  1  0.587490  0.734397  0.061659  1
  S  S21  1  0.671889  0.249451  0.613280  1
  S  S22  1  0.087490  0.234397  0.438341  1
  S  S23  1  0.143489  0.446906  0.167086  1
  S  S24  1  0.143489  0.053094  0.667086  1
  S  S25  1  0.671889  0.250549  0.113280  1
  S  S26  1  0.087490  0.265603  0.938341  1
  S  S27  1  0.617728  0.510086  0.330382  1
