# generated using pymatgen
data_Tl3Ag3(AsS3)2
_symmetry_space_group_name_H-M   'P 1'
_cell_length_a   11.36361057
_cell_length_b   12.00955487
_cell_length_c   12.12779833
_cell_angle_alpha   90.00000000
_cell_angle_beta   120.25239613
_cell_angle_gamma   90.00000000
_symmetry_Int_Tables_number   1
_chemical_formula_structural   Tl3Ag3(AsS3)2
_chemical_formula_sum   'Tl12 Ag12 As8 S24'
_cell_volume   1429.70250278
_cell_formula_units_Z   4
loop_
 _symmetry_equiv_pos_site_id
 _symmetry_equiv_pos_as_xyz
  1  'x, y, z'
loop_
 _atom_site_type_symbol
 _atom_site_label
 _atom_site_symmetry_multiplicity
 _atom_site_fract_x
 _atom_site_fract_y
 _atom_site_fract_z
 _atom_site_occupancy
  Tl  Tl0  1  0.800184  0.985138  0.523404  1
  Tl  Tl1  1  0.216238  0.116103  0.113058  1
  Tl  Tl2  1  0.161802  0.752742  0.726744  1
  Tl  Tl3  1  0.199816  0.485138  0.976596  1
  Tl  Tl4  1  0.800184  0.514862  0.023404  1
  Tl  Tl5  1  0.199816  0.014862  0.476596  1
  Tl  Tl6  1  0.216238  0.383897  0.613058  1
  Tl  Tl7  1  0.783762  0.616103  0.386942  1
  Tl  Tl8  1  0.838198  0.252742  0.773256  1
  Tl  Tl9  1  0.838198  0.247258  0.273256  1
  Tl  Tl10  1  0.161802  0.747258  0.226744  1
  Tl  Tl11  1  0.783762  0.883897  0.886942  1
  Ag  Ag12  1  0.532861  0.625429  0.454136  1
  Ag  Ag13  1  0.532861  0.874571  0.954136  1
  Ag  Ag14  1  0.467139  0.125429  0.045864  1
  Ag  Ag15  1  0.885580  0.347026  0.571238  1
  Ag  Ag16  1  0.470375  0.358907  0.927163  1
  Ag  Ag17  1  0.114420  0.847026  0.928762  1
  Ag  Ag18  1  0.885580  0.152974  0.071238  1
  Ag  Ag19  1  0.467139  0.374571  0.545864  1
  Ag  Ag20  1  0.529625  0.641093  0.072837  1
  Ag  Ag21  1  0.114420  0.652974  0.428762  1
  Ag  Ag22  1  0.529625  0.858907  0.572837  1
  Ag  Ag23  1  0.470375  0.141093  0.427163  1
  As  As24  1  0.842062  0.903144  0.243903  1
  As  As25  1  0.842062  0.596856  0.743903  1
  As  As26  1  0.506217  0.144469  0.755947  1
  As  As27  1  0.157938  0.403144  0.256097  1
  As  As28  1  0.506217  0.355531  0.255947  1
  As  As29  1  0.493783  0.855531  0.244053  1
  As  As30  1  0.493783  0.644469  0.744053  1
  As  As31  1  0.157938  0.096856  0.756097  1
  S  S32  1  0.994629  0.822960  0.438113  1
  S  S33  1  0.378901  0.575581  0.839946  1
  S  S34  1  0.744742  0.755448  0.109059  1
  S  S35  1  0.636932  0.416043  0.462891  1
  S  S36  1  0.425518  0.824848  0.716441  1
  S  S37  1  0.993660  0.967859  0.187629  1
  S  S38  1  0.255258  0.255448  0.390941  1
  S  S39  1  0.006340  0.032141  0.812371  1
  S  S40  1  0.993660  0.532141  0.687629  1
  S  S41  1  0.255258  0.244552  0.890941  1
  S  S42  1  0.378901  0.924419  0.339946  1
  S  S43  1  0.425518  0.675152  0.216441  1
  S  S44  1  0.621099  0.424419  0.160054  1
  S  S45  1  0.994629  0.677040  0.938113  1
  S  S46  1  0.005371  0.177040  0.561887  1
  S  S47  1  0.006340  0.467859  0.312371  1
  S  S48  1  0.363068  0.583957  0.537109  1
  S  S49  1  0.574482  0.175152  0.283559  1
  S  S50  1  0.005371  0.322960  0.061887  1
  S  S51  1  0.621099  0.075581  0.660054  1
  S  S52  1  0.363068  0.916043  0.037109  1
  S  S53  1  0.744742  0.744552  0.609059  1
  S  S54  1  0.574482  0.324848  0.783559  1
  S  S55  1  0.636932  0.083957  0.962891  1
