# generated using pymatgen
data_Ce2(Al5Ru)3
_symmetry_space_group_name_H-M   'P 1'
_cell_length_a   13.12141971
_cell_length_b   13.12141971
_cell_length_c   9.05855811
_cell_angle_alpha   90.00000000
_cell_angle_beta   90.00000000
_cell_angle_gamma   120.00000000
_symmetry_Int_Tables_number   1
_chemical_formula_structural   Ce2(Al5Ru)3
_chemical_formula_sum   'Ce8 Al60 Ru12'
_cell_volume   1350.67655392
_cell_formula_units_Z   4
loop_
 _symmetry_equiv_pos_site_id
 _symmetry_equiv_pos_as_xyz
  1  'x, y, z'
loop_
 _atom_site_type_symbol
 _atom_site_label
 _atom_site_symmetry_multiplicity
 _atom_site_fract_x
 _atom_site_fract_y
 _atom_site_fract_z
 _atom_site_occupancy
  Ce  Ce0  1  0.605198  0.000000  0.250000  1
  Ce  Ce1  1  0.394802  0.394802  0.250000  1
  Ce  Ce2  1  0.394802  0.000000  0.750000  1
  Ce  Ce3  1  0.000000  0.000000  0.250000  1
  Ce  Ce4  1  0.000000  0.394802  0.750000  1
  Ce  Ce5  1  0.605198  0.605198  0.750000  1
  Ce  Ce6  1  0.000000  0.605198  0.250000  1
  Ce  Ce7  1  0.000000  0.000000  0.750000  1
  Al  Al8  1  0.723548  0.248015  0.750000  1
  Al  Al9  1  0.616471  0.616471  0.396952  1
  Al  Al10  1  0.798230  0.000000  0.472742  1
  Al  Al11  1  0.751985  0.475534  0.750000  1
  Al  Al12  1  0.798230  0.000000  0.027258  1
  Al  Al13  1  0.751985  0.276452  0.250000  1
  Al  Al14  1  0.000000  0.798230  0.472742  1
  Al  Al15  1  0.798230  0.798230  0.527258  1
  Al  Al16  1  0.817553  0.408777  0.500000  1
  Al  Al17  1  0.000000  0.201770  0.972742  1
  Al  Al18  1  0.408777  0.817553  0.000000  1
  Al  Al19  1  0.475534  0.751985  0.750000  1
  Al  Al20  1  0.834419  0.714511  0.250000  1
  Al  Al21  1  0.591223  0.182447  0.000000  1
  Al  Al22  1  0.616471  0.000000  0.896952  1
  Al  Al23  1  0.201770  0.201770  0.472742  1
  Al  Al24  1  0.591223  0.182447  0.500000  1
  Al  Al25  1  0.276452  0.524466  0.750000  1
  Al  Al26  1  0.714511  0.834419  0.250000  1
  Al  Al27  1  0.201770  0.000000  0.972742  1
  Al  Al28  1  0.408777  0.817553  0.500000  1
  Al  Al29  1  0.475534  0.723548  0.250000  1
  Al  Al30  1  0.383529  0.000000  0.396952  1
  Al  Al31  1  0.119909  0.834419  0.750000  1
  Al  Al32  1  0.201770  0.201770  0.027258  1
  Al  Al33  1  0.000000  0.383529  0.396952  1
  Al  Al34  1  0.000000  0.798230  0.027258  1
  Al  Al35  1  0.201770  0.000000  0.527258  1
  Al  Al36  1  0.591223  0.408777  0.000000  1
  Al  Al37  1  0.723548  0.475534  0.250000  1
  Al  Al38  1  0.524466  0.248015  0.250000  1
  Al  Al39  1  0.591223  0.408777  0.500000  1
  Al  Al40  1  0.182447  0.591223  0.000000  1
  Al  Al41  1  0.182447  0.591223  0.500000  1
  Al  Al42  1  0.383529  0.383529  0.896952  1
  Al  Al43  1  0.285489  0.119909  0.250000  1
  Al  Al44  1  0.165581  0.880091  0.250000  1
  Al  Al45  1  0.616471  0.616471  0.103048  1
  Al  Al46  1  0.834419  0.119909  0.750000  1
  Al  Al47  1  0.285489  0.165581  0.750000  1
  Al  Al48  1  0.880091  0.165581  0.250000  1
  Al  Al49  1  0.000000  0.616471  0.603048  1
  Al  Al50  1  0.000000  0.201770  0.527258  1
  Al  Al51  1  0.383529  0.000000  0.103048  1
  Al  Al52  1  0.880091  0.714511  0.750000  1
  Al  Al53  1  0.119909  0.285489  0.250000  1
  Al  Al54  1  0.524466  0.276452  0.750000  1
  Al  Al55  1  0.798230  0.798230  0.972742  1
  Al  Al56  1  0.000000  0.616471  0.896952  1
  Al  Al57  1  0.165581  0.285489  0.750000  1
  Al  Al58  1  0.616471  0.000000  0.603048  1
  Al  Al59  1  0.276452  0.751985  0.250000  1
  Al  Al60  1  0.248015  0.723548  0.750000  1
  Al  Al61  1  0.408777  0.591223  0.500000  1
  Al  Al62  1  0.383529  0.383529  0.603048  1
  Al  Al63  1  0.817553  0.408777  0.000000  1
  Al  Al64  1  0.000000  0.383529  0.103048  1
  Al  Al65  1  0.248015  0.524466  0.250000  1
  Al  Al66  1  0.714511  0.880091  0.750000  1
  Al  Al67  1  0.408777  0.591223  0.000000  1
  Ru  Ru68  1  0.202935  0.797065  0.000000  1
  Ru  Ru69  1  0.797065  0.594130  0.500000  1
  Ru  Ru70  1  0.594130  0.797065  0.500000  1
  Ru  Ru71  1  0.405870  0.202935  0.000000  1
  Ru  Ru72  1  0.202935  0.405870  0.000000  1
  Ru  Ru73  1  0.202935  0.797065  0.500000  1
  Ru  Ru74  1  0.405870  0.202935  0.500000  1
  Ru  Ru75  1  0.797065  0.594130  0.000000  1
  Ru  Ru76  1  0.797065  0.202935  0.500000  1
  Ru  Ru77  1  0.594130  0.797065  0.000000  1
  Ru  Ru78  1  0.202935  0.405870  0.500000  1
  Ru  Ru79  1  0.797065  0.202935  0.000000  1
