# generated using pymatgen
data_SiO2
_symmetry_space_group_name_H-M   'P 1'
_cell_length_a   5.09049149
_cell_length_b   5.09049149
_cell_length_c   8.53296783
_cell_angle_alpha   89.20488044
_cell_angle_beta   90.79511956
_cell_angle_gamma   60.43630828
_symmetry_Int_Tables_number   1
_chemical_formula_structural   SiO2
_chemical_formula_sum   'Si4 O8'
_cell_volume   192.25501358
_cell_formula_units_Z   4
loop_
 _symmetry_equiv_pos_site_id
 _symmetry_equiv_pos_as_xyz
  1  'x, y, z'
loop_
 _atom_site_type_symbol
 _atom_site_label
 _atom_site_symmetry_multiplicity
 _atom_site_fract_x
 _atom_site_fract_y
 _atom_site_fract_z
 _atom_site_occupancy
  Si  Si0  1  0.382570  0.230993  0.711948  1
  Si  Si1  1  0.717337  0.564385  0.837532  1
  Si  Si2  1  0.769007  0.617430  0.211948  1
  Si  Si3  1  0.435615  0.282663  0.337532  1
  O  O4  1  0.757471  0.578463  0.024807  1
  O  O5  1  0.682698  0.389680  0.304118  1
  O  O6  1  0.108382  0.537564  0.266264  1
  O  O7  1  0.421537  0.242529  0.524807  1
  O  O8  1  0.462436  0.891618  0.766264  1
  O  O9  1  0.034986  0.467959  0.753030  1
  O  O10  1  0.610320  0.317302  0.804118  1
  O  O11  1  0.532041  0.965014  0.253030  1
