# generated using pymatgen
data_Mg2SiO4
_symmetry_space_group_name_H-M   'P 1'
_cell_length_a   7.69256154
_cell_length_b   7.69256154
_cell_length_c   7.69256154
_cell_angle_alpha   135.99833418
_cell_angle_beta   114.20445128
_cell_angle_gamma   82.57007618
_symmetry_Int_Tables_number   1
_chemical_formula_structural   Mg2SiO4
_chemical_formula_sum   'Mg8 Si4 O16'
_cell_volume   278.40016549
_cell_formula_units_Z   4
loop_
 _symmetry_equiv_pos_site_id
 _symmetry_equiv_pos_as_xyz
  1  'x, y, z'
loop_
 _atom_site_type_symbol
 _atom_site_label
 _atom_site_symmetry_multiplicity
 _atom_site_fract_x
 _atom_site_fract_y
 _atom_site_fract_z
 _atom_site_occupancy
  Mg  Mg0  1  0.000000  0.000000  0.000000  1
  Mg  Mg1  1  0.500000  0.500000  0.000000  1
  Mg  Mg2  1  0.280210  0.250000  0.030210  1
  Mg  Mg3  1  0.719790  0.750000  0.969790  1
  Mg  Mg4  1  0.877560  0.377560  0.000000  1
  Mg  Mg5  1  0.122440  0.122440  0.500000  1
  Mg  Mg6  1  0.122440  0.622440  0.000000  1
  Mg  Mg7  1  0.877560  0.877560  0.500000  1
  Si  Si8  1  0.503182  0.119661  0.383520  1
  Si  Si9  1  0.496818  0.880339  0.616480  1
  Si  Si10  1  0.763859  0.380339  0.383520  1
  Si  Si11  1  0.236141  0.619661  0.616480  1
  O  O12  1  0.384650  0.116124  0.746084  1
  O  O13  1  0.615350  0.361434  0.731474  1
  O  O14  1  0.129959  0.383876  0.268526  1
  O  O15  1  0.870041  0.138566  0.253916  1
  O  O16  1  0.615350  0.883876  0.253916  1
  O  O17  1  0.384650  0.638566  0.268526  1
  O  O18  1  0.870041  0.616124  0.731474  1
  O  O19  1  0.129959  0.861434  0.746084  1
  O  O20  1  0.745442  0.489928  0.255513  1
  O  O21  1  0.254558  0.510072  0.744487  1
  O  O22  1  0.265585  0.010072  0.255513  1
  O  O23  1  0.734415  0.989928  0.744487  1
  O  O24  1  0.033977  0.250000  0.783977  1
  O  O25  1  0.966023  0.750000  0.216023  1
  O  O26  1  0.533711  0.250000  0.283711  1
  O  O27  1  0.466289  0.750000  0.716289  1
