# generated using pymatgen
data_Hg3Te2IBr
_symmetry_space_group_name_H-M   'P 1'
_cell_length_a   10.71962277
_cell_length_b   10.71962277
_cell_length_c   10.80782534
_cell_angle_alpha   89.97991353
_cell_angle_beta   90.02008647
_cell_angle_gamma   125.02872591
_symmetry_Int_Tables_number   1
_chemical_formula_structural   Hg3Te2IBr
_chemical_formula_sum   'Hg12 Te8 I4 Br4'
_cell_volume   1016.97262994
_cell_formula_units_Z   4
loop_
 _symmetry_equiv_pos_site_id
 _symmetry_equiv_pos_as_xyz
  1  'x, y, z'
loop_
 _atom_site_type_symbol
 _atom_site_label
 _atom_site_symmetry_multiplicity
 _atom_site_fract_x
 _atom_site_fract_y
 _atom_site_fract_z
 _atom_site_occupancy
  Hg  Hg0  1  0.585465  0.836447  0.793055  1
  Hg  Hg1  1  0.702380  0.702380  0.500000  1
  Hg  Hg2  1  0.983323  0.474282  0.498858  1
  Hg  Hg3  1  0.971854  0.012331  0.223279  1
  Hg  Hg4  1  0.012331  0.971854  0.776721  1
  Hg  Hg5  1  0.241465  0.241465  0.500000  1
  Hg  Hg6  1  0.407174  0.158786  0.197876  1
  Hg  Hg7  1  0.836447  0.585465  0.206945  1
  Hg  Hg8  1  0.725288  0.267217  0.791385  1
  Hg  Hg9  1  0.474282  0.983323  0.501142  1
  Hg  Hg10  1  0.158786  0.407174  0.802124  1
  Hg  Hg11  1  0.267217  0.725288  0.208615  1
  Te  Te12  1  0.002381  0.534487  0.747526  1
  Te  Te13  1  0.454732  0.990992  0.754166  1
  Te  Te14  1  0.699509  0.733614  0.247956  1
  Te  Te15  1  0.990992  0.454732  0.245834  1
  Te  Te16  1  0.534487  0.002381  0.252474  1
  Te  Te17  1  0.249700  0.285549  0.249446  1
  Te  Te18  1  0.733614  0.699509  0.752044  1
  Te  Te19  1  0.285549  0.249700  0.750554  1
  I  I20  1  0.869727  0.116499  0.974736  1
  I  I21  1  0.119375  0.875530  0.476927  1
  I  I22  1  0.875530  0.119375  0.523073  1
  I  I23  1  0.116499  0.869727  0.025264  1
  Br  Br24  1  0.369128  0.619325  0.990826  1
  Br  Br25  1  0.630082  0.373359  0.477648  1
  Br  Br26  1  0.373359  0.630082  0.522352  1
  Br  Br27  1  0.619325  0.369128  0.009174  1
