# generated using pymatgen
data_LiMo(PO3)4
_symmetry_space_group_name_H-M   'P 1'
_cell_length_a   8.72736812
_cell_length_b   8.72736812
_cell_length_c   9.84724154
_cell_angle_alpha   60.48598955
_cell_angle_beta   119.51401045
_cell_angle_gamma   129.44417547
_symmetry_Int_Tables_number   1
_chemical_formula_structural   LiMo(PO3)4
_chemical_formula_sum   'Li2 Mo2 P8 O24'
_cell_volume   485.70439829
_cell_formula_units_Z   2
loop_
 _symmetry_equiv_pos_site_id
 _symmetry_equiv_pos_as_xyz
  1  'x, y, z'
loop_
 _atom_site_type_symbol
 _atom_site_label
 _atom_site_symmetry_multiplicity
 _atom_site_fract_x
 _atom_site_fract_y
 _atom_site_fract_z
 _atom_site_occupancy
  Li  Li0  1  0.691951  0.691951  0.250000  1
  Li  Li1  1  0.308049  0.308049  0.750000  1
  Mo  Mo2  1  0.136156  0.136156  0.250000  1
  Mo  Mo3  1  0.863844  0.863844  0.750000  1
  P  P4  1  0.970149  0.687940  0.169639  1
  P  P5  1  0.556152  0.292450  0.134441  1
  P  P6  1  0.029851  0.312060  0.830361  1
  P  P7  1  0.443848  0.707550  0.865559  1
  P  P8  1  0.707550  0.443848  0.634441  1
  P  P9  1  0.292450  0.556152  0.365559  1
  P  P10  1  0.687940  0.970149  0.330361  1
  P  P11  1  0.312060  0.029851  0.669639  1
  O  O12  1  0.498081  0.646490  0.044701  1
  O  O13  1  0.981199  0.742854  0.003246  1
  O  O14  1  0.236263  0.521202  0.788559  1
  O  O15  1  0.018801  0.257146  0.996754  1
  O  O16  1  0.403360  0.198324  0.222726  1
  O  O17  1  0.858544  0.361513  0.695307  1
  O  O18  1  0.979982  0.838994  0.212234  1
  O  O19  1  0.361513  0.858544  0.804693  1
  O  O20  1  0.257146  0.018801  0.503246  1
  O  O21  1  0.646490  0.498081  0.455299  1
  O  O22  1  0.763737  0.478798  0.211441  1
  O  O23  1  0.521202  0.236263  0.711441  1
  O  O24  1  0.801676  0.596640  0.722726  1
  O  O25  1  0.838994  0.979982  0.287766  1
  O  O26  1  0.161006  0.020018  0.712234  1
  O  O27  1  0.198324  0.403360  0.277274  1
  O  O28  1  0.596640  0.801676  0.777274  1
  O  O29  1  0.501919  0.353510  0.955299  1
  O  O30  1  0.353510  0.501919  0.544701  1
  O  O31  1  0.742854  0.981199  0.496754  1
  O  O32  1  0.638487  0.141456  0.195307  1
  O  O33  1  0.020018  0.161006  0.787766  1
  O  O34  1  0.141456  0.638487  0.304693  1
  O  O35  1  0.478798  0.763737  0.288559  1
