# generated using pymatgen
data_SnPSe3
_symmetry_space_group_name_H-M   'P 1'
_cell_length_a   6.95954088
_cell_length_b   7.89508354
_cell_length_c   11.99390246
_cell_angle_alpha   90.00000000
_cell_angle_beta   124.34129573
_cell_angle_gamma   90.00000000
_symmetry_Int_Tables_number   1
_chemical_formula_structural   SnPSe3
_chemical_formula_sum   'Sn4 P4 Se12'
_cell_volume   544.14653443
_cell_formula_units_Z   4
loop_
 _symmetry_equiv_pos_site_id
 _symmetry_equiv_pos_as_xyz
  1  'x, y, z'
loop_
 _atom_site_type_symbol
 _atom_site_label
 _atom_site_symmetry_multiplicity
 _atom_site_fract_x
 _atom_site_fract_y
 _atom_site_fract_z
 _atom_site_occupancy
  Sn  Sn0  1  0.249219  0.626939  0.213135  1
  Sn  Sn1  1  0.750781  0.126939  0.286865  1
  Sn  Sn2  1  0.750781  0.373061  0.786865  1
  Sn  Sn3  1  0.249219  0.873061  0.713135  1
  P  P4  1  0.623264  0.897106  0.568490  1
  P  P5  1  0.376736  0.397106  0.931510  1
  P  P6  1  0.376736  0.102894  0.431510  1
  P  P7  1  0.623264  0.602894  0.068490  1
  Se  Se8  1  0.122002  0.989798  0.232027  1
  Se  Se9  1  0.877998  0.489798  0.267973  1
  Se  Se10  1  0.877998  0.010202  0.767973  1
  Se  Se11  1  0.122002  0.510202  0.732027  1
  Se  Se12  1  0.599464  0.193896  0.937798  1
  Se  Se13  1  0.400536  0.693896  0.562202  1
  Se  Se14  1  0.400536  0.806104  0.062202  1
  Se  Se15  1  0.599464  0.306104  0.437798  1
  Se  Se16  1  0.209061  0.305751  0.034249  1
  Se  Se17  1  0.790939  0.805751  0.465751  1
  Se  Se18  1  0.790939  0.694249  0.965751  1
  Se  Se19  1  0.209061  0.194249  0.534249  1
