# generated using pymatgen
data_Ca4Bi2O
_symmetry_space_group_name_H-M   'P 1'
_cell_length_a   9.00142687
_cell_length_b   9.00142687
_cell_length_c   9.00142687
_cell_angle_alpha   149.30837215
_cell_angle_beta   149.30837215
_cell_angle_gamma   43.95759476
_symmetry_Int_Tables_number   1
_chemical_formula_structural   Ca4Bi2O
_chemical_formula_sum   'Ca4 Bi2 O1'
_cell_volume   189.47402417
_cell_formula_units_Z   1
loop_
 _symmetry_equiv_pos_site_id
 _symmetry_equiv_pos_as_xyz
  1  'x, y, z'
loop_
 _atom_site_type_symbol
 _atom_site_label
 _atom_site_symmetry_multiplicity
 _atom_site_fract_x
 _atom_site_fract_y
 _atom_site_fract_z
 _atom_site_occupancy
  Ca  Ca0  1  0.335625  0.335625  0.000000  1
  Ca  Ca1  1  0.500000  0.000000  0.500000  1
  Ca  Ca2  1  0.664375  0.664375  0.000000  1
  Ca  Ca3  1  0.000000  0.500000  0.500000  1
  Bi  Bi4  1  0.140499  0.140499  0.000000  1
  Bi  Bi5  1  0.859501  0.859501  0.000000  1
  O  O6  1  0.500000  0.500000  0.000000  1
