# generated using pymatgen
data_K4Nb2S10O
_symmetry_space_group_name_H-M   'P 1'
_cell_length_a   7.68215340
_cell_length_b   12.93657043
_cell_length_c   18.15251544
_cell_angle_alpha   90.00000000
_cell_angle_beta   90.00000000
_cell_angle_gamma   90.00000000
_symmetry_Int_Tables_number   1
_chemical_formula_structural   K4Nb2S10O
_chemical_formula_sum   'K16 Nb8 S40 O4'
_cell_volume   1804.01002725
_cell_formula_units_Z   4
loop_
 _symmetry_equiv_pos_site_id
 _symmetry_equiv_pos_as_xyz
  1  'x, y, z'
loop_
 _atom_site_type_symbol
 _atom_site_label
 _atom_site_symmetry_multiplicity
 _atom_site_fract_x
 _atom_site_fract_y
 _atom_site_fract_z
 _atom_site_occupancy
  K  K0  1  0.789062  0.939991  0.835163  1
  K  K1  1  0.856467  0.902403  0.535558  1
  K  K2  1  0.210938  0.439991  0.835163  1
  K  K3  1  0.856467  0.597597  0.035558  1
  K  K4  1  0.210938  0.060009  0.335163  1
  K  K5  1  0.143533  0.402403  0.535558  1
  K  K6  1  0.813879  0.240153  0.200230  1
  K  K7  1  0.143533  0.097597  0.035558  1
  K  K8  1  0.667587  0.235127  0.968269  1
  K  K9  1  0.186121  0.759847  0.700230  1
  K  K10  1  0.789062  0.560009  0.335163  1
  K  K11  1  0.813879  0.259847  0.700230  1
  K  K12  1  0.667587  0.264873  0.468269  1
  K  K13  1  0.186121  0.740153  0.200230  1
  K  K14  1  0.332413  0.764873  0.468269  1
  K  K15  1  0.332413  0.735127  0.968269  1
  Nb  Nb16  1  0.742494  0.963065  0.104580  1
  Nb  Nb17  1  0.257506  0.036935  0.604580  1
  Nb  Nb18  1  0.214465  0.398406  0.294180  1
  Nb  Nb19  1  0.742494  0.536935  0.604580  1
  Nb  Nb20  1  0.214465  0.101594  0.794180  1
  Nb  Nb21  1  0.785535  0.898406  0.294180  1
  Nb  Nb22  1  0.257506  0.463065  0.104580  1
  Nb  Nb23  1  0.785535  0.601594  0.794180  1
  S  S24  1  0.026365  0.350826  0.049271  1
  S  S25  1  0.752381  0.772092  0.190280  1
  S  S26  1  0.250327  0.930313  0.852559  1
  S  S27  1  0.537541  0.489274  0.705909  1
  S  S28  1  0.576652  0.436178  0.116407  1
  S  S29  1  0.266433  0.340331  0.996643  1
  S  S30  1  0.462459  0.510726  0.205909  1
  S  S31  1  0.752381  0.727908  0.690280  1
  S  S32  1  0.030429  0.495596  0.202379  1
  S  S33  1  0.973635  0.850826  0.049271  1
  S  S34  1  0.462459  0.989274  0.705909  1
  S  S35  1  0.993017  0.173403  0.859662  1
  S  S36  1  0.247619  0.272092  0.190280  1
  S  S37  1  0.576652  0.063822  0.616407  1
  S  S38  1  0.425569  0.242053  0.775910  1
  S  S39  1  0.590077  0.543837  0.897765  1
  S  S40  1  0.030429  0.004404  0.702379  1
  S  S41  1  0.969571  0.995596  0.202379  1
  S  S42  1  0.247619  0.227908  0.690280  1
  S  S43  1  0.006983  0.826597  0.359662  1
  S  S44  1  0.423348  0.563822  0.616407  1
  S  S45  1  0.026365  0.149174  0.549271  1
  S  S46  1  0.993017  0.326597  0.359662  1
  S  S47  1  0.006983  0.673403  0.859662  1
  S  S48  1  0.425569  0.257947  0.275910  1
  S  S49  1  0.749673  0.430313  0.852559  1
  S  S50  1  0.973635  0.649174  0.549271  1
  S  S51  1  0.423348  0.936178  0.116407  1
  S  S52  1  0.969571  0.504404  0.702379  1
  S  S53  1  0.574431  0.757947  0.275910  1
  S  S54  1  0.733567  0.840331  0.996643  1
  S  S55  1  0.537541  0.010726  0.205909  1
  S  S56  1  0.266433  0.159669  0.496643  1
  S  S57  1  0.409923  0.456163  0.397765  1
  S  S58  1  0.574431  0.742053  0.775910  1
  S  S59  1  0.590077  0.956163  0.397765  1
  S  S60  1  0.409923  0.043837  0.897765  1
  S  S61  1  0.250327  0.569687  0.352559  1
  S  S62  1  0.749673  0.069687  0.352559  1
  S  S63  1  0.733567  0.659669  0.496643  1
  O  O64  1  0.771948  0.416153  0.557284  1
  O  O65  1  0.771948  0.083847  0.057284  1
  O  O66  1  0.228052  0.916153  0.557284  1
  O  O67  1  0.228052  0.583847  0.057284  1
