# generated using pymatgen
data_MnP4
_symmetry_space_group_name_H-M   'P 1'
_cell_length_a   5.11123754
_cell_length_b   5.85347909
_cell_length_c   16.35118492
_cell_angle_alpha   89.25905063
_cell_angle_beta   95.16350992
_cell_angle_gamma   115.60120323
_symmetry_Int_Tables_number   1
_chemical_formula_structural   MnP4
_chemical_formula_sum   'Mn6 P24'
_cell_volume   439.20114403
_cell_formula_units_Z   6
loop_
 _symmetry_equiv_pos_site_id
 _symmetry_equiv_pos_as_xyz
  1  'x, y, z'
loop_
 _atom_site_type_symbol
 _atom_site_label
 _atom_site_symmetry_multiplicity
 _atom_site_fract_x
 _atom_site_fract_y
 _atom_site_fract_z
 _atom_site_occupancy
  Mn  Mn0  1  0.498880  0.817655  0.406303  1
  Mn  Mn1  1  0.129445  0.120466  0.924762  1
  Mn  Mn2  1  0.870555  0.879534  0.075238  1
  Mn  Mn3  1  0.501120  0.182345  0.593697  1
  Mn  Mn4  1  0.491083  0.449809  0.741172  1
  Mn  Mn5  1  0.508917  0.550191  0.258828  1
  P  P6  1  0.926256  0.758965  0.726450  1
  P  P7  1  0.655685  0.247780  0.230136  1
  P  P8  1  0.942979  0.472595  0.565507  1
  P  P9  1  0.382924  0.134861  0.451209  1
  P  P10  1  0.566008  0.429281  0.883537  1
  P  P11  1  0.629115  0.504742  0.390209  1
  P  P12  1  0.716776  0.173372  0.100159  1
  P  P13  1  0.943815  0.852284  0.219285  1
  P  P14  1  0.366048  0.858667  0.272285  1
  P  P15  1  0.308050  0.190910  0.056064  1
  P  P16  1  0.988510  0.428365  0.935002  1
  P  P17  1  0.617076  0.865139  0.548791  1
  P  P18  1  0.283224  0.826628  0.899841  1
  P  P19  1  0.011490  0.571635  0.064998  1
  P  P20  1  0.433992  0.570719  0.116463  1
  P  P21  1  0.952706  0.121299  0.400207  1
  P  P22  1  0.073744  0.241035  0.273550  1
  P  P23  1  0.691950  0.809090  0.943936  1
  P  P24  1  0.633952  0.141333  0.727715  1
  P  P25  1  0.344315  0.752220  0.769864  1
  P  P26  1  0.047294  0.878701  0.599793  1
  P  P27  1  0.056185  0.147716  0.780715  1
  P  P28  1  0.370885  0.495258  0.609791  1
  P  P29  1  0.057021  0.527405  0.434493  1
