# generated using pymatgen
data_Co(PO3)3
_symmetry_space_group_name_H-M   'P 1'
_cell_length_a   5.12031204
_cell_length_b   11.92702271
_cell_length_c   12.94471189
_cell_angle_alpha   90.00000000
_cell_angle_beta   90.00000000
_cell_angle_gamma   90.00000000
_symmetry_Int_Tables_number   1
_chemical_formula_structural   Co(PO3)3
_chemical_formula_sum   'Co4 P12 O36'
_cell_volume   790.53456459
_cell_formula_units_Z   4
loop_
 _symmetry_equiv_pos_site_id
 _symmetry_equiv_pos_as_xyz
  1  'x, y, z'
loop_
 _atom_site_type_symbol
 _atom_site_label
 _atom_site_symmetry_multiplicity
 _atom_site_fract_x
 _atom_site_fract_y
 _atom_site_fract_z
 _atom_site_occupancy
  Co  Co0  1  0.000000  0.000000  0.000000  1
  Co  Co1  1  0.000000  0.000000  0.500000  1
  Co  Co2  1  0.000000  0.500000  0.000000  1
  Co  Co3  1  0.000000  0.500000  0.500000  1
  P  P4  1  0.239283  0.750000  0.000000  1
  P  P5  1  0.239283  0.750000  0.500000  1
  P  P6  1  0.495962  0.083413  0.631574  1
  P  P7  1  0.495962  0.083413  0.868426  1
  P  P8  1  0.495962  0.416587  0.131574  1
  P  P9  1  0.495962  0.416587  0.368426  1
  P  P10  1  0.504038  0.583413  0.631574  1
  P  P11  1  0.504038  0.583413  0.868426  1
  P  P12  1  0.504038  0.916587  0.131574  1
  P  P13  1  0.504038  0.916587  0.368426  1
  P  P14  1  0.760717  0.250000  0.000000  1
  P  P15  1  0.760717  0.250000  0.500000  1
  O  O16  1  0.087522  0.653976  0.045671  1
  O  O17  1  0.087522  0.653976  0.454329  1
  O  O18  1  0.087522  0.846024  0.545671  1
  O  O19  1  0.087522  0.846024  0.954329  1
  O  O20  1  0.208248  0.060940  0.618460  1
  O  O21  1  0.208248  0.060940  0.881540  1
  O  O22  1  0.208248  0.439060  0.118460  1
  O  O23  1  0.208248  0.439060  0.381540  1
  O  O24  1  0.316171  0.003178  0.091252  1
  O  O25  1  0.316171  0.003178  0.408748  1
  O  O26  1  0.316171  0.496822  0.591252  1
  O  O27  1  0.316171  0.496822  0.908748  1
  O  O28  1  0.438479  0.706130  0.586627  1
  O  O29  1  0.438479  0.706130  0.913373  1
  O  O30  1  0.438479  0.793870  0.086627  1
  O  O31  1  0.438479  0.793870  0.413373  1
  O  O32  1  0.443774  0.608140  0.750000  1
  O  O33  1  0.443774  0.891860  0.250000  1
  O  O34  1  0.556226  0.108140  0.750000  1
  O  O35  1  0.556226  0.391860  0.250000  1
  O  O36  1  0.561521  0.206130  0.586627  1
  O  O37  1  0.561521  0.206130  0.913373  1
  O  O38  1  0.561521  0.293870  0.086627  1
  O  O39  1  0.561521  0.293870  0.413373  1
  O  O40  1  0.683829  0.996822  0.591252  1
  O  O41  1  0.683829  0.996822  0.908748  1
  O  O42  1  0.683829  0.503178  0.091252  1
  O  O43  1  0.683829  0.503178  0.408748  1
  O  O44  1  0.791752  0.560940  0.618460  1
  O  O45  1  0.791752  0.560940  0.881540  1
  O  O46  1  0.791752  0.939060  0.118460  1
  O  O47  1  0.791752  0.939060  0.381540  1
  O  O48  1  0.912478  0.153976  0.045671  1
  O  O49  1  0.912478  0.153976  0.454329  1
  O  O50  1  0.912478  0.346024  0.545671  1
  O  O51  1  0.912478  0.346024  0.954329  1
