# generated using pymatgen
data_Yb3Ge8
_symmetry_space_group_name_H-M   'P 1'
_cell_length_a   7.42226467
_cell_length_b   7.58894070
_cell_length_c   10.47161306
_cell_angle_alpha   69.01930217
_cell_angle_beta   69.80956684
_cell_angle_gamma   64.40085412
_symmetry_Int_Tables_number   1
_chemical_formula_structural   Yb3Ge8
_chemical_formula_sum   'Yb6 Ge16'
_cell_volume   483.80164441
_cell_formula_units_Z   2
loop_
 _symmetry_equiv_pos_site_id
 _symmetry_equiv_pos_as_xyz
  1  'x, y, z'
loop_
 _atom_site_type_symbol
 _atom_site_label
 _atom_site_symmetry_multiplicity
 _atom_site_fract_x
 _atom_site_fract_y
 _atom_site_fract_z
 _atom_site_occupancy
  Yb  Yb0  1  0.669077  0.319109  0.374323  1
  Yb  Yb1  1  0.330923  0.680891  0.625677  1
  Yb  Yb2  1  0.336833  0.091872  0.775284  1
  Yb  Yb3  1  0.821151  0.562527  0.780824  1
  Yb  Yb4  1  0.178849  0.437473  0.219176  1
  Yb  Yb5  1  0.663167  0.908128  0.224716  1
  Ge  Ge6  1  0.375005  0.641650  0.925207  1
  Ge  Ge7  1  0.666207  0.307615  0.692412  1
  Ge  Ge8  1  0.823633  0.548992  0.474509  1
  Ge  Ge9  1  0.826806  0.553533  0.082594  1
  Ge  Ge10  1  0.176367  0.451008  0.525491  1
  Ge  Ge11  1  0.875205  0.127763  0.906464  1
  Ge  Ge12  1  0.624995  0.358350  0.074793  1
  Ge  Ge13  1  0.324538  0.106679  0.479095  1
  Ge  Ge14  1  0.333793  0.692385  0.307588  1
  Ge  Ge15  1  0.873575  0.967829  0.644883  1
  Ge  Ge16  1  0.173194  0.446467  0.917406  1
  Ge  Ge17  1  0.124795  0.872237  0.093536  1
  Ge  Ge18  1  0.317014  0.094047  0.068730  1
  Ge  Ge19  1  0.675462  0.893321  0.520905  1
  Ge  Ge20  1  0.126425  0.032171  0.355117  1
  Ge  Ge21  1  0.682986  0.905953  0.931270  1
