# generated using pymatgen
data_K3FeO4
_symmetry_space_group_name_H-M   'P 1'
_cell_length_a   7.77209451
_cell_length_b   7.96224704
_cell_length_c   9.23238754
_cell_angle_alpha   90.00000000
_cell_angle_beta   90.00000000
_cell_angle_gamma   90.00000000
_symmetry_Int_Tables_number   1
_chemical_formula_structural   K3FeO4
_chemical_formula_sum   'K12 Fe4 O16'
_cell_volume   571.33094490
_cell_formula_units_Z   4
loop_
 _symmetry_equiv_pos_site_id
 _symmetry_equiv_pos_as_xyz
  1  'x, y, z'
loop_
 _atom_site_type_symbol
 _atom_site_label
 _atom_site_symmetry_multiplicity
 _atom_site_fract_x
 _atom_site_fract_y
 _atom_site_fract_z
 _atom_site_occupancy
  K  K0  1  0.037234  0.278700  0.963796  1
  K  K1  1  0.828306  0.943933  0.750000  1
  K  K2  1  0.171694  0.056067  0.250000  1
  K  K3  1  0.671694  0.443933  0.250000  1
  K  K4  1  0.962766  0.721300  0.036204  1
  K  K5  1  0.462766  0.778700  0.463796  1
  K  K6  1  0.537234  0.221300  0.963796  1
  K  K7  1  0.037234  0.278700  0.536204  1
  K  K8  1  0.962766  0.721300  0.463796  1
  K  K9  1  0.537234  0.221300  0.536204  1
  K  K10  1  0.462766  0.778700  0.036204  1
  K  K11  1  0.328306  0.556067  0.750000  1
  Fe  Fe12  1  0.274012  0.007516  0.750000  1
  Fe  Fe13  1  0.774012  0.492484  0.750000  1
  Fe  Fe14  1  0.225988  0.507516  0.250000  1
  Fe  Fe15  1  0.725988  0.992484  0.250000  1
  O  O16  1  0.287853  0.224888  0.750000  1
  O  O17  1  0.787853  0.275112  0.750000  1
  O  O18  1  0.212147  0.724888  0.250000  1
  O  O19  1  0.712147  0.775112  0.250000  1
  O  O20  1  0.978656  0.579771  0.750000  1
  O  O21  1  0.478656  0.920229  0.750000  1
  O  O22  1  0.521344  0.079771  0.250000  1
  O  O23  1  0.021344  0.420229  0.250000  1
  O  O24  1  0.816758  0.042723  0.419335  1
  O  O25  1  0.316758  0.457277  0.080665  1
  O  O26  1  0.683242  0.542723  0.580665  1
  O  O27  1  0.183242  0.957277  0.919335  1
  O  O28  1  0.183242  0.957277  0.580665  1
  O  O29  1  0.816758  0.042723  0.080665  1
  O  O30  1  0.316758  0.457277  0.419335  1
  O  O31  1  0.683242  0.542723  0.919335  1
