# generated using pymatgen
data_SrZr4(PO4)6
_symmetry_space_group_name_H-M   'P 1'
_cell_length_a   9.38707796
_cell_length_b   9.38707796
_cell_length_c   9.38707796
_cell_angle_alpha   56.29903943
_cell_angle_beta   56.29903943
_cell_angle_gamma   56.29903943
_symmetry_Int_Tables_number   1
_chemical_formula_structural   SrZr4(PO4)6
_chemical_formula_sum   'Sr1 Zr4 P6 O24'
_cell_volume   534.81250900
_cell_formula_units_Z   1
loop_
 _symmetry_equiv_pos_site_id
 _symmetry_equiv_pos_as_xyz
  1  'x, y, z'
loop_
 _atom_site_type_symbol
 _atom_site_label
 _atom_site_symmetry_multiplicity
 _atom_site_fract_x
 _atom_site_fract_y
 _atom_site_fract_z
 _atom_site_occupancy
  Sr  Sr0  1  0.500000  0.500000  0.500000  1
  Zr  Zr1  1  0.856166  0.856166  0.856166  1
  Zr  Zr2  1  0.143834  0.143834  0.143834  1
  Zr  Zr3  1  0.350249  0.350249  0.350249  1
  Zr  Zr4  1  0.649751  0.649751  0.649751  1
  P  P5  1  0.043234  0.744907  0.468348  1
  P  P6  1  0.744907  0.468348  0.043234  1
  P  P7  1  0.468348  0.043234  0.744907  1
  P  P8  1  0.531652  0.956766  0.255093  1
  P  P9  1  0.956766  0.255093  0.531652  1
  P  P10  1  0.255093  0.531652  0.956766  1
  O  O11  1  0.312696  0.043627  0.931188  1
  O  O12  1  0.298434  0.498685  0.111568  1
  O  O13  1  0.743996  0.644880  0.019653  1
  O  O14  1  0.498685  0.111568  0.298434  1
  O  O15  1  0.230951  0.592928  0.412536  1
  O  O16  1  0.501315  0.888432  0.701566  1
  O  O17  1  0.687304  0.956373  0.068812  1
  O  O18  1  0.019653  0.743996  0.644880  1
  O  O19  1  0.412536  0.230951  0.592928  1
  O  O20  1  0.407072  0.587464  0.769049  1
  O  O21  1  0.980347  0.256004  0.355120  1
  O  O22  1  0.769049  0.407072  0.587464  1
  O  O23  1  0.888432  0.701566  0.501315  1
  O  O24  1  0.701566  0.501315  0.888432  1
  O  O25  1  0.111568  0.298434  0.498685  1
  O  O26  1  0.956373  0.068812  0.687304  1
  O  O27  1  0.592928  0.412536  0.230951  1
  O  O28  1  0.355120  0.980347  0.256004  1
  O  O29  1  0.068812  0.687304  0.956373  1
  O  O30  1  0.043627  0.931188  0.312696  1
  O  O31  1  0.587464  0.769049  0.407072  1
  O  O32  1  0.256004  0.355120  0.980347  1
  O  O33  1  0.931188  0.312696  0.043627  1
  O  O34  1  0.644880  0.019653  0.743996  1
