# generated using pymatgen
data_K3Nd3(PS4)4
_symmetry_space_group_name_H-M   'P 1'
_cell_length_a   10.11134801
_cell_length_b   10.11134801
_cell_length_c   15.03599505
_cell_angle_alpha   89.34222334
_cell_angle_beta   90.65777666
_cell_angle_gamma   108.18324307
_symmetry_Int_Tables_number   1
_chemical_formula_structural   K3Nd3(PS4)4
_chemical_formula_sum   'K6 Nd6 P8 S32'
_cell_volume   1460.35764959
_cell_formula_units_Z   2
loop_
 _symmetry_equiv_pos_site_id
 _symmetry_equiv_pos_as_xyz
  1  'x, y, z'
loop_
 _atom_site_type_symbol
 _atom_site_label
 _atom_site_symmetry_multiplicity
 _atom_site_fract_x
 _atom_site_fract_y
 _atom_site_fract_z
 _atom_site_occupancy
  K  K0  1  0.970839  0.391695  0.662302  1
  K  K1  1  0.000000  0.000000  0.000000  1
  K  K2  1  0.608305  0.029161  0.162302  1
  K  K3  1  0.029161  0.608305  0.337698  1
  K  K4  1  0.391695  0.970839  0.837698  1
  K  K5  1  0.000000  0.000000  0.500000  1
  Nd  Nd6  1  0.748705  0.748705  0.750000  1
  Nd  Nd7  1  0.251295  0.251295  0.250000  1
  Nd  Nd8  1  0.512695  0.251943  0.512190  1
  Nd  Nd9  1  0.487305  0.748057  0.487810  1
  Nd  Nd10  1  0.251943  0.512695  0.987810  1
  Nd  Nd11  1  0.748057  0.487305  0.012190  1
  P  P12  1  0.037126  0.667927  0.860415  1
  P  P13  1  0.765482  0.602738  0.524436  1
  P  P14  1  0.332073  0.962874  0.360415  1
  P  P15  1  0.962874  0.332073  0.139585  1
  P  P16  1  0.234518  0.397262  0.475564  1
  P  P17  1  0.602738  0.765482  0.975564  1
  P  P18  1  0.667927  0.037126  0.639585  1
  P  P19  1  0.397262  0.234518  0.024436  1
  S  S20  1  0.453727  0.414204  0.102092  1
  S  S21  1  0.600338  0.192683  0.687022  1
  S  S22  1  0.254641  0.271509  0.579554  1
  S  S23  1  0.209201  0.576063  0.523678  1
  S  S24  1  0.414204  0.453727  0.397908  1
  S  S25  1  0.295303  0.074865  0.106721  1
  S  S26  1  0.155617  0.474277  0.171325  1
  S  S27  1  0.052741  0.680600  0.996859  1
  S  S28  1  0.844383  0.525723  0.828675  1
  S  S29  1  0.474277  0.155617  0.328675  1
  S  S30  1  0.807317  0.399662  0.187022  1
  S  S31  1  0.040918  0.855119  0.806120  1
  S  S32  1  0.959082  0.144881  0.193880  1
  S  S33  1  0.680600  0.052741  0.503141  1
  S  S34  1  0.525723  0.844383  0.671325  1
  S  S35  1  0.790799  0.423937  0.476322  1
  S  S36  1  0.546273  0.585796  0.897908  1
  S  S37  1  0.423937  0.790799  0.023678  1
  S  S38  1  0.074865  0.295303  0.393279  1
  S  S39  1  0.192683  0.600338  0.812978  1
  S  S40  1  0.947259  0.319400  0.003141  1
  S  S41  1  0.704697  0.925135  0.893279  1
  S  S42  1  0.925135  0.704697  0.606721  1
  S  S43  1  0.144881  0.959082  0.306120  1
  S  S44  1  0.745359  0.728491  0.420446  1
  S  S45  1  0.585796  0.546273  0.602092  1
  S  S46  1  0.399662  0.807317  0.312978  1
  S  S47  1  0.271509  0.254641  0.920446  1
  S  S48  1  0.728491  0.745359  0.079554  1
  S  S49  1  0.319400  0.947259  0.496859  1
  S  S50  1  0.855119  0.040918  0.693880  1
  S  S51  1  0.576063  0.209201  0.976322  1
