# generated using pymatgen
data_AsCSF11
_symmetry_space_group_name_H-M   'P 1'
_cell_length_a   6.37801930
_cell_length_b   11.37275797
_cell_length_c   11.91783075
_cell_angle_alpha   90.00000000
_cell_angle_beta   100.59311300
_cell_angle_gamma   90.00000000
_symmetry_Int_Tables_number   1
_chemical_formula_structural   AsCSF11
_chemical_formula_sum   'As4 C4 S4 F44'
_cell_volume   849.73510279
_cell_formula_units_Z   4
loop_
 _symmetry_equiv_pos_site_id
 _symmetry_equiv_pos_as_xyz
  1  'x, y, z'
loop_
 _atom_site_type_symbol
 _atom_site_label
 _atom_site_symmetry_multiplicity
 _atom_site_fract_x
 _atom_site_fract_y
 _atom_site_fract_z
 _atom_site_occupancy
  As  As0  1  0.163147  0.016118  0.781559  1
  As  As1  1  0.836853  0.983882  0.218441  1
  As  As2  1  0.163147  0.483882  0.281559  1
  As  As3  1  0.836853  0.516118  0.718441  1
  C  C4  1  0.488345  0.790560  0.484264  1
  C  C5  1  0.511655  0.209440  0.515736  1
  C  C6  1  0.488345  0.709440  0.984264  1
  C  C7  1  0.511655  0.290560  0.015736  1
  S  S8  1  0.692293  0.326813  0.452830  1
  S  S9  1  0.307707  0.673187  0.547170  1
  S  S10  1  0.307707  0.826813  0.047170  1
  S  S11  1  0.692293  0.173187  0.952830  1
  F  F12  1  0.661276  0.575597  0.593362  1
  F  F13  1  0.366929  0.782547  0.173849  1
  F  F14  1  0.093816  0.756452  0.015672  1
  F  F15  1  0.780841  0.371934  0.652532  1
  F  F16  1  0.386300  0.500697  0.215792  1
  F  F17  1  0.780841  0.128066  0.152532  1
  F  F18  1  0.633071  0.217453  0.826151  1
  F  F19  1  0.338724  0.075597  0.906638  1
  F  F20  1  0.049892  0.527128  0.641636  1
  F  F21  1  0.219159  0.871934  0.847468  1
  F  F22  1  0.386300  0.999303  0.715792  1
  F  F23  1  0.661276  0.924403  0.093362  1
  F  F24  1  0.950108  0.472872  0.358364  1
  F  F25  1  0.049892  0.972872  0.141636  1
  F  F26  1  0.003083  0.450165  0.834074  1
  F  F27  1  0.886896  0.658403  0.772472  1
  F  F28  1  0.599454  0.733817  0.417404  1
  F  F29  1  0.400546  0.233817  0.082596  1
  F  F30  1  0.633071  0.282547  0.326151  1
  F  F31  1  0.950108  0.027128  0.858364  1
  F  F32  1  0.357135  0.630687  0.926159  1
  F  F33  1  0.906184  0.256452  0.484328  1
  F  F34  1  0.338724  0.424403  0.406638  1
  F  F35  1  0.615844  0.659855  0.072150  1
  F  F36  1  0.384156  0.159855  0.427850  1
  F  F37  1  0.615844  0.840145  0.572150  1
  F  F38  1  0.093816  0.743548  0.515672  1
  F  F39  1  0.886896  0.841597  0.272472  1
  F  F40  1  0.357135  0.869313  0.426159  1
  F  F41  1  0.996917  0.549835  0.165926  1
  F  F42  1  0.613700  0.000697  0.284208  1
  F  F43  1  0.642865  0.130687  0.573841  1
  F  F44  1  0.113104  0.341597  0.227528  1
  F  F45  1  0.613700  0.499303  0.784208  1
  F  F46  1  0.113104  0.158403  0.727528  1
  F  F47  1  0.996917  0.950165  0.665926  1
  F  F48  1  0.366929  0.717453  0.673849  1
  F  F49  1  0.906184  0.243548  0.984328  1
  F  F50  1  0.003083  0.049835  0.334074  1
  F  F51  1  0.400546  0.266183  0.582596  1
  F  F52  1  0.599454  0.766183  0.917404  1
  F  F53  1  0.642865  0.369313  0.073841  1
  F  F54  1  0.384156  0.340145  0.927850  1
  F  F55  1  0.219159  0.628066  0.347468  1
