# generated using pymatgen
data_TiTe3O8
_symmetry_space_group_name_H-M   'P 1'
_cell_length_a   9.72208116
_cell_length_b   9.72208116
_cell_length_c   9.72208116
_cell_angle_alpha   109.47122063
_cell_angle_beta   109.47122063
_cell_angle_gamma   109.47122063
_symmetry_Int_Tables_number   1
_chemical_formula_structural   TiTe3O8
_chemical_formula_sum   'Ti4 Te12 O32'
_cell_volume   707.38498326
_cell_formula_units_Z   4
loop_
 _symmetry_equiv_pos_site_id
 _symmetry_equiv_pos_as_xyz
  1  'x, y, z'
loop_
 _atom_site_type_symbol
 _atom_site_label
 _atom_site_symmetry_multiplicity
 _atom_site_fract_x
 _atom_site_fract_y
 _atom_site_fract_z
 _atom_site_occupancy
  Ti  Ti0  1  0.000000  0.000000  0.000000  1
  Ti  Ti1  1  0.000000  0.500000  0.500000  1
  Ti  Ti2  1  0.500000  1.000000  0.500000  1
  Ti  Ti3  1  0.500000  0.500000  0.000000  1
  Te  Te4  1  0.953964  0.703964  0.250000  1
  Te  Te5  1  0.750000  0.546036  0.796036  1
  Te  Te6  1  0.750000  0.046036  0.296036  1
  Te  Te7  1  0.203964  0.250000  0.453964  1
  Te  Te8  1  0.453964  0.203964  0.250000  1
  Te  Te9  1  0.296036  0.750000  0.046036  1
  Te  Te10  1  0.046036  0.296036  0.750000  1
  Te  Te11  1  0.250000  0.453964  0.203964  1
  Te  Te12  1  0.703964  0.250000  0.953964  1
  Te  Te13  1  0.546036  0.796036  0.750000  1
  Te  Te14  1  0.796036  0.750000  0.546036  1
  Te  Te15  1  0.250000  0.953964  0.703964  1
  O  O16  1  0.843640  0.500000  0.000000  1
  O  O17  1  0.500000  0.000000  0.843640  1
  O  O18  1  0.000000  0.843640  0.500000  1
  O  O19  1  0.656360  0.656360  0.656360  1
  O  O20  1  0.156360  0.500000  0.000000  1
  O  O21  1  0.500000  0.000000  0.156360  1
  O  O22  1  0.000000  0.156360  0.500000  1
  O  O23  1  0.343640  0.343640  0.343640  1
  O  O24  1  0.037743  0.465425  0.695644  1
  O  O25  1  0.269780  0.342099  0.804356  1
  O  O26  1  0.230220  0.034575  0.072318  1
  O  O27  1  0.157901  0.427682  0.462257  1
  O  O28  1  0.427682  0.462257  0.157901  1
  O  O29  1  0.695644  0.037743  0.465425  1
  O  O30  1  0.342099  0.804356  0.269780  1
  O  O31  1  0.072318  0.230220  0.034575  1
  O  O32  1  0.537743  0.842099  0.572318  1
  O  O33  1  0.965425  0.927682  0.769780  1
  O  O34  1  0.195644  0.730220  0.657901  1
  O  O35  1  0.534575  0.304356  0.962257  1
  O  O36  1  0.927682  0.769780  0.965425  1
  O  O37  1  0.657901  0.195644  0.730220  1
  O  O38  1  0.304356  0.962257  0.534575  1
  O  O39  1  0.572318  0.537743  0.842099  1
  O  O40  1  0.842099  0.572318  0.537743  1
  O  O41  1  0.769780  0.965425  0.927682  1
  O  O42  1  0.730220  0.657901  0.195644  1
  O  O43  1  0.962257  0.534575  0.304356  1
  O  O44  1  0.462257  0.157901  0.427682  1
  O  O45  1  0.034575  0.072318  0.230220  1
  O  O46  1  0.804356  0.269780  0.342099  1
  O  O47  1  0.465425  0.695644  0.037743  1
