# generated using pymatgen
data_V3ZnO8
_symmetry_space_group_name_H-M   'P 1'
_cell_length_a   9.81149669
_cell_length_b   9.81149669
_cell_length_c   9.81149669
_cell_angle_alpha   127.90039763
_cell_angle_beta   118.84125475
_cell_angle_gamma   84.45225480
_symmetry_Int_Tables_number   1
_chemical_formula_structural   V3ZnO8
_chemical_formula_sum   'V12 Zn4 O32'
_cell_volume   625.01938979
_cell_formula_units_Z   4
loop_
 _symmetry_equiv_pos_site_id
 _symmetry_equiv_pos_as_xyz
  1  'x, y, z'
loop_
 _atom_site_type_symbol
 _atom_site_label
 _atom_site_symmetry_multiplicity
 _atom_site_fract_x
 _atom_site_fract_y
 _atom_site_fract_z
 _atom_site_occupancy
  V  V0  1  0.240187  0.276337  0.920149  1
  V  V1  1  0.759813  0.679961  0.036150  1
  V  V2  1  0.356188  0.776337  0.536150  1
  V  V3  1  0.643812  0.179961  0.420149  1
  V  V4  1  0.989989  0.440471  0.128028  1
  V  V5  1  0.010011  0.138039  0.450482  1
  V  V6  1  0.312443  0.940471  0.950482  1
  V  V7  1  0.687557  0.638039  0.628028  1
  V  V8  1  0.310956  0.962382  0.317148  1
  V  V9  1  0.689044  0.006192  0.651425  1
  V  V10  1  0.645233  0.462382  0.151425  1
  V  V11  1  0.354767  0.506192  0.817148  1
  Zn  Zn12  1  0.983467  0.828142  0.502213  1
  Zn  Zn13  1  0.016533  0.518746  0.844675  1
  Zn  Zn14  1  0.325929  0.328142  0.344675  1
  Zn  Zn15  1  0.674071  0.018746  0.002213  1
  O  O16  1  0.857048  0.555596  0.248561  1
  O  O17  1  0.142952  0.391513  0.698548  1
  O  O18  1  0.307035  0.055596  0.198548  1
  O  O19  1  0.692965  0.891513  0.748561  1
  O  O20  1  0.147646  0.700063  0.381540  1
  O  O21  1  0.852354  0.233894  0.552418  1
  O  O22  1  0.318523  0.200063  0.052418  1
  O  O23  1  0.681477  0.733894  0.881540  1
  O  O24  1  0.100287  0.347077  0.225671  1
  O  O25  1  0.899713  0.125383  0.246790  1
  O  O26  1  0.121406  0.847077  0.746790  1
  O  O27  1  0.878594  0.625383  0.725671  1
  O  O28  1  0.201529  0.748769  0.110786  1
  O  O29  1  0.798471  0.909257  0.547240  1
  O  O30  1  0.637983  0.248769  0.047240  1
  O  O31  1  0.362017  0.409257  0.610786  1
  O  O32  1  0.348814  0.720895  0.917815  1
  O  O33  1  0.651186  0.569002  0.372081  1
  O  O34  1  0.803079  0.220895  0.872081  1
  O  O35  1  0.196921  0.069002  0.417815  1
  O  O36  1  0.572896  0.042188  0.162233  1
  O  O37  1  0.427104  0.589338  0.469293  1
  O  O38  1  0.879955  0.542188  0.969293  1
  O  O39  1  0.120045  0.089338  0.662233  1
  O  O40  1  0.561740  0.068246  0.471027  1
  O  O41  1  0.438260  0.909288  0.506506  1
  O  O42  1  0.597218  0.568246  0.006506  1
  O  O43  1  0.402782  0.409288  0.971027  1
  O  O44  1  0.590799  0.377973  0.493843  1
  O  O45  1  0.409201  0.903044  0.787174  1
  O  O46  1  0.884131  0.877973  0.287174  1
  O  O47  1  0.115869  0.403044  0.993843  1
