# generated using pymatgen
data_Al45V7
_symmetry_space_group_name_H-M   'P 1'
_cell_length_a   11.10639044
_cell_length_b   11.10639044
_cell_length_c   11.08407523
_cell_angle_alpha   74.07857320
_cell_angle_beta   105.92142680
_cell_angle_gamma   139.96706817
_symmetry_Int_Tables_number   1
_chemical_formula_structural   Al45V7
_chemical_formula_sum   'Al45 V7'
_cell_volume   841.13233166
_cell_formula_units_Z   1
loop_
 _symmetry_equiv_pos_site_id
 _symmetry_equiv_pos_as_xyz
  1  'x, y, z'
loop_
 _atom_site_type_symbol
 _atom_site_label
 _atom_site_symmetry_multiplicity
 _atom_site_fract_x
 _atom_site_fract_y
 _atom_site_fract_z
 _atom_site_occupancy
  Al  Al0  1  0.750941  0.613456  0.989639  1
  Al  Al1  1  0.249059  0.386544  0.010361  1
  Al  Al2  1  0.613456  0.750941  0.010361  1
  Al  Al3  1  0.759882  0.850600  0.376833  1
  Al  Al4  1  0.707174  0.292826  0.489640  1
  Al  Al5  1  0.995551  0.634598  0.351648  1
  Al  Al6  1  0.850600  0.759882  0.623167  1
  Al  Al7  1  0.150577  0.222327  0.794400  1
  Al  Al8  1  0.528420  0.858476  0.143731  1
  Al  Al9  1  0.891116  0.479943  0.132761  1
  Al  Al10  1  0.141524  0.471580  0.143731  1
  Al  Al11  1  0.858476  0.528420  0.856269  1
  Al  Al12  1  0.625012  0.374988  0.638272  1
  Al  Al13  1  0.994298  0.374249  0.378146  1
  Al  Al14  1  0.520057  0.108884  0.132761  1
  Al  Al15  1  0.871276  0.128724  0.887165  1
  Al  Al16  1  0.128724  0.871276  0.112835  1
  Al  Al17  1  0.479280  0.520720  0.243199  1
  Al  Al18  1  0.775365  0.224635  0.007775  1
  Al  Al19  1  0.374249  0.994298  0.621854  1
  Al  Al20  1  0.471580  0.141524  0.856269  1
  Al  Al21  1  0.004449  0.365402  0.648352  1
  Al  Al22  1  0.384430  0.615570  0.772059  1
  Al  Al23  1  0.625751  0.005702  0.378146  1
  Al  Al24  1  0.090464  0.909536  0.845477  1
  Al  Al25  1  0.849423  0.777673  0.205600  1
  Al  Al26  1  0.374988  0.625012  0.361728  1
  Al  Al27  1  0.520720  0.479280  0.756801  1
  Al  Al28  1  0.082577  0.917423  0.442030  1
  Al  Al29  1  0.615570  0.384430  0.227941  1
  Al  Al30  1  0.500000  0.500000  0.500000  1
  Al  Al31  1  0.240118  0.149400  0.623167  1
  Al  Al32  1  0.224635  0.775365  0.992225  1
  Al  Al33  1  0.005702  0.625751  0.621854  1
  Al  Al34  1  0.386544  0.249059  0.989639  1
  Al  Al35  1  0.365402  0.004449  0.351648  1
  Al  Al36  1  0.777673  0.849423  0.794400  1
  Al  Al37  1  0.149400  0.240118  0.376833  1
  Al  Al38  1  0.917423  0.082577  0.557970  1
  Al  Al39  1  0.909536  0.090464  0.154523  1
  Al  Al40  1  0.479943  0.891116  0.867239  1
  Al  Al41  1  0.292826  0.707174  0.510360  1
  Al  Al42  1  0.222327  0.150577  0.205600  1
  Al  Al43  1  0.634598  0.995551  0.648352  1
  Al  Al44  1  0.108884  0.520057  0.867239  1
  V  V45  1  0.748995  0.251005  0.760543  1
  V  V46  1  0.415820  0.244218  0.419061  1
  V  V47  1  0.584180  0.755782  0.580939  1
  V  V48  1  0.251005  0.748995  0.239457  1
  V  V49  1  0.755782  0.584180  0.419061  1
  V  V50  1  0.000000  0.000000  0.000000  1
  V  V51  1  0.244218  0.415820  0.580939  1
