# generated using pymatgen
data_Ce2Fe17N3
_symmetry_space_group_name_H-M   'P 1'
_cell_length_a   6.52917308
_cell_length_b   6.52917308
_cell_length_c   6.52917308
_cell_angle_alpha   83.31387378
_cell_angle_beta   83.31387378
_cell_angle_gamma   83.31387378
_symmetry_Int_Tables_number   1
_chemical_formula_structural   Ce2Fe17N3
_chemical_formula_sum   'Ce2 Fe17 N3'
_cell_volume   273.06897105
_cell_formula_units_Z   1
loop_
 _symmetry_equiv_pos_site_id
 _symmetry_equiv_pos_as_xyz
  1  'x, y, z'
loop_
 _atom_site_type_symbol
 _atom_site_label
 _atom_site_symmetry_multiplicity
 _atom_site_fract_x
 _atom_site_fract_y
 _atom_site_fract_z
 _atom_site_occupancy
  Ce  Ce0  1  0.343025  0.343025  0.343025  1
  Ce  Ce1  1  0.656975  0.656975  0.656975  1
  Fe  Fe2  1  0.094936  0.094936  0.094936  1
  Fe  Fe3  1  0.500000  1.000000  1.000000  1
  Fe  Fe4  1  0.000000  0.500000  1.000000  1
  Fe  Fe5  1  0.000000  0.000000  0.500000  1
  Fe  Fe6  1  0.000000  0.718632  0.281368  1
  Fe  Fe7  1  0.281368  0.000000  0.718632  1
  Fe  Fe8  1  0.718632  0.281368  0.000000  1
  Fe  Fe9  1  1.000000  0.281368  0.718632  1
  Fe  Fe10  1  0.718632  0.000000  0.281368  1
  Fe  Fe11  1  0.281368  0.718632  0.000000  1
  Fe  Fe12  1  0.342137  0.342137  0.857373  1
  Fe  Fe13  1  0.857373  0.342137  0.342137  1
  Fe  Fe14  1  0.342137  0.857373  0.342137  1
  Fe  Fe15  1  0.657863  0.142627  0.657863  1
  Fe  Fe16  1  0.657863  0.657863  0.142627  1
  Fe  Fe17  1  0.142627  0.657863  0.657863  1
  Fe  Fe18  1  0.905064  0.905064  0.905064  1
  N  N19  1  0.500000  0.500000  0.000000  1
  N  N20  1  0.500000  1.000000  0.500000  1
  N  N21  1  0.000000  0.500000  0.500000  1
