# generated using pymatgen
data_Ca2MnSbO6
_symmetry_space_group_name_H-M   'P 1'
_cell_length_a   5.58705583
_cell_length_b   7.71686901
_cell_length_c   5.68091884
_cell_angle_alpha   90.00000000
_cell_angle_beta   93.84797792
_cell_angle_gamma   90.00000000
_symmetry_Int_Tables_number   1
_chemical_formula_structural   Ca2MnSbO6
_chemical_formula_sum   'Ca4 Mn2 Sb2 O12'
_cell_volume   244.37825261
_cell_formula_units_Z   2
loop_
 _symmetry_equiv_pos_site_id
 _symmetry_equiv_pos_as_xyz
  1  'x, y, z'
loop_
 _atom_site_type_symbol
 _atom_site_label
 _atom_site_symmetry_multiplicity
 _atom_site_fract_x
 _atom_site_fract_y
 _atom_site_fract_z
 _atom_site_occupancy
  Ca  Ca0  1  0.478786  0.750000  0.439419  1
  Ca  Ca1  1  0.521214  0.250000  0.560581  1
  Ca  Ca2  1  0.992182  0.750000  0.961456  1
  Ca  Ca3  1  0.007818  0.250000  0.038544  1
  Mn  Mn4  1  0.500000  0.500000  0.000000  1
  Mn  Mn5  1  0.500000  0.000000  0.000000  1
  Sb  Sb6  1  0.000000  0.500000  0.500000  1
  Sb  Sb7  1  0.000000  0.000000  0.500000  1
  O  O8  1  0.697909  0.450981  0.297274  1
  O  O9  1  0.819697  0.051162  0.778746  1
  O  O10  1  0.302091  0.950981  0.702726  1
  O  O11  1  0.180303  0.551162  0.221254  1
  O  O12  1  0.819697  0.448838  0.778746  1
  O  O13  1  0.180303  0.948838  0.221254  1
  O  O14  1  0.105127  0.250000  0.459194  1
  O  O15  1  0.697909  0.049019  0.297274  1
  O  O16  1  0.583099  0.750000  0.036632  1
  O  O17  1  0.302091  0.549019  0.702726  1
  O  O18  1  0.894873  0.750000  0.540806  1
  O  O19  1  0.416901  0.250000  0.963368  1
