# generated using pymatgen
data_CaP4O11
_symmetry_space_group_name_H-M   'P 1'
_cell_length_a   8.90629138
_cell_length_b   8.90629138
_cell_length_c   12.94889509
_cell_angle_alpha   90.00000000
_cell_angle_beta   90.00000000
_cell_angle_gamma   92.08761160
_symmetry_Int_Tables_number   1
_chemical_formula_structural   CaP4O11
_chemical_formula_sum   'Ca4 P16 O44'
_cell_volume   1026.45087990
_cell_formula_units_Z   4
loop_
 _symmetry_equiv_pos_site_id
 _symmetry_equiv_pos_as_xyz
  1  'x, y, z'
loop_
 _atom_site_type_symbol
 _atom_site_label
 _atom_site_symmetry_multiplicity
 _atom_site_fract_x
 _atom_site_fract_y
 _atom_site_fract_z
 _atom_site_occupancy
  Ca  Ca0  1  0.732891  0.732891  0.969508  1
  Ca  Ca1  1  0.767109  0.767109  0.469508  1
  Ca  Ca2  1  0.232891  0.232891  0.530492  1
  Ca  Ca3  1  0.267109  0.267109  0.030492  1
  P  P4  1  0.404439  0.404439  0.288912  1
  P  P5  1  0.678483  0.321517  0.000000  1
  P  P6  1  0.265500  0.612985  0.662342  1
  P  P7  1  0.765500  0.112985  0.837658  1
  P  P8  1  0.387015  0.734500  0.337658  1
  P  P9  1  0.734500  0.387015  0.337658  1
  P  P10  1  0.321517  0.678483  0.000000  1
  P  P11  1  0.612985  0.265500  0.662342  1
  P  P12  1  0.595561  0.595561  0.711088  1
  P  P13  1  0.112985  0.765500  0.837658  1
  P  P14  1  0.887015  0.234500  0.162342  1
  P  P15  1  0.178483  0.821517  0.500000  1
  P  P16  1  0.234500  0.887015  0.162342  1
  P  P17  1  0.904439  0.904439  0.211088  1
  P  P18  1  0.821517  0.178483  0.500000  1
  P  P19  1  0.095561  0.095561  0.788912  1
  O  O20  1  0.769413  0.020961  0.518752  1
  O  O21  1  0.979039  0.230587  0.481248  1
  O  O22  1  0.224207  0.475810  0.604567  1
  O  O23  1  0.388124  0.586249  0.272046  1
  O  O24  1  0.783448  0.261914  0.903718  1
  O  O25  1  0.775793  0.524190  0.395433  1
  O  O26  1  0.361381  0.361381  0.395812  1
  O  O27  1  0.355944  0.855944  0.250000  1
  O  O28  1  0.724207  0.975810  0.895433  1
  O  O29  1  0.730587  0.479039  0.018752  1
  O  O30  1  0.283448  0.761914  0.596282  1
  O  O31  1  0.138619  0.138619  0.895812  1
  O  O32  1  0.861381  0.861381  0.104188  1
  O  O33  1  0.269413  0.520961  0.981248  1
  O  O34  1  0.479039  0.730587  0.018752  1
  O  O35  1  0.836107  0.836107  0.304742  1
  O  O36  1  0.644056  0.144056  0.750000  1
  O  O37  1  0.638619  0.638619  0.604188  1
  O  O38  1  0.611876  0.413751  0.727954  1
  O  O39  1  0.586249  0.388124  0.272046  1
  O  O40  1  0.913751  0.111876  0.772046  1
  O  O41  1  0.336107  0.336107  0.195258  1
  O  O42  1  0.975810  0.724207  0.895433  1
  O  O43  1  0.163893  0.163893  0.695258  1
  O  O44  1  0.716552  0.238086  0.403718  1
  O  O45  1  0.275793  0.024190  0.104567  1
  O  O46  1  0.761914  0.283448  0.596282  1
  O  O47  1  0.738086  0.216552  0.096282  1
  O  O48  1  0.663893  0.663893  0.804742  1
  O  O49  1  0.020961  0.769413  0.518752  1
  O  O50  1  0.216552  0.738086  0.096282  1
  O  O51  1  0.144056  0.644056  0.750000  1
  O  O52  1  0.111876  0.913751  0.772046  1
  O  O53  1  0.524190  0.775793  0.395433  1
  O  O54  1  0.230587  0.979039  0.481248  1
  O  O55  1  0.261914  0.783448  0.903718  1
  O  O56  1  0.855944  0.355944  0.250000  1
  O  O57  1  0.520961  0.269413  0.981248  1
  O  O58  1  0.475810  0.224207  0.604567  1
  O  O59  1  0.238086  0.716552  0.403718  1
  O  O60  1  0.024190  0.275793  0.104567  1
  O  O61  1  0.413751  0.611876  0.727954  1
  O  O62  1  0.086249  0.888124  0.227954  1
  O  O63  1  0.888124  0.086249  0.227954  1
