# generated using pymatgen
data_Zr2Nb3Ge4
_symmetry_space_group_name_H-M   'P 1'
_cell_length_a   6.87491650
_cell_length_b   6.98467269
_cell_length_c   13.53529697
_cell_angle_alpha   90.00000000
_cell_angle_beta   90.00000000
_cell_angle_gamma   90.00000000
_symmetry_Int_Tables_number   1
_chemical_formula_structural   Zr2Nb3Ge4
_chemical_formula_sum   'Zr8 Nb12 Ge16'
_cell_volume   649.95198724
_cell_formula_units_Z   4
loop_
 _symmetry_equiv_pos_site_id
 _symmetry_equiv_pos_as_xyz
  1  'x, y, z'
loop_
 _atom_site_type_symbol
 _atom_site_label
 _atom_site_symmetry_multiplicity
 _atom_site_fract_x
 _atom_site_fract_y
 _atom_site_fract_z
 _atom_site_occupancy
  Zr  Zr0  1  0.848190  0.666064  0.123764  1
  Zr  Zr1  1  0.348190  0.833936  0.376236  1
  Zr  Zr2  1  0.651810  0.166064  0.876236  1
  Zr  Zr3  1  0.151810  0.333936  0.623764  1
  Zr  Zr4  1  0.151810  0.333936  0.876236  1
  Zr  Zr5  1  0.651810  0.166064  0.623764  1
  Zr  Zr6  1  0.348190  0.833936  0.123764  1
  Zr  Zr7  1  0.848190  0.666064  0.376236  1
  Nb  Nb8  1  0.020092  0.178461  0.090606  1
  Nb  Nb9  1  0.520092  0.321539  0.409394  1
  Nb  Nb10  1  0.479908  0.678461  0.909394  1
  Nb  Nb11  1  0.979908  0.821539  0.590606  1
  Nb  Nb12  1  0.979908  0.821539  0.909394  1
  Nb  Nb13  1  0.479908  0.678461  0.590606  1
  Nb  Nb14  1  0.520092  0.321539  0.090606  1
  Nb  Nb15  1  0.020092  0.178461  0.409394  1
  Nb  Nb16  1  0.674388  0.996187  0.250000  1
  Nb  Nb17  1  0.174388  0.503813  0.250000  1
  Nb  Nb18  1  0.825612  0.496187  0.750000  1
  Nb  Nb19  1  0.325612  0.003813  0.750000  1
  Ge  Ge20  1  0.819337  0.341134  0.250000  1
  Ge  Ge21  1  0.319337  0.158866  0.250000  1
  Ge  Ge22  1  0.680663  0.841134  0.750000  1
  Ge  Ge23  1  0.180663  0.658866  0.750000  1
  Ge  Ge24  1  0.044449  0.902785  0.250000  1
  Ge  Ge25  1  0.544449  0.597215  0.250000  1
  Ge  Ge26  1  0.455551  0.402785  0.750000  1
  Ge  Ge27  1  0.955551  0.097215  0.750000  1
  Ge  Ge28  1  0.803677  0.473543  0.957544  1
  Ge  Ge29  1  0.303677  0.026457  0.542456  1
  Ge  Ge30  1  0.696323  0.973543  0.042456  1
  Ge  Ge31  1  0.196323  0.526457  0.457544  1
  Ge  Ge32  1  0.196323  0.526457  0.042456  1
  Ge  Ge33  1  0.696323  0.973543  0.457544  1
  Ge  Ge34  1  0.303677  0.026457  0.957544  1
  Ge  Ge35  1  0.803677  0.473543  0.542456  1
