# generated using pymatgen
data_RbNbSiO5
_symmetry_space_group_name_H-M   'P 1'
_cell_length_a   7.41874192
_cell_length_b   10.46548996
_cell_length_c   20.48842800
_cell_angle_alpha   90.00000000
_cell_angle_beta   90.00000000
_cell_angle_gamma   90.00000000
_symmetry_Int_Tables_number   1
_chemical_formula_structural   RbNbSiO5
_chemical_formula_sum   'Rb12 Nb12 Si12 O60'
_cell_volume   1590.73730715
_cell_formula_units_Z   12
loop_
 _symmetry_equiv_pos_site_id
 _symmetry_equiv_pos_as_xyz
  1  'x, y, z'
loop_
 _atom_site_type_symbol
 _atom_site_label
 _atom_site_symmetry_multiplicity
 _atom_site_fract_x
 _atom_site_fract_y
 _atom_site_fract_z
 _atom_site_occupancy
  Rb  Rb0  1  0.721042  0.617647  0.017896  1
  Rb  Rb1  1  0.741091  0.616127  0.348028  1
  Rb  Rb2  1  0.742503  0.686519  0.667438  1
  Rb  Rb3  1  0.242503  0.813481  0.332562  1
  Rb  Rb4  1  0.257497  0.186519  0.832562  1
  Rb  Rb5  1  0.778958  0.382353  0.517896  1
  Rb  Rb6  1  0.241091  0.883873  0.651972  1
  Rb  Rb7  1  0.758909  0.383873  0.848028  1
  Rb  Rb8  1  0.278958  0.117647  0.482104  1
  Rb  Rb9  1  0.757497  0.313481  0.167438  1
  Rb  Rb10  1  0.258909  0.116127  0.151972  1
  Rb  Rb11  1  0.221042  0.882353  0.982104  1
  Nb  Nb12  1  0.514299  0.266924  0.999512  1
  Nb  Nb13  1  0.265312  0.480192  0.424349  1
  Nb  Nb14  1  0.985701  0.733076  0.499512  1
  Nb  Nb15  1  0.014299  0.233076  0.000488  1
  Nb  Nb16  1  0.734688  0.980192  0.075651  1
  Nb  Nb17  1  0.241293  0.484234  0.104013  1
  Nb  Nb18  1  0.234688  0.519808  0.924349  1
  Nb  Nb19  1  0.485701  0.766924  0.500488  1
  Nb  Nb20  1  0.258707  0.515766  0.604013  1
  Nb  Nb21  1  0.758706  0.984234  0.395987  1
  Nb  Nb22  1  0.741294  0.015766  0.895987  1
  Nb  Nb23  1  0.765312  0.019808  0.575651  1
  Si  Si24  1  0.566189  0.268775  0.350261  1
  Si  Si25  1  0.022868  0.757214  0.149448  1
  Si  Si26  1  0.522868  0.742786  0.850552  1
  Si  Si27  1  0.765435  0.122568  0.729505  1
  Si  Si28  1  0.066189  0.231225  0.649739  1
  Si  Si29  1  0.234565  0.622568  0.770495  1
  Si  Si30  1  0.933811  0.731225  0.850261  1
  Si  Si31  1  0.265435  0.377432  0.270495  1
  Si  Si32  1  0.977132  0.257214  0.350552  1
  Si  Si33  1  0.734565  0.877432  0.229505  1
  Si  Si34  1  0.433811  0.768775  0.149739  1
  Si  Si35  1  0.477132  0.242786  0.649448  1
  O  O36  1  0.924275  0.877179  0.566873  1
  O  O37  1  0.946804  0.122164  0.926959  1
  O  O38  1  0.743795  0.996239  0.178599  1
  O  O39  1  0.075725  0.377179  0.933127  1
  O  O40  1  0.571561  0.143799  0.923181  1
  O  O41  1  0.734204  0.934146  0.984916  1
  O  O42  1  0.977031  0.144981  0.592065  1
  O  O43  1  0.593531  0.222855  0.717904  1
  O  O44  1  0.756205  0.003761  0.678599  1
  O  O45  1  0.428439  0.643799  0.576819  1
  O  O46  1  0.544107  0.894394  0.865456  1
  O  O47  1  0.924677  0.831632  0.090030  1
  O  O48  1  0.765206  0.315064  0.001045  1
  O  O49  1  0.567719  0.119077  0.368445  1
  O  O50  1  0.093531  0.277145  0.282096  1
  O  O51  1  0.044053  0.704793  0.780948  1
  O  O52  1  0.265796  0.434146  0.515084  1
  O  O53  1  0.740492  0.909123  0.306422  1
  O  O54  1  0.071561  0.356201  0.076819  1
  O  O55  1  0.906469  0.777145  0.217904  1
  O  O56  1  0.406469  0.722855  0.782096  1
  O  O57  1  0.455893  0.394394  0.634544  1
  O  O58  1  0.265206  0.184936  0.998955  1
  O  O59  1  0.234204  0.565854  0.015084  1
  O  O60  1  0.274911  0.179057  0.664372  1
  O  O61  1  0.259508  0.409123  0.193578  1
  O  O62  1  0.225089  0.820943  0.164372  1
  O  O63  1  0.558457  0.898718  0.564265  1
  O  O64  1  0.759508  0.090877  0.806422  1
  O  O65  1  0.477031  0.355019  0.407935  1
  O  O66  1  0.725089  0.679057  0.835628  1
  O  O67  1  0.765796  0.065854  0.484916  1
  O  O68  1  0.075323  0.331632  0.409970  1
  O  O69  1  0.544053  0.795207  0.219052  1
  O  O70  1  0.522969  0.855019  0.092065  1
  O  O71  1  0.044107  0.605606  0.134544  1
  O  O72  1  0.928439  0.856201  0.423181  1
  O  O73  1  0.575323  0.168368  0.590030  1
  O  O74  1  0.955893  0.105606  0.365456  1
  O  O75  1  0.432281  0.619077  0.131555  1
  O  O76  1  0.955947  0.204793  0.719052  1
  O  O77  1  0.575725  0.122821  0.066873  1
  O  O78  1  0.067719  0.380923  0.631555  1
  O  O79  1  0.256205  0.496239  0.321401  1
  O  O80  1  0.424677  0.668368  0.909970  1
  O  O81  1  0.234794  0.815064  0.498955  1
  O  O82  1  0.941543  0.101282  0.064265  1
  O  O83  1  0.774911  0.320943  0.335628  1
  O  O84  1  0.734794  0.684936  0.501045  1
  O  O85  1  0.058457  0.601282  0.435735  1
  O  O86  1  0.455947  0.295207  0.280948  1
  O  O87  1  0.932281  0.880923  0.868445  1
  O  O88  1  0.424275  0.622821  0.433127  1
  O  O89  1  0.022969  0.644981  0.907935  1
  O  O90  1  0.553196  0.877836  0.426959  1
  O  O91  1  0.243795  0.503761  0.821401  1
  O  O92  1  0.240492  0.590877  0.693578  1
  O  O93  1  0.446804  0.377836  0.073041  1
  O  O94  1  0.053196  0.622164  0.573041  1
  O  O95  1  0.441543  0.398718  0.935735  1
