# generated using pymatgen
data_Ti4S8Cl6O
_symmetry_space_group_name_H-M   'P 1'
_cell_length_a   9.82662790
_cell_length_b   9.82662790
_cell_length_c   13.38672057
_cell_angle_alpha   81.53844764
_cell_angle_beta   98.46155236
_cell_angle_gamma   58.87925734
_symmetry_Int_Tables_number   1
_chemical_formula_structural   Ti4S8Cl6O
_chemical_formula_sum   'Ti8 S16 Cl12 O2'
_cell_volume   1055.86246929
_cell_formula_units_Z   2
loop_
 _symmetry_equiv_pos_site_id
 _symmetry_equiv_pos_as_xyz
  1  'x, y, z'
loop_
 _atom_site_type_symbol
 _atom_site_label
 _atom_site_symmetry_multiplicity
 _atom_site_fract_x
 _atom_site_fract_y
 _atom_site_fract_z
 _atom_site_occupancy
  Ti  Ti0  1  0.133852  0.235337  0.851224  1
  Ti  Ti1  1  0.792556  0.135515  0.213181  1
  Ti  Ti2  1  0.864485  0.207444  0.713181  1
  Ti  Ti3  1  0.866148  0.764663  0.148776  1
  Ti  Ti4  1  0.764663  0.866148  0.351224  1
  Ti  Ti5  1  0.135515  0.792556  0.286819  1
  Ti  Ti6  1  0.207444  0.864485  0.786819  1
  Ti  Ti7  1  0.235337  0.133852  0.648776  1
  S  S8  1  0.866049  0.275979  0.879229  1
  S  S9  1  0.069131  0.047704  0.176144  1
  S  S10  1  0.451685  0.850488  0.734023  1
  S  S11  1  0.952296  0.930869  0.676144  1
  S  S12  1  0.133951  0.724021  0.120771  1
  S  S13  1  0.170452  0.387638  0.710852  1
  S  S14  1  0.047704  0.069131  0.323856  1
  S  S15  1  0.275979  0.866049  0.620771  1
  S  S16  1  0.612362  0.829548  0.210852  1
  S  S17  1  0.930869  0.952296  0.823856  1
  S  S18  1  0.149512  0.548315  0.234023  1
  S  S19  1  0.829548  0.612362  0.289148  1
  S  S20  1  0.387638  0.170452  0.789148  1
  S  S21  1  0.724021  0.133951  0.379229  1
  S  S22  1  0.850488  0.451685  0.765977  1
  S  S23  1  0.548315  0.149512  0.265977  1
  Cl  Cl24  1  0.285542  0.932341  0.953619  1
  Cl  Cl25  1  0.067659  0.714458  0.453619  1
  Cl  Cl26  1  0.308950  0.198588  0.508671  1
  Cl  Cl27  1  0.801412  0.691050  0.008671  1
  Cl  Cl28  1  0.338489  0.596482  0.861897  1
  Cl  Cl29  1  0.691050  0.801412  0.491329  1
  Cl  Cl30  1  0.596482  0.338489  0.638103  1
  Cl  Cl31  1  0.932341  0.285542  0.546381  1
  Cl  Cl32  1  0.661511  0.403518  0.138103  1
  Cl  Cl33  1  0.198588  0.308950  0.991329  1
  Cl  Cl34  1  0.403518  0.661511  0.361897  1
  Cl  Cl35  1  0.714458  0.067659  0.046381  1
  O  O36  1  0.889683  0.889683  0.250000  1
  O  O37  1  0.110317  0.110317  0.750000  1
