# generated using pymatgen
data_La3S3N
_symmetry_space_group_name_H-M   'P 1'
_cell_length_a   4.17284867
_cell_length_b   12.22769333
_cell_length_c   13.25664395
_cell_angle_alpha   90.00000000
_cell_angle_beta   90.00000000
_cell_angle_gamma   90.00000000
_symmetry_Int_Tables_number   1
_chemical_formula_structural   La3S3N
_chemical_formula_sum   'La12 S12 N4'
_cell_volume   676.41116149
_cell_formula_units_Z   4
loop_
 _symmetry_equiv_pos_site_id
 _symmetry_equiv_pos_as_xyz
  1  'x, y, z'
loop_
 _atom_site_type_symbol
 _atom_site_label
 _atom_site_symmetry_multiplicity
 _atom_site_fract_x
 _atom_site_fract_y
 _atom_site_fract_z
 _atom_site_occupancy
  La  La0  1  0.750000  0.904789  0.625493  1
  La  La1  1  0.750000  0.770345  0.869930  1
  La  La2  1  0.250000  0.729655  0.369930  1
  La  La3  1  0.250000  0.595211  0.125493  1
  La  La4  1  0.750000  0.466650  0.347675  1
  La  La5  1  0.750000  0.966650  0.152325  1
  La  La6  1  0.250000  0.229655  0.130070  1
  La  La7  1  0.750000  0.270345  0.630070  1
  La  La8  1  0.250000  0.033350  0.847675  1
  La  La9  1  0.750000  0.404789  0.874507  1
  La  La10  1  0.250000  0.095211  0.374507  1
  La  La11  1  0.250000  0.533350  0.652325  1
  S  S12  1  0.250000  0.765774  0.705562  1
  S  S13  1  0.250000  0.071586  0.607443  1
  S  S14  1  0.250000  0.353980  0.497922  1
  S  S15  1  0.750000  0.234226  0.294438  1
  S  S16  1  0.750000  0.646020  0.502078  1
  S  S17  1  0.750000  0.428414  0.107443  1
  S  S18  1  0.250000  0.265774  0.794438  1
  S  S19  1  0.750000  0.146020  0.997922  1
  S  S20  1  0.250000  0.853980  0.002078  1
  S  S21  1  0.750000  0.928414  0.392557  1
  S  S22  1  0.250000  0.571586  0.892557  1
  S  S23  1  0.750000  0.734226  0.205562  1
  N  N24  1  0.750000  0.444984  0.701699  1
  N  N25  1  0.250000  0.055016  0.201699  1
  N  N26  1  0.750000  0.944984  0.798301  1
  N  N27  1  0.250000  0.555016  0.298301  1
