# generated using pymatgen
data_La2TeI2
_symmetry_space_group_name_H-M   'P 1'
_cell_length_a   11.53216973
_cell_length_b   11.53216973
_cell_length_c   11.53216973
_cell_angle_alpha   22.69527721
_cell_angle_beta   22.69527721
_cell_angle_gamma   22.69527721
_symmetry_Int_Tables_number   1
_chemical_formula_structural   La2TeI2
_chemical_formula_sum   'La2 Te1 I2'
_cell_volume   200.30635336
_cell_formula_units_Z   1
loop_
 _symmetry_equiv_pos_site_id
 _symmetry_equiv_pos_as_xyz
  1  'x, y, z'
loop_
 _atom_site_type_symbol
 _atom_site_label
 _atom_site_symmetry_multiplicity
 _atom_site_fract_x
 _atom_site_fract_y
 _atom_site_fract_z
 _atom_site_occupancy
  La  La0  1  0.886434  0.886434  0.886434  1
  La  La1  1  0.113566  0.113566  0.113566  1
  Te  Te2  1  0.500000  0.500000  0.500000  1
  I  I3  1  0.719711  0.719711  0.719711  1
  I  I4  1  0.280289  0.280289  0.280289  1
