# generated using pymatgen
data_Pr2Sc3Si4
_symmetry_space_group_name_H-M   'P 1'
_cell_length_a   7.25102478
_cell_length_b   7.55038746
_cell_length_c   14.25646194
_cell_angle_alpha   90.00000000
_cell_angle_beta   90.00000000
_cell_angle_gamma   90.00000000
_symmetry_Int_Tables_number   1
_chemical_formula_structural   Pr2Sc3Si4
_chemical_formula_sum   'Pr8 Sc12 Si16'
_cell_volume   780.51344223
_cell_formula_units_Z   4
loop_
 _symmetry_equiv_pos_site_id
 _symmetry_equiv_pos_as_xyz
  1  'x, y, z'
loop_
 _atom_site_type_symbol
 _atom_site_label
 _atom_site_symmetry_multiplicity
 _atom_site_fract_x
 _atom_site_fract_y
 _atom_site_fract_z
 _atom_site_occupancy
  Pr  Pr0  1  0.012002  0.172402  0.402406  1
  Pr  Pr1  1  0.512002  0.327598  0.402406  1
  Pr  Pr2  1  0.487998  0.672402  0.902406  1
  Pr  Pr3  1  0.487998  0.672402  0.597594  1
  Pr  Pr4  1  0.987998  0.827598  0.597594  1
  Pr  Pr5  1  0.987998  0.827598  0.902406  1
  Pr  Pr6  1  0.512002  0.327598  0.097594  1
  Pr  Pr7  1  0.012002  0.172402  0.097594  1
  Sc  Sc8  1  0.329025  0.175682  0.625123  1
  Sc  Sc9  1  0.670975  0.824318  0.374877  1
  Sc  Sc10  1  0.661820  0.999820  0.750000  1
  Sc  Sc11  1  0.170975  0.675682  0.374877  1
  Sc  Sc12  1  0.829025  0.324318  0.874877  1
  Sc  Sc13  1  0.829025  0.324318  0.625123  1
  Sc  Sc14  1  0.838180  0.499820  0.250000  1
  Sc  Sc15  1  0.338180  0.000180  0.250000  1
  Sc  Sc16  1  0.329025  0.175682  0.874877  1
  Sc  Sc17  1  0.170975  0.675682  0.125123  1
  Sc  Sc18  1  0.670975  0.824318  0.125123  1
  Sc  Sc19  1  0.161820  0.500180  0.750000  1
  Si  Si20  1  0.287186  0.882547  0.750000  1
  Si  Si21  1  0.465004  0.624654  0.250000  1
  Si  Si22  1  0.034996  0.124654  0.750000  1
  Si  Si23  1  0.534996  0.375346  0.750000  1
  Si  Si24  1  0.151375  0.463055  0.539664  1
  Si  Si25  1  0.965004  0.875346  0.250000  1
  Si  Si26  1  0.712814  0.117453  0.250000  1
  Si  Si27  1  0.848625  0.536945  0.039664  1
  Si  Si28  1  0.348625  0.963055  0.039664  1
  Si  Si29  1  0.151375  0.463055  0.960336  1
  Si  Si30  1  0.651375  0.036945  0.539664  1
  Si  Si31  1  0.348625  0.963055  0.460336  1
  Si  Si32  1  0.848625  0.536945  0.460336  1
  Si  Si33  1  0.787186  0.617453  0.750000  1
  Si  Si34  1  0.212814  0.382547  0.250000  1
  Si  Si35  1  0.651375  0.036945  0.960336  1
