# generated using pymatgen
data_Ho5CoSb2
_symmetry_space_group_name_H-M   'P 1'
_cell_length_a   7.84253434
_cell_length_b   8.74688555
_cell_length_c   12.14723839
_cell_angle_alpha   90.00000000
_cell_angle_beta   90.00000000
_cell_angle_gamma   90.00000000
_symmetry_Int_Tables_number   1
_chemical_formula_structural   Ho5CoSb2
_chemical_formula_sum   'Ho20 Co4 Sb8'
_cell_volume   833.27322584
_cell_formula_units_Z   4
loop_
 _symmetry_equiv_pos_site_id
 _symmetry_equiv_pos_as_xyz
  1  'x, y, z'
loop_
 _atom_site_type_symbol
 _atom_site_label
 _atom_site_symmetry_multiplicity
 _atom_site_fract_x
 _atom_site_fract_y
 _atom_site_fract_z
 _atom_site_occupancy
  Ho  Ho0  1  0.157089  0.750000  0.204331  1
  Ho  Ho1  1  0.657089  0.250000  0.295669  1
  Ho  Ho2  1  0.842911  0.250000  0.795669  1
  Ho  Ho3  1  0.342911  0.750000  0.704331  1
  Ho  Ho4  1  0.451617  0.750000  0.998065  1
  Ho  Ho5  1  0.951617  0.250000  0.501935  1
  Ho  Ho6  1  0.548383  0.250000  0.001935  1
  Ho  Ho7  1  0.048383  0.750000  0.498065  1
  Ho  Ho8  1  0.622833  0.750000  0.307223  1
  Ho  Ho9  1  0.122833  0.250000  0.192777  1
  Ho  Ho10  1  0.377167  0.250000  0.692777  1
  Ho  Ho11  1  0.877167  0.750000  0.807223  1
  Ho  Ho12  1  0.823289  0.962238  0.065481  1
  Ho  Ho13  1  0.323289  0.037762  0.434519  1
  Ho  Ho14  1  0.176711  0.462238  0.934519  1
  Ho  Ho15  1  0.676711  0.537762  0.565481  1
  Ho  Ho16  1  0.176711  0.037762  0.934519  1
  Ho  Ho17  1  0.676711  0.962238  0.565481  1
  Ho  Ho18  1  0.823289  0.537762  0.065481  1
  Ho  Ho19  1  0.323289  0.462238  0.434519  1
  Co  Co20  1  0.429613  0.750000  0.489888  1
  Co  Co21  1  0.929613  0.250000  0.010112  1
  Co  Co22  1  0.570387  0.250000  0.510112  1
  Co  Co23  1  0.070387  0.750000  0.989888  1
  Sb  Sb24  1  0.930774  0.991721  0.327143  1
  Sb  Sb25  1  0.430774  0.008279  0.172857  1
  Sb  Sb26  1  0.069226  0.491721  0.672857  1
  Sb  Sb27  1  0.569226  0.508279  0.827143  1
  Sb  Sb28  1  0.069226  0.008279  0.672857  1
  Sb  Sb29  1  0.569226  0.991721  0.827143  1
  Sb  Sb30  1  0.930774  0.508279  0.327143  1
  Sb  Sb31  1  0.430774  0.491721  0.172857  1
