# generated using pymatgen
data_B5Pb2ClO9
_symmetry_space_group_name_H-M   'P 1'
_cell_length_a   6.64257497
_cell_length_b   11.51936334
_cell_length_c   11.55035769
_cell_angle_alpha   90.00000000
_cell_angle_beta   90.00000000
_cell_angle_gamma   90.00000000
_symmetry_Int_Tables_number   1
_chemical_formula_structural   B5Pb2ClO9
_chemical_formula_sum   'B20 Pb8 Cl4 O36'
_cell_volume   883.81297935
_cell_formula_units_Z   4
loop_
 _symmetry_equiv_pos_site_id
 _symmetry_equiv_pos_as_xyz
  1  'x, y, z'
loop_
 _atom_site_type_symbol
 _atom_site_label
 _atom_site_symmetry_multiplicity
 _atom_site_fract_x
 _atom_site_fract_y
 _atom_site_fract_z
 _atom_site_occupancy
  B  B0  1  0.812627  0.269480  0.959403  1
  B  B1  1  0.351553  0.800574  0.316711  1
  B  B2  1  0.534814  0.217835  0.287203  1
  B  B3  1  0.812627  0.730520  0.040597  1
  B  B4  1  0.701393  0.821741  0.227869  1
  B  B5  1  0.312627  0.230520  0.459403  1
  B  B6  1  0.851553  0.300574  0.183289  1
  B  B7  1  0.034814  0.282165  0.787203  1
  B  B8  1  0.479713  0.996831  0.246327  1
  B  B9  1  0.534814  0.782165  0.712797  1
  B  B10  1  0.979713  0.496831  0.253673  1
  B  B11  1  0.351553  0.199426  0.683289  1
  B  B12  1  0.701393  0.178259  0.772131  1
  B  B13  1  0.034814  0.717835  0.212797  1
  B  B14  1  0.312627  0.769480  0.540597  1
  B  B15  1  0.201393  0.678259  0.727869  1
  B  B16  1  0.479713  0.003169  0.753673  1
  B  B17  1  0.851553  0.699426  0.816711  1
  B  B18  1  0.979713  0.503169  0.746327  1
  B  B19  1  0.201393  0.321741  0.272131  1
  Pb  Pb20  1  0.329745  0.759428  0.977432  1
  Pb  Pb21  1  0.500801  0.539130  0.246889  1
  Pb  Pb22  1  0.329745  0.240572  0.022568  1
  Pb  Pb23  1  0.500801  0.460870  0.753111  1
  Pb  Pb24  1  0.829745  0.259428  0.522568  1
  Pb  Pb25  1  0.000801  0.039130  0.253111  1
  Pb  Pb26  1  0.829745  0.740572  0.477432  1
  Pb  Pb27  1  0.000801  0.960870  0.746889  1
  Cl  Cl28  1  0.125195  0.000000  0.000000  1
  Cl  Cl29  1  0.882519  0.000000  0.500000  1
  Cl  Cl30  1  0.382519  0.500000  0.000000  1
  Cl  Cl31  1  0.625195  0.500000  0.500000  1
  O  O32  1  0.442224  0.886992  0.768504  1
  O  O33  1  0.251321  0.271309  0.772175  1
  O  O34  1  0.916092  0.183981  0.739785  1
  O  O35  1  0.070413  0.272484  0.181113  1
  O  O36  1  0.751321  0.771309  0.727825  1
  O  O37  1  0.661141  0.051002  0.785534  1
  O  O38  1  0.827259  0.572405  0.788269  1
  O  O39  1  0.755480  0.722193  0.928171  1
  O  O40  1  0.503374  0.209788  0.417007  1
  O  O41  1  0.255480  0.222193  0.571829  1
  O  O42  1  0.827259  0.427595  0.211731  1
  O  O43  1  0.660643  0.761819  0.117094  1
  O  O44  1  0.160643  0.738181  0.617094  1
  O  O45  1  0.751321  0.228691  0.272175  1
  O  O46  1  0.255480  0.777807  0.428171  1
  O  O47  1  0.251321  0.728691  0.227825  1
  O  O48  1  0.755480  0.277807  0.071829  1
  O  O49  1  0.442224  0.113008  0.231496  1
  O  O50  1  0.161141  0.551002  0.714466  1
  O  O51  1  0.327259  0.927595  0.288269  1
  O  O52  1  0.570413  0.772484  0.318887  1
  O  O53  1  0.070413  0.727516  0.818887  1
  O  O54  1  0.503374  0.790212  0.582993  1
  O  O55  1  0.327259  0.072405  0.711731  1
  O  O56  1  0.160643  0.261819  0.382906  1
  O  O57  1  0.942224  0.386992  0.731496  1
  O  O58  1  0.003374  0.709788  0.082993  1
  O  O59  1  0.003374  0.290212  0.917007  1
  O  O60  1  0.942224  0.613008  0.268504  1
  O  O61  1  0.660643  0.238181  0.882906  1
  O  O62  1  0.916092  0.816019  0.260215  1
  O  O63  1  0.416092  0.683981  0.760215  1
  O  O64  1  0.570413  0.227516  0.681113  1
  O  O65  1  0.416092  0.316019  0.239785  1
  O  O66  1  0.661141  0.948998  0.214466  1
  O  O67  1  0.161141  0.448998  0.285534  1
