# generated using pymatgen
data_K2Er(NO3)5
_symmetry_space_group_name_H-M   'P 1'
_cell_length_a   8.09909059
_cell_length_b   12.19904281
_cell_length_c   14.52696917
_cell_angle_alpha   90.00000000
_cell_angle_beta   102.56468761
_cell_angle_gamma   90.00000000
_symmetry_Int_Tables_number   1
_chemical_formula_structural   K2Er(NO3)5
_chemical_formula_sum   'K8 Er4 N20 O60'
_cell_volume   1400.90778055
_cell_formula_units_Z   4
loop_
 _symmetry_equiv_pos_site_id
 _symmetry_equiv_pos_as_xyz
  1  'x, y, z'
loop_
 _atom_site_type_symbol
 _atom_site_label
 _atom_site_symmetry_multiplicity
 _atom_site_fract_x
 _atom_site_fract_y
 _atom_site_fract_z
 _atom_site_occupancy
  K  K0  1  0.202270  0.838391  0.971551  1
  K  K1  1  0.630959  0.886853  0.608227  1
  K  K2  1  0.797730  0.338391  0.528449  1
  K  K3  1  0.369041  0.386853  0.891773  1
  K  K4  1  0.202270  0.661609  0.471551  1
  K  K5  1  0.369041  0.113147  0.391773  1
  K  K6  1  0.630959  0.613147  0.108227  1
  K  K7  1  0.797730  0.161609  0.028449  1
  Er  Er8  1  0.749096  0.948574  0.267639  1
  Er  Er9  1  0.749096  0.551426  0.767639  1
  Er  Er10  1  0.250904  0.448574  0.232361  1
  Er  Er11  1  0.250904  0.051426  0.732361  1
  N  N12  1  0.414345  0.512150  0.658399  1
  N  N13  1  0.598742  0.809131  0.386135  1
  N  N14  1  0.870920  0.643629  0.612830  1
  N  N15  1  0.912704  0.412495  0.123093  1
  N  N16  1  0.912704  0.087505  0.623093  1
  N  N17  1  0.241530  0.816758  0.705848  1
  N  N18  1  0.585655  0.012150  0.841601  1
  N  N19  1  0.401258  0.190869  0.613865  1
  N  N20  1  0.414345  0.987850  0.158399  1
  N  N21  1  0.758470  0.316758  0.794152  1
  N  N22  1  0.129080  0.356371  0.387170  1
  N  N23  1  0.087296  0.587505  0.876907  1
  N  N24  1  0.087296  0.912495  0.376907  1
  N  N25  1  0.870920  0.856371  0.112830  1
  N  N26  1  0.758470  0.183242  0.294152  1
  N  N27  1  0.401258  0.309131  0.113865  1
  N  N28  1  0.585655  0.487850  0.341601  1
  N  N29  1  0.129080  0.143629  0.887170  1
  N  N30  1  0.241530  0.683242  0.205848  1
  N  N31  1  0.598742  0.690869  0.886135  1
  O  O32  1  0.025470  0.337288  0.132690  1
  O  O33  1  0.025470  0.162712  0.632690  1
  O  O34  1  0.265421  0.620561  0.138725  1
  O  O35  1  0.039440  0.005149  0.337636  1
  O  O36  1  0.728246  0.991265  0.887220  1
  O  O37  1  0.960560  0.994851  0.662364  1
  O  O38  1  0.734579  0.379439  0.861275  1
  O  O39  1  0.191433  0.297916  0.328832  1
  O  O40  1  0.765521  0.397260  0.078710  1
  O  O41  1  0.459955  0.252715  0.561614  1
  O  O42  1  0.526834  0.560899  0.622569  1
  O  O43  1  0.536516  0.512682  0.253512  1
  O  O44  1  0.087362  0.184611  0.956138  1
  O  O45  1  0.228157  0.633508  0.282343  1
  O  O46  1  0.607967  0.783026  0.302204  1
  O  O47  1  0.765521  0.102740  0.578710  1
  O  O48  1  0.463484  0.012682  0.246488  1
  O  O49  1  0.463484  0.487318  0.746488  1
  O  O50  1  0.808567  0.702084  0.671168  1
  O  O51  1  0.912638  0.684611  0.543862  1
  O  O52  1  0.343930  0.094594  0.585880  1
  O  O53  1  0.540045  0.747285  0.438386  1
  O  O54  1  0.473166  0.060899  0.877431  1
  O  O55  1  0.228157  0.866492  0.782343  1
  O  O56  1  0.459955  0.247285  0.061614  1
  O  O57  1  0.912638  0.815389  0.043862  1
  O  O58  1  0.114641  0.458886  0.367485  1
  O  O59  1  0.771843  0.366492  0.717657  1
  O  O60  1  0.191433  0.202084  0.828832  1
  O  O61  1  0.768476  0.283630  0.302133  1
  O  O62  1  0.087362  0.315389  0.456138  1
  O  O63  1  0.392033  0.283026  0.197796  1
  O  O64  1  0.974530  0.837288  0.367310  1
  O  O65  1  0.808567  0.797916  0.171168  1
  O  O66  1  0.392033  0.216974  0.697796  1
  O  O67  1  0.039440  0.494851  0.837636  1
  O  O68  1  0.885359  0.541114  0.632515  1
  O  O69  1  0.771843  0.133508  0.217657  1
  O  O70  1  0.656070  0.594594  0.914120  1
  O  O71  1  0.960560  0.505149  0.162364  1
  O  O72  1  0.768476  0.216370  0.802133  1
  O  O73  1  0.974530  0.662712  0.867310  1
  O  O74  1  0.271754  0.008735  0.112780  1
  O  O75  1  0.114641  0.041114  0.867485  1
  O  O76  1  0.734579  0.120561  0.361275  1
  O  O77  1  0.265421  0.879439  0.638725  1
  O  O78  1  0.231524  0.716370  0.697867  1
  O  O79  1  0.231524  0.783630  0.197867  1
  O  O80  1  0.234479  0.897260  0.421290  1
  O  O81  1  0.656070  0.905406  0.414120  1
  O  O82  1  0.343930  0.405406  0.085880  1
  O  O83  1  0.885359  0.958886  0.132515  1
  O  O84  1  0.526834  0.939101  0.122569  1
  O  O85  1  0.728246  0.508735  0.387220  1
  O  O86  1  0.607967  0.716974  0.802204  1
  O  O87  1  0.536516  0.987318  0.753512  1
  O  O88  1  0.234479  0.602740  0.921290  1
  O  O89  1  0.540045  0.752715  0.938386  1
  O  O90  1  0.271754  0.491265  0.612780  1
  O  O91  1  0.473166  0.439101  0.377431  1
