# generated using pymatgen
data_ZnS
_symmetry_space_group_name_H-M   'P 1'
_cell_length_a   3.85172784
_cell_length_b   3.85172784
_cell_length_c   50.41076924
_cell_angle_alpha   90.00000000
_cell_angle_beta   90.00000000
_cell_angle_gamma   120.00000000
_symmetry_Int_Tables_number   1
_chemical_formula_structural   ZnS
_chemical_formula_sum   'Zn16 S16'
_cell_volume   647.68694077
_cell_formula_units_Z   16
loop_
 _symmetry_equiv_pos_site_id
 _symmetry_equiv_pos_as_xyz
  1  'x, y, z'
loop_
 _atom_site_type_symbol
 _atom_site_label
 _atom_site_symmetry_multiplicity
 _atom_site_fract_x
 _atom_site_fract_y
 _atom_site_fract_z
 _atom_site_occupancy
  Zn  Zn0  1  0.333333  0.666667  0.562518  1
  Zn  Zn1  1  0.666667  0.333333  0.125010  1
  Zn  Zn2  1  0.000000  0.000000  0.375009  1
  Zn  Zn3  1  0.333333  0.666667  0.062523  1
  Zn  Zn4  1  0.666667  0.333333  0.500009  1
  Zn  Zn5  1  0.333333  0.666667  0.312503  1
  Zn  Zn6  1  0.666667  0.333333  0.250026  1
  Zn  Zn7  1  0.000000  0.000000  0.812505  1
  Zn  Zn8  1  0.666667  0.333333  0.750007  1
  Zn  Zn9  1  0.000000  0.000000  0.187513  1
  Zn  Zn10  1  0.333333  0.666667  0.437526  1
  Zn  Zn11  1  0.333333  0.666667  0.937513  1
  Zn  Zn12  1  0.000000  0.000000  0.625010  1
  Zn  Zn13  1  0.666667  0.333333  0.875027  1
  Zn  Zn14  1  0.333333  0.666667  0.687531  1
  Zn  Zn15  1  0.000000  0.000000  0.000009  1
  S  S16  1  0.000000  0.000000  0.234387  1
  S  S17  1  0.333333  0.666667  0.359319  1
  S  S18  1  0.666667  0.333333  0.296849  1
  S  S19  1  0.666667  0.333333  0.546895  1
  S  S20  1  0.333333  0.666667  0.109355  1
  S  S21  1  0.666667  0.333333  0.796815  1
  S  S22  1  0.333333  0.666667  0.984321  1
  S  S23  1  0.666667  0.333333  0.921854  1
  S  S24  1  0.000000  0.000000  0.859396  1
  S  S25  1  0.333333  0.666667  0.609319  1
  S  S26  1  0.000000  0.000000  0.421893  1
  S  S27  1  0.333333  0.666667  0.734348  1
  S  S28  1  0.000000  0.000000  0.671894  1
  S  S29  1  0.000000  0.000000  0.046896  1
  S  S30  1  0.666667  0.333333  0.171823  1
  S  S31  1  0.333333  0.666667  0.484319  1
