# generated using pymatgen
data_Cu4SnS4
_symmetry_space_group_name_H-M   'P 1'
_cell_length_a   6.43703002
_cell_length_b   7.63607434
_cell_length_c   13.64838813
_cell_angle_alpha   90.00000000
_cell_angle_beta   90.00000000
_cell_angle_gamma   90.00000000
_symmetry_Int_Tables_number   1
_chemical_formula_structural   Cu4SnS4
_chemical_formula_sum   'Cu16 Sn4 S16'
_cell_volume   670.86795347
_cell_formula_units_Z   4
loop_
 _symmetry_equiv_pos_site_id
 _symmetry_equiv_pos_as_xyz
  1  'x, y, z'
loop_
 _atom_site_type_symbol
 _atom_site_label
 _atom_site_symmetry_multiplicity
 _atom_site_fract_x
 _atom_site_fract_y
 _atom_site_fract_z
 _atom_site_occupancy
  Cu  Cu0  1  0.940774  0.250000  0.158171  1
  Cu  Cu1  1  0.625512  0.488900  0.834953  1
  Cu  Cu2  1  0.440774  0.750000  0.341829  1
  Cu  Cu3  1  0.608776  0.250000  0.067465  1
  Cu  Cu4  1  0.125512  0.511100  0.665047  1
  Cu  Cu5  1  0.059226  0.750000  0.841829  1
  Cu  Cu6  1  0.625512  0.011100  0.834953  1
  Cu  Cu7  1  0.874488  0.488900  0.334953  1
  Cu  Cu8  1  0.874488  0.011100  0.334953  1
  Cu  Cu9  1  0.374488  0.511100  0.165047  1
  Cu  Cu10  1  0.125512  0.988900  0.665047  1
  Cu  Cu11  1  0.559226  0.250000  0.658171  1
  Cu  Cu12  1  0.374488  0.988900  0.165047  1
  Cu  Cu13  1  0.108776  0.750000  0.432535  1
  Cu  Cu14  1  0.391224  0.750000  0.932535  1
  Cu  Cu15  1  0.891224  0.250000  0.567465  1
  Sn  Sn16  1  0.874361  0.750000  0.086028  1
  Sn  Sn17  1  0.125639  0.250000  0.913972  1
  Sn  Sn18  1  0.625639  0.750000  0.586028  1
  Sn  Sn19  1  0.374361  0.250000  0.413972  1
  S  S20  1  0.243964  0.250000  0.586733  1
  S  S21  1  0.236765  0.507311  0.322804  1
  S  S22  1  0.263235  0.992689  0.822804  1
  S  S23  1  0.260386  0.750000  0.084051  1
  S  S24  1  0.739614  0.250000  0.915949  1
  S  S25  1  0.256036  0.250000  0.086733  1
  S  S26  1  0.736765  0.492689  0.177196  1
  S  S27  1  0.263235  0.507311  0.822804  1
  S  S28  1  0.743964  0.750000  0.913267  1
  S  S29  1  0.756036  0.750000  0.413267  1
  S  S30  1  0.736765  0.007311  0.177196  1
  S  S31  1  0.760386  0.250000  0.415949  1
  S  S32  1  0.763235  0.492689  0.677196  1
  S  S33  1  0.236765  0.992689  0.322804  1
  S  S34  1  0.763235  0.007311  0.677196  1
  S  S35  1  0.239614  0.750000  0.584051  1
