# generated using pymatgen
data_KMo2Cl7O2
_symmetry_space_group_name_H-M   'P 1'
_cell_length_a   8.26127661
_cell_length_b   8.26127661
_cell_length_c   10.68755206
_cell_angle_alpha   77.10769070
_cell_angle_beta   102.89230930
_cell_angle_gamma   87.20926412
_symmetry_Int_Tables_number   1
_chemical_formula_structural   KMo2Cl7O2
_chemical_formula_sum   'K2 Mo4 Cl14 O4'
_cell_volume   689.36806418
_cell_formula_units_Z   2
loop_
 _symmetry_equiv_pos_site_id
 _symmetry_equiv_pos_as_xyz
  1  'x, y, z'
loop_
 _atom_site_type_symbol
 _atom_site_label
 _atom_site_symmetry_multiplicity
 _atom_site_fract_x
 _atom_site_fract_y
 _atom_site_fract_z
 _atom_site_occupancy
  K  K0  1  0.409177  0.409177  0.250000  1
  K  K1  1  0.590823  0.590823  0.750000  1
  Mo  Mo2  1  0.645651  0.869605  0.337682  1
  Mo  Mo3  1  0.354349  0.130395  0.662318  1
  Mo  Mo4  1  0.869605  0.645651  0.162318  1
  Mo  Mo5  1  0.130395  0.354349  0.837682  1
  Cl  Cl6  1  0.462173  0.205533  0.871676  1
  Cl  Cl7  1  0.806145  0.833896  0.554611  1
  Cl  Cl8  1  0.903174  0.903174  0.250000  1
  Cl  Cl9  1  0.261059  0.570237  0.918397  1
  Cl  Cl10  1  0.738941  0.429763  0.081603  1
  Cl  Cl11  1  0.096826  0.096826  0.750000  1
  Cl  Cl12  1  0.205533  0.462173  0.628324  1
  Cl  Cl13  1  0.833896  0.806145  0.945389  1
  Cl  Cl14  1  0.570237  0.261059  0.581603  1
  Cl  Cl15  1  0.537827  0.794467  0.128324  1
  Cl  Cl16  1  0.193855  0.166104  0.445389  1
  Cl  Cl17  1  0.429763  0.738941  0.418397  1
  Cl  Cl18  1  0.794467  0.537827  0.371676  1
  Cl  Cl19  1  0.166104  0.193855  0.054611  1
  O  O20  1  0.426352  0.924383  0.705323  1
  O  O21  1  0.924383  0.426352  0.794677  1
  O  O22  1  0.573648  0.075617  0.294677  1
  O  O23  1  0.075617  0.573648  0.205323  1
