# generated using pymatgen
data_K3Mo12PO40
_symmetry_space_group_name_H-M   'P 1'
_cell_length_a   11.92757714
_cell_length_b   11.92757714
_cell_length_c   11.92757714
_cell_angle_alpha   90.00000000
_cell_angle_beta   90.00000000
_cell_angle_gamma   90.00000000
_symmetry_Int_Tables_number   1
_chemical_formula_structural   K3Mo12PO40
_chemical_formula_sum   'K6 Mo24 P2 O80'
_cell_volume   1696.90176716
_cell_formula_units_Z   2
loop_
 _symmetry_equiv_pos_site_id
 _symmetry_equiv_pos_as_xyz
  1  'x, y, z'
loop_
 _atom_site_type_symbol
 _atom_site_label
 _atom_site_symmetry_multiplicity
 _atom_site_fract_x
 _atom_site_fract_y
 _atom_site_fract_z
 _atom_site_occupancy
  K  K0  1  0.500000  0.500000  0.000000  1
  K  K1  1  0.500000  0.000000  0.000000  1
  K  K2  1  0.500000  0.000000  0.500000  1
  K  K3  1  0.000000  0.500000  0.500000  1
  K  K4  1  0.000000  0.500000  0.000000  1
  K  K5  1  0.000000  0.000000  0.500000  1
  Mo  Mo6  1  0.507914  0.714253  0.285747  1
  Mo  Mo7  1  0.214253  0.992086  0.785747  1
  Mo  Mo8  1  0.785747  0.785747  0.007914  1
  Mo  Mo9  1  0.492086  0.714253  0.714253  1
  Mo  Mo10  1  0.214253  0.007914  0.214253  1
  Mo  Mo11  1  0.285747  0.714253  0.507914  1
  Mo  Mo12  1  0.285747  0.285747  0.492086  1
  Mo  Mo13  1  0.785747  0.214253  0.992086  1
  Mo  Mo14  1  0.714253  0.714253  0.492086  1
  Mo  Mo15  1  0.507914  0.285747  0.714253  1
  Mo  Mo16  1  0.714253  0.492086  0.714253  1
  Mo  Mo17  1  0.714253  0.507914  0.285747  1
  Mo  Mo18  1  0.214253  0.785747  0.992086  1
  Mo  Mo19  1  0.492086  0.285747  0.285747  1
  Mo  Mo20  1  0.992086  0.214253  0.785747  1
  Mo  Mo21  1  0.785747  0.992086  0.214253  1
  Mo  Mo22  1  0.007914  0.214253  0.214253  1
  Mo  Mo23  1  0.007914  0.785747  0.785747  1
  Mo  Mo24  1  0.285747  0.507914  0.714253  1
  Mo  Mo25  1  0.785747  0.007914  0.785747  1
  Mo  Mo26  1  0.714253  0.285747  0.507914  1
  Mo  Mo27  1  0.285747  0.492086  0.285747  1
  Mo  Mo28  1  0.214253  0.214253  0.007914  1
  Mo  Mo29  1  0.992086  0.785747  0.214253  1
  P  P30  1  0.500000  0.500000  0.500000  1
  P  P31  1  0.000000  0.000000  0.000000  1
  O  O32  1  0.375606  0.215585  0.375606  1
  O  O33  1  0.284415  0.875606  0.875606  1
  O  O34  1  0.484162  0.185495  0.814505  1
  O  O35  1  0.375606  0.784415  0.624394  1
  O  O36  1  0.875606  0.875606  0.284415  1
  O  O37  1  0.185495  0.185495  0.515838  1
  O  O38  1  0.245346  0.401727  0.598273  1
  O  O39  1  0.901727  0.745346  0.901727  1
  O  O40  1  0.215585  0.624394  0.624394  1
  O  O41  1  0.314505  0.984162  0.314505  1
  O  O42  1  0.685495  0.015838  0.314505  1
  O  O43  1  0.124394  0.715585  0.875606  1
  O  O44  1  0.624394  0.784415  0.375606  1
  O  O45  1  0.401727  0.245346  0.598273  1
  O  O46  1  0.425127  0.425127  0.425127  1
  O  O47  1  0.254654  0.098273  0.901727  1
  O  O48  1  0.401727  0.598273  0.245346  1
  O  O49  1  0.925127  0.925127  0.074873  1
  O  O50  1  0.515838  0.185495  0.185495  1
  O  O51  1  0.015838  0.685495  0.314505  1
  O  O52  1  0.375606  0.375606  0.215585  1
  O  O53  1  0.098273  0.745346  0.098273  1
  O  O54  1  0.784415  0.375606  0.624394  1
  O  O55  1  0.574873  0.574873  0.425127  1
  O  O56  1  0.098273  0.254654  0.901727  1
  O  O57  1  0.425127  0.574873  0.574873  1
  O  O58  1  0.715585  0.875606  0.124394  1
  O  O59  1  0.814505  0.814505  0.515838  1
  O  O60  1  0.215585  0.375606  0.375606  1
  O  O61  1  0.574873  0.425127  0.574873  1
  O  O62  1  0.901727  0.254654  0.098273  1
  O  O63  1  0.875606  0.284415  0.875606  1
  O  O64  1  0.098273  0.098273  0.745346  1
  O  O65  1  0.375606  0.624394  0.784415  1
  O  O66  1  0.598273  0.754654  0.598273  1
  O  O67  1  0.185495  0.814505  0.484162  1
  O  O68  1  0.814505  0.515838  0.814505  1
  O  O69  1  0.401727  0.401727  0.754654  1
  O  O70  1  0.598273  0.401727  0.245346  1
  O  O71  1  0.185495  0.515838  0.185495  1
  O  O72  1  0.245346  0.598273  0.401727  1
  O  O73  1  0.901727  0.098273  0.254654  1
  O  O74  1  0.124394  0.284415  0.124394  1
  O  O75  1  0.784415  0.624394  0.375606  1
  O  O76  1  0.685495  0.314505  0.015838  1
  O  O77  1  0.715585  0.124394  0.875606  1
  O  O78  1  0.484162  0.814505  0.185495  1
  O  O79  1  0.875606  0.715585  0.124394  1
  O  O80  1  0.984162  0.685495  0.685495  1
  O  O81  1  0.185495  0.484162  0.814505  1
  O  O82  1  0.015838  0.314505  0.685495  1
  O  O83  1  0.124394  0.875606  0.715585  1
  O  O84  1  0.624394  0.624394  0.215585  1
  O  O85  1  0.901727  0.901727  0.745346  1
  O  O86  1  0.124394  0.124394  0.284415  1
  O  O87  1  0.515838  0.814505  0.814505  1
  O  O88  1  0.074873  0.074873  0.074873  1
  O  O89  1  0.074873  0.925127  0.925127  1
  O  O90  1  0.814505  0.484162  0.185495  1
  O  O91  1  0.624394  0.215585  0.624394  1
  O  O92  1  0.098273  0.901727  0.254654  1
  O  O93  1  0.875606  0.124394  0.715585  1
  O  O94  1  0.754654  0.598273  0.598273  1
  O  O95  1  0.984162  0.314505  0.314505  1
  O  O96  1  0.314505  0.685495  0.015838  1
  O  O97  1  0.745346  0.098273  0.098273  1
  O  O98  1  0.401727  0.754654  0.401727  1
  O  O99  1  0.284415  0.124394  0.124394  1
  O  O100  1  0.598273  0.245346  0.401727  1
  O  O101  1  0.624394  0.375606  0.784415  1
  O  O102  1  0.598273  0.598273  0.754654  1
  O  O103  1  0.685495  0.984162  0.685495  1
  O  O104  1  0.685495  0.685495  0.984162  1
  O  O105  1  0.814505  0.185495  0.484162  1
  O  O106  1  0.254654  0.901727  0.098273  1
  O  O107  1  0.754654  0.401727  0.401727  1
  O  O108  1  0.745346  0.901727  0.901727  1
  O  O109  1  0.925127  0.074873  0.925127  1
  O  O110  1  0.314505  0.314505  0.984162  1
  O  O111  1  0.314505  0.015838  0.685495  1
