# generated using pymatgen
data_CsBe2BO3F2
_symmetry_space_group_name_H-M   'P 1'
_cell_length_a   7.81292687
_cell_length_b   7.81292687
_cell_length_c   7.81292687
_cell_angle_alpha   33.34089164
_cell_angle_beta   33.34089164
_cell_angle_gamma   33.34089164
_symmetry_Int_Tables_number   1
_chemical_formula_structural   CsBe2BO3F2
_chemical_formula_sum   'Cs1 Be2 B1 O3 F2'
_cell_volume   128.27850033
_cell_formula_units_Z   1
loop_
 _symmetry_equiv_pos_site_id
 _symmetry_equiv_pos_as_xyz
  1  'x, y, z'
loop_
 _atom_site_type_symbol
 _atom_site_label
 _atom_site_symmetry_multiplicity
 _atom_site_fract_x
 _atom_site_fract_y
 _atom_site_fract_z
 _atom_site_occupancy
  Cs  Cs0  1  0.000000  0.000000  0.000000  1
  Be  Be1  1  0.191937  0.191937  0.191937  1
  Be  Be2  1  0.808063  0.808063  0.808063  1
  B  B3  1  0.500000  0.500000  0.500000  1
  O  O4  1  0.500000  0.191340  0.808660  1
  O  O5  1  0.191340  0.808660  0.500000  1
  O  O6  1  0.808660  0.500000  0.191340  1
  F  F7  1  0.262381  0.262381  0.262381  1
  F  F8  1  0.737619  0.737619  0.737619  1
