# generated using pymatgen
data_Ca(B3O5)2
_symmetry_space_group_name_H-M   'P 1'
_cell_length_a   9.17810218
_cell_length_b   8.81962574
_cell_length_c   9.93922408
_cell_angle_alpha   90.00000000
_cell_angle_beta   116.88179298
_cell_angle_gamma   90.00000000
_symmetry_Int_Tables_number   1
_chemical_formula_structural   Ca(B3O5)2
_chemical_formula_sum   'Ca4 B24 O40'
_cell_volume   717.61544787
_cell_formula_units_Z   4
loop_
 _symmetry_equiv_pos_site_id
 _symmetry_equiv_pos_as_xyz
  1  'x, y, z'
loop_
 _atom_site_type_symbol
 _atom_site_label
 _atom_site_symmetry_multiplicity
 _atom_site_fract_x
 _atom_site_fract_y
 _atom_site_fract_z
 _atom_site_occupancy
  Ca  Ca0  1  0.963220  0.113928  0.221956  1
  Ca  Ca1  1  0.463220  0.386072  0.221956  1
  Ca  Ca2  1  0.036780  0.886072  0.778044  1
  Ca  Ca3  1  0.536780  0.613928  0.778044  1
  B  B4  1  0.123765  0.267093  0.921033  1
  B  B5  1  0.376235  0.767093  0.078967  1
  B  B6  1  0.557473  0.228306  0.497270  1
  B  B7  1  0.263814  0.026074  0.082715  1
  B  B8  1  0.778676  0.119709  0.442970  1
  B  B9  1  0.244772  0.444012  0.673933  1
  B  B10  1  0.560796  0.970512  0.217301  1
  B  B11  1  0.942527  0.728306  0.502730  1
  B  B12  1  0.236186  0.526074  0.917285  1
  B  B13  1  0.057473  0.271694  0.497270  1
  B  B14  1  0.623765  0.232907  0.921033  1
  B  B15  1  0.736186  0.973926  0.917285  1
  B  B16  1  0.255228  0.944012  0.326067  1
  B  B17  1  0.876235  0.732907  0.078967  1
  B  B18  1  0.221324  0.880291  0.557030  1
  B  B19  1  0.755228  0.555988  0.326067  1
  B  B20  1  0.939204  0.470512  0.782699  1
  B  B21  1  0.721324  0.619709  0.557030  1
  B  B22  1  0.763814  0.473926  0.082715  1
  B  B23  1  0.278676  0.380291  0.442970  1
  B  B24  1  0.439204  0.029488  0.782699  1
  B  B25  1  0.442527  0.771694  0.502730  1
  B  B26  1  0.060796  0.529488  0.217301  1
  B  B27  1  0.744772  0.055988  0.673933  1
  O  O28  1  0.801058  0.970226  0.803124  1
  O  O29  1  0.417750  0.311281  0.429956  1
  O  O30  1  0.198942  0.029774  0.196876  1
  O  O31  1  0.748503  0.630761  0.020752  1
  O  O32  1  0.649703  0.384663  0.952501  1
  O  O33  1  0.398324  0.860384  0.375388  1
  O  O34  1  0.967666  0.319247  0.831111  1
  O  O35  1  0.751497  0.130761  0.979248  1
  O  O36  1  0.467666  0.180753  0.831111  1
  O  O37  1  0.783175  0.506485  0.680259  1
  O  O38  1  0.149703  0.115337  0.952501  1
  O  O39  1  0.532334  0.819247  0.168889  1
  O  O40  1  0.082250  0.811281  0.570044  1
  O  O41  1  0.834101  0.049279  0.594262  1
  O  O42  1  0.032334  0.680753  0.168889  1
  O  O43  1  0.849190  0.730530  0.578907  1
  O  O44  1  0.150810  0.269470  0.421093  1
  O  O45  1  0.917750  0.188719  0.429956  1
  O  O46  1  0.248503  0.869239  0.020752  1
  O  O47  1  0.301058  0.529774  0.803124  1
  O  O48  1  0.698942  0.470226  0.196876  1
  O  O49  1  0.064615  0.577056  0.844837  1
  O  O50  1  0.650810  0.230530  0.421093  1
  O  O51  1  0.665899  0.549279  0.405738  1
  O  O52  1  0.935385  0.422944  0.155163  1
  O  O53  1  0.251497  0.369239  0.979248  1
  O  O54  1  0.350297  0.615337  0.047499  1
  O  O55  1  0.601676  0.139616  0.624612  1
  O  O56  1  0.898324  0.639616  0.375388  1
  O  O57  1  0.850297  0.884663  0.047499  1
  O  O58  1  0.435385  0.077056  0.155163  1
  O  O59  1  0.349190  0.769470  0.578907  1
  O  O60  1  0.216825  0.493515  0.319741  1
  O  O61  1  0.101676  0.360384  0.624612  1
  O  O62  1  0.564615  0.922944  0.844837  1
  O  O63  1  0.582250  0.688719  0.570044  1
  O  O64  1  0.165899  0.950721  0.405738  1
  O  O65  1  0.716825  0.006485  0.319741  1
  O  O66  1  0.283175  0.993515  0.680259  1
  O  O67  1  0.334101  0.450721  0.594262  1
