# generated using pymatgen
data_V2Ge(O2F)2
_symmetry_space_group_name_H-M   'P 1'
_cell_length_a   4.97762606
_cell_length_b   9.14849704
_cell_length_c   9.50379180
_cell_angle_alpha   90.00000000
_cell_angle_beta   90.00000000
_cell_angle_gamma   90.00000000
_symmetry_Int_Tables_number   1
_chemical_formula_structural   V2Ge(O2F)2
_chemical_formula_sum   'V8 Ge4 O16 F8'
_cell_volume   432.78174434
_cell_formula_units_Z   4
loop_
 _symmetry_equiv_pos_site_id
 _symmetry_equiv_pos_as_xyz
  1  'x, y, z'
loop_
 _atom_site_type_symbol
 _atom_site_label
 _atom_site_symmetry_multiplicity
 _atom_site_fract_x
 _atom_site_fract_y
 _atom_site_fract_z
 _atom_site_occupancy
  V  V0  1  0.404214  0.915982  0.129771  1
  V  V1  1  0.595786  0.084018  0.870229  1
  V  V2  1  0.904214  0.415982  0.370229  1
  V  V3  1  0.095786  0.584018  0.629771  1
  V  V4  1  0.404214  0.584018  0.129771  1
  V  V5  1  0.904214  0.084018  0.370229  1
  V  V6  1  0.095786  0.915982  0.629771  1
  V  V7  1  0.595786  0.415982  0.870229  1
  Ge  Ge8  1  0.604596  0.750000  0.438123  1
  Ge  Ge9  1  0.895404  0.750000  0.938123  1
  Ge  Ge10  1  0.104596  0.250000  0.061877  1
  Ge  Ge11  1  0.395404  0.250000  0.561877  1
  O  O12  1  0.714630  0.909533  0.992184  1
  O  O13  1  0.785370  0.909533  0.492184  1
  O  O14  1  0.785370  0.590467  0.492184  1
  O  O15  1  0.209859  0.750000  0.026339  1
  O  O16  1  0.285370  0.090467  0.007816  1
  O  O17  1  0.285370  0.409533  0.007816  1
  O  O18  1  0.950207  0.750000  0.751581  1
  O  O19  1  0.290141  0.750000  0.526339  1
  O  O20  1  0.214630  0.090467  0.507816  1
  O  O21  1  0.549793  0.750000  0.251581  1
  O  O22  1  0.790141  0.250000  0.973661  1
  O  O23  1  0.214630  0.409533  0.507816  1
  O  O24  1  0.714630  0.590467  0.992184  1
  O  O25  1  0.709859  0.250000  0.473661  1
  O  O26  1  0.049793  0.250000  0.248419  1
  O  O27  1  0.450207  0.250000  0.748419  1
  F  F28  1  0.088741  0.935952  0.251402  1
  F  F29  1  0.088741  0.564048  0.251402  1
  F  F30  1  0.911259  0.435952  0.748598  1
  F  F31  1  0.411259  0.935952  0.751402  1
  F  F32  1  0.588741  0.064048  0.248598  1
  F  F33  1  0.588741  0.435952  0.248598  1
  F  F34  1  0.411259  0.564048  0.751402  1
  F  F35  1  0.911259  0.064048  0.748598  1
