# generated using pymatgen
data_VInO4
_symmetry_space_group_name_H-M   'P 1'
_cell_length_a   7.10027312
_cell_length_b   7.10027312
_cell_length_c   7.17550769
_cell_angle_alpha   79.05024065
_cell_angle_beta   100.94975935
_cell_angle_gamma   95.00686639
_symmetry_Int_Tables_number   1
_chemical_formula_structural   VInO4
_chemical_formula_sum   'V4 In4 O16'
_cell_volume   348.20115286
_cell_formula_units_Z   4
loop_
 _symmetry_equiv_pos_site_id
 _symmetry_equiv_pos_as_xyz
  1  'x, y, z'
loop_
 _atom_site_type_symbol
 _atom_site_label
 _atom_site_symmetry_multiplicity
 _atom_site_fract_x
 _atom_site_fract_y
 _atom_site_fract_z
 _atom_site_occupancy
  V  V0  1  0.746982  0.746982  0.500000  1
  V  V1  1  0.253018  0.253018  0.500000  1
  V  V2  1  0.725314  0.274686  0.092507  1
  V  V3  1  0.274686  0.725314  0.907493  1
  In  In4  1  0.813320  0.813320  0.000000  1
  In  In5  1  0.186680  0.186680  0.000000  1
  In  In6  1  0.210088  0.789912  0.370094  1
  In  In7  1  0.789912  0.210088  0.629906  1
  O  O8  1  0.858660  0.141340  0.959457  1
  O  O9  1  0.141340  0.858660  0.040543  1
  O  O10  1  0.208445  0.791555  0.663658  1
  O  O11  1  0.791555  0.208445  0.336342  1
  O  O12  1  0.216996  0.484366  0.393182  1
  O  O13  1  0.484366  0.216996  0.606818  1
  O  O14  1  0.783004  0.515634  0.606818  1
  O  O15  1  0.515634  0.783004  0.393182  1
  O  O16  1  0.797001  0.892217  0.687659  1
  O  O17  1  0.892217  0.797001  0.312341  1
  O  O18  1  0.202999  0.107783  0.312341  1
  O  O19  1  0.107783  0.202999  0.687659  1
  O  O20  1  0.510721  0.787889  0.976744  1
  O  O21  1  0.787889  0.510721  0.023256  1
  O  O22  1  0.489279  0.212111  0.023256  1
  O  O23  1  0.212111  0.489279  0.976744  1
