# generated using pymatgen
data_BaTbMn2O6
_symmetry_space_group_name_H-M   'P 1'
_cell_length_a   5.53596374
_cell_length_b   5.58221366
_cell_length_c   7.82362787
_cell_angle_alpha   90.00000000
_cell_angle_beta   90.00000000
_cell_angle_gamma   90.00000000
_symmetry_Int_Tables_number   1
_chemical_formula_structural   BaTbMn2O6
_chemical_formula_sum   'Ba2 Tb2 Mn4 O12'
_cell_volume   241.77304347
_cell_formula_units_Z   2
loop_
 _symmetry_equiv_pos_site_id
 _symmetry_equiv_pos_as_xyz
  1  'x, y, z'
loop_
 _atom_site_type_symbol
 _atom_site_label
 _atom_site_symmetry_multiplicity
 _atom_site_fract_x
 _atom_site_fract_y
 _atom_site_fract_z
 _atom_site_occupancy
  Ba  Ba0  1  0.750000  0.259439  0.500000  1
  Ba  Ba1  1  0.250000  0.740561  0.500000  1
  Tb  Tb2  1  0.750000  0.258910  0.000000  1
  Tb  Tb3  1  0.250000  0.741090  0.000000  1
  Mn  Mn4  1  0.750000  0.751071  0.757720  1
  Mn  Mn5  1  0.250000  0.248929  0.242280  1
  Mn  Mn6  1  0.750000  0.751071  0.242280  1
  Mn  Mn7  1  0.250000  0.248929  0.757720  1
  O  O8  1  0.000000  0.500000  0.754321  1
  O  O9  1  0.500000  0.500000  0.245679  1
  O  O10  1  0.000000  0.500000  0.245679  1
  O  O11  1  0.500000  0.500000  0.754321  1
  O  O12  1  0.750000  0.782086  0.500000  1
  O  O13  1  0.250000  0.217914  0.500000  1
  O  O14  1  0.750000  0.678515  0.000000  1
  O  O15  1  0.250000  0.321485  0.000000  1
  O  O16  1  0.500000  0.000000  0.806979  1
  O  O17  1  0.000000  0.000000  0.193021  1
  O  O18  1  0.500000  0.000000  0.193021  1
  O  O19  1  0.000000  0.000000  0.806979  1
