# generated using pymatgen
data_Ba5Fe5O14
_symmetry_space_group_name_H-M   'P 1'
_cell_length_a   5.89832412
_cell_length_b   5.89832412
_cell_length_c   24.71525769
_cell_angle_alpha   90.00000000
_cell_angle_beta   90.00000000
_cell_angle_gamma   120.30346171
_symmetry_Int_Tables_number   1
_chemical_formula_structural   Ba5Fe5O14
_chemical_formula_sum   'Ba10 Fe10 O28'
_cell_volume   742.36396522
_cell_formula_units_Z   2
loop_
 _symmetry_equiv_pos_site_id
 _symmetry_equiv_pos_as_xyz
  1  'x, y, z'
loop_
 _atom_site_type_symbol
 _atom_site_label
 _atom_site_symmetry_multiplicity
 _atom_site_fract_x
 _atom_site_fract_y
 _atom_site_fract_z
 _atom_site_occupancy
  Ba  Ba0  1  0.332944  0.667056  0.038902  1
  Ba  Ba1  1  0.667056  0.332944  0.538902  1
  Ba  Ba2  1  0.667056  0.332944  0.961098  1
  Ba  Ba3  1  0.332944  0.667056  0.461098  1
  Ba  Ba4  1  0.965599  0.034401  0.250000  1
  Ba  Ba5  1  0.034401  0.965599  0.750000  1
  Ba  Ba6  1  0.654947  0.345053  0.139069  1
  Ba  Ba7  1  0.345053  0.654947  0.639069  1
  Ba  Ba8  1  0.345053  0.654947  0.860931  1
  Ba  Ba9  1  0.654947  0.345053  0.360931  1
  Fe  Fe10  1  0.989397  0.010603  0.106844  1
  Fe  Fe11  1  0.010603  0.989397  0.606844  1
  Fe  Fe12  1  0.010603  0.989397  0.893156  1
  Fe  Fe13  1  0.989397  0.010603  0.393156  1
  Fe  Fe14  1  0.000000  0.000000  0.000000  1
  Fe  Fe15  1  0.000000  0.000000  0.500000  1
  Fe  Fe16  1  0.318461  0.681539  0.178363  1
  Fe  Fe17  1  0.681539  0.318461  0.678363  1
  Fe  Fe18  1  0.681539  0.318461  0.821637  1
  Fe  Fe19  1  0.318461  0.681539  0.321637  1
  O  O20  1  0.376892  0.623108  0.250000  1
  O  O21  1  0.623108  0.376892  0.750000  1
  O  O22  1  0.706216  0.293784  0.250000  1
  O  O23  1  0.293784  0.706216  0.750000  1
  O  O24  1  0.848414  0.151586  0.044066  1
  O  O25  1  0.151586  0.848414  0.544066  1
  O  O26  1  0.151586  0.848414  0.955934  1
  O  O27  1  0.848414  0.151586  0.455934  1
  O  O28  1  0.292302  0.151454  0.049046  1
  O  O29  1  0.707698  0.848546  0.549046  1
  O  O30  1  0.151454  0.292302  0.950954  1
  O  O31  1  0.848546  0.707698  0.450954  1
  O  O32  1  0.707698  0.848546  0.950954  1
  O  O33  1  0.292302  0.151454  0.450954  1
  O  O34  1  0.848546  0.707698  0.049046  1
  O  O35  1  0.151454  0.292302  0.549046  1
  O  O36  1  0.142524  0.349173  0.145118  1
  O  O37  1  0.857476  0.650827  0.645118  1
  O  O38  1  0.349173  0.142524  0.854882  1
  O  O39  1  0.650827  0.857476  0.354882  1
  O  O40  1  0.857476  0.650827  0.854882  1
  O  O41  1  0.142524  0.349173  0.354882  1
  O  O42  1  0.650827  0.857476  0.145118  1
  O  O43  1  0.349173  0.142524  0.645118  1
  O  O44  1  0.139457  0.860543  0.159437  1
  O  O45  1  0.860543  0.139457  0.659437  1
  O  O46  1  0.860543  0.139457  0.840563  1
  O  O47  1  0.139457  0.860543  0.340563  1
