# generated using pymatgen
data_Li2Cr(H2O3)2
_symmetry_space_group_name_H-M   'P 1'
_cell_length_a   5.60284003
_cell_length_b   7.78531540
_cell_length_c   12.13535118
_cell_angle_alpha   90.00000000
_cell_angle_beta   90.00000000
_cell_angle_gamma   90.00000000
_symmetry_Int_Tables_number   1
_chemical_formula_structural   Li2Cr(H2O3)2
_chemical_formula_sum   'Li8 Cr4 H16 O24'
_cell_volume   529.34252302
_cell_formula_units_Z   4
loop_
 _symmetry_equiv_pos_site_id
 _symmetry_equiv_pos_as_xyz
  1  'x, y, z'
loop_
 _atom_site_type_symbol
 _atom_site_label
 _atom_site_symmetry_multiplicity
 _atom_site_fract_x
 _atom_site_fract_y
 _atom_site_fract_z
 _atom_site_occupancy
  Li  Li0  1  0.177465  0.138377  0.872060  1
  Li  Li1  1  0.677465  0.361623  0.127940  1
  Li  Li2  1  0.822535  0.638377  0.627940  1
  Li  Li3  1  0.322535  0.861623  0.372060  1
  Li  Li4  1  0.080446  0.203768  0.501497  1
  Li  Li5  1  0.580446  0.296232  0.498503  1
  Li  Li6  1  0.919554  0.703768  0.998503  1
  Li  Li7  1  0.419554  0.796232  0.001497  1
  Cr  Cr8  1  0.176322  0.117837  0.134719  1
  Cr  Cr9  1  0.676322  0.382163  0.865281  1
  Cr  Cr10  1  0.823678  0.617837  0.365281  1
  Cr  Cr11  1  0.323678  0.882163  0.634719  1
  H  H12  1  0.261437  0.484878  0.613562  1
  H  H13  1  0.761437  0.015122  0.386438  1
  H  H14  1  0.738563  0.984878  0.886438  1
  H  H15  1  0.238563  0.515122  0.113562  1
  H  H16  1  0.325029  0.328686  0.687746  1
  H  H17  1  0.825029  0.171314  0.312254  1
  H  H18  1  0.674971  0.828685  0.812254  1
  H  H19  1  0.174971  0.671315  0.187746  1
  H  H20  1  0.334847  0.285369  0.313691  1
  H  H21  1  0.834847  0.214631  0.686309  1
  H  H22  1  0.665153  0.785369  0.186309  1
  H  H23  1  0.165153  0.714631  0.813691  1
  H  H24  1  0.252748  0.451169  0.374100  1
  H  H25  1  0.752748  0.048831  0.625900  1
  H  H26  1  0.747252  0.951169  0.125900  1
  H  H27  1  0.247252  0.548831  0.874100  1
  O  O28  1  0.299246  0.360212  0.610083  1
  O  O29  1  0.799246  0.139788  0.389917  1
  O  O30  1  0.700754  0.860212  0.889917  1
  O  O31  1  0.200754  0.639788  0.110083  1
  O  O32  1  0.301365  0.330139  0.387529  1
  O  O33  1  0.801365  0.169861  0.612471  1
  O  O34  1  0.698635  0.830139  0.112471  1
  O  O35  1  0.198635  0.669861  0.887529  1
  O  O36  1  0.329500  0.302176  0.138444  1
  O  O37  1  0.829500  0.197824  0.861556  1
  O  O38  1  0.670500  0.802176  0.361556  1
  O  O39  1  0.170500  0.697824  0.638444  1
  O  O40  1  0.382941  0.343042  0.849072  1
  O  O41  1  0.882941  0.156958  0.150928  1
  O  O42  1  0.617059  0.843042  0.650928  1
  O  O43  1  0.117059  0.656958  0.349072  1
  O  O44  1  0.222431  0.017197  0.014837  1
  O  O45  1  0.722431  0.482803  0.985163  1
  O  O46  1  0.777569  0.517197  0.485163  1
  O  O47  1  0.277569  0.982803  0.514837  1
  O  O48  1  0.233563  0.003449  0.737308  1
  O  O49  1  0.733563  0.496551  0.262692  1
  O  O50  1  0.766437  0.503449  0.762692  1
  O  O51  1  0.266437  0.996551  0.237308  1
