# generated using pymatgen
data_Y3(Ge3Pt2)2
_symmetry_space_group_name_H-M   'P 1'
_cell_length_a   8.80589420
_cell_length_b   4.36151498
_cell_length_c   13.37570582
_cell_angle_alpha   90.00000000
_cell_angle_beta   99.45899498
_cell_angle_gamma   90.00000000
_symmetry_Int_Tables_number   1
_chemical_formula_structural   Y3(Ge3Pt2)2
_chemical_formula_sum   'Y6 Ge12 Pt8'
_cell_volume   506.73643429
_cell_formula_units_Z   2
loop_
 _symmetry_equiv_pos_site_id
 _symmetry_equiv_pos_as_xyz
  1  'x, y, z'
loop_
 _atom_site_type_symbol
 _atom_site_label
 _atom_site_symmetry_multiplicity
 _atom_site_fract_x
 _atom_site_fract_y
 _atom_site_fract_z
 _atom_site_occupancy
  Y  Y0  1  0.765285  0.250000  0.561490  1
  Y  Y1  1  0.590304  0.250000  0.812479  1
  Y  Y2  1  0.234715  0.750000  0.438510  1
  Y  Y3  1  0.409696  0.750000  0.187521  1
  Y  Y4  1  0.934315  0.750000  0.186065  1
  Y  Y5  1  0.065685  0.250000  0.813935  1
  Ge  Ge6  1  0.586061  0.750000  0.432269  1
  Ge  Ge7  1  0.126213  0.750000  0.994329  1
  Ge  Ge8  1  0.880450  0.750000  0.432876  1
  Ge  Ge9  1  0.696058  0.250000  0.284105  1
  Ge  Ge10  1  0.303942  0.750000  0.715895  1
  Ge  Ge11  1  0.805664  0.750000  0.722024  1
  Ge  Ge12  1  0.873787  0.250000  0.005671  1
  Ge  Ge13  1  0.194336  0.250000  0.277976  1
  Ge  Ge14  1  0.377362  0.250000  0.998405  1
  Ge  Ge15  1  0.119550  0.250000  0.567124  1
  Ge  Ge16  1  0.622638  0.750000  0.001595  1
  Ge  Ge17  1  0.413939  0.250000  0.567731  1
  Pt  Pt18  1  0.353154  0.750000  0.899386  1
  Pt  Pt19  1  0.970330  0.250000  0.375352  1
  Pt  Pt20  1  0.848650  0.750000  0.908875  1
  Pt  Pt21  1  0.029670  0.750000  0.624648  1
  Pt  Pt22  1  0.646846  0.250000  0.100614  1
  Pt  Pt23  1  0.151350  0.250000  0.091125  1
  Pt  Pt24  1  0.533190  0.750000  0.624316  1
  Pt  Pt25  1  0.466810  0.250000  0.375684  1
