# generated using pymatgen
data_Y2ReB6
_symmetry_space_group_name_H-M   'P 1'
_cell_length_a   3.68662141
_cell_length_b   9.19343761
_cell_length_c   11.58180842
_cell_angle_alpha   90.00000000
_cell_angle_beta   90.00000000
_cell_angle_gamma   90.00000000
_symmetry_Int_Tables_number   1
_chemical_formula_structural   Y2ReB6
_chemical_formula_sum   'Y8 Re4 B24'
_cell_volume   392.53903533
_cell_formula_units_Z   4
loop_
 _symmetry_equiv_pos_site_id
 _symmetry_equiv_pos_as_xyz
  1  'x, y, z'
loop_
 _atom_site_type_symbol
 _atom_site_label
 _atom_site_symmetry_multiplicity
 _atom_site_fract_x
 _atom_site_fract_y
 _atom_site_fract_z
 _atom_site_occupancy
  Y  Y0  1  0.000000  0.823521  0.086046  1
  Y  Y1  1  0.000000  0.176479  0.913954  1
  Y  Y2  1  0.000000  0.323521  0.413954  1
  Y  Y3  1  0.000000  0.676479  0.586046  1
  Y  Y4  1  0.000000  0.443032  0.129704  1
  Y  Y5  1  0.000000  0.556968  0.870296  1
  Y  Y6  1  0.000000  0.943032  0.370296  1
  Y  Y7  1  0.000000  0.056968  0.629704  1
  Re  Re8  1  0.000000  0.138440  0.179180  1
  Re  Re9  1  0.000000  0.861560  0.820820  1
  Re  Re10  1  0.000000  0.638440  0.320820  1
  Re  Re11  1  0.000000  0.361560  0.679180  1
  B  B12  1  0.500000  0.053184  0.067308  1
  B  B13  1  0.500000  0.946816  0.932693  1
  B  B14  1  0.500000  0.553184  0.432692  1
  B  B15  1  0.500000  0.446816  0.567307  1
  B  B16  1  0.500000  0.248441  0.081663  1
  B  B17  1  0.500000  0.751559  0.918337  1
  B  B18  1  0.500000  0.748441  0.418337  1
  B  B19  1  0.500000  0.251559  0.581663  1
  B  B20  1  0.500000  0.291635  0.234363  1
  B  B21  1  0.500000  0.708365  0.765637  1
  B  B22  1  0.500000  0.791635  0.265637  1
  B  B23  1  0.500000  0.208365  0.734363  1
  B  B24  1  0.500000  0.130727  0.314091  1
  B  B25  1  0.500000  0.869273  0.685909  1
  B  B26  1  0.500000  0.630727  0.185909  1
  B  B27  1  0.500000  0.369273  0.814091  1
  B  B28  1  0.500000  0.482267  0.288140  1
  B  B29  1  0.500000  0.517733  0.711860  1
  B  B30  1  0.500000  0.982267  0.211860  1
  B  B31  1  0.500000  0.017733  0.788140  1
  B  B32  1  0.500000  0.100478  0.471822  1
  B  B33  1  0.500000  0.899522  0.528178  1
  B  B34  1  0.500000  0.600478  0.028178  1
  B  B35  1  0.500000  0.399522  0.971822  1
