# generated using pymatgen
data_Li6Nd6Sb(TeO8)3
_symmetry_space_group_name_H-M   'P 1'
_cell_length_a   11.01750697
_cell_length_b   11.01750697
_cell_length_c   12.73289559
_cell_angle_alpha   54.83831859
_cell_angle_beta   125.16168141
_cell_angle_gamma   109.37245494
_symmetry_Int_Tables_number   1
_chemical_formula_structural   Li6Nd6Sb(TeO8)3
_chemical_formula_sum   'Li12 Nd12 Sb2 Te6 O48'
_cell_volume   1033.00275533
_cell_formula_units_Z   2
loop_
 _symmetry_equiv_pos_site_id
 _symmetry_equiv_pos_as_xyz
  1  'x, y, z'
loop_
 _atom_site_type_symbol
 _atom_site_label
 _atom_site_symmetry_multiplicity
 _atom_site_fract_x
 _atom_site_fract_y
 _atom_site_fract_z
 _atom_site_occupancy
  Li  Li0  1  0.125679  0.375173  0.875688  1
  Li  Li1  1  0.374813  0.374813  0.250000  1
  Li  Li2  1  0.749682  0.251006  0.374093  1
  Li  Li3  1  0.124560  0.124560  0.750000  1
  Li  Li4  1  0.748994  0.250318  0.874093  1
  Li  Li5  1  0.375173  0.125679  0.624312  1
  Li  Li6  1  0.624827  0.874321  0.375688  1
  Li  Li7  1  0.250318  0.748994  0.625907  1
  Li  Li8  1  0.251006  0.749682  0.125907  1
  Li  Li9  1  0.875440  0.875440  0.250000  1
  Li  Li10  1  0.625187  0.625187  0.750000  1
  Li  Li11  1  0.874321  0.624827  0.124312  1
  Nd  Nd12  1  0.375213  0.375213  0.750000  1
  Nd  Nd13  1  0.750372  0.248852  0.626204  1
  Nd  Nd14  1  0.124553  0.373509  0.374815  1
  Nd  Nd15  1  0.875675  0.875675  0.750000  1
  Nd  Nd16  1  0.751148  0.249628  0.126204  1
  Nd  Nd17  1  0.373509  0.124553  0.125185  1
  Nd  Nd18  1  0.626491  0.875447  0.874815  1
  Nd  Nd19  1  0.248852  0.750372  0.873796  1
  Nd  Nd20  1  0.124325  0.124325  0.250000  1
  Nd  Nd21  1  0.875447  0.626491  0.625185  1
  Nd  Nd22  1  0.249628  0.751148  0.373796  1
  Nd  Nd23  1  0.624787  0.624787  0.250000  1
  Sb  Sb24  1  0.000000  0.000000  0.500000  1
  Sb  Sb25  1  0.000000  0.000000  0.000000  1
  Te  Te26  1  0.000000  0.500000  0.000000  1
  Te  Te27  1  0.500000  1.000000  0.500000  1
  Te  Te28  1  0.500000  0.000000  0.000000  1
  Te  Te29  1  0.000000  0.500000  0.500000  1
  Te  Te30  1  0.500000  0.500000  0.500000  1
  Te  Te31  1  0.500000  0.500000  0.000000  1
  O  O32  1  0.693012  0.407092  0.669615  1
  O  O33  1  0.576534  0.477129  0.906174  1
  O  O34  1  0.330150  0.383667  0.922868  1
  O  O35  1  0.977177  0.423403  0.670097  1
  O  O36  1  0.522871  0.423466  0.406174  1
  O  O37  1  0.806641  0.406980  0.423374  1
  O  O38  1  0.117085  0.329987  0.593460  1
  O  O39  1  0.971854  0.079055  0.799763  1
  O  O40  1  0.329987  0.117085  0.906540  1
  O  O41  1  0.593020  0.193359  0.923374  1
  O  O42  1  0.383667  0.330150  0.577132  1
  O  O43  1  0.384158  0.169896  0.307694  1
  O  O44  1  0.923547  0.476807  0.116593  1
  O  O45  1  0.592908  0.306988  0.169615  1
  O  O46  1  0.692538  0.093871  0.522192  1
  O  O47  1  0.905992  0.200108  0.378445  1
  O  O48  1  0.121378  0.172500  0.027226  1
  O  O49  1  0.169896  0.384158  0.192306  1
  O  O50  1  0.799892  0.094008  0.878445  1
  O  O51  1  0.079055  0.971854  0.700237  1
  O  O52  1  0.423403  0.977177  0.829903  1
  O  O53  1  0.172500  0.121378  0.472774  1
  O  O54  1  0.906129  0.307462  0.022192  1
  O  O55  1  0.476807  0.923547  0.383407  1
  O  O56  1  0.093871  0.692538  0.977808  1
  O  O57  1  0.523193  0.076453  0.616593  1
  O  O58  1  0.827500  0.878622  0.527226  1
  O  O59  1  0.576597  0.022823  0.170097  1
  O  O60  1  0.920945  0.028146  0.299763  1
  O  O61  1  0.200108  0.905992  0.121555  1
  O  O62  1  0.830104  0.615842  0.807694  1
  O  O63  1  0.878622  0.827500  0.972774  1
  O  O64  1  0.094008  0.799892  0.621555  1
  O  O65  1  0.307462  0.906129  0.477808  1
  O  O66  1  0.407092  0.693012  0.830385  1
  O  O67  1  0.076453  0.523193  0.883407  1
  O  O68  1  0.615842  0.830104  0.692306  1
  O  O69  1  0.616333  0.669850  0.422868  1
  O  O70  1  0.406980  0.806641  0.076626  1
  O  O71  1  0.670013  0.882915  0.093460  1
  O  O72  1  0.028146  0.920945  0.200237  1
  O  O73  1  0.882915  0.670013  0.406540  1
  O  O74  1  0.193359  0.593020  0.576626  1
  O  O75  1  0.477129  0.576534  0.593826  1
  O  O76  1  0.022823  0.576597  0.329903  1
  O  O77  1  0.669850  0.616333  0.077132  1
  O  O78  1  0.423466  0.522871  0.093826  1
  O  O79  1  0.306988  0.592908  0.330385  1
