# generated using pymatgen
data_K2CuF4
_symmetry_space_group_name_H-M   'P 1'
_cell_length_a   7.13474875
_cell_length_b   7.13474875
_cell_length_c   7.13474875
_cell_angle_alpha   146.29708264
_cell_angle_beta   146.29708264
_cell_angle_gamma   48.40570583
_symmetry_Int_Tables_number   1
_chemical_formula_structural   K2CuF4
_chemical_formula_sum   'K2 Cu1 F4'
_cell_volume   111.35487519
_cell_formula_units_Z   1
loop_
 _symmetry_equiv_pos_site_id
 _symmetry_equiv_pos_as_xyz
  1  'x, y, z'
loop_
 _atom_site_type_symbol
 _atom_site_label
 _atom_site_symmetry_multiplicity
 _atom_site_fract_x
 _atom_site_fract_y
 _atom_site_fract_z
 _atom_site_occupancy
  K  K0  1  0.356900  0.356900  0.000000  1
  K  K1  1  0.643100  0.643100  0.000000  1
  Cu  Cu2  1  0.000000  0.000000  0.000000  1
  F  F3  1  0.153348  0.153348  0.000000  1
  F  F4  1  1.000000  0.500000  0.500000  1
  F  F5  1  0.846652  0.846652  0.000000  1
  F  F6  1  0.500000  0.000000  0.500000  1
