# generated using pymatgen
data_Zr2Al4C5
_symmetry_space_group_name_H-M   'P 1'
_cell_length_a   13.87383813
_cell_length_b   13.87383813
_cell_length_c   13.87383813
_cell_angle_alpha   13.90344924
_cell_angle_beta   13.90344924
_cell_angle_gamma   13.90344924
_symmetry_Int_Tables_number   1
_chemical_formula_structural   Zr2Al4C5
_chemical_formula_sum   'Zr2 Al4 C5'
_cell_volume   134.18529323
_cell_formula_units_Z   1
loop_
 _symmetry_equiv_pos_site_id
 _symmetry_equiv_pos_as_xyz
  1  'x, y, z'
loop_
 _atom_site_type_symbol
 _atom_site_label
 _atom_site_symmetry_multiplicity
 _atom_site_fract_x
 _atom_site_fract_y
 _atom_site_fract_z
 _atom_site_occupancy
  Zr  Zr0  1  0.866331  0.866331  0.866331  1
  Zr  Zr1  1  0.133669  0.133669  0.133669  1
  Al  Al2  1  0.310473  0.310473  0.310473  1
  Al  Al3  1  0.411054  0.411054  0.411054  1
  Al  Al4  1  0.588946  0.588946  0.588946  1
  Al  Al5  1  0.689527  0.689527  0.689527  1
  C  C6  1  0.233840  0.233840  0.233840  1
  C  C7  1  0.363691  0.363691  0.363691  1
  C  C8  1  0.500000  0.500000  0.500000  1
  C  C9  1  0.636309  0.636309  0.636309  1
  C  C10  1  0.766160  0.766160  0.766160  1
