# generated using pymatgen
data_Rb2(PSe2)3
_symmetry_space_group_name_H-M   'P 1'
_cell_length_a   10.85672362
_cell_length_b   15.60641816
_cell_length_c   16.99747627
_cell_angle_alpha   90.00000000
_cell_angle_beta   90.00000000
_cell_angle_gamma   90.00000000
_symmetry_Int_Tables_number   1
_chemical_formula_structural   Rb2(PSe2)3
_chemical_formula_sum   'Rb16 P24 Se48'
_cell_volume   2879.96006014
_cell_formula_units_Z   8
loop_
 _symmetry_equiv_pos_site_id
 _symmetry_equiv_pos_as_xyz
  1  'x, y, z'
loop_
 _atom_site_type_symbol
 _atom_site_label
 _atom_site_symmetry_multiplicity
 _atom_site_fract_x
 _atom_site_fract_y
 _atom_site_fract_z
 _atom_site_occupancy
  Rb  Rb0  1  0.238487  0.301992  0.525523  1
  Rb  Rb1  1  0.238487  0.801992  0.974477  1
  Rb  Rb2  1  0.275458  0.544167  0.278508  1
  Rb  Rb3  1  0.761513  0.301992  0.025523  1
  Rb  Rb4  1  0.724542  0.544167  0.778508  1
  Rb  Rb5  1  0.762269  0.019752  0.163354  1
  Rb  Rb6  1  0.762269  0.519752  0.336646  1
  Rb  Rb7  1  0.267259  0.841900  0.410560  1
  Rb  Rb8  1  0.724542  0.044167  0.721492  1
  Rb  Rb9  1  0.237731  0.519752  0.836646  1
  Rb  Rb10  1  0.237731  0.019752  0.663354  1
  Rb  Rb11  1  0.275458  0.044167  0.221492  1
  Rb  Rb12  1  0.732741  0.341900  0.589440  1
  Rb  Rb13  1  0.761513  0.801992  0.474477  1
  Rb  Rb14  1  0.732741  0.841900  0.910560  1
  Rb  Rb15  1  0.267259  0.341900  0.089440  1
  P  P16  1  0.936208  0.061739  0.532643  1
  P  P17  1  0.801932  0.162341  0.321003  1
  P  P18  1  0.709800  0.192237  0.433748  1
  P  P19  1  0.045523  0.558302  0.083965  1
  P  P20  1  0.709800  0.692237  0.066252  1
  P  P21  1  0.063792  0.061739  0.032643  1
  P  P22  1  0.290200  0.192237  0.933748  1
  P  P23  1  0.045523  0.058302  0.416035  1
  P  P24  1  0.464797  0.795778  0.161731  1
  P  P25  1  0.936208  0.561739  0.967357  1
  P  P26  1  0.464797  0.295778  0.338269  1
  P  P27  1  0.535203  0.795778  0.661731  1
  P  P28  1  0.198068  0.162341  0.821003  1
  P  P29  1  0.954477  0.058302  0.916035  1
  P  P30  1  0.423689  0.799098  0.776770  1
  P  P31  1  0.801932  0.662341  0.178997  1
  P  P32  1  0.576311  0.299098  0.223230  1
  P  P33  1  0.198068  0.662341  0.678997  1
  P  P34  1  0.954477  0.558302  0.583965  1
  P  P35  1  0.290200  0.692237  0.566252  1
  P  P36  1  0.576311  0.799098  0.276770  1
  P  P37  1  0.063792  0.561739  0.467357  1
  P  P38  1  0.535203  0.295778  0.838269  1
  P  P39  1  0.423689  0.299098  0.723230  1
  Se  Se40  1  0.044668  0.437212  0.413519  1
  Se  Se41  1  0.761885  0.570253  0.552214  1
  Se  Se42  1  0.761885  0.070253  0.947786  1
  Se  Se43  1  0.513792  0.161319  0.388743  1
  Se  Se44  1  0.999953  0.191841  0.862374  1
  Se  Se45  1  0.485930  0.397152  0.918449  1
  Se  Se46  1  0.955332  0.437212  0.913519  1
  Se  Se47  1  0.439532  0.927478  0.823322  1
  Se  Se48  1  0.529927  0.192467  0.147485  1
  Se  Se49  1  0.044668  0.937212  0.086481  1
  Se  Se50  1  0.733756  0.556951  0.010673  1
  Se  Se51  1  0.780345  0.797947  0.234958  1
  Se  Se52  1  0.275796  0.284010  0.301573  1
  Se  Se53  1  0.000047  0.691841  0.137626  1
  Se  Se54  1  0.513792  0.661319  0.111257  1
  Se  Se55  1  0.955332  0.937212  0.586481  1
  Se  Se56  1  0.219655  0.797947  0.734958  1
  Se  Se57  1  0.486208  0.161319  0.888743  1
  Se  Se58  1  0.514070  0.397152  0.418449  1
  Se  Se59  1  0.000047  0.191841  0.362374  1
  Se  Se60  1  0.989018  0.454333  0.158742  1
  Se  Se61  1  0.021784  0.672701  0.396354  1
  Se  Se62  1  0.999953  0.691841  0.637626  1
  Se  Se63  1  0.266244  0.056951  0.989327  1
  Se  Se64  1  0.470073  0.692467  0.852515  1
  Se  Se65  1  0.989018  0.954333  0.341258  1
  Se  Se66  1  0.978216  0.672701  0.896354  1
  Se  Se67  1  0.010982  0.954333  0.841258  1
  Se  Se68  1  0.560468  0.427478  0.176678  1
  Se  Se69  1  0.486208  0.661319  0.611257  1
  Se  Se70  1  0.733756  0.056951  0.489327  1
  Se  Se71  1  0.266244  0.556951  0.510673  1
  Se  Se72  1  0.238115  0.570253  0.052214  1
  Se  Se73  1  0.978216  0.172701  0.603646  1
  Se  Se74  1  0.724204  0.284010  0.801573  1
  Se  Se75  1  0.529927  0.692467  0.352515  1
  Se  Se76  1  0.010982  0.454333  0.658742  1
  Se  Se77  1  0.724204  0.784010  0.698427  1
  Se  Se78  1  0.780345  0.297947  0.265042  1
  Se  Se79  1  0.219655  0.297947  0.765042  1
  Se  Se80  1  0.238115  0.070253  0.447786  1
  Se  Se81  1  0.439532  0.427478  0.676678  1
  Se  Se82  1  0.021784  0.172701  0.103646  1
  Se  Se83  1  0.514070  0.897152  0.081551  1
  Se  Se84  1  0.560468  0.927478  0.323322  1
  Se  Se85  1  0.485930  0.897152  0.581551  1
  Se  Se86  1  0.275796  0.784010  0.198427  1
  Se  Se87  1  0.470073  0.192467  0.647485  1
