# generated using pymatgen
data_Hf3P
_symmetry_space_group_name_H-M   'P 1'
_cell_length_a   10.69933368
_cell_length_b   10.69933368
_cell_length_c   5.32310931
_cell_angle_alpha   90.00000000
_cell_angle_beta   90.00000000
_cell_angle_gamma   90.00000000
_symmetry_Int_Tables_number   1
_chemical_formula_structural   Hf3P
_chemical_formula_sum   'Hf24 P8'
_cell_volume   609.36688373
_cell_formula_units_Z   8
loop_
 _symmetry_equiv_pos_site_id
 _symmetry_equiv_pos_as_xyz
  1  'x, y, z'
loop_
 _atom_site_type_symbol
 _atom_site_label
 _atom_site_symmetry_multiplicity
 _atom_site_fract_x
 _atom_site_fract_y
 _atom_site_fract_z
 _atom_site_occupancy
  Hf  Hf0  1  0.915814  0.608045  0.532493  1
  Hf  Hf1  1  0.084186  0.391955  0.532493  1
  Hf  Hf2  1  0.891955  0.415814  0.032493  1
  Hf  Hf3  1  0.108045  0.584186  0.032493  1
  Hf  Hf4  1  0.584186  0.891955  0.967507  1
  Hf  Hf5  1  0.415814  0.108045  0.967507  1
  Hf  Hf6  1  0.608045  0.084186  0.467507  1
  Hf  Hf7  1  0.391955  0.915814  0.467507  1
  Hf  Hf8  1  0.862050  0.972383  0.719717  1
  Hf  Hf9  1  0.137950  0.027617  0.719717  1
  Hf  Hf10  1  0.527617  0.362050  0.219717  1
  Hf  Hf11  1  0.472383  0.637950  0.219717  1
  Hf  Hf12  1  0.637950  0.527617  0.780283  1
  Hf  Hf13  1  0.362050  0.472383  0.780283  1
  Hf  Hf14  1  0.972383  0.137950  0.280283  1
  Hf  Hf15  1  0.027617  0.862050  0.280283  1
  Hf  Hf16  1  0.819639  0.716125  0.011791  1
  Hf  Hf17  1  0.180361  0.283875  0.011791  1
  Hf  Hf18  1  0.783875  0.319639  0.511791  1
  Hf  Hf19  1  0.216125  0.680361  0.511791  1
  Hf  Hf20  1  0.680361  0.783875  0.488209  1
  Hf  Hf21  1  0.319639  0.216125  0.488209  1
  Hf  Hf22  1  0.716125  0.180361  0.988209  1
  Hf  Hf23  1  0.283875  0.819639  0.988209  1
  P  P24  1  0.794358  0.958629  0.212832  1
  P  P25  1  0.205642  0.041371  0.212832  1
  P  P26  1  0.541371  0.294358  0.712832  1
  P  P27  1  0.458629  0.705642  0.712832  1
  P  P28  1  0.705642  0.541371  0.287168  1
  P  P29  1  0.294358  0.458629  0.287168  1
  P  P30  1  0.958629  0.205642  0.787168  1
  P  P31  1  0.041371  0.794358  0.787168  1
