# generated using pymatgen
data_YTaO4
_symmetry_space_group_name_H-M   'P 1'
_cell_length_a   5.16156270
_cell_length_b   5.54298502
_cell_length_c   5.35070011
_cell_angle_alpha   90.00000000
_cell_angle_beta   96.52288772
_cell_angle_gamma   90.00000000
_symmetry_Int_Tables_number   1
_chemical_formula_structural   YTaO4
_chemical_formula_sum   'Y2 Ta2 O8'
_cell_volume   152.09502316
_cell_formula_units_Z   2
loop_
 _symmetry_equiv_pos_site_id
 _symmetry_equiv_pos_as_xyz
  1  'x, y, z'
loop_
 _atom_site_type_symbol
 _atom_site_label
 _atom_site_symmetry_multiplicity
 _atom_site_fract_x
 _atom_site_fract_y
 _atom_site_fract_z
 _atom_site_occupancy
  Y  Y0  1  0.000000  0.232052  0.250000  1
  Y  Y1  1  0.000000  0.767948  0.750000  1
  Ta  Ta2  1  0.500000  0.691980  0.250000  1
  Ta  Ta3  1  0.500000  0.308020  0.750000  1
  O  O4  1  0.749973  0.912410  0.398679  1
  O  O5  1  0.250027  0.912410  0.101321  1
  O  O6  1  0.250027  0.087590  0.601321  1
  O  O7  1  0.749973  0.087590  0.898679  1
  O  O8  1  0.730163  0.434234  0.502963  1
  O  O9  1  0.269837  0.434234  0.997037  1
  O  O10  1  0.269837  0.565766  0.497037  1
  O  O11  1  0.730163  0.565766  0.002963  1
