# generated using pymatgen
data_LiFeP2O7
_symmetry_space_group_name_H-M   'P 1'
_cell_length_a   5.08939489
_cell_length_b   6.79151440
_cell_length_c   8.29820317
_cell_angle_alpha   68.60743819
_cell_angle_beta   87.24102903
_cell_angle_gamma   87.35291563
_symmetry_Int_Tables_number   1
_chemical_formula_structural   LiFeP2O7
_chemical_formula_sum   'Li2 Fe2 P4 O14'
_cell_volume   266.62760850
_cell_formula_units_Z   2
loop_
 _symmetry_equiv_pos_site_id
 _symmetry_equiv_pos_as_xyz
  1  'x, y, z'
loop_
 _atom_site_type_symbol
 _atom_site_label
 _atom_site_symmetry_multiplicity
 _atom_site_fract_x
 _atom_site_fract_y
 _atom_site_fract_z
 _atom_site_occupancy
  Li  Li0  1  0.280058  0.821658  0.996936  1
  Li  Li1  1  0.790409  0.179240  0.439583  1
  Fe  Fe2  1  0.756864  0.793330  0.270191  1
  Fe  Fe3  1  0.240959  0.226862  0.727896  1
  P  P4  1  0.281883  0.456453  0.306751  1
  P  P5  1  0.718257  0.545539  0.688242  1
  P  P6  1  0.236717  0.113430  0.172463  1
  P  P7  1  0.765764  0.890910  0.829649  1
  O  O8  1  0.288168  0.351502  0.159349  1
  O  O9  1  0.904167  0.355431  0.761958  1
  O  O10  1  0.115304  0.660141  0.222354  1
  O  O11  1  0.059654  0.933143  0.788913  1
  O  O12  1  0.152738  0.297642  0.471062  1
  O  O13  1  0.569842  0.497280  0.327465  1
  O  O14  1  0.267875  0.118722  0.987839  1
  O  O15  1  0.815348  0.708754  0.516865  1
  O  O16  1  0.442466  0.967000  0.291057  1
  O  O17  1  0.954597  0.064245  0.248022  1
  O  O18  1  0.588442  0.053877  0.696010  1
  O  O19  1  0.680420  0.856780  0.017582  1
  O  O20  1  0.710753  0.660476  0.827877  1
  O  O21  1  0.435615  0.480558  0.685721  1
