# generated using pymatgen
data_K2NbCl6
_symmetry_space_group_name_H-M   'P 1'
_cell_length_a   7.06261069
_cell_length_b   7.06261069
_cell_length_c   10.61161792
_cell_angle_alpha   90.00000000
_cell_angle_beta   90.00000000
_cell_angle_gamma   90.00000000
_symmetry_Int_Tables_number   1
_chemical_formula_structural   K2NbCl6
_chemical_formula_sum   'K4 Nb2 Cl12'
_cell_volume   529.31248675
_cell_formula_units_Z   2
loop_
 _symmetry_equiv_pos_site_id
 _symmetry_equiv_pos_as_xyz
  1  'x, y, z'
loop_
 _atom_site_type_symbol
 _atom_site_label
 _atom_site_symmetry_multiplicity
 _atom_site_fract_x
 _atom_site_fract_y
 _atom_site_fract_z
 _atom_site_occupancy
  K  K0  1  0.500000  0.000000  0.750000  1
  K  K1  1  0.000000  0.500000  0.750000  1
  K  K2  1  0.500000  0.000000  0.250000  1
  K  K3  1  0.000000  0.500000  0.250000  1
  Nb  Nb4  1  0.000000  0.000000  0.000000  1
  Nb  Nb5  1  0.500000  0.500000  0.500000  1
  Cl  Cl6  1  0.500000  0.500000  0.732039  1
  Cl  Cl7  1  0.000000  0.000000  0.767961  1
  Cl  Cl8  1  0.695593  0.217312  0.500000  1
  Cl  Cl9  1  0.500000  0.500000  0.267961  1
  Cl  Cl10  1  0.804407  0.717312  0.000000  1
  Cl  Cl11  1  0.195593  0.282688  0.000000  1
  Cl  Cl12  1  0.717312  0.195593  0.000000  1
  Cl  Cl13  1  0.217312  0.304407  0.500000  1
  Cl  Cl14  1  0.282688  0.804407  0.000000  1
  Cl  Cl15  1  0.304407  0.782688  0.500000  1
  Cl  Cl16  1  0.782688  0.695593  0.500000  1
  Cl  Cl17  1  0.000000  0.000000  0.232039  1
