# generated using pymatgen
data_Cu6PS5Br
_symmetry_space_group_name_H-M   'P 1'
_cell_length_a   6.83122325
_cell_length_b   6.83122325
_cell_length_c   11.92493158
_cell_angle_alpha   73.46030785
_cell_angle_beta   106.53969215
_cell_angle_gamma   119.86155532
_symmetry_Int_Tables_number   1
_chemical_formula_structural   Cu6PS5Br
_chemical_formula_sum   'Cu12 P2 S10 Br2'
_cell_volume   455.74251118
_cell_formula_units_Z   2
loop_
 _symmetry_equiv_pos_site_id
 _symmetry_equiv_pos_as_xyz
  1  'x, y, z'
loop_
 _atom_site_type_symbol
 _atom_site_label
 _atom_site_symmetry_multiplicity
 _atom_site_fract_x
 _atom_site_fract_y
 _atom_site_fract_z
 _atom_site_occupancy
  Cu  Cu0  1  0.039517  0.028329  0.893142  1
  Cu  Cu1  1  0.634827  0.268475  0.614066  1
  Cu  Cu2  1  0.465429  0.999125  0.883702  1
  Cu  Cu3  1  0.731525  0.365173  0.114066  1
  Cu  Cu4  1  0.503885  0.461418  0.888705  1
  Cu  Cu5  1  0.000875  0.534571  0.383702  1
  Cu  Cu6  1  0.853673  0.845874  0.612744  1
  Cu  Cu7  1  0.377232  0.772364  0.111371  1
  Cu  Cu8  1  0.227636  0.622768  0.611371  1
  Cu  Cu9  1  0.154126  0.146327  0.112744  1
  Cu  Cu10  1  0.538582  0.496115  0.388705  1
  Cu  Cu11  1  0.971671  0.960483  0.393142  1
  P  P12  1  0.499394  0.999749  0.375655  1
  P  P13  1  0.000251  0.500606  0.875655  1
  S  S14  1  0.557493  0.936702  0.560480  1
  S  S15  1  0.063298  0.442507  0.060480  1
  S  S16  1  0.806459  0.199768  0.312366  1
  S  S17  1  0.830770  0.702287  0.812659  1
  S  S18  1  0.297713  0.169230  0.312659  1
  S  S19  1  0.800232  0.193541  0.812366  1
  S  S20  1  0.330717  0.694797  0.310259  1
  S  S21  1  0.384104  0.121729  0.014241  1
  S  S22  1  0.878271  0.615896  0.514241  1
  S  S23  1  0.305203  0.669283  0.810259  1
  Br  Br24  1  0.754274  0.751481  0.127741  1
  Br  Br25  1  0.248519  0.245726  0.627741  1
