# generated using pymatgen
data_Cs2GeP4O13
_symmetry_space_group_name_H-M   'P 1'
_cell_length_a   5.05580251
_cell_length_b   8.02060792
_cell_length_c   16.22953869
_cell_angle_alpha   84.53636035
_cell_angle_beta   84.30805763
_cell_angle_gamma   80.84309197
_symmetry_Int_Tables_number   1
_chemical_formula_structural   Cs2GeP4O13
_chemical_formula_sum   'Cs4 Ge2 P8 O26'
_cell_volume   644.41051594
_cell_formula_units_Z   2
loop_
 _symmetry_equiv_pos_site_id
 _symmetry_equiv_pos_as_xyz
  1  'x, y, z'
loop_
 _atom_site_type_symbol
 _atom_site_label
 _atom_site_symmetry_multiplicity
 _atom_site_fract_x
 _atom_site_fract_y
 _atom_site_fract_z
 _atom_site_occupancy
  Cs  Cs0  1  0.271776  0.294873  0.028958  1
  Cs  Cs1  1  0.674467  0.743314  0.488597  1
  Cs  Cs2  1  0.728224  0.705127  0.971042  1
  Cs  Cs3  1  0.325533  0.256686  0.511403  1
  Ge  Ge4  1  0.550868  0.938253  0.241735  1
  Ge  Ge5  1  0.449132  0.061747  0.758265  1
  P  P6  1  0.663373  0.406868  0.696478  1
  P  P7  1  0.315052  0.683905  0.786565  1
  P  P8  1  0.336627  0.593132  0.303522  1
  P  P9  1  0.684948  0.316095  0.213435  1
  P  P10  1  0.983040  0.087570  0.335225  1
  P  P11  1  0.016960  0.912430  0.664775  1
  P  P12  1  0.114914  0.784540  0.152851  1
  P  P13  1  0.885086  0.215460  0.847149  1
  O  O14  1  0.808053  0.420226  0.612675  1
  O  O15  1  0.551180  0.711712  0.290449  1
  O  O16  1  0.204446  0.707802  0.072731  1
  O  O17  1  0.887332  0.152278  0.417677  1
  O  O18  1  0.946894  0.241357  0.260590  1
  O  O19  1  0.446335  0.834858  0.806424  1
  O  O20  1  0.277299  0.924469  0.171618  1
  O  O21  1  0.826690  0.949308  0.311442  1
  O  O22  1  0.289832  0.021646  0.328356  1
  O  O23  1  0.142986  0.638227  0.230134  1
  O  O24  1  0.745102  0.433215  0.140550  1
  O  O25  1  0.710168  0.978354  0.671644  1
  O  O26  1  0.487962  0.405274  0.286527  1
  O  O27  1  0.189288  0.141841  0.843826  1
  O  O28  1  0.512038  0.594726  0.713473  1
  O  O29  1  0.112668  0.847722  0.582323  1
  O  O30  1  0.722701  0.075531  0.828382  1
  O  O31  1  0.053106  0.758643  0.739410  1
  O  O32  1  0.191947  0.579774  0.387325  1
  O  O33  1  0.810712  0.858159  0.156174  1
  O  O34  1  0.254898  0.566785  0.859450  1
  O  O35  1  0.173310  0.050692  0.688558  1
  O  O36  1  0.857014  0.361773  0.769866  1
  O  O37  1  0.553665  0.165142  0.193576  1
  O  O38  1  0.795554  0.292198  0.927269  1
  O  O39  1  0.448820  0.288288  0.709551  1
