# generated using pymatgen
data_K2Hg(PSe3)2
_symmetry_space_group_name_H-M   'P 1'
_cell_length_a   13.31263685
_cell_length_b   7.44604511
_cell_length_c   14.59300489
_cell_angle_alpha   90.00000000
_cell_angle_beta   110.42955817
_cell_angle_gamma   90.00000000
_symmetry_Int_Tables_number   1
_chemical_formula_structural   K2Hg(PSe3)2
_chemical_formula_sum   'K8 Hg4 P8 Se24'
_cell_volume   1355.56816114
_cell_formula_units_Z   4
loop_
 _symmetry_equiv_pos_site_id
 _symmetry_equiv_pos_as_xyz
  1  'x, y, z'
loop_
 _atom_site_type_symbol
 _atom_site_label
 _atom_site_symmetry_multiplicity
 _atom_site_fract_x
 _atom_site_fract_y
 _atom_site_fract_z
 _atom_site_occupancy
  K  K0  1  0.400647  0.553971  0.784183  1
  K  K1  1  0.097995  0.960029  0.379432  1
  K  K2  1  0.400647  0.946029  0.284183  1
  K  K3  1  0.902005  0.039971  0.620568  1
  K  K4  1  0.599353  0.053971  0.715817  1
  K  K5  1  0.599353  0.446029  0.215817  1
  K  K6  1  0.902005  0.460029  0.120568  1
  K  K7  1  0.097995  0.539971  0.879432  1
  Hg  Hg8  1  0.742404  0.608034  0.477936  1
  Hg  Hg9  1  0.742404  0.891966  0.977936  1
  Hg  Hg10  1  0.257596  0.391966  0.522064  1
  Hg  Hg11  1  0.257596  0.108034  0.022064  1
  P  P12  1  0.960784  0.037484  0.917524  1
  P  P13  1  0.518468  0.612085  0.559457  1
  P  P14  1  0.481532  0.112085  0.940543  1
  P  P15  1  0.481532  0.387915  0.440543  1
  P  P16  1  0.039216  0.962516  0.082476  1
  P  P17  1  0.960784  0.462516  0.417524  1
  P  P18  1  0.039216  0.537484  0.582476  1
  P  P19  1  0.518468  0.887915  0.059457  1
  Se  Se20  1  0.402221  0.168640  0.498008  1
  Se  Se21  1  0.383059  0.011047  0.798581  1
  Se  Se22  1  0.909954  0.990716  0.145488  1
  Se  Se23  1  0.090046  0.009284  0.854512  1
  Se  Se24  1  0.360032  0.720229  0.554454  1
  Se  Se25  1  0.888272  0.198064  0.397917  1
  Se  Se26  1  0.597779  0.831360  0.501992  1
  Se  Se27  1  0.842852  0.815458  0.852147  1
  Se  Se28  1  0.111728  0.801936  0.602083  1
  Se  Se29  1  0.616941  0.988953  0.201419  1
  Se  Se30  1  0.402221  0.331360  0.998008  1
  Se  Se31  1  0.888272  0.301936  0.897917  1
  Se  Se32  1  0.842852  0.684542  0.352147  1
  Se  Se33  1  0.157148  0.315458  0.647853  1
  Se  Se34  1  0.597779  0.668640  0.001992  1
  Se  Se35  1  0.616941  0.511047  0.701419  1
  Se  Se36  1  0.090046  0.490716  0.354512  1
  Se  Se37  1  0.383059  0.488953  0.298581  1
  Se  Se38  1  0.157148  0.184542  0.147853  1
  Se  Se39  1  0.909954  0.509284  0.645488  1
  Se  Se40  1  0.639968  0.220229  0.945546  1
  Se  Se41  1  0.639968  0.279771  0.445546  1
  Se  Se42  1  0.111728  0.698065  0.102083  1
  Se  Se43  1  0.360032  0.779771  0.054454  1
