# generated using pymatgen
data_Cr12P7
_symmetry_space_group_name_H-M   'P 1'
_cell_length_a   9.01817308
_cell_length_b   9.01817308
_cell_length_c   3.21507879
_cell_angle_alpha   90.00000000
_cell_angle_beta   90.00000000
_cell_angle_gamma   120.00000000
_symmetry_Int_Tables_number   1
_chemical_formula_structural   Cr12P7
_chemical_formula_sum   'Cr12 P7'
_cell_volume   226.44325279
_cell_formula_units_Z   1
loop_
 _symmetry_equiv_pos_site_id
 _symmetry_equiv_pos_as_xyz
  1  'x, y, z'
loop_
 _atom_site_type_symbol
 _atom_site_label
 _atom_site_symmetry_multiplicity
 _atom_site_fract_x
 _atom_site_fract_y
 _atom_site_fract_z
 _atom_site_occupancy
  Cr  Cr0  1  0.375903  0.507885  0.000000  1
  Cr  Cr1  1  0.131982  0.624097  0.000000  1
  Cr  Cr2  1  0.492115  0.868018  0.000000  1
  Cr  Cr3  1  0.015743  0.264460  0.000000  1
  Cr  Cr4  1  0.248717  0.984257  0.000000  1
  Cr  Cr5  1  0.735540  0.751283  0.000000  1
  Cr  Cr6  1  0.509330  0.140265  0.500000  1
  Cr  Cr7  1  0.630935  0.490670  0.500000  1
  Cr  Cr8  1  0.859735  0.369065  0.500000  1
  Cr  Cr9  1  0.793838  0.016581  0.500000  1
  Cr  Cr10  1  0.222743  0.206162  0.500000  1
  Cr  Cr11  1  0.983419  0.777257  0.500000  1
  P  P12  1  0.000000  0.000000  0.000000  1
  P  P13  1  0.448777  0.289016  0.000000  1
  P  P14  1  0.840239  0.551223  0.000000  1
  P  P15  1  0.710984  0.159761  0.000000  1
  P  P16  1  0.169095  0.457497  0.500000  1
  P  P17  1  0.288401  0.830905  0.500000  1
  P  P18  1  0.542503  0.711599  0.500000  1
