# generated using pymatgen
data_H8C3(NO)3
_symmetry_space_group_name_H-M   'P 1'
_cell_length_a   3.99916216
_cell_length_b   17.75523986
_cell_length_c   9.22597854
_cell_angle_alpha   90.00000000
_cell_angle_beta   102.19310832
_cell_angle_gamma   90.00000000
_symmetry_Int_Tables_number   1
_chemical_formula_structural   H8C3(NO)3
_chemical_formula_sum   'H32 C12 N12 O12'
_cell_volume   640.32238799
_cell_formula_units_Z   4
loop_
 _symmetry_equiv_pos_site_id
 _symmetry_equiv_pos_as_xyz
  1  'x, y, z'
loop_
 _atom_site_type_symbol
 _atom_site_label
 _atom_site_symmetry_multiplicity
 _atom_site_fract_x
 _atom_site_fract_y
 _atom_site_fract_z
 _atom_site_occupancy
  H  H0  1  0.461694  0.688336  0.389519  1
  H  H1  1  0.538306  0.188336  0.110481  1
  H  H2  1  0.538306  0.311664  0.610481  1
  H  H3  1  0.461694  0.811664  0.889519  1
  H  H4  1  0.606726  0.764984  0.505818  1
  H  H5  1  0.393274  0.264984  0.994182  1
  H  H6  1  0.393274  0.235016  0.494182  1
  H  H7  1  0.606726  0.735016  0.005818  1
  H  H8  1  0.930314  0.551660  0.634106  1
  H  H9  1  0.069686  0.051660  0.865894  1
  H  H10  1  0.069686  0.448340  0.365894  1
  H  H11  1  0.930314  0.948340  0.134106  1
  H  H12  1  0.703934  0.569421  0.452832  1
  H  H13  1  0.296066  0.069421  0.047168  1
  H  H14  1  0.296066  0.430579  0.547168  1
  H  H15  1  0.703934  0.930579  0.952832  1
  H  H16  1  0.083429  0.655155  0.801462  1
  H  H17  1  0.916571  0.155155  0.698538  1
  H  H18  1  0.916571  0.344845  0.198538  1
  H  H19  1  0.083429  0.844845  0.301462  1
  H  H20  1  0.966988  0.745858  0.733079  1
  H  H21  1  0.033012  0.245858  0.766921  1
  H  H22  1  0.033012  0.254142  0.266921  1
  H  H23  1  0.966988  0.754142  0.233079  1
  H  H24  1  0.228439  0.648960  0.143387  1
  H  H25  1  0.771561  0.148960  0.356613  1
  H  H26  1  0.771561  0.351040  0.856613  1
  H  H27  1  0.228439  0.851040  0.643387  1
  H  H28  1  0.004713  0.610307  0.244298  1
  H  H29  1  0.995287  0.110307  0.255702  1
  H  H30  1  0.995287  0.389693  0.755702  1
  H  H31  1  0.004713  0.889693  0.744298  1
  C  C32  1  0.365215  0.490757  0.891270  1
  C  C33  1  0.634785  0.990757  0.608730  1
  C  C34  1  0.634785  0.509243  0.108730  1
  C  C35  1  0.365215  0.009243  0.391270  1
  C  C36  1  0.436299  0.556877  0.989758  1
  C  C37  1  0.563701  0.056877  0.510242  1
  C  C38  1  0.563701  0.443123  0.010242  1
  C  C39  1  0.436299  0.943123  0.489758  1
  C  C40  1  0.785337  0.661884  0.587589  1
  C  C41  1  0.214663  0.161884  0.912411  1
  C  C42  1  0.214663  0.338116  0.412411  1
  C  C43  1  0.785337  0.838116  0.087589  1
  N  N44  1  0.626928  0.709358  0.482008  1
  N  N45  1  0.373072  0.209358  0.017992  1
  N  N46  1  0.373072  0.290642  0.517992  1
  N  N47  1  0.626928  0.790642  0.982008  1
  N  N48  1  0.781922  0.587491  0.559321  1
  N  N49  1  0.218078  0.087491  0.940679  1
  N  N50  1  0.218078  0.412509  0.440679  1
  N  N51  1  0.781922  0.912509  0.059321  1
  N  N52  1  0.940914  0.688504  0.719686  1
  N  N53  1  0.059086  0.188504  0.780314  1
  N  N54  1  0.059086  0.311496  0.280314  1
  N  N55  1  0.940914  0.811496  0.219686  1
  O  O56  1  0.197723  0.478999  0.760595  1
  O  O57  1  0.802277  0.978999  0.739405  1
  O  O58  1  0.802277  0.521001  0.239405  1
  O  O59  1  0.197723  0.021001  0.260595  1
  O  O60  1  0.353388  0.625775  0.978392  1
  O  O61  1  0.646612  0.125775  0.521608  1
  O  O62  1  0.646612  0.374225  0.021608  1
  O  O63  1  0.353388  0.874225  0.478392  1
  O  O64  1  0.137245  0.656822  0.234682  1
  O  O65  1  0.862755  0.156822  0.265318  1
  O  O66  1  0.862755  0.343178  0.765318  1
  O  O67  1  0.137245  0.843178  0.734682  1
