# generated using pymatgen
data_YbZr6(PO4)9
_symmetry_space_group_name_H-M   'P 1'
_cell_length_a   8.99054844
_cell_length_b   8.99054844
_cell_length_c   22.81548095
_cell_angle_alpha   90.00000000
_cell_angle_beta   90.00000000
_cell_angle_gamma   120.00000000
_symmetry_Int_Tables_number   1
_chemical_formula_structural   YbZr6(PO4)9
_chemical_formula_sum   'Yb2 Zr12 P18 O72'
_cell_volume   1597.10191631
_cell_formula_units_Z   2
loop_
 _symmetry_equiv_pos_site_id
 _symmetry_equiv_pos_as_xyz
  1  'x, y, z'
loop_
 _atom_site_type_symbol
 _atom_site_label
 _atom_site_symmetry_multiplicity
 _atom_site_fract_x
 _atom_site_fract_y
 _atom_site_fract_z
 _atom_site_occupancy
  Yb  Yb0  1  0.000000  0.000000  0.500000  1
  Yb  Yb1  1  0.000000  0.000000  0.000000  1
  Zr  Zr2  1  0.333333  0.666667  0.810869  1
  Zr  Zr3  1  0.666667  0.333333  0.970234  1
  Zr  Zr4  1  0.333333  0.666667  0.029766  1
  Zr  Zr5  1  0.666667  0.333333  0.189131  1
  Zr  Zr6  1  0.666667  0.333333  0.470234  1
  Zr  Zr7  1  0.000000  0.000000  0.646929  1
  Zr  Zr8  1  0.333333  0.666667  0.310869  1
  Zr  Zr9  1  0.000000  0.000000  0.353071  1
  Zr  Zr10  1  0.666667  0.333333  0.689131  1
  Zr  Zr11  1  0.333333  0.666667  0.529766  1
  Zr  Zr12  1  0.000000  0.000000  0.146929  1
  Zr  Zr13  1  0.000000  0.000000  0.853071  1
  P  P14  1  0.946450  0.320714  0.579767  1
  P  P15  1  0.320714  0.374264  0.420233  1
  P  P16  1  0.320714  0.946450  0.920233  1
  P  P17  1  0.374264  0.053550  0.579767  1
  P  P18  1  0.000000  0.710567  0.750000  1
  P  P19  1  0.053550  0.374264  0.920233  1
  P  P20  1  0.625736  0.946450  0.420233  1
  P  P21  1  0.289433  0.000000  0.250000  1
  P  P22  1  0.289433  0.289433  0.750000  1
  P  P23  1  0.710567  0.000000  0.750000  1
  P  P24  1  0.679286  0.625736  0.579767  1
  P  P25  1  0.374264  0.320714  0.079767  1
  P  P26  1  0.710567  0.710567  0.250000  1
  P  P27  1  0.679286  0.053550  0.079767  1
  P  P28  1  0.053550  0.679286  0.420233  1
  P  P29  1  0.000000  0.289433  0.250000  1
  P  P30  1  0.946450  0.625736  0.079767  1
  P  P31  1  0.625736  0.679286  0.920233  1
  O  O32  1  0.324641  0.852907  0.864697  1
  O  O33  1  0.159602  0.971006  0.920050  1
  O  O34  1  0.971006  0.159602  0.579950  1
  O  O35  1  0.125486  0.642198  0.077625  1
  O  O36  1  0.188595  0.159602  0.079950  1
  O  O37  1  0.852907  0.324641  0.635303  1
  O  O38  1  0.483287  0.125486  0.922375  1
  O  O39  1  0.306869  0.842461  0.975493  1
  O  O40  1  0.797788  0.825015  0.195484  1
  O  O41  1  0.840398  0.028994  0.079950  1
  O  O42  1  0.188595  0.028994  0.579950  1
  O  O43  1  0.841396  0.533431  0.741507  1
  O  O44  1  0.125486  0.483287  0.577625  1
  O  O45  1  0.852907  0.528265  0.135303  1
  O  O46  1  0.202212  0.174985  0.804516  1
  O  O47  1  0.157539  0.464408  0.975493  1
  O  O48  1  0.158604  0.692035  0.758493  1
  O  O49  1  0.324641  0.471735  0.364697  1
  O  O50  1  0.158604  0.466569  0.258493  1
  O  O51  1  0.533431  0.692035  0.258493  1
  O  O52  1  0.528265  0.852907  0.364697  1
  O  O53  1  0.842461  0.535592  0.024507  1
  O  O54  1  0.972772  0.797788  0.804516  1
  O  O55  1  0.528265  0.675359  0.864697  1
  O  O56  1  0.642198  0.516713  0.922375  1
  O  O57  1  0.147093  0.675359  0.364697  1
  O  O58  1  0.533431  0.841396  0.758493  1
  O  O59  1  0.202212  0.027228  0.304516  1
  O  O60  1  0.516713  0.874514  0.077625  1
  O  O61  1  0.825015  0.797788  0.304516  1
  O  O62  1  0.811405  0.971006  0.420050  1
  O  O63  1  0.874514  0.357802  0.922375  1
  O  O64  1  0.692035  0.158604  0.741507  1
  O  O65  1  0.464408  0.157539  0.524507  1
  O  O66  1  0.874514  0.516713  0.422375  1
  O  O67  1  0.306869  0.464408  0.475493  1
  O  O68  1  0.797788  0.972772  0.695484  1
  O  O69  1  0.471735  0.147093  0.635303  1
  O  O70  1  0.159602  0.188595  0.420050  1
  O  O71  1  0.516713  0.642198  0.577625  1
  O  O72  1  0.357802  0.483287  0.077625  1
  O  O73  1  0.028994  0.840398  0.420050  1
  O  O74  1  0.471735  0.324641  0.135303  1
  O  O75  1  0.466569  0.307965  0.741507  1
  O  O76  1  0.535592  0.842461  0.475493  1
  O  O77  1  0.357802  0.874514  0.577625  1
  O  O78  1  0.174985  0.972772  0.195484  1
  O  O79  1  0.840398  0.811405  0.579950  1
  O  O80  1  0.811405  0.840398  0.920050  1
  O  O81  1  0.027228  0.202212  0.195484  1
  O  O82  1  0.147093  0.471735  0.864697  1
  O  O83  1  0.642198  0.125486  0.422375  1
  O  O84  1  0.972772  0.174985  0.304516  1
  O  O85  1  0.693131  0.157539  0.024507  1
  O  O86  1  0.842461  0.306869  0.524507  1
  O  O87  1  0.675359  0.147093  0.135303  1
  O  O88  1  0.028994  0.188595  0.920050  1
  O  O89  1  0.174985  0.202212  0.695484  1
  O  O90  1  0.307965  0.841396  0.258493  1
  O  O91  1  0.693131  0.535592  0.524507  1
  O  O92  1  0.535592  0.693131  0.975493  1
  O  O93  1  0.464408  0.306869  0.024507  1
  O  O94  1  0.825015  0.027228  0.804516  1
  O  O95  1  0.692035  0.533431  0.241507  1
  O  O96  1  0.027228  0.825015  0.695484  1
  O  O97  1  0.307965  0.466569  0.758493  1
  O  O98  1  0.675359  0.528265  0.635303  1
  O  O99  1  0.971006  0.811405  0.079950  1
  O  O100  1  0.483287  0.357802  0.422375  1
  O  O101  1  0.157539  0.693131  0.475493  1
  O  O102  1  0.466569  0.158604  0.241507  1
  O  O103  1  0.841396  0.307965  0.241507  1
