# generated using pymatgen
data_Ge4PbO9
_symmetry_space_group_name_H-M   'P 1'
_cell_length_a   6.91453084
_cell_length_b   6.91453084
_cell_length_c   4.71793802
_cell_angle_alpha   76.70583851
_cell_angle_beta   103.29416149
_cell_angle_gamma   65.51088540
_symmetry_Int_Tables_number   1
_chemical_formula_structural   Ge4PbO9
_chemical_formula_sum   'Ge4 Pb1 O9'
_cell_volume   185.81402777
_cell_formula_units_Z   1
loop_
 _symmetry_equiv_pos_site_id
 _symmetry_equiv_pos_as_xyz
  1  'x, y, z'
loop_
 _atom_site_type_symbol
 _atom_site_label
 _atom_site_symmetry_multiplicity
 _atom_site_fract_x
 _atom_site_fract_y
 _atom_site_fract_z
 _atom_site_occupancy
  Ge  Ge0  1  0.487112  0.487112  0.500000  1
  Ge  Ge1  1  0.487159  0.929102  0.683057  1
  Ge  Ge2  1  0.308161  0.308161  0.000000  1
  Ge  Ge3  1  0.929102  0.487159  0.316943  1
  Pb  Pb4  1  0.000060  0.000060  0.000000  1
  O  O5  1  0.094388  0.537607  0.602650  1
  O  O6  1  0.537607  0.094388  0.397350  1
  O  O7  1  0.288975  0.073534  0.845498  1
  O  O8  1  0.554286  0.288372  0.866395  1
  O  O9  1  0.073534  0.288975  0.154502  1
  O  O10  1  0.288372  0.554286  0.133605  1
  O  O11  1  0.378676  0.770185  0.514402  1
  O  O12  1  0.755782  0.755782  0.000000  1
  O  O13  1  0.770185  0.378676  0.485598  1
