# generated using pymatgen
data_SrZnNi(PO4)2
_symmetry_space_group_name_H-M   'P 1'
_cell_length_a   5.48173131
_cell_length_b   6.95239240
_cell_length_c   9.36338884
_cell_angle_alpha   110.67820564
_cell_angle_beta   101.76320670
_cell_angle_gamma   98.15171677
_symmetry_Int_Tables_number   1
_chemical_formula_structural   SrZnNi(PO4)2
_chemical_formula_sum   'Sr2 Zn2 Ni2 P4 O16'
_cell_volume   317.82126790
_cell_formula_units_Z   2
loop_
 _symmetry_equiv_pos_site_id
 _symmetry_equiv_pos_as_xyz
  1  'x, y, z'
loop_
 _atom_site_type_symbol
 _atom_site_label
 _atom_site_symmetry_multiplicity
 _atom_site_fract_x
 _atom_site_fract_y
 _atom_site_fract_z
 _atom_site_occupancy
  Sr  Sr0  1  0.197493  0.747815  0.051165  1
  Sr  Sr1  1  0.802507  0.252185  0.948835  1
  Zn  Zn2  1  0.342586  0.736908  0.647233  1
  Zn  Zn3  1  0.657414  0.263092  0.352767  1
  Ni  Ni4  1  0.077838  0.292113  0.560593  1
  Ni  Ni5  1  0.922162  0.707887  0.439407  1
  P  P6  1  0.159198  0.187812  0.236578  1
  P  P7  1  0.840802  0.812188  0.763422  1
  P  P8  1  0.540497  0.721633  0.302393  1
  P  P9  1  0.459503  0.278367  0.697607  1
  O  O10  1  0.920061  0.662139  0.892192  1
  O  O11  1  0.455653  0.265478  0.209228  1
  O  O12  1  0.897039  0.036476  0.761866  1
  O  O13  1  0.257003  0.419800  0.695599  1
  O  O14  1  0.544347  0.734522  0.790772  1
  O  O15  1  0.417713  0.170052  0.578151  1
  O  O16  1  0.582287  0.829948  0.421849  1
  O  O17  1  0.394933  0.129656  0.867123  1
  O  O18  1  0.102961  0.963524  0.238134  1
  O  O19  1  0.605067  0.870344  0.132877  1
  O  O20  1  0.079939  0.337861  0.107808  1
  O  O21  1  0.979075  0.193270  0.398301  1
  O  O22  1  0.020925  0.806730  0.601699  1
  O  O23  1  0.252323  0.584895  0.368921  1
  O  O24  1  0.742997  0.580200  0.304401  1
  O  O25  1  0.747677  0.415105  0.631079  1
