# generated using pymatgen
data_NaLaMgWO6
_symmetry_space_group_name_H-M   'P 1'
_cell_length_a   5.60498297
_cell_length_b   5.60498297
_cell_length_c   7.95843310
_cell_angle_alpha   89.95392413
_cell_angle_beta   90.04607587
_cell_angle_gamma   89.38453402
_symmetry_Int_Tables_number   1
_chemical_formula_structural   NaLaMgWO6
_chemical_formula_sum   'Na2 La2 Mg2 W2 O12'
_cell_volume   250.00622599
_cell_formula_units_Z   2
loop_
 _symmetry_equiv_pos_site_id
 _symmetry_equiv_pos_as_xyz
  1  'x, y, z'
loop_
 _atom_site_type_symbol
 _atom_site_label
 _atom_site_symmetry_multiplicity
 _atom_site_fract_x
 _atom_site_fract_y
 _atom_site_fract_z
 _atom_site_occupancy
  Na  Na0  1  0.246933  0.246933  0.500000  1
  Na  Na1  1  0.753067  0.753067  0.500000  1
  La  La2  1  0.753801  0.753801  0.000000  1
  La  La3  1  0.246199  0.246199  0.000000  1
  Mg  Mg4  1  0.251894  0.748106  0.256170  1
  Mg  Mg5  1  0.748106  0.251894  0.743830  1
  W  W6  1  0.751596  0.248404  0.261892  1
  W  W7  1  0.248404  0.751596  0.738108  1
  O  O8  1  0.697705  0.302295  0.489734  1
  O  O9  1  0.490730  0.509270  0.812003  1
  O  O10  1  0.990826  0.493595  0.228873  1
  O  O11  1  0.991173  0.008827  0.293500  1
  O  O12  1  0.193172  0.806828  0.994203  1
  O  O13  1  0.008827  0.991173  0.706500  1
  O  O14  1  0.806828  0.193172  0.005797  1
  O  O15  1  0.506405  0.009174  0.228873  1
  O  O16  1  0.302295  0.697705  0.510266  1
  O  O17  1  0.009174  0.506405  0.771127  1
  O  O18  1  0.493595  0.990826  0.771127  1
  O  O19  1  0.509270  0.490730  0.187997  1
