# generated using pymatgen
data_Na2W(OF2)2
_symmetry_space_group_name_H-M   'P 1'
_cell_length_a   5.13816720
_cell_length_b   5.54059484
_cell_length_c   18.71341458
_cell_angle_alpha   90.00000000
_cell_angle_beta   90.00000000
_cell_angle_gamma   90.00000000
_symmetry_Int_Tables_number   1
_chemical_formula_structural   Na2W(OF2)2
_chemical_formula_sum   'Na8 W4 O8 F16'
_cell_volume   532.74289304
_cell_formula_units_Z   4
loop_
 _symmetry_equiv_pos_site_id
 _symmetry_equiv_pos_as_xyz
  1  'x, y, z'
loop_
 _atom_site_type_symbol
 _atom_site_label
 _atom_site_symmetry_multiplicity
 _atom_site_fract_x
 _atom_site_fract_y
 _atom_site_fract_z
 _atom_site_occupancy
  Na  Na0  1  0.000000  0.750000  0.770642  1
  Na  Na1  1  0.500000  0.250000  0.729358  1
  Na  Na2  1  0.000000  0.250000  0.229358  1
  Na  Na3  1  0.500000  0.750000  0.270642  1
  Na  Na4  1  0.000000  0.750000  0.448811  1
  Na  Na5  1  0.500000  0.250000  0.051189  1
  Na  Na6  1  0.000000  0.250000  0.551189  1
  Na  Na7  1  0.500000  0.750000  0.948811  1
  W  W8  1  0.000000  0.750000  0.107271  1
  W  W9  1  0.500000  0.250000  0.392729  1
  W  W10  1  0.000000  0.250000  0.892729  1
  W  W11  1  0.500000  0.750000  0.607271  1
  O  O12  1  0.771668  0.884691  0.048073  1
  O  O13  1  0.271668  0.115309  0.451927  1
  O  O14  1  0.728332  0.384691  0.451927  1
  O  O15  1  0.228332  0.615309  0.048073  1
  O  O16  1  0.228332  0.115309  0.951927  1
  O  O17  1  0.728332  0.884691  0.548073  1
  O  O18  1  0.271668  0.615309  0.548073  1
  O  O19  1  0.771668  0.384691  0.951927  1
  F  F20  1  0.710282  0.959350  0.374138  1
  F  F21  1  0.210282  0.040650  0.125862  1
  F  F22  1  0.789718  0.459350  0.125862  1
  F  F23  1  0.289718  0.540650  0.374138  1
  F  F24  1  0.289718  0.040650  0.625862  1
  F  F25  1  0.789718  0.959350  0.874138  1
  F  F26  1  0.210282  0.540650  0.874138  1
  F  F27  1  0.710282  0.459350  0.625862  1
  F  F28  1  0.801647  0.894275  0.194234  1
  F  F29  1  0.301647  0.105725  0.305766  1
  F  F30  1  0.698353  0.394275  0.305766  1
  F  F31  1  0.198353  0.605725  0.194234  1
  F  F32  1  0.198353  0.105725  0.805766  1
  F  F33  1  0.698353  0.894275  0.694234  1
  F  F34  1  0.301647  0.605725  0.694234  1
  F  F35  1  0.801647  0.394275  0.805766  1
