# generated using pymatgen
data_UTe6(OF5)6
_symmetry_space_group_name_H-M   'P 1'
_cell_length_a   10.02324285
_cell_length_b   10.02324285
_cell_length_c   10.36681761
_cell_angle_alpha   77.25794511
_cell_angle_beta   102.74205489
_cell_angle_gamma   63.71377722
_symmetry_Int_Tables_number   1
_chemical_formula_structural   UTe6(OF5)6
_chemical_formula_sum   'U1 Te6 O6 F30'
_cell_volume   848.36167269
_cell_formula_units_Z   1
loop_
 _symmetry_equiv_pos_site_id
 _symmetry_equiv_pos_as_xyz
  1  'x, y, z'
loop_
 _atom_site_type_symbol
 _atom_site_label
 _atom_site_symmetry_multiplicity
 _atom_site_fract_x
 _atom_site_fract_y
 _atom_site_fract_z
 _atom_site_occupancy
  U  U0  1  0.000000  0.000000  0.000000  1
  Te  Te1  1  0.402697  0.920623  0.264780  1
  Te  Te2  1  0.764710  0.235290  0.214140  1
  Te  Te3  1  0.597303  0.079377  0.735220  1
  Te  Te4  1  0.079377  0.597303  0.264780  1
  Te  Te5  1  0.235290  0.764710  0.785860  1
  Te  Te6  1  0.920623  0.402697  0.735220  1
  O  O7  1  0.953691  0.217435  0.872360  1
  O  O8  1  0.107465  0.892535  0.872827  1
  O  O9  1  0.892535  0.107465  0.127173  1
  O  O10  1  0.782565  0.046309  0.872360  1
  O  O11  1  0.217435  0.953691  0.127640  1
  O  O12  1  0.046309  0.782565  0.127640  1
  F  F13  1  0.580563  0.264034  0.087428  1
  F  F14  1  0.297119  0.490004  0.293639  1
  F  F15  1  0.119877  0.672243  0.410149  1
  F  F16  1  0.490004  0.297119  0.706361  1
  F  F17  1  0.959752  0.481057  0.877865  1
  F  F18  1  0.889466  0.582793  0.601883  1
  F  F19  1  0.208773  0.946716  0.658463  1
  F  F20  1  0.672243  0.119877  0.589851  1
  F  F21  1  0.639612  0.360388  0.298205  1
  F  F22  1  0.110534  0.417207  0.398117  1
  F  F23  1  0.481057  0.959752  0.122135  1
  F  F24  1  0.053284  0.791227  0.658463  1
  F  F25  1  0.702881  0.509996  0.706361  1
  F  F26  1  0.735966  0.419437  0.087428  1
  F  F27  1  0.791227  0.053284  0.341537  1
  F  F28  1  0.360388  0.639612  0.701795  1
  F  F29  1  0.297867  0.138367  0.236850  1
  F  F30  1  0.138367  0.297867  0.763150  1
  F  F31  1  0.419437  0.735966  0.912572  1
  F  F32  1  0.861633  0.702133  0.236850  1
  F  F33  1  0.327757  0.880123  0.410149  1
  F  F34  1  0.702133  0.861633  0.763150  1
  F  F35  1  0.040248  0.518943  0.122135  1
  F  F36  1  0.264034  0.580563  0.912572  1
  F  F37  1  0.582793  0.889466  0.398117  1
  F  F38  1  0.880123  0.327757  0.589851  1
  F  F39  1  0.509996  0.702881  0.293639  1
  F  F40  1  0.946716  0.208773  0.341537  1
  F  F41  1  0.417207  0.110534  0.601883  1
  F  F42  1  0.518943  0.040248  0.877865  1
