# generated using pymatgen
data_Pr2Co2I
_symmetry_space_group_name_H-M   'P 1'
_cell_length_a   4.02715200
_cell_length_b   4.02715200
_cell_length_c   17.83566391
_cell_angle_alpha   90.00000000
_cell_angle_beta   90.00000000
_cell_angle_gamma   120.00000000
_symmetry_Int_Tables_number   1
_chemical_formula_structural   Pr2Co2I
_chemical_formula_sum   'Pr4 Co4 I2'
_cell_volume   250.50474371
_cell_formula_units_Z   2
loop_
 _symmetry_equiv_pos_site_id
 _symmetry_equiv_pos_as_xyz
  1  'x, y, z'
loop_
 _atom_site_type_symbol
 _atom_site_label
 _atom_site_symmetry_multiplicity
 _atom_site_fract_x
 _atom_site_fract_y
 _atom_site_fract_z
 _atom_site_occupancy
  Pr  Pr0  1  0.000000  0.000000  0.105159  1
  Pr  Pr1  1  0.000000  0.000000  0.394841  1
  Pr  Pr2  1  0.000000  0.000000  0.894841  1
  Pr  Pr3  1  0.000000  0.000000  0.605159  1
  Co  Co4  1  0.333333  0.666667  0.000955  1
  Co  Co5  1  0.666667  0.333333  0.999045  1
  Co  Co6  1  0.333333  0.666667  0.499045  1
  Co  Co7  1  0.666667  0.333333  0.500955  1
  I  I8  1  0.333333  0.666667  0.750000  1
  I  I9  1  0.666667  0.333333  0.250000  1
