# generated using pymatgen
data_BaS3
_symmetry_space_group_name_H-M   'P 1'
_cell_length_a   5.10718760
_cell_length_b   8.61028311
_cell_length_c   10.12509225
_cell_angle_alpha   90.00000000
_cell_angle_beta   90.00000000
_cell_angle_gamma   90.00000000
_symmetry_Int_Tables_number   1
_chemical_formula_structural   BaS3
_chemical_formula_sum   'Ba4 S12'
_cell_volume   445.24415934
_cell_formula_units_Z   4
loop_
 _symmetry_equiv_pos_site_id
 _symmetry_equiv_pos_as_xyz
  1  'x, y, z'
loop_
 _atom_site_type_symbol
 _atom_site_label
 _atom_site_symmetry_multiplicity
 _atom_site_fract_x
 _atom_site_fract_y
 _atom_site_fract_z
 _atom_site_occupancy
  Ba  Ba0  1  0.007386  0.500000  0.000000  1
  Ba  Ba1  1  0.992614  0.000000  0.500000  1
  Ba  Ba2  1  0.022972  0.000000  0.000000  1
  Ba  Ba3  1  0.977028  0.500000  0.500000  1
  S  S4  1  0.469599  0.246084  0.490597  1
  S  S5  1  0.406157  0.187163  0.291663  1
  S  S6  1  0.530401  0.253916  0.990597  1
  S  S7  1  0.406157  0.812837  0.708337  1
  S  S8  1  0.593843  0.687163  0.208337  1
  S  S9  1  0.983544  0.749187  0.248735  1
  S  S10  1  0.016456  0.249187  0.251265  1
  S  S11  1  0.983544  0.250813  0.751265  1
  S  S12  1  0.530401  0.746084  0.009403  1
  S  S13  1  0.016456  0.750813  0.748735  1
  S  S14  1  0.469599  0.753916  0.509403  1
  S  S15  1  0.593843  0.312837  0.791663  1
