# generated using pymatgen
data_K2RuI5NO
_symmetry_space_group_name_H-M   'P 1'
_cell_length_a   7.95313449
_cell_length_b   11.78730856
_cell_length_c   15.33482629
_cell_angle_alpha   90.00000000
_cell_angle_beta   90.00000000
_cell_angle_gamma   90.00000000
_symmetry_Int_Tables_number   1
_chemical_formula_structural   K2RuI5NO
_chemical_formula_sum   'K8 Ru4 I20 N4 O4'
_cell_volume   1437.57939600
_cell_formula_units_Z   4
loop_
 _symmetry_equiv_pos_site_id
 _symmetry_equiv_pos_as_xyz
  1  'x, y, z'
loop_
 _atom_site_type_symbol
 _atom_site_label
 _atom_site_symmetry_multiplicity
 _atom_site_fract_x
 _atom_site_fract_y
 _atom_site_fract_z
 _atom_site_occupancy
  K  K0  1  0.656543  0.000588  0.142983  1
  K  K1  1  0.343457  0.999412  0.857017  1
  K  K2  1  0.156543  0.500588  0.357017  1
  K  K3  1  0.843457  0.000588  0.642983  1
  K  K4  1  0.843457  0.499412  0.642983  1
  K  K5  1  0.156543  0.999412  0.357017  1
  K  K6  1  0.343457  0.500588  0.857017  1
  K  K7  1  0.656543  0.499412  0.142983  1
  Ru  Ru8  1  0.184253  0.250000  0.109193  1
  Ru  Ru9  1  0.815747  0.750000  0.890807  1
  Ru  Ru10  1  0.315747  0.250000  0.609193  1
  Ru  Ru11  1  0.684253  0.750000  0.390807  1
  I  I12  1  0.086859  0.750000  0.778380  1
  I  I13  1  0.192103  0.483701  0.112524  1
  I  I14  1  0.391291  0.250000  0.253417  1
  I  I15  1  0.586859  0.250000  0.721620  1
  I  I16  1  0.965835  0.750000  0.496465  1
  I  I17  1  0.891291  0.750000  0.246583  1
  I  I18  1  0.807897  0.516299  0.887476  1
  I  I19  1  0.034165  0.250000  0.503535  1
  I  I20  1  0.608709  0.750000  0.746583  1
  I  I21  1  0.692103  0.983701  0.387476  1
  I  I22  1  0.192103  0.016299  0.112524  1
  I  I23  1  0.534165  0.750000  0.996465  1
  I  I24  1  0.307897  0.016299  0.612524  1
  I  I25  1  0.913141  0.250000  0.221620  1
  I  I26  1  0.465835  0.250000  0.003535  1
  I  I27  1  0.413141  0.750000  0.278380  1
  I  I28  1  0.692103  0.516299  0.387476  1
  I  I29  1  0.307897  0.483701  0.612524  1
  I  I30  1  0.108709  0.250000  0.753417  1
  I  I31  1  0.807897  0.983701  0.887476  1
  N  N32  1  0.957529  0.750000  0.977319  1
  N  N33  1  0.542471  0.750000  0.477319  1
  N  N34  1  0.042471  0.250000  0.022681  1
  N  N35  1  0.457529  0.250000  0.522681  1
  O  O36  1  0.060892  0.750000  0.031656  1
  O  O37  1  0.560892  0.250000  0.468344  1
  O  O38  1  0.439108  0.750000  0.531656  1
  O  O39  1  0.939108  0.250000  0.968344  1
