# generated using pymatgen
data_Ca51W12N56O3
_symmetry_space_group_name_H-M   'P 1'
_cell_length_a   10.61206260
_cell_length_b   12.49080492
_cell_length_c   16.09527508
_cell_angle_alpha   102.82375559
_cell_angle_beta   95.08103510
_cell_angle_gamma   109.86654649
_symmetry_Int_Tables_number   1
_chemical_formula_structural   Ca51W12N56O3
_chemical_formula_sum   'Ca51 W12 N56 O3'
_cell_volume   1924.92459520
_cell_formula_units_Z   1
loop_
 _symmetry_equiv_pos_site_id
 _symmetry_equiv_pos_as_xyz
  1  'x, y, z'
loop_
 _atom_site_type_symbol
 _atom_site_label
 _atom_site_symmetry_multiplicity
 _atom_site_fract_x
 _atom_site_fract_y
 _atom_site_fract_z
 _atom_site_occupancy
  Ca  Ca0  1  0.471798  0.522964  0.401347  1
  Ca  Ca1  1  0.930876  0.173982  0.162162  1
  Ca  Ca2  1  0.406217  0.764893  0.372107  1
  Ca  Ca3  1  0.541227  0.393659  0.021577  1
  Ca  Ca4  1  0.437423  0.678293  0.784793  1
  Ca  Ca5  1  0.458773  0.606341  0.978423  1
  Ca  Ca6  1  0.287606  0.135773  0.716997  1
  Ca  Ca7  1  0.693175  0.957595  0.878058  1
  Ca  Ca8  1  0.361520  0.904494  0.747939  1
  Ca  Ca9  1  0.766860  0.721197  0.903811  1
  Ca  Ca10  1  0.638480  0.095506  0.252061  1
  Ca  Ca11  1  0.306825  0.042405  0.121942  1
  Ca  Ca12  1  0.355604  0.856272  0.945887  1
  Ca  Ca13  1  0.528202  0.477036  0.598653  1
  Ca  Ca14  1  0.088442  0.694326  0.254067  1
  Ca  Ca15  1  0.753954  0.773386  0.707128  1
  Ca  Ca16  1  0.013349  0.949297  0.200561  1
  Ca  Ca17  1  0.233140  0.278803  0.096189  1
  Ca  Ca18  1  0.030508  0.880160  0.414757  1
  Ca  Ca19  1  0.899647  0.368491  0.331163  1
  Ca  Ca20  1  0.644300  0.035829  0.455708  1
  Ca  Ca21  1  0.644396  0.143728  0.054113  1
  Ca  Ca22  1  0.219958  0.329626  0.902913  1
  Ca  Ca23  1  0.677738  0.021069  0.671675  1
  Ca  Ca24  1  0.398615  0.805793  0.168993  1
  Ca  Ca25  1  0.519704  0.430407  0.820158  1
  Ca  Ca26  1  0.263124  0.193265  0.505885  1
  Ca  Ca27  1  0.601385  0.194207  0.831007  1
  Ca  Ca28  1  0.856208  0.418911  0.142690  1
  Ca  Ca29  1  0.480296  0.569593  0.179842  1
  Ca  Ca30  1  0.246046  0.226614  0.292872  1
  Ca  Ca31  1  0.881391  0.340203  0.542563  1
  Ca  Ca32  1  0.158455  0.512168  0.065332  1
  Ca  Ca33  1  0.355700  0.964171  0.544292  1
  Ca  Ca34  1  0.911558  0.305674  0.745933  1
  Ca  Ca35  1  0.841545  0.487832  0.934668  1
  Ca  Ca36  1  0.143792  0.581089  0.857310  1
  Ca  Ca37  1  0.118609  0.659797  0.457437  1
  Ca  Ca38  1  0.736876  0.806735  0.494115  1
  Ca  Ca39  1  0.593783  0.235107  0.627893  1
  Ca  Ca40  1  0.186701  0.456656  0.515327  1
  Ca  Ca41  1  0.969492  0.119840  0.585243  1
  Ca  Ca42  1  0.986651  0.050703  0.799439  1
  Ca  Ca43  1  0.069124  0.826018  0.837838  1
  Ca  Ca44  1  0.712394  0.864227  0.283003  1
  Ca  Ca45  1  0.562577  0.321707  0.215207  1
  Ca  Ca46  1  0.322262  0.978931  0.328325  1
  Ca  Ca47  1  0.000000  0.000000  0.000000  1
  Ca  Ca48  1  0.813299  0.543344  0.484673  1
  Ca  Ca49  1  0.780042  0.670374  0.097087  1
  Ca  Ca50  1  0.100353  0.631509  0.668837  1
  W  W51  1  0.909042  0.256704  0.928146  1
  W  W52  1  0.968207  0.097429  0.384355  1
  W  W53  1  0.227595  0.486723  0.264829  1
  W  W54  1  0.372547  0.117501  0.943643  1
  W  W55  1  0.477856  0.756246  0.590784  1
  W  W56  1  0.772405  0.513277  0.735171  1
  W  W57  1  0.220531  0.375830  0.714463  1
  W  W58  1  0.090958  0.743296  0.071854  1
  W  W59  1  0.779469  0.624170  0.285537  1
  W  W60  1  0.031793  0.902571  0.615645  1
  W  W61  1  0.627453  0.882499  0.056357  1
  W  W62  1  0.522144  0.243754  0.409216  1
  N  N63  1  0.555730  0.792512  0.937618  1
  N  N64  1  0.145411  0.018712  0.565803  1
  N  N65  1  0.493800  0.042768  0.905137  1
  N  N66  1  0.057651  0.386644  0.195925  1
  N  N67  1  0.986408  0.602935  0.099438  1
  N  N68  1  0.761063  0.466967  0.612871  1
  N  N69  1  0.238937  0.533033  0.387129  1
  N  N70  1  0.095049  0.433418  0.665766  1
  N  N71  1  0.808806  0.144459  0.819118  1
  N  N72  1  0.642427  0.587557  0.752127  1
  N  N73  1  0.780848  0.301582  0.990786  1
  N  N74  1  0.707853  0.371682  0.773424  1
  N  N75  1  0.535018  0.873170  0.526182  1
  N  N76  1  0.347959  0.338113  0.646616  1
  N  N77  1  0.651888  0.543730  0.957513  1
  N  N78  1  0.444270  0.207488  0.062382  1
  N  N79  1  0.867405  0.886204  0.845680  1
  N  N80  1  0.558912  0.834692  0.710086  1
  N  N81  1  0.433171  0.350764  0.448516  1
  N  N82  1  0.040181  0.202269  0.973023  1
  N  N83  1  0.613975  0.769411  0.124859  1
  N  N84  1  0.679819  0.514377  0.176090  1
  N  N85  1  0.121421  0.054908  0.360290  1
  N  N86  1  0.566829  0.649236  0.551484  1
  N  N87  1  0.292147  0.628318  0.226576  1
  N  N88  1  0.521955  0.918461  0.315068  1
  N  N89  1  0.214425  0.994099  0.951528  1
  N  N90  1  0.441088  0.165308  0.289914  1
  N  N91  1  0.506200  0.957232  0.094863  1
  N  N92  1  0.785575  0.005901  0.048472  1
  N  N93  1  0.652041  0.661887  0.353384  1
  N  N94  1  0.958674  0.753950  0.529470  1
  N  N95  1  0.219152  0.698418  0.009214  1
  N  N96  1  0.357573  0.412443  0.247873  1
  N  N97  1  0.887339  0.765716  0.260647  1
  N  N98  1  0.013592  0.397065  0.900562  1
  N  N99  1  0.742326  0.258790  0.197299  1
  N  N100  1  0.878579  0.945092  0.639710  1
  N  N101  1  0.320181  0.485623  0.823910  1
  N  N102  1  0.386025  0.230589  0.875141  1
  N  N103  1  0.478045  0.081539  0.684932  1
  N  N104  1  0.464982  0.126830  0.473818  1
  N  N105  1  0.904951  0.566582  0.334234  1
  N  N106  1  0.257674  0.741210  0.802701  1
  N  N107  1  0.191194  0.855541  0.180882  1
  N  N108  1  0.348112  0.456270  0.042487  1
  N  N109  1  0.942349  0.613356  0.804075  1
  N  N110  1  0.112661  0.234284  0.739353  1
  N  N111  1  0.712441  0.306899  0.414064  1
  N  N112  1  0.132595  0.113796  0.154320  1
  N  N113  1  0.959819  0.797731  0.026977  1
  N  N114  1  0.287559  0.693101  0.585936  1
  N  N115  1  0.135337  0.920725  0.722928  1
  N  N116  1  0.864663  0.079275  0.277072  1
  N  N117  1  0.854589  0.981288  0.434197  1
  N  N118  1  0.041326  0.246050  0.470530  1
  O  O119  1  0.782093  0.177297  0.605070  1
  O  O120  1  0.000000  0.500000  0.500000  1
  O  O121  1  0.217907  0.822703  0.394930  1
