# generated using pymatgen
data_Gd2Si2O7
_symmetry_space_group_name_H-M   'P 1'
_cell_length_a   6.72439321
_cell_length_b   6.77456850
_cell_length_c   12.27907862
_cell_angle_alpha   94.38157815
_cell_angle_beta   90.86874031
_cell_angle_gamma   91.50687599
_symmetry_Int_Tables_number   1
_chemical_formula_structural   Gd2Si2O7
_chemical_formula_sum   'Gd8 Si8 O28'
_cell_volume   557.46128245
_cell_formula_units_Z   4
loop_
 _symmetry_equiv_pos_site_id
 _symmetry_equiv_pos_as_xyz
  1  'x, y, z'
loop_
 _atom_site_type_symbol
 _atom_site_label
 _atom_site_symmetry_multiplicity
 _atom_site_fract_x
 _atom_site_fract_y
 _atom_site_fract_z
 _atom_site_occupancy
  Gd  Gd0  1  0.054067  0.329544  0.116090  1
  Gd  Gd1  1  0.945933  0.670456  0.883910  1
  Gd  Gd2  1  0.116668  0.090673  0.358032  1
  Gd  Gd3  1  0.883332  0.909327  0.641968  1
  Gd  Gd4  1  0.632692  0.774149  0.368694  1
  Gd  Gd5  1  0.367308  0.225851  0.631306  1
  Gd  Gd6  1  0.333188  0.827671  0.106011  1
  Gd  Gd7  1  0.666812  0.172329  0.893989  1
  Si  Si8  1  0.847005  0.850989  0.116456  1
  Si  Si9  1  0.152995  0.149011  0.883544  1
  Si  Si10  1  0.513153  0.332926  0.175863  1
  Si  Si11  1  0.486847  0.667074  0.824137  1
  Si  Si12  1  0.623292  0.270737  0.404724  1
  Si  Si13  1  0.376708  0.729263  0.595276  1
  Si  Si14  1  0.853262  0.372320  0.616884  1
  Si  Si15  1  0.146738  0.627680  0.383116  1
  O  O16  1  0.359845  0.490119  0.128438  1
  O  O17  1  0.640155  0.509881  0.871562  1
  O  O18  1  0.379151  0.139928  0.208305  1
  O  O19  1  0.620849  0.860072  0.791695  1
  O  O20  1  0.699487  0.293444  0.095065  1
  O  O21  1  0.300513  0.706556  0.904935  1
  O  O22  1  0.600279  0.423224  0.304698  1
  O  O23  1  0.399721  0.576776  0.695302  1
  O  O24  1  0.415276  0.172978  0.444911  1
  O  O25  1  0.584724  0.827022  0.555089  1
  O  O26  1  0.771921  0.092009  0.376744  1
  O  O27  1  0.228079  0.907991  0.623256  1
  O  O28  1  0.711124  0.421998  0.508674  1
  O  O29  1  0.288876  0.578002  0.491326  1
  O  O30  1  0.712100  0.219616  0.684503  1
  O  O31  1  0.287900  0.780384  0.315497  1
  O  O32  1  0.034964  0.229725  0.572916  1
  O  O33  1  0.965036  0.770275  0.427084  1
  O  O34  1  0.922463  0.578784  0.684738  1
  O  O35  1  0.077537  0.421216  0.315262  1
  O  O36  1  0.761258  0.911230  0.998905  1
  O  O37  1  0.238742  0.088770  0.001095  1
  O  O38  1  0.658559  0.787598  0.188409  1
  O  O39  1  0.341441  0.212402  0.811591  1
  O  O40  1  0.002327  0.669473  0.080916  1
  O  O41  1  0.997673  0.330527  0.919084  1
  O  O42  1  0.998775  0.013735  0.183345  1
  O  O43  1  0.001225  0.986265  0.816655  1
