# generated using pymatgen
data_Mg(AlCl4)2
_symmetry_space_group_name_H-M   'P 1'
_cell_length_a   9.80948917
_cell_length_b   9.80948917
_cell_length_c   11.69648346
_cell_angle_alpha   55.69390864
_cell_angle_beta   124.30609136
_cell_angle_gamma   130.52652339
_symmetry_Int_Tables_number   1
_chemical_formula_structural   Mg(AlCl4)2
_chemical_formula_sum   'Mg2 Al4 Cl16'
_cell_volume   670.85345510
_cell_formula_units_Z   2
loop_
 _symmetry_equiv_pos_site_id
 _symmetry_equiv_pos_as_xyz
  1  'x, y, z'
loop_
 _atom_site_type_symbol
 _atom_site_label
 _atom_site_symmetry_multiplicity
 _atom_site_fract_x
 _atom_site_fract_y
 _atom_site_fract_z
 _atom_site_occupancy
  Mg  Mg0  1  0.001837  0.001837  0.250000  1
  Mg  Mg1  1  0.998163  0.998163  0.750000  1
  Al  Al2  1  0.159220  0.331214  0.468189  1
  Al  Al3  1  0.331214  0.159220  0.031811  1
  Al  Al4  1  0.840780  0.668786  0.531811  1
  Al  Al5  1  0.668786  0.840780  0.968189  1
  Cl  Cl6  1  0.306818  0.616776  0.451022  1
  Cl  Cl7  1  0.616776  0.306818  0.048978  1
  Cl  Cl8  1  0.693182  0.383224  0.548978  1
  Cl  Cl9  1  0.383224  0.693182  0.951022  1
  Cl  Cl10  1  0.878217  0.175745  0.487129  1
  Cl  Cl11  1  0.175745  0.878217  0.012871  1
  Cl  Cl12  1  0.121783  0.824255  0.512871  1
  Cl  Cl13  1  0.824255  0.121783  0.987129  1
  Cl  Cl14  1  0.141876  0.311054  0.282682  1
  Cl  Cl15  1  0.311054  0.141876  0.217318  1
  Cl  Cl16  1  0.858124  0.688946  0.717318  1
  Cl  Cl17  1  0.688946  0.858124  0.782682  1
  Cl  Cl18  1  0.280617  0.160878  0.671535  1
  Cl  Cl19  1  0.160878  0.280617  0.828465  1
  Cl  Cl20  1  0.719383  0.839122  0.328465  1
  Cl  Cl21  1  0.839122  0.719383  0.171535  1
