# generated using pymatgen
data_NaPr(SeO4)2
_symmetry_space_group_name_H-M   'P 1'
_cell_length_a   6.71381695
_cell_length_b   7.24292545
_cell_length_c   7.47785643
_cell_angle_alpha   99.17660379
_cell_angle_beta   96.94749369
_cell_angle_gamma   89.78079806
_symmetry_Int_Tables_number   1
_chemical_formula_structural   NaPr(SeO4)2
_chemical_formula_sum   'Na2 Pr2 Se4 O16'
_cell_volume   356.29664542
_cell_formula_units_Z   2
loop_
 _symmetry_equiv_pos_site_id
 _symmetry_equiv_pos_as_xyz
  1  'x, y, z'
loop_
 _atom_site_type_symbol
 _atom_site_label
 _atom_site_symmetry_multiplicity
 _atom_site_fract_x
 _atom_site_fract_y
 _atom_site_fract_z
 _atom_site_occupancy
  Na  Na0  1  0.067822  0.689695  0.275735  1
  Na  Na1  1  0.932178  0.310305  0.724265  1
  Pr  Pr2  1  0.643741  0.806426  0.801997  1
  Pr  Pr3  1  0.356259  0.193574  0.198003  1
  Se  Se4  1  0.133215  0.814403  0.784523  1
  Se  Se5  1  0.431624  0.285125  0.711392  1
  Se  Se6  1  0.568376  0.714875  0.288608  1
  Se  Se7  1  0.866785  0.185597  0.215477  1
  O  O8  1  0.431704  0.906874  0.317107  1
  O  O9  1  0.744933  0.259986  0.393407  1
  O  O10  1  0.965517  0.983337  0.761573  1
  O  O11  1  0.405150  0.534500  0.240860  1
  O  O12  1  0.676529  0.111657  0.049136  1
  O  O13  1  0.034483  0.016663  0.238427  1
  O  O14  1  0.008424  0.351494  0.156188  1
  O  O15  1  0.594850  0.465500  0.759140  1
  O  O16  1  0.323471  0.888343  0.950864  1
  O  O17  1  0.991576  0.648506  0.843812  1
  O  O18  1  0.568296  0.093126  0.682893  1
  O  O19  1  0.288071  0.287640  0.879744  1
  O  O20  1  0.278504  0.294883  0.519356  1
  O  O21  1  0.255067  0.740014  0.606593  1
  O  O22  1  0.711929  0.712360  0.120256  1
  O  O23  1  0.721496  0.705117  0.480644  1
