# generated using pymatgen
data_Nd3Sb5Pd6
_symmetry_space_group_name_H-M   'P 1'
_cell_length_a   4.49444650
_cell_length_b   10.12623490
_cell_length_c   13.59179318
_cell_angle_alpha   90.00000000
_cell_angle_beta   90.00000000
_cell_angle_gamma   90.00000000
_symmetry_Int_Tables_number   1
_chemical_formula_structural   Nd3Sb5Pd6
_chemical_formula_sum   'Nd6 Sb10 Pd12'
_cell_volume   618.58725834
_cell_formula_units_Z   2
loop_
 _symmetry_equiv_pos_site_id
 _symmetry_equiv_pos_as_xyz
  1  'x, y, z'
loop_
 _atom_site_type_symbol
 _atom_site_label
 _atom_site_symmetry_multiplicity
 _atom_site_fract_x
 _atom_site_fract_y
 _atom_site_fract_z
 _atom_site_occupancy
  Nd  Nd0  1  0.000000  0.243398  0.000000  1
  Nd  Nd1  1  0.500000  0.756602  0.500000  1
  Nd  Nd2  1  0.000000  0.245049  0.323512  1
  Nd  Nd3  1  0.500000  0.754951  0.176488  1
  Nd  Nd4  1  0.000000  0.245049  0.676488  1
  Nd  Nd5  1  0.500000  0.754951  0.823512  1
  Sb  Sb6  1  0.000000  0.523819  0.126367  1
  Sb  Sb7  1  0.500000  0.476181  0.373633  1
  Sb  Sb8  1  0.000000  0.523819  0.873633  1
  Sb  Sb9  1  0.500000  0.476181  0.626367  1
  Sb  Sb10  1  0.000000  0.862766  0.337295  1
  Sb  Sb11  1  0.500000  0.137234  0.162705  1
  Sb  Sb12  1  0.000000  0.862766  0.662705  1
  Sb  Sb13  1  0.500000  0.137234  0.837295  1
  Sb  Sb14  1  0.000000  0.826876  0.000000  1
  Sb  Sb15  1  0.500000  0.173124  0.500000  1
  Pd  Pd16  1  0.000000  0.990268  0.159954  1
  Pd  Pd17  1  0.500000  0.009732  0.340046  1
  Pd  Pd18  1  0.000000  0.990268  0.840046  1
  Pd  Pd19  1  0.500000  0.009732  0.659954  1
  Pd  Pd20  1  0.500000  0.981453  0.000000  1
  Pd  Pd21  1  0.000000  0.018547  0.500000  1
  Pd  Pd22  1  0.000000  0.602668  0.317762  1
  Pd  Pd23  1  0.500000  0.397332  0.182238  1
  Pd  Pd24  1  0.000000  0.602668  0.682238  1
  Pd  Pd25  1  0.500000  0.397332  0.817762  1
  Pd  Pd26  1  0.500000  0.527534  0.000000  1
  Pd  Pd27  1  0.000000  0.472466  0.500000  1
