# generated using pymatgen
data_PNF2
_symmetry_space_group_name_H-M   'P 1'
_cell_length_a   5.09691666
_cell_length_b   15.56126104
_cell_length_c   16.26488333
_cell_angle_alpha   90.00000000
_cell_angle_beta   98.28613594
_cell_angle_gamma   90.00000000
_symmetry_Int_Tables_number   1
_chemical_formula_structural   PNF2
_chemical_formula_sum   'P20 N20 F40'
_cell_volume   1276.57315594
_cell_formula_units_Z   20
loop_
 _symmetry_equiv_pos_site_id
 _symmetry_equiv_pos_as_xyz
  1  'x, y, z'
loop_
 _atom_site_type_symbol
 _atom_site_label
 _atom_site_symmetry_multiplicity
 _atom_site_fract_x
 _atom_site_fract_y
 _atom_site_fract_z
 _atom_site_occupancy
  P  P0  1  0.184988  0.337168  0.991279  1
  P  P1  1  0.815012  0.662832  0.008721  1
  P  P2  1  0.991578  0.653361  0.527760  1
  P  P3  1  0.815012  0.837168  0.508721  1
  P  P4  1  0.666894  0.608556  0.369980  1
  P  P5  1  0.991578  0.846639  0.027760  1
  P  P6  1  0.333106  0.391444  0.630020  1
  P  P7  1  0.692403  0.590829  0.842112  1
  P  P8  1  0.589190  0.257099  0.221739  1
  P  P9  1  0.008422  0.153361  0.972240  1
  P  P10  1  0.410810  0.742901  0.778261  1
  P  P11  1  0.184988  0.162832  0.491279  1
  P  P12  1  0.307597  0.409171  0.157888  1
  P  P13  1  0.666894  0.891444  0.869980  1
  P  P14  1  0.333106  0.108556  0.130020  1
  P  P15  1  0.589190  0.242901  0.721739  1
  P  P16  1  0.692403  0.909171  0.342112  1
  P  P17  1  0.410810  0.757099  0.278261  1
  P  P18  1  0.307597  0.090829  0.657888  1
  P  P19  1  0.008422  0.346639  0.472240  1
  N  N20  1  0.518191  0.695646  0.351181  1
  N  N21  1  0.139411  0.129892  0.578800  1
  N  N22  1  0.071013  0.249397  0.958735  1
  N  N23  1  0.510332  0.146085  0.717234  1
  N  N24  1  0.928987  0.749397  0.541265  1
  N  N25  1  0.860589  0.629892  0.921200  1
  N  N26  1  0.518191  0.804354  0.851181  1
  N  N27  1  0.129892  0.400050  0.549500  1
  N  N28  1  0.870108  0.900050  0.950500  1
  N  N29  1  0.481809  0.304354  0.648819  1
  N  N30  1  0.928987  0.750603  0.041265  1
  N  N31  1  0.481809  0.195646  0.148819  1
  N  N32  1  0.860589  0.870108  0.421200  1
  N  N33  1  0.870108  0.599950  0.450500  1
  N  N34  1  0.510332  0.353915  0.217234  1
  N  N35  1  0.139411  0.370108  0.078800  1
  N  N36  1  0.489668  0.646085  0.782766  1
  N  N37  1  0.129892  0.099950  0.049500  1
  N  N38  1  0.489668  0.853915  0.282766  1
  N  N39  1  0.071013  0.250603  0.458735  1
  F  F40  1  0.513600  0.657088  0.018708  1
  F  F41  1  0.537973  0.033883  0.130706  1
  F  F42  1  0.700333  0.142446  0.963260  1
  F  F43  1  0.299667  0.857554  0.036740  1
  F  F44  1  0.458560  0.008141  0.636289  1
  F  F45  1  0.891338  0.549657  0.789627  1
  F  F46  1  0.072379  0.094553  0.425020  1
  F  F47  1  0.541440  0.508141  0.863711  1
  F  F48  1  0.700333  0.357554  0.463260  1
  F  F49  1  0.486400  0.342912  0.981292  1
  F  F50  1  0.072379  0.405447  0.925020  1
  F  F51  1  0.941361  0.603584  0.607180  1
  F  F52  1  0.108662  0.049657  0.710373  1
  F  F53  1  0.891338  0.950343  0.289627  1
  F  F54  1  0.194707  0.420033  0.705317  1
  F  F55  1  0.927621  0.905447  0.574980  1
  F  F56  1  0.458560  0.491859  0.136289  1
  F  F57  1  0.462954  0.720177  0.192626  1
  F  F58  1  0.805293  0.579967  0.294683  1
  F  F59  1  0.537046  0.220177  0.307374  1
  F  F60  1  0.462027  0.966117  0.869294  1
  F  F61  1  0.108662  0.450343  0.210373  1
  F  F62  1  0.462954  0.779823  0.692626  1
  F  F63  1  0.299667  0.642446  0.536740  1
  F  F64  1  0.058639  0.396416  0.392820  1
  F  F65  1  0.941361  0.896416  0.107180  1
  F  F66  1  0.462027  0.533883  0.369294  1
  F  F67  1  0.194707  0.079967  0.205317  1
  F  F68  1  0.537973  0.466117  0.630706  1
  F  F69  1  0.899510  0.246831  0.735611  1
  F  F70  1  0.100490  0.753169  0.264389  1
  F  F71  1  0.927621  0.594553  0.074980  1
  F  F72  1  0.541440  0.991859  0.363711  1
  F  F73  1  0.537046  0.279823  0.807374  1
  F  F74  1  0.899510  0.253169  0.235611  1
  F  F75  1  0.486400  0.157088  0.481292  1
  F  F76  1  0.805293  0.920033  0.794683  1
  F  F77  1  0.513600  0.842912  0.518708  1
  F  F78  1  0.100490  0.746831  0.764389  1
  F  F79  1  0.058639  0.103584  0.892820  1
