# generated using pymatgen
data_Li2MnP2O7
_symmetry_space_group_name_H-M   'P 1'
_cell_length_a   5.37814976
_cell_length_b   6.29280864
_cell_length_c   8.76394071
_cell_angle_alpha   71.09955807
_cell_angle_beta   87.14997305
_cell_angle_gamma   83.89059764
_symmetry_Int_Tables_number   1
_chemical_formula_structural   Li2MnP2O7
_chemical_formula_sum   'Li4 Mn2 P4 O14'
_cell_volume   278.98146933
_cell_formula_units_Z   2
loop_
 _symmetry_equiv_pos_site_id
 _symmetry_equiv_pos_as_xyz
  1  'x, y, z'
loop_
 _atom_site_type_symbol
 _atom_site_label
 _atom_site_symmetry_multiplicity
 _atom_site_fract_x
 _atom_site_fract_y
 _atom_site_fract_z
 _atom_site_occupancy
  Li  Li0  1  0.721826  0.062693  0.851845  1
  Li  Li1  1  0.278174  0.937307  0.148155  1
  Li  Li2  1  0.246142  0.805678  0.537120  1
  Li  Li3  1  0.753858  0.194322  0.462880  1
  Mn  Mn4  1  0.227205  0.426977  0.269037  1
  Mn  Mn5  1  0.772795  0.573023  0.730963  1
  P  P6  1  0.782586  0.188098  0.136939  1
  P  P7  1  0.693244  0.734369  0.344577  1
  P  P8  1  0.217414  0.811902  0.863061  1
  P  P9  1  0.306756  0.265631  0.655423  1
  O  O10  1  0.589867  0.295514  0.649686  1
  O  O11  1  0.410133  0.704486  0.350314  1
  O  O12  1  0.761610  0.833573  0.474306  1
  O  O13  1  0.275986  0.074728  0.836651  1
  O  O14  1  0.049268  0.169400  0.199335  1
  O  O15  1  0.415930  0.727021  0.762196  1
  O  O16  1  0.584070  0.272979  0.237804  1
  O  O17  1  0.724014  0.925272  0.163349  1
  O  O18  1  0.864167  0.529151  0.340687  1
  O  O19  1  0.762664  0.291580  0.954527  1
  O  O20  1  0.135833  0.470849  0.659313  1
  O  O21  1  0.237336  0.708420  0.045473  1
  O  O22  1  0.238390  0.166427  0.525694  1
  O  O23  1  0.950732  0.830600  0.800665  1
