# generated using pymatgen
data_Zn(GaNi)3
_symmetry_space_group_name_H-M   'P 1'
_cell_length_a   9.92619798
_cell_length_b   9.92619798
_cell_length_c   9.92619798
_cell_angle_alpha   109.47122063
_cell_angle_beta   109.47122063
_cell_angle_gamma   109.47122063
_symmetry_Int_Tables_number   1
_chemical_formula_structural   Zn(GaNi)3
_chemical_formula_sum   'Zn8 Ga24 Ni24'
_cell_volume   752.88199117
_cell_formula_units_Z   8
loop_
 _symmetry_equiv_pos_site_id
 _symmetry_equiv_pos_as_xyz
  1  'x, y, z'
loop_
 _atom_site_type_symbol
 _atom_site_label
 _atom_site_symmetry_multiplicity
 _atom_site_fract_x
 _atom_site_fract_y
 _atom_site_fract_z
 _atom_site_occupancy
  Zn  Zn0  1  0.500000  1.000000  0.500000  1
  Zn  Zn1  1  0.500000  0.500000  0.500000  1
  Zn  Zn2  1  0.500000  1.000000  0.000000  1
  Zn  Zn3  1  1.000000  0.500000  0.500000  1
  Zn  Zn4  1  0.500000  0.500000  0.000000  1
  Zn  Zn5  1  1.000000  1.000000  0.500000  1
  Zn  Zn6  1  1.000000  0.500000  0.000000  1
  Zn  Zn7  1  0.000000  0.000000  0.000000  1
  Ga  Ga8  1  0.761333  0.750000  0.511333  1
  Ga  Ga9  1  0.488667  0.750000  0.238667  1
  Ga  Ga10  1  0.511333  0.761333  0.750000  1
  Ga  Ga11  1  0.761333  0.511333  0.250000  1
  Ga  Ga12  1  0.261333  0.011333  0.250000  1
  Ga  Ga13  1  0.750000  0.738667  0.988667  1
  Ga  Ga14  1  0.750000  0.511333  0.761333  1
  Ga  Ga15  1  0.488667  0.238667  0.250000  1
  Ga  Ga16  1  0.750000  0.011333  0.261333  1
  Ga  Ga17  1  0.511333  0.250000  0.761333  1
  Ga  Ga18  1  0.250000  0.988667  0.738667  1
  Ga  Ga19  1  0.750000  0.238667  0.488667  1
  Ga  Ga20  1  0.011333  0.250000  0.261333  1
  Ga  Ga21  1  0.011333  0.261333  0.750000  1
  Ga  Ga22  1  0.238667  0.488667  0.750000  1
  Ga  Ga23  1  0.250000  0.761333  0.511333  1
  Ga  Ga24  1  0.988667  0.750000  0.738667  1
  Ga  Ga25  1  0.261333  0.750000  0.011333  1
  Ga  Ga26  1  0.738667  0.250000  0.988667  1
  Ga  Ga27  1  0.250000  0.261333  0.011333  1
  Ga  Ga28  1  0.738667  0.988667  0.750000  1
  Ga  Ga29  1  0.238667  0.250000  0.488667  1
  Ga  Ga30  1  0.988667  0.738667  0.250000  1
  Ga  Ga31  1  0.250000  0.488667  0.238667  1
  Ni  Ni32  1  0.757990  0.007990  0.015979  1
  Ni  Ni33  1  0.992010  0.507990  0.750000  1
  Ni  Ni34  1  0.007990  0.015979  0.757990  1
  Ni  Ni35  1  0.984021  0.242010  0.992010  1
  Ni  Ni36  1  0.507990  0.750000  0.992010  1
  Ni  Ni37  1  0.757990  0.250000  0.742010  1
  Ni  Ni38  1  0.015979  0.757990  0.007990  1
  Ni  Ni39  1  0.250000  0.742010  0.757990  1
  Ni  Ni40  1  0.992010  0.984021  0.242010  1
  Ni  Ni41  1  0.242010  0.750000  0.257990  1
  Ni  Ni42  1  0.250000  0.007990  0.492010  1
  Ni  Ni43  1  0.007990  0.492010  0.250000  1
  Ni  Ni44  1  0.242010  0.992010  0.984021  1
  Ni  Ni45  1  0.507990  0.257990  0.515979  1
  Ni  Ni46  1  0.515979  0.507990  0.257990  1
  Ni  Ni47  1  0.257990  0.242010  0.750000  1
  Ni  Ni48  1  0.257990  0.515979  0.507990  1
  Ni  Ni49  1  0.484021  0.492010  0.742010  1
  Ni  Ni50  1  0.750000  0.992010  0.507990  1
  Ni  Ni51  1  0.742010  0.757990  0.250000  1
  Ni  Ni52  1  0.750000  0.257990  0.242010  1
  Ni  Ni53  1  0.742010  0.484021  0.492010  1
  Ni  Ni54  1  0.492010  0.250000  0.007990  1
  Ni  Ni55  1  0.492010  0.742010  0.484021  1
