# generated using pymatgen
data_Li3V(PO4)2
_symmetry_space_group_name_H-M   'P 1'
_cell_length_a   4.92223042
_cell_length_b   17.95289317
_cell_length_c   7.89951274
_cell_angle_alpha   90.00000000
_cell_angle_beta   125.65986484
_cell_angle_gamma   90.00000000
_symmetry_Int_Tables_number   1
_chemical_formula_structural   Li3V(PO4)2
_chemical_formula_sum   'Li12 V4 P8 O32'
_cell_volume   567.17337217
_cell_formula_units_Z   4
loop_
 _symmetry_equiv_pos_site_id
 _symmetry_equiv_pos_as_xyz
  1  'x, y, z'
loop_
 _atom_site_type_symbol
 _atom_site_label
 _atom_site_symmetry_multiplicity
 _atom_site_fract_x
 _atom_site_fract_y
 _atom_site_fract_z
 _atom_site_occupancy
  Li  Li0  1  0.284242  0.120337  0.502457  1
  Li  Li1  1  0.974899  0.447712  0.212343  1
  Li  Li2  1  0.284242  0.379663  0.002457  1
  Li  Li3  1  0.974899  0.052288  0.712343  1
  Li  Li4  1  0.025101  0.947712  0.287657  1
  Li  Li5  1  0.715758  0.879663  0.497543  1
  Li  Li6  1  0.379587  0.801744  0.689309  1
  Li  Li7  1  0.025101  0.552288  0.787657  1
  Li  Li8  1  0.379587  0.698256  0.189309  1
  Li  Li9  1  0.620413  0.301744  0.810691  1
  Li  Li10  1  0.715758  0.620337  0.997543  1
  Li  Li11  1  0.620413  0.198256  0.310691  1
  V  V12  1  0.814220  0.372864  0.515226  1
  V  V13  1  0.185780  0.627136  0.484774  1
  V  V14  1  0.185780  0.872864  0.984774  1
  V  V15  1  0.814220  0.127136  0.015226  1
  P  P16  1  0.493388  0.535581  0.270306  1
  P  P17  1  0.890580  0.785289  0.213437  1
  P  P18  1  0.109420  0.285289  0.286563  1
  P  P19  1  0.493388  0.964419  0.770306  1
  P  P20  1  0.506612  0.464419  0.729694  1
  P  P21  1  0.890580  0.714711  0.713437  1
  P  P22  1  0.506612  0.035581  0.229694  1
  P  P23  1  0.109420  0.214711  0.786563  1
  O  O24  1  0.444887  0.934839  0.574978  1
  O  O25  1  0.455153  0.309506  0.487805  1
  O  O26  1  0.825782  0.566289  0.467786  1
  O  O27  1  0.827038  0.198555  0.816337  1
  O  O28  1  0.035353  0.327392  0.096846  1
  O  O29  1  0.172962  0.698555  0.683663  1
  O  O30  1  0.455153  0.190494  0.987805  1
  O  O31  1  0.544847  0.690494  0.512195  1
  O  O32  1  0.856580  0.800736  0.734201  1
  O  O33  1  0.856580  0.699264  0.234201  1
  O  O34  1  0.174218  0.433711  0.532214  1
  O  O35  1  0.964647  0.827392  0.403154  1
  O  O36  1  0.544847  0.809506  0.012195  1
  O  O37  1  0.188939  0.939716  0.773850  1
  O  O38  1  0.172962  0.801445  0.183663  1
  O  O39  1  0.035353  0.172608  0.596846  1
  O  O40  1  0.827038  0.301445  0.316337  1
  O  O41  1  0.491889  0.448187  0.273660  1
  O  O42  1  0.188939  0.560284  0.273850  1
  O  O43  1  0.174218  0.066289  0.032214  1
  O  O44  1  0.555113  0.065161  0.425022  1
  O  O45  1  0.811061  0.060284  0.226150  1
  O  O46  1  0.143420  0.300736  0.765799  1
  O  O47  1  0.555113  0.434839  0.925022  1
  O  O48  1  0.508111  0.948187  0.226340  1
  O  O49  1  0.825782  0.933711  0.967786  1
  O  O50  1  0.491889  0.051813  0.773660  1
  O  O51  1  0.444887  0.565161  0.074978  1
  O  O52  1  0.964647  0.672608  0.903154  1
  O  O53  1  0.143420  0.199264  0.265799  1
  O  O54  1  0.811061  0.439716  0.726150  1
  O  O55  1  0.508111  0.551813  0.726340  1
