# generated using pymatgen
data_CaTeO3
_symmetry_space_group_name_H-M   'P 1'
_cell_length_a   12.27266086
_cell_length_b   12.27266086
_cell_length_c   11.19773002
_cell_angle_alpha   90.00000000
_cell_angle_beta   90.00000000
_cell_angle_gamma   90.00000000
_symmetry_Int_Tables_number   1
_chemical_formula_structural   CaTeO3
_chemical_formula_sum   'Ca20 Te20 O60'
_cell_volume   1686.58199104
_cell_formula_units_Z   20
loop_
 _symmetry_equiv_pos_site_id
 _symmetry_equiv_pos_as_xyz
  1  'x, y, z'
loop_
 _atom_site_type_symbol
 _atom_site_label
 _atom_site_symmetry_multiplicity
 _atom_site_fract_x
 _atom_site_fract_y
 _atom_site_fract_z
 _atom_site_occupancy
  Ca  Ca0  1  0.227462  0.242441  0.273685  1
  Ca  Ca1  1  0.038167  0.345439  0.014484  1
  Ca  Ca2  1  0.741368  0.265939  0.036386  1
  Ca  Ca3  1  0.757559  0.227462  0.523685  1
  Ca  Ca4  1  0.434651  0.162357  0.517927  1
  Ca  Ca5  1  0.345439  0.961833  0.764484  1
  Ca  Ca6  1  0.162357  0.565349  0.267927  1
  Ca  Ca7  1  0.863286  0.462403  0.268041  1
  Ca  Ca8  1  0.961833  0.654561  0.514484  1
  Ca  Ca9  1  0.462403  0.136714  0.018041  1
  Ca  Ca10  1  0.654561  0.038167  0.264484  1
  Ca  Ca11  1  0.772538  0.757559  0.773685  1
  Ca  Ca12  1  0.136714  0.537597  0.768041  1
  Ca  Ca13  1  0.265939  0.258632  0.786386  1
  Ca  Ca14  1  0.837643  0.434651  0.767927  1
  Ca  Ca15  1  0.258632  0.734061  0.536386  1
  Ca  Ca16  1  0.242441  0.772538  0.023685  1
  Ca  Ca17  1  0.734061  0.741368  0.286386  1
  Ca  Ca18  1  0.565349  0.837643  0.017927  1
  Ca  Ca19  1  0.537597  0.863286  0.518041  1
  Te  Te20  1  0.006680  0.384079  0.509287  1
  Te  Te21  1  0.555498  0.311351  0.268158  1
  Te  Te22  1  0.615921  0.006680  0.759287  1
  Te  Te23  1  0.158197  0.057945  0.995459  1
  Te  Te24  1  0.559376  0.340921  0.792325  1
  Te  Te25  1  0.937472  0.169112  0.790572  1
  Te  Te26  1  0.057945  0.841803  0.745459  1
  Te  Te27  1  0.444502  0.688649  0.768158  1
  Te  Te28  1  0.688649  0.555498  0.518158  1
  Te  Te29  1  0.993320  0.615921  0.009287  1
  Te  Te30  1  0.169112  0.062528  0.540572  1
  Te  Te31  1  0.062528  0.830888  0.290572  1
  Te  Te32  1  0.440624  0.659079  0.292325  1
  Te  Te33  1  0.340921  0.440624  0.542325  1
  Te  Te34  1  0.841803  0.942055  0.495459  1
  Te  Te35  1  0.830888  0.937472  0.040572  1
  Te  Te36  1  0.311351  0.444502  0.018158  1
  Te  Te37  1  0.942055  0.158197  0.245459  1
  Te  Te38  1  0.384079  0.993320  0.259287  1
  Te  Te39  1  0.659079  0.559376  0.042325  1
  O  O40  1  0.241251  0.408818  0.164211  1
  O  O41  1  0.504010  0.027602  0.640681  1
  O  O42  1  0.027602  0.495990  0.390681  1
  O  O43  1  0.508979  0.984212  0.883159  1
  O  O44  1  0.817249  0.133387  0.344891  1
  O  O45  1  0.447024  0.273850  0.699742  1
  O  O46  1  0.408818  0.758749  0.914211  1
  O  O47  1  0.801220  0.600428  0.411843  1
  O  O48  1  0.098548  0.710233  0.665064  1
  O  O49  1  0.015788  0.508979  0.133159  1
  O  O50  1  0.198780  0.399572  0.911843  1
  O  O51  1  0.591182  0.241251  0.414211  1
  O  O52  1  0.883881  0.275034  0.898478  1
  O  O53  1  0.133387  0.182751  0.094891  1
  O  O54  1  0.901452  0.289767  0.165064  1
  O  O55  1  0.777946  0.044367  0.601330  1
  O  O56  1  0.984212  0.491021  0.633159  1
  O  O57  1  0.141829  0.628266  0.959675  1
  O  O58  1  0.334346  0.320589  0.435309  1
  O  O59  1  0.255036  0.089840  0.405349  1
  O  O60  1  0.601242  0.678410  0.486055  1
  O  O61  1  0.089840  0.744964  0.155349  1
  O  O62  1  0.398758  0.321590  0.986055  1
  O  O63  1  0.910160  0.255036  0.655349  1
  O  O64  1  0.858171  0.371734  0.459675  1
  O  O65  1  0.223270  0.399973  0.642496  1
  O  O66  1  0.679411  0.334346  0.685309  1
  O  O67  1  0.776730  0.600027  0.142496  1
  O  O68  1  0.491021  0.015788  0.383159  1
  O  O69  1  0.399572  0.801220  0.661843  1
  O  O70  1  0.600428  0.198780  0.161843  1
  O  O71  1  0.273850  0.552976  0.449742  1
  O  O72  1  0.495990  0.972398  0.140681  1
  O  O73  1  0.182751  0.866613  0.844891  1
  O  O74  1  0.758749  0.591182  0.664211  1
  O  O75  1  0.915751  0.796173  0.319813  1
  O  O76  1  0.972398  0.504010  0.890681  1
  O  O77  1  0.203827  0.915751  0.569813  1
  O  O78  1  0.866613  0.817249  0.594891  1
  O  O79  1  0.600027  0.223270  0.892496  1
  O  O80  1  0.710233  0.901452  0.415064  1
  O  O81  1  0.275034  0.116119  0.648478  1
  O  O82  1  0.665654  0.679411  0.935309  1
  O  O83  1  0.796173  0.084249  0.069813  1
  O  O84  1  0.289767  0.098548  0.915064  1
  O  O85  1  0.552976  0.726150  0.199742  1
  O  O86  1  0.222054  0.955633  0.101330  1
  O  O87  1  0.744964  0.910160  0.905349  1
  O  O88  1  0.044367  0.222054  0.351330  1
  O  O89  1  0.955633  0.777946  0.851330  1
  O  O90  1  0.321590  0.601242  0.736055  1
  O  O91  1  0.116119  0.724966  0.398478  1
  O  O92  1  0.320589  0.665654  0.185309  1
  O  O93  1  0.399973  0.776730  0.392496  1
  O  O94  1  0.678410  0.398758  0.236055  1
  O  O95  1  0.084249  0.203827  0.819813  1
  O  O96  1  0.628266  0.858171  0.709675  1
  O  O97  1  0.724966  0.883881  0.148478  1
  O  O98  1  0.726150  0.447024  0.949742  1
  O  O99  1  0.371734  0.141829  0.209675  1
