# generated using pymatgen
data_Cs2LiInCl6
_symmetry_space_group_name_H-M   'P 1'
_cell_length_a   13.03615103
_cell_length_b   13.03615103
_cell_length_c   13.03615103
_cell_angle_alpha   33.31001083
_cell_angle_beta   33.31001083
_cell_angle_gamma   33.31001083
_symmetry_Int_Tables_number   1
_chemical_formula_structural   Cs2LiInCl6
_chemical_formula_sum   'Cs4 Li2 In2 Cl12'
_cell_volume   594.87653360
_cell_formula_units_Z   2
loop_
 _symmetry_equiv_pos_site_id
 _symmetry_equiv_pos_as_xyz
  1  'x, y, z'
loop_
 _atom_site_type_symbol
 _atom_site_label
 _atom_site_symmetry_multiplicity
 _atom_site_fract_x
 _atom_site_fract_y
 _atom_site_fract_z
 _atom_site_occupancy
  Cs  Cs0  1  0.873864  0.873864  0.873864  1
  Cs  Cs1  1  0.710703  0.710703  0.710703  1
  Cs  Cs2  1  0.126136  0.126136  0.126136  1
  Cs  Cs3  1  0.289297  0.289297  0.289297  1
  Li  Li4  1  0.410898  0.410899  0.410899  1
  Li  Li5  1  0.589101  0.589101  0.589101  1
  In  In6  1  0.000000  0.000000  0.000000  1
  In  In7  1  0.500000  0.500000  0.500000  1
  Cl  Cl8  1  0.201856  0.715451  0.201856  1
  Cl  Cl9  1  0.798144  0.284549  0.798144  1
  Cl  Cl10  1  0.614502  0.614502  0.145203  1
  Cl  Cl11  1  0.614502  0.145203  0.614502  1
  Cl  Cl12  1  0.385498  0.385498  0.854797  1
  Cl  Cl13  1  0.145203  0.614502  0.614502  1
  Cl  Cl14  1  0.201856  0.201856  0.715451  1
  Cl  Cl15  1  0.854797  0.385498  0.385498  1
  Cl  Cl16  1  0.284549  0.798144  0.798144  1
  Cl  Cl17  1  0.385498  0.854797  0.385498  1
  Cl  Cl18  1  0.798144  0.798144  0.284549  1
  Cl  Cl19  1  0.715451  0.201856  0.201856  1
