# generated using pymatgen
data_Rb3ZnBr5
_symmetry_space_group_name_H-M   'P 1'
_cell_length_a   9.27941289
_cell_length_b   10.67023833
_cell_length_c   13.77703231
_cell_angle_alpha   90.00000000
_cell_angle_beta   90.00000000
_cell_angle_gamma   90.00000000
_symmetry_Int_Tables_number   1
_chemical_formula_structural   Rb3ZnBr5
_chemical_formula_sum   'Rb12 Zn4 Br20'
_cell_volume   1364.11283751
_cell_formula_units_Z   4
loop_
 _symmetry_equiv_pos_site_id
 _symmetry_equiv_pos_as_xyz
  1  'x, y, z'
loop_
 _atom_site_type_symbol
 _atom_site_label
 _atom_site_symmetry_multiplicity
 _atom_site_fract_x
 _atom_site_fract_y
 _atom_site_fract_z
 _atom_site_occupancy
  Rb  Rb0  1  0.911389  0.021094  0.671522  1
  Rb  Rb1  1  0.588611  0.978906  0.171522  1
  Rb  Rb2  1  0.588611  0.521094  0.171522  1
  Rb  Rb3  1  0.088611  0.521094  0.328478  1
  Rb  Rb4  1  0.088611  0.978906  0.328478  1
  Rb  Rb5  1  0.411389  0.021094  0.828478  1
  Rb  Rb6  1  0.588214  0.750000  0.454025  1
  Rb  Rb7  1  0.911786  0.250000  0.954025  1
  Rb  Rb8  1  0.088214  0.750000  0.045975  1
  Rb  Rb9  1  0.411786  0.250000  0.545975  1
  Rb  Rb10  1  0.411389  0.478906  0.828478  1
  Rb  Rb11  1  0.911389  0.478906  0.671522  1
  Zn  Zn12  1  0.690224  0.750000  0.891189  1
  Zn  Zn13  1  0.309776  0.250000  0.108811  1
  Zn  Zn14  1  0.190224  0.750000  0.608811  1
  Zn  Zn15  1  0.809776  0.250000  0.391189  1
  Br  Br16  1  0.660735  0.250000  0.734161  1
  Br  Br17  1  0.314153  0.558254  0.564402  1
  Br  Br18  1  0.864717  0.250000  0.219039  1
  Br  Br19  1  0.839265  0.750000  0.234161  1
  Br  Br20  1  0.635283  0.750000  0.719039  1
  Br  Br21  1  0.685847  0.441746  0.435598  1
  Br  Br22  1  0.814153  0.558254  0.935598  1
  Br  Br23  1  0.534187  0.250000  0.014259  1
  Br  Br24  1  0.965813  0.750000  0.514259  1
  Br  Br25  1  0.160735  0.250000  0.765839  1
  Br  Br26  1  0.814153  0.941746  0.935598  1
  Br  Br27  1  0.314153  0.941746  0.564402  1
  Br  Br28  1  0.339265  0.750000  0.265839  1
  Br  Br29  1  0.185847  0.058254  0.064402  1
  Br  Br30  1  0.685847  0.058254  0.435598  1
  Br  Br31  1  0.135283  0.750000  0.780961  1
  Br  Br32  1  0.364717  0.250000  0.280961  1
  Br  Br33  1  0.034187  0.250000  0.485741  1
  Br  Br34  1  0.185847  0.441746  0.064402  1
  Br  Br35  1  0.465813  0.750000  0.985741  1
