# generated using pymatgen
data_Ag2BiO3
_symmetry_space_group_name_H-M   'P 1'
_cell_length_a   6.12362865
_cell_length_b   6.35944878
_cell_length_c   11.38458582
_cell_angle_alpha   90.00000000
_cell_angle_beta   120.75882815
_cell_angle_gamma   90.00000000
_symmetry_Int_Tables_number   1
_chemical_formula_structural   Ag2BiO3
_chemical_formula_sum   'Ag8 Bi4 O12'
_cell_volume   380.98188528
_cell_formula_units_Z   4
loop_
 _symmetry_equiv_pos_site_id
 _symmetry_equiv_pos_as_xyz
  1  'x, y, z'
loop_
 _atom_site_type_symbol
 _atom_site_label
 _atom_site_symmetry_multiplicity
 _atom_site_fract_x
 _atom_site_fract_y
 _atom_site_fract_z
 _atom_site_occupancy
  Ag  Ag0  1  0.229616  0.238480  0.486170  1
  Ag  Ag1  1  0.232657  0.502433  0.253420  1
  Ag  Ag2  1  0.281857  0.995620  0.744863  1
  Ag  Ag3  1  0.750075  0.240184  0.503371  1
  Ag  Ag4  1  0.750075  0.759816  0.003371  1
  Ag  Ag5  1  0.281857  0.004380  0.244863  1
  Ag  Ag6  1  0.232657  0.497567  0.753420  1
  Ag  Ag7  1  0.229616  0.761520  0.986170  1
  Bi  Bi8  1  0.601830  0.263293  0.105711  1
  Bi  Bi9  1  0.601830  0.736707  0.605711  1
  Bi  Bi10  1  0.898273  0.749492  0.397154  1
  Bi  Bi11  1  0.898273  0.250508  0.897154  1
  O  O12  1  0.846167  0.553162  0.229740  1
  O  O13  1  0.888011  0.081272  0.067686  1
  O  O14  1  0.626631  0.563354  0.431643  1
  O  O15  1  0.662296  0.998886  0.264571  1
  O  O16  1  0.846167  0.446838  0.729740  1
  O  O17  1  0.221505  0.449602  0.048162  1
  O  O18  1  0.888011  0.918728  0.567686  1
  O  O19  1  0.245382  0.920450  0.434588  1
  O  O20  1  0.221505  0.550398  0.548162  1
  O  O21  1  0.245382  0.079550  0.934588  1
  O  O22  1  0.626631  0.436646  0.931643  1
  O  O23  1  0.662296  0.001114  0.764571  1
