# generated using pymatgen
data_Cs2LiNbS4
_symmetry_space_group_name_H-M   'P 1'
_cell_length_a   7.02765415
_cell_length_b   7.45761756
_cell_length_c   9.96458401
_cell_angle_alpha   97.01506929
_cell_angle_beta   92.57388869
_cell_angle_gamma   91.32791948
_symmetry_Int_Tables_number   1
_chemical_formula_structural   Cs2LiNbS4
_chemical_formula_sum   'Cs4 Li2 Nb2 S8'
_cell_volume   517.59071013
_cell_formula_units_Z   2
loop_
 _symmetry_equiv_pos_site_id
 _symmetry_equiv_pos_as_xyz
  1  'x, y, z'
loop_
 _atom_site_type_symbol
 _atom_site_label
 _atom_site_symmetry_multiplicity
 _atom_site_fract_x
 _atom_site_fract_y
 _atom_site_fract_z
 _atom_site_occupancy
  Cs  Cs0  1  0.301443  0.754138  0.006262  1
  Cs  Cs1  1  0.129142  0.201371  0.656876  1
  Cs  Cs2  1  0.870858  0.798629  0.343124  1
  Cs  Cs3  1  0.698557  0.245862  0.993738  1
  Li  Li4  1  0.403479  0.677482  0.571485  1
  Li  Li5  1  0.596521  0.322518  0.428515  1
  Nb  Nb6  1  0.783387  0.707690  0.749941  1
  Nb  Nb7  1  0.216613  0.292310  0.250059  1
  S  S8  1  0.378854  0.062801  0.330534  1
  S  S9  1  0.394894  0.553170  0.325179  1
  S  S10  1  0.801564  0.747559  0.981099  1
  S  S11  1  0.916201  0.299577  0.331236  1
  S  S12  1  0.083799  0.700423  0.668764  1
  S  S13  1  0.605106  0.446830  0.674821  1
  S  S14  1  0.621146  0.937199  0.669466  1
  S  S15  1  0.198436  0.252441  0.018901  1
