# generated using pymatgen
data_SbSe2S(NF3)2
_symmetry_space_group_name_H-M   'P 1'
_cell_length_a   10.18365715
_cell_length_b   16.97579612
_cell_length_c   13.82325928
_cell_angle_alpha   90.00000000
_cell_angle_beta   129.15668439
_cell_angle_gamma   90.00000000
_symmetry_Int_Tables_number   1
_chemical_formula_structural   SbSe2S(NF3)2
_chemical_formula_sum   'Sb8 Se16 S8 N16 F48'
_cell_volume   1853.03037533
_cell_formula_units_Z   8
loop_
 _symmetry_equiv_pos_site_id
 _symmetry_equiv_pos_as_xyz
  1  'x, y, z'
loop_
 _atom_site_type_symbol
 _atom_site_label
 _atom_site_symmetry_multiplicity
 _atom_site_fract_x
 _atom_site_fract_y
 _atom_site_fract_z
 _atom_site_occupancy
  Sb  Sb0  1  0.425267  0.940778  0.191413  1
  Sb  Sb1  1  0.889583  0.149712  0.635686  1
  Sb  Sb2  1  0.574733  0.440778  0.308587  1
  Sb  Sb3  1  0.574733  0.059222  0.808587  1
  Sb  Sb4  1  0.425267  0.559222  0.691413  1
  Sb  Sb5  1  0.110417  0.649712  0.864314  1
  Sb  Sb6  1  0.889583  0.350288  0.135686  1
  Sb  Sb7  1  0.110417  0.850288  0.364314  1
  Se  Se8  1  0.173203  0.294201  0.535073  1
  Se  Se9  1  0.114567  0.114354  0.468157  1
  Se  Se10  1  0.277453  0.123252  0.394970  1
  Se  Se11  1  0.659522  0.694886  0.535256  1
  Se  Se12  1  0.340478  0.194886  0.964744  1
  Se  Se13  1  0.277453  0.376748  0.894970  1
  Se  Se14  1  0.885433  0.885646  0.531843  1
  Se  Se15  1  0.826797  0.794201  0.964927  1
  Se  Se16  1  0.722547  0.876748  0.605030  1
  Se  Se17  1  0.114567  0.385646  0.968157  1
  Se  Se18  1  0.826797  0.705799  0.464927  1
  Se  Se19  1  0.659522  0.805114  0.035256  1
  Se  Se20  1  0.173203  0.205799  0.035073  1
  Se  Se21  1  0.722547  0.623252  0.105030  1
  Se  Se22  1  0.885433  0.614354  0.031843  1
  Se  Se23  1  0.340478  0.305114  0.464744  1
  S  S24  1  0.912398  0.108118  0.197193  1
  S  S25  1  0.087602  0.891882  0.802807  1
  S  S26  1  0.538556  0.307877  0.735280  1
  S  S27  1  0.538556  0.192123  0.235280  1
  S  S28  1  0.461444  0.807877  0.764720  1
  S  S29  1  0.461444  0.692123  0.264720  1
  S  S30  1  0.912398  0.391882  0.697193  1
  S  S31  1  0.087602  0.608118  0.302807  1
  N  N32  1  0.092645  0.383682  0.734427  1
  N  N33  1  0.535337  0.187917  0.120626  1
  N  N34  1  0.642701  0.699152  0.303606  1
  N  N35  1  0.464663  0.812083  0.879374  1
  N  N36  1  0.092645  0.116318  0.234427  1
  N  N37  1  0.535337  0.312083  0.620626  1
  N  N38  1  0.642701  0.800848  0.803606  1
  N  N39  1  0.464663  0.687917  0.379374  1
  N  N40  1  0.918168  0.105628  0.312929  1
  N  N41  1  0.918168  0.394372  0.812929  1
  N  N42  1  0.907355  0.616318  0.265573  1
  N  N43  1  0.081832  0.894372  0.687071  1
  N  N44  1  0.357299  0.300848  0.696394  1
  N  N45  1  0.081832  0.605628  0.187071  1
  N  N46  1  0.357299  0.199152  0.196394  1
  N  N47  1  0.907355  0.883682  0.765573  1
  F  F48  1  0.047978  0.715853  0.725553  1
  F  F49  1  0.663939  0.363650  0.077992  1
  F  F50  1  0.697729  0.510815  0.449161  1
  F  F51  1  0.181736  0.758510  0.467054  1
  F  F52  1  0.365726  0.490080  0.246230  1
  F  F53  1  0.555255  0.629918  0.836659  1
  F  F54  1  0.336061  0.636350  0.922008  1
  F  F55  1  0.154340  0.585278  0.995979  1
  F  F56  1  0.952022  0.284147  0.274447  1
  F  F57  1  0.952022  0.215853  0.774447  1
  F  F58  1  0.336061  0.863650  0.422008  1
  F  F59  1  0.663939  0.136350  0.577992  1
  F  F60  1  0.845660  0.085278  0.504021  1
  F  F61  1  0.032310  0.939879  0.257381  1
  F  F62  1  0.883699  0.668395  0.806524  1
  F  F63  1  0.967690  0.439879  0.242619  1
  F  F64  1  0.116301  0.331605  0.193476  1
  F  F65  1  0.032310  0.560121  0.757381  1
  F  F66  1  0.456014  0.866343  0.102105  1
  F  F67  1  0.777598  0.112963  0.866838  1
  F  F68  1  0.555255  0.870082  0.336659  1
  F  F69  1  0.444745  0.129918  0.663341  1
  F  F70  1  0.222402  0.612963  0.633162  1
  F  F71  1  0.967690  0.060121  0.742619  1
  F  F72  1  0.116301  0.168395  0.693476  1
  F  F73  1  0.154340  0.914722  0.495979  1
  F  F74  1  0.181736  0.741490  0.967054  1
  F  F75  1  0.365726  0.009920  0.746230  1
  F  F76  1  0.818264  0.258510  0.032946  1
  F  F77  1  0.597503  0.512626  0.212931  1
  F  F78  1  0.444745  0.370082  0.163341  1
  F  F79  1  0.456014  0.633657  0.602105  1
  F  F80  1  0.697729  0.989185  0.949161  1
  F  F81  1  0.302271  0.010815  0.050839  1
  F  F82  1  0.777598  0.387037  0.366838  1
  F  F83  1  0.543986  0.366343  0.397895  1
  F  F84  1  0.818264  0.241490  0.532946  1
  F  F85  1  0.543986  0.133657  0.897895  1
  F  F86  1  0.634274  0.509920  0.753770  1
  F  F87  1  0.047978  0.784147  0.225553  1
  F  F88  1  0.597503  0.987374  0.712931  1
  F  F89  1  0.845660  0.414722  0.004021  1
  F  F90  1  0.222402  0.887037  0.133162  1
  F  F91  1  0.634274  0.990080  0.253770  1
  F  F92  1  0.402497  0.487374  0.787069  1
  F  F93  1  0.302271  0.489185  0.550839  1
  F  F94  1  0.883699  0.831605  0.306524  1
  F  F95  1  0.402497  0.012626  0.287069  1
