# generated using pymatgen
data_RbMgF3
_symmetry_space_group_name_H-M   'P 1'
_cell_length_a   5.92941270
_cell_length_b   5.92941270
_cell_length_c   14.43823466
_cell_angle_alpha   90.00000000
_cell_angle_beta   90.00000000
_cell_angle_gamma   120.00000000
_symmetry_Int_Tables_number   1
_chemical_formula_structural   RbMgF3
_chemical_formula_sum   'Rb6 Mg6 F18'
_cell_volume   439.61053022
_cell_formula_units_Z   6
loop_
 _symmetry_equiv_pos_site_id
 _symmetry_equiv_pos_as_xyz
  1  'x, y, z'
loop_
 _atom_site_type_symbol
 _atom_site_label
 _atom_site_symmetry_multiplicity
 _atom_site_fract_x
 _atom_site_fract_y
 _atom_site_fract_z
 _atom_site_occupancy
  Rb  Rb0  1  0.000000  0.000000  0.250000  1
  Rb  Rb1  1  0.000000  0.000000  0.750000  1
  Rb  Rb2  1  0.333333  0.666667  0.098201  1
  Rb  Rb3  1  0.666667  0.333333  0.598201  1
  Rb  Rb4  1  0.666667  0.333333  0.901799  1
  Rb  Rb5  1  0.333333  0.666667  0.401799  1
  Mg  Mg6  1  0.000000  0.000000  0.000000  1
  Mg  Mg7  1  0.000000  0.000000  0.500000  1
  Mg  Mg8  1  0.333333  0.666667  0.847622  1
  Mg  Mg9  1  0.666667  0.333333  0.347622  1
  Mg  Mg10  1  0.666667  0.333333  0.152378  1
  Mg  Mg11  1  0.333333  0.666667  0.652378  1
  F  F12  1  0.520939  0.041879  0.250000  1
  F  F13  1  0.479061  0.520939  0.750000  1
  F  F14  1  0.041879  0.520939  0.750000  1
  F  F15  1  0.958121  0.479061  0.250000  1
  F  F16  1  0.520939  0.479061  0.250000  1
  F  F17  1  0.479061  0.958121  0.750000  1
  F  F18  1  0.834023  0.668046  0.079864  1
  F  F19  1  0.165977  0.834023  0.579864  1
  F  F20  1  0.668046  0.834023  0.579864  1
  F  F21  1  0.331954  0.165977  0.079864  1
  F  F22  1  0.834023  0.165977  0.079864  1
  F  F23  1  0.165977  0.331954  0.920136  1
  F  F24  1  0.165977  0.834023  0.920136  1
  F  F25  1  0.165977  0.331954  0.579864  1
  F  F26  1  0.668046  0.834023  0.920136  1
  F  F27  1  0.331954  0.165977  0.420136  1
  F  F28  1  0.834023  0.668046  0.420136  1
  F  F29  1  0.834023  0.165977  0.420136  1
