# generated using pymatgen
data_SbO2
_symmetry_space_group_name_H-M   'P 1'
_cell_length_a   4.91324136
_cell_length_b   5.58157995
_cell_length_c   11.91387174
_cell_angle_alpha   90.00000000
_cell_angle_beta   90.00000000
_cell_angle_gamma   90.00000000
_symmetry_Int_Tables_number   1
_chemical_formula_structural   SbO2
_chemical_formula_sum   'Sb8 O16'
_cell_volume   326.72184236
_cell_formula_units_Z   8
loop_
 _symmetry_equiv_pos_site_id
 _symmetry_equiv_pos_as_xyz
  1  'x, y, z'
loop_
 _atom_site_type_symbol
 _atom_site_label
 _atom_site_symmetry_multiplicity
 _atom_site_fract_x
 _atom_site_fract_y
 _atom_site_fract_z
 _atom_site_occupancy
  Sb  Sb0  1  0.712824  0.750000  0.000000  1
  Sb  Sb1  1  0.750000  0.119855  0.750000  1
  Sb  Sb2  1  0.787176  0.750000  0.500000  1
  Sb  Sb3  1  0.250000  0.880145  0.250000  1
  Sb  Sb4  1  0.287176  0.250000  0.000000  1
  Sb  Sb5  1  0.750000  0.380145  0.250000  1
  Sb  Sb6  1  0.212824  0.250000  0.500000  1
  Sb  Sb7  1  0.250000  0.619855  0.750000  1
  O  O8  1  0.418479  0.580098  0.905077  1
  O  O9  1  0.502504  0.635266  0.312370  1
  O  O10  1  0.002504  0.135266  0.187630  1
  O  O11  1  0.918479  0.080098  0.594923  1
  O  O12  1  0.002504  0.364734  0.812370  1
  O  O13  1  0.581521  0.080098  0.905077  1
  O  O14  1  0.081521  0.580098  0.594923  1
  O  O15  1  0.502504  0.864734  0.687630  1
  O  O16  1  0.418479  0.919902  0.094923  1
  O  O17  1  0.997496  0.864734  0.812370  1
  O  O18  1  0.497496  0.364734  0.687630  1
  O  O19  1  0.081521  0.919902  0.405077  1
  O  O20  1  0.918479  0.419902  0.405077  1
  O  O21  1  0.497496  0.135266  0.312370  1
  O  O22  1  0.997496  0.635266  0.187630  1
  O  O23  1  0.581521  0.419902  0.094923  1
