# generated using pymatgen
data_Ce4Co2Sn5
_symmetry_space_group_name_H-M   'P 1'
_cell_length_a   7.37309322
_cell_length_b   7.37309322
_cell_length_c   10.99466964
_cell_angle_alpha   53.94571201
_cell_angle_beta   126.05428799
_cell_angle_gamma   145.06728891
_symmetry_Int_Tables_number   1
_chemical_formula_structural   Ce4Co2Sn5
_chemical_formula_sum   'Ce4 Co2 Sn5'
_cell_volume   269.33842149
_cell_formula_units_Z   1
loop_
 _symmetry_equiv_pos_site_id
 _symmetry_equiv_pos_as_xyz
  1  'x, y, z'
loop_
 _atom_site_type_symbol
 _atom_site_label
 _atom_site_symmetry_multiplicity
 _atom_site_fract_x
 _atom_site_fract_y
 _atom_site_fract_z
 _atom_site_occupancy
  Ce  Ce0  1  0.068245  0.931755  0.222053  1
  Ce  Ce1  1  0.931755  0.068245  0.777947  1
  Ce  Ce2  1  0.333518  0.666482  0.219241  1
  Ce  Ce3  1  0.666482  0.333518  0.780759  1
  Co  Co4  1  0.765219  0.234781  0.348619  1
  Co  Co5  1  0.234781  0.765219  0.651381  1
  Sn  Sn6  1  0.374674  0.625326  0.953386  1
  Sn  Sn7  1  0.625326  0.374674  0.046614  1
  Sn  Sn8  1  0.000000  0.000000  0.500000  1
  Sn  Sn9  1  0.350062  0.649938  0.525497  1
  Sn  Sn10  1  0.649938  0.350062  0.474503  1
