# generated using pymatgen
data_NaPr2RuO6
_symmetry_space_group_name_H-M   'P 1'
_cell_length_a   5.58387684
_cell_length_b   6.00227215
_cell_length_c   9.72230485
_cell_angle_alpha   90.00000000
_cell_angle_beta   124.20732829
_cell_angle_gamma   90.00000000
_symmetry_Int_Tables_number   1
_chemical_formula_structural   NaPr2RuO6
_chemical_formula_sum   'Na2 Pr4 Ru2 O12'
_cell_volume   269.48265281
_cell_formula_units_Z   2
loop_
 _symmetry_equiv_pos_site_id
 _symmetry_equiv_pos_as_xyz
  1  'x, y, z'
loop_
 _atom_site_type_symbol
 _atom_site_label
 _atom_site_symmetry_multiplicity
 _atom_site_fract_x
 _atom_site_fract_y
 _atom_site_fract_z
 _atom_site_occupancy
  Na  Na0  1  0.000000  0.000000  0.000000  1
  Na  Na1  1  0.000000  0.500000  0.500000  1
  Pr  Pr2  1  0.773080  0.071547  0.253308  1
  Pr  Pr3  1  0.226920  0.571547  0.246692  1
  Pr  Pr4  1  0.226920  0.928453  0.746692  1
  Pr  Pr5  1  0.773080  0.428453  0.753308  1
  Ru  Ru6  1  0.500000  0.500000  0.000000  1
  Ru  Ru7  1  0.500000  0.000000  0.500000  1
  O  O8  1  0.842840  0.327184  0.051065  1
  O  O9  1  0.157160  0.827184  0.448935  1
  O  O10  1  0.157160  0.672816  0.948935  1
  O  O11  1  0.842840  0.172816  0.551065  1
  O  O12  1  0.613987  0.451733  0.230897  1
  O  O13  1  0.386013  0.951733  0.269103  1
  O  O14  1  0.386013  0.548267  0.769103  1
  O  O15  1  0.613987  0.048267  0.730897  1
  O  O16  1  0.731942  0.780964  0.067252  1
  O  O17  1  0.268058  0.280964  0.432748  1
  O  O18  1  0.268058  0.219036  0.932748  1
  O  O19  1  0.731942  0.719036  0.567252  1
