# generated using pymatgen
data_Ga
_symmetry_space_group_name_H-M   'P 1'
_cell_length_a   7.85517905
_cell_length_b   7.85517905
_cell_length_c   7.85517905
_cell_angle_alpha   71.17506315
_cell_angle_beta   71.17506315
_cell_angle_gamma   71.17506315
_symmetry_Int_Tables_number   1
_chemical_formula_structural   Ga
_chemical_formula_sum   Ga22
_cell_volume   421.10801878
_cell_formula_units_Z   22
loop_
 _symmetry_equiv_pos_site_id
 _symmetry_equiv_pos_as_xyz
  1  'x, y, z'
loop_
 _atom_site_type_symbol
 _atom_site_label
 _atom_site_symmetry_multiplicity
 _atom_site_fract_x
 _atom_site_fract_y
 _atom_site_fract_z
 _atom_site_occupancy
  Ga  Ga0  1  0.679905  0.374218  0.679905  1
  Ga  Ga1  1  0.320095  0.625782  0.320095  1
  Ga  Ga2  1  0.719451  0.022079  0.719451  1
  Ga  Ga3  1  0.903454  0.384803  0.903454  1
  Ga  Ga4  1  0.280549  0.977921  0.280549  1
  Ga  Ga5  1  0.096546  0.615197  0.096546  1
  Ga  Ga6  1  0.374218  0.679905  0.679905  1
  Ga  Ga7  1  0.320095  0.320095  0.625782  1
  Ga  Ga8  1  0.280549  0.280549  0.977921  1
  Ga  Ga9  1  0.903454  0.903454  0.384803  1
  Ga  Ga10  1  0.615197  0.096546  0.096546  1
  Ga  Ga11  1  0.625782  0.320095  0.320095  1
  Ga  Ga12  1  0.500000  0.000000  0.500000  1
  Ga  Ga13  1  0.679905  0.679905  0.374218  1
  Ga  Ga14  1  0.719451  0.719451  0.022079  1
  Ga  Ga15  1  0.977921  0.280549  0.280549  1
  Ga  Ga16  1  0.000000  0.500000  0.500000  1
  Ga  Ga17  1  0.384803  0.903454  0.903454  1
  Ga  Ga18  1  0.096546  0.096546  0.615197  1
  Ga  Ga19  1  0.000000  0.000000  0.000000  1
  Ga  Ga20  1  0.022079  0.719451  0.719451  1
  Ga  Ga21  1  0.500000  0.500000  0.000000  1
