# generated using pymatgen
data_SrBNO
_symmetry_space_group_name_H-M   'P 1'
_cell_length_a   6.67153730
_cell_length_b   7.91509928
_cell_length_c   13.52278102
_cell_angle_alpha   90.00000000
_cell_angle_beta   117.84352438
_cell_angle_gamma   90.00000000
_symmetry_Int_Tables_number   1
_chemical_formula_structural   SrBNO
_chemical_formula_sum   'Sr12 B12 N12 O12'
_cell_volume   631.41049092
_cell_formula_units_Z   12
loop_
 _symmetry_equiv_pos_site_id
 _symmetry_equiv_pos_as_xyz
  1  'x, y, z'
loop_
 _atom_site_type_symbol
 _atom_site_label
 _atom_site_symmetry_multiplicity
 _atom_site_fract_x
 _atom_site_fract_y
 _atom_site_fract_z
 _atom_site_occupancy
  Sr  Sr0  1  0.959955  0.864496  0.605998  1
  Sr  Sr1  1  0.434130  0.622142  0.823794  1
  Sr  Sr2  1  0.434130  0.877858  0.323794  1
  Sr  Sr3  1  0.565870  0.122142  0.676206  1
  Sr  Sr4  1  0.565870  0.377858  0.176206  1
  Sr  Sr5  1  0.040045  0.364496  0.894002  1
  Sr  Sr6  1  0.968844  0.387904  0.612926  1
  Sr  Sr7  1  0.040045  0.135504  0.394002  1
  Sr  Sr8  1  0.031156  0.612096  0.387074  1
  Sr  Sr9  1  0.959955  0.635504  0.105998  1
  Sr  Sr10  1  0.968844  0.112096  0.112926  1
  Sr  Sr11  1  0.031156  0.887904  0.887074  1
  B  B12  1  0.398044  0.722712  0.105359  1
  B  B13  1  0.402193  0.467929  0.612171  1
  B  B14  1  0.758085  0.874021  0.205644  1
  B  B15  1  0.398044  0.777288  0.605359  1
  B  B16  1  0.402193  0.032071  0.112171  1
  B  B17  1  0.601956  0.222712  0.394641  1
  B  B18  1  0.597807  0.967929  0.887829  1
  B  B19  1  0.597807  0.532071  0.387829  1
  B  B20  1  0.241915  0.374021  0.294356  1
  B  B21  1  0.601956  0.277288  0.894641  1
  B  B22  1  0.758085  0.625979  0.705644  1
  B  B23  1  0.241915  0.125979  0.794356  1
  N  N24  1  0.271070  0.623039  0.600723  1
  N  N25  1  0.644096  0.789522  0.673852  1
  N  N26  1  0.271070  0.876961  0.100723  1
  N  N27  1  0.648682  0.039417  0.180207  1
  N  N28  1  0.355904  0.289522  0.826148  1
  N  N29  1  0.351318  0.960583  0.819793  1
  N  N30  1  0.728930  0.376961  0.399277  1
  N  N31  1  0.351318  0.539417  0.319793  1
  N  N32  1  0.728930  0.123039  0.899277  1
  N  N33  1  0.648682  0.460583  0.680207  1
  N  N34  1  0.355904  0.210478  0.326148  1
  N  N35  1  0.644096  0.710478  0.173852  1
  O  O36  1  0.268583  0.915269  0.539889  1
  O  O37  1  0.731417  0.084731  0.460111  1
  O  O38  1  0.724359  0.675531  0.444057  1
  O  O39  1  0.275641  0.175531  0.055943  1
  O  O40  1  0.998762  0.372589  0.240097  1
  O  O41  1  0.724359  0.824469  0.944057  1
  O  O42  1  0.731417  0.415269  0.960111  1
  O  O43  1  0.275641  0.324469  0.555943  1
  O  O44  1  0.001238  0.627411  0.759903  1
  O  O45  1  0.998762  0.127411  0.740097  1
  O  O46  1  0.001238  0.872589  0.259903  1
  O  O47  1  0.268583  0.584731  0.039889  1
