# generated using pymatgen
data_Cs3AuO2
_symmetry_space_group_name_H-M   'P 1'
_cell_length_a   10.35967342
_cell_length_b   20.10794926
_cell_length_c   14.38878337
_cell_angle_alpha   90.00000000
_cell_angle_beta   132.46753113
_cell_angle_gamma   90.00000000
_symmetry_Int_Tables_number   1
_chemical_formula_structural   Cs3AuO2
_chemical_formula_sum   'Cs36 Au12 O24'
_cell_volume   2211.02775284
_cell_formula_units_Z   12
loop_
 _symmetry_equiv_pos_site_id
 _symmetry_equiv_pos_as_xyz
  1  'x, y, z'
loop_
 _atom_site_type_symbol
 _atom_site_label
 _atom_site_symmetry_multiplicity
 _atom_site_fract_x
 _atom_site_fract_y
 _atom_site_fract_z
 _atom_site_occupancy
  Cs  Cs0  1  0.763097  0.595537  0.706520  1
  Cs  Cs1  1  0.434307  0.063539  0.634021  1
  Cs  Cs2  1  0.598453  0.267501  0.862795  1
  Cs  Cs3  1  0.920508  0.410857  0.925324  1
  Cs  Cs4  1  0.236903  0.095537  0.793480  1
  Cs  Cs5  1  0.046264  0.589307  0.573887  1
  Cs  Cs6  1  0.231147  0.928718  0.912870  1
  Cs  Cs7  1  0.953736  0.089307  0.926113  1
  Cs  Cs8  1  0.763097  0.904463  0.206520  1
  Cs  Cs9  1  0.079492  0.910857  0.574676  1
  Cs  Cs10  1  0.231147  0.571282  0.412870  1
  Cs  Cs11  1  0.565693  0.563539  0.865979  1
  Cs  Cs12  1  0.653353  0.756039  0.494182  1
  Cs  Cs13  1  0.153727  0.751470  0.781077  1
  Cs  Cs14  1  0.846273  0.251470  0.718923  1
  Cs  Cs15  1  0.153727  0.748530  0.281077  1
  Cs  Cs16  1  0.920508  0.089143  0.425324  1
  Cs  Cs17  1  0.768853  0.428718  0.587130  1
  Cs  Cs18  1  0.401547  0.732499  0.137205  1
  Cs  Cs19  1  0.346647  0.243961  0.505818  1
  Cs  Cs20  1  0.768853  0.071282  0.087130  1
  Cs  Cs21  1  0.846273  0.248530  0.218923  1
  Cs  Cs22  1  0.434307  0.436461  0.134021  1
  Cs  Cs23  1  0.079492  0.589143  0.074676  1
  Cs  Cs24  1  0.730430  0.913157  0.703923  1
  Cs  Cs25  1  0.953736  0.410693  0.426113  1
  Cs  Cs26  1  0.269570  0.413157  0.796077  1
  Cs  Cs27  1  0.401547  0.767501  0.637205  1
  Cs  Cs28  1  0.346647  0.256039  0.005818  1
  Cs  Cs29  1  0.653353  0.743961  0.994182  1
  Cs  Cs30  1  0.730430  0.586843  0.203923  1
  Cs  Cs31  1  0.565693  0.936461  0.365979  1
  Cs  Cs32  1  0.046264  0.910693  0.073887  1
  Cs  Cs33  1  0.236903  0.404463  0.293480  1
  Cs  Cs34  1  0.598453  0.232499  0.362795  1
  Cs  Cs35  1  0.269570  0.086843  0.296077  1
  Au  Au36  1  0.897609  0.751758  0.384716  1
  Au  Au37  1  0.238107  0.578512  0.906961  1
  Au  Au38  1  0.444541  0.420727  0.638031  1
  Au  Au39  1  0.555459  0.579273  0.361969  1
  Au  Au40  1  0.238107  0.921488  0.406961  1
  Au  Au41  1  0.102391  0.248242  0.615284  1
  Au  Au42  1  0.555459  0.920727  0.861969  1
  Au  Au43  1  0.897609  0.748242  0.884716  1
  Au  Au44  1  0.761893  0.421488  0.093039  1
  Au  Au45  1  0.761893  0.078512  0.593039  1
  Au  Au46  1  0.444541  0.079273  0.138031  1
  Au  Au47  1  0.102391  0.251758  0.115284  1
  O  O48  1  0.736041  0.676036  0.858090  1
  O  O49  1  0.394501  0.847468  0.832579  1
  O  O50  1  0.736041  0.823964  0.358090  1
  O  O51  1  0.941348  0.319633  0.588783  1
  O  O52  1  0.058652  0.680367  0.411217  1
  O  O53  1  0.067485  0.993927  0.365540  1
  O  O54  1  0.605499  0.347468  0.667421  1
  O  O55  1  0.394501  0.652532  0.332579  1
  O  O56  1  0.058652  0.819633  0.911217  1
  O  O57  1  0.284201  0.491646  0.615214  1
  O  O58  1  0.263959  0.323964  0.141910  1
  O  O59  1  0.932515  0.006073  0.634460  1
  O  O60  1  0.715799  0.991646  0.884786  1
  O  O61  1  0.605499  0.152532  0.167421  1
  O  O62  1  0.715799  0.508354  0.384786  1
  O  O63  1  0.263959  0.176036  0.641910  1
  O  O64  1  0.586790  0.150264  0.547068  1
  O  O65  1  0.067485  0.506073  0.865540  1
  O  O66  1  0.413210  0.650264  0.952932  1
  O  O67  1  0.284201  0.008354  0.115214  1
  O  O68  1  0.586790  0.349736  0.047068  1
  O  O69  1  0.932515  0.493927  0.134460  1
  O  O70  1  0.413210  0.849736  0.452932  1
  O  O71  1  0.941348  0.180367  0.088783  1
