# generated using pymatgen
data_KNa7Pb2O7
_symmetry_space_group_name_H-M   'P 1'
_cell_length_a   10.75668884
_cell_length_b   6.04086090
_cell_length_c   17.82085800
_cell_angle_alpha   90.00000000
_cell_angle_beta   90.33783542
_cell_angle_gamma   90.00000000
_symmetry_Int_Tables_number   1
_chemical_formula_structural   KNa7Pb2O7
_chemical_formula_sum   'K4 Na28 Pb8 O28'
_cell_volume   1157.97318230
_cell_formula_units_Z   4
loop_
 _symmetry_equiv_pos_site_id
 _symmetry_equiv_pos_as_xyz
  1  'x, y, z'
loop_
 _atom_site_type_symbol
 _atom_site_label
 _atom_site_symmetry_multiplicity
 _atom_site_fract_x
 _atom_site_fract_y
 _atom_site_fract_z
 _atom_site_occupancy
  K  K0  1  0.360010  0.015980  0.536307  1
  K  K1  1  0.639990  0.984020  0.463693  1
  K  K2  1  0.860010  0.484020  0.536307  1
  K  K3  1  0.139990  0.515980  0.463693  1
  Na  Na4  1  0.166897  0.319368  0.805485  1
  Na  Na5  1  0.570214  0.441095  0.580174  1
  Na  Na6  1  0.205362  0.286239  0.177408  1
  Na  Na7  1  0.666897  0.180632  0.805485  1
  Na  Na8  1  0.333103  0.819368  0.194515  1
  Na  Na9  1  0.909910  0.401680  0.706458  1
  Na  Na10  1  0.078564  0.835985  0.135683  1
  Na  Na11  1  0.833103  0.680632  0.194515  1
  Na  Na12  1  0.421436  0.335985  0.864317  1
  Na  Na13  1  0.705362  0.213761  0.177408  1
  Na  Na14  1  0.578564  0.664015  0.135683  1
  Na  Na15  1  0.070214  0.058905  0.580174  1
  Na  Na16  1  0.313307  0.669514  0.029247  1
  Na  Na17  1  0.090090  0.598320  0.293542  1
  Na  Na18  1  0.186693  0.169514  0.970753  1
  Na  Na19  1  0.957731  0.145922  0.253389  1
  Na  Na20  1  0.429786  0.558905  0.419826  1
  Na  Na21  1  0.042269  0.854078  0.746611  1
  Na  Na22  1  0.813307  0.830486  0.029247  1
  Na  Na23  1  0.457731  0.354078  0.253389  1
  Na  Na24  1  0.590090  0.901680  0.293542  1
  Na  Na25  1  0.294638  0.786239  0.822592  1
  Na  Na26  1  0.929786  0.941095  0.419826  1
  Na  Na27  1  0.409910  0.098320  0.706458  1
  Na  Na28  1  0.542269  0.645922  0.746611  1
  Na  Na29  1  0.794638  0.713761  0.822592  1
  Na  Na30  1  0.686693  0.330486  0.970753  1
  Na  Na31  1  0.921436  0.164015  0.864317  1
  Pb  Pb32  1  0.059908  0.683377  0.922231  1
  Pb  Pb33  1  0.940092  0.316623  0.077769  1
  Pb  Pb34  1  0.250177  0.066046  0.357534  1
  Pb  Pb35  1  0.750177  0.433954  0.357534  1
  Pb  Pb36  1  0.749823  0.933954  0.642466  1
  Pb  Pb37  1  0.559908  0.816623  0.922231  1
  Pb  Pb38  1  0.440092  0.183377  0.077769  1
  Pb  Pb39  1  0.249823  0.566046  0.642466  1
  O  O40  1  0.072660  0.433429  0.618549  1
  O  O41  1  0.257077  0.011091  0.082819  1
  O  O42  1  0.927340  0.566571  0.381451  1
  O  O43  1  0.138777  0.014265  0.452906  1
  O  O44  1  0.742923  0.988909  0.917181  1
  O  O45  1  0.221795  0.905938  0.666570  1
  O  O46  1  0.778205  0.094062  0.333430  1
  O  O47  1  0.154606  0.954685  0.260029  1
  O  O48  1  0.845394  0.045315  0.739971  1
  O  O49  1  0.618224  0.513141  0.861855  1
  O  O50  1  0.757077  0.488909  0.082819  1
  O  O51  1  0.345394  0.454685  0.739971  1
  O  O52  1  0.654606  0.545315  0.260029  1
  O  O53  1  0.381776  0.486859  0.138145  1
  O  O54  1  0.242923  0.511091  0.917181  1
  O  O55  1  0.515873  0.025863  0.180093  1
  O  O56  1  0.881776  0.013141  0.138145  1
  O  O57  1  0.361223  0.514265  0.547094  1
  O  O58  1  0.572660  0.066571  0.618549  1
  O  O59  1  0.015873  0.474137  0.180093  1
  O  O60  1  0.484127  0.974137  0.819907  1
  O  O61  1  0.638777  0.485735  0.452906  1
  O  O62  1  0.861223  0.985735  0.547094  1
  O  O63  1  0.427340  0.933429  0.381451  1
  O  O64  1  0.118224  0.986859  0.861855  1
  O  O65  1  0.278205  0.405938  0.333430  1
  O  O66  1  0.984127  0.525863  0.819907  1
  O  O67  1  0.721795  0.594062  0.666570  1
