# generated using pymatgen
data_U3Co7B2
_symmetry_space_group_name_H-M   'P 1'
_cell_length_a   4.95102212
_cell_length_b   4.95102212
_cell_length_c   13.93243135
_cell_angle_alpha   90.00000000
_cell_angle_beta   90.00000000
_cell_angle_gamma   120.00000000
_symmetry_Int_Tables_number   1
_chemical_formula_structural   U3Co7B2
_chemical_formula_sum   'U6 Co14 B4'
_cell_volume   295.76533864
_cell_formula_units_Z   2
loop_
 _symmetry_equiv_pos_site_id
 _symmetry_equiv_pos_as_xyz
  1  'x, y, z'
loop_
 _atom_site_type_symbol
 _atom_site_label
 _atom_site_symmetry_multiplicity
 _atom_site_fract_x
 _atom_site_fract_y
 _atom_site_fract_z
 _atom_site_occupancy
  U  U0  1  0.333333  0.666667  0.250000  1
  U  U1  1  0.666667  0.333333  0.750000  1
  U  U2  1  0.333333  0.666667  0.030014  1
  U  U3  1  0.666667  0.333333  0.530014  1
  U  U4  1  0.666667  0.333333  0.969986  1
  U  U5  1  0.333333  0.666667  0.469986  1
  Co  Co6  1  0.000000  0.000000  0.000000  1
  Co  Co7  1  0.000000  0.000000  0.500000  1
  Co  Co8  1  0.834811  0.669621  0.146525  1
  Co  Co9  1  0.165189  0.834811  0.646525  1
  Co  Co10  1  0.669621  0.834811  0.646525  1
  Co  Co11  1  0.330379  0.165189  0.146525  1
  Co  Co12  1  0.834811  0.165189  0.146525  1
  Co  Co13  1  0.165189  0.330379  0.853475  1
  Co  Co14  1  0.165189  0.834811  0.853475  1
  Co  Co15  1  0.165189  0.330379  0.646525  1
  Co  Co16  1  0.669621  0.834811  0.853475  1
  Co  Co17  1  0.330379  0.165189  0.353475  1
  Co  Co18  1  0.834811  0.669621  0.353475  1
  Co  Co19  1  0.834811  0.165189  0.353475  1
  B  B20  1  0.000000  0.000000  0.250000  1
  B  B21  1  0.000000  0.000000  0.750000  1
  B  B22  1  0.333333  0.666667  0.750000  1
  B  B23  1  0.666667  0.333333  0.250000  1
