# generated using pymatgen
data_Tl2Pt
_symmetry_space_group_name_H-M   'P 1'
_cell_length_a   5.73261881
_cell_length_b   5.73261881
_cell_length_c   5.73261881
_cell_angle_alpha   104.21127569
_cell_angle_beta   104.21127569
_cell_angle_gamma   120.59748734
_symmetry_Int_Tables_number   1
_chemical_formula_structural   Tl2Pt
_chemical_formula_sum   'Tl4 Pt2'
_cell_volume   140.85543663
_cell_formula_units_Z   2
loop_
 _symmetry_equiv_pos_site_id
 _symmetry_equiv_pos_as_xyz
  1  'x, y, z'
loop_
 _atom_site_type_symbol
 _atom_site_label
 _atom_site_symmetry_multiplicity
 _atom_site_fract_x
 _atom_site_fract_y
 _atom_site_fract_z
 _atom_site_occupancy
  Tl  Tl0  1  0.160734  0.660734  0.821469  1
  Tl  Tl1  1  0.660734  0.839266  0.500000  1
  Tl  Tl2  1  0.839266  0.339266  0.178531  1
  Tl  Tl3  1  0.339266  0.160734  0.500000  1
  Pt  Pt4  1  0.250000  0.250000  0.000000  1
  Pt  Pt5  1  0.750000  0.750000  0.000000  1
