# generated using pymatgen
data_Zn2In2S5
_symmetry_space_group_name_H-M   'P 1'
_cell_length_a   3.92144639
_cell_length_b   3.92144639
_cell_length_c   31.04520488
_cell_angle_alpha   90.00000000
_cell_angle_beta   90.00000000
_cell_angle_gamma   120.00000000
_symmetry_Int_Tables_number   1
_chemical_formula_structural   Zn2In2S5
_chemical_formula_sum   'Zn4 In4 S10'
_cell_volume   413.44498270
_cell_formula_units_Z   2
loop_
 _symmetry_equiv_pos_site_id
 _symmetry_equiv_pos_as_xyz
  1  'x, y, z'
loop_
 _atom_site_type_symbol
 _atom_site_label
 _atom_site_symmetry_multiplicity
 _atom_site_fract_x
 _atom_site_fract_y
 _atom_site_fract_z
 _atom_site_occupancy
  Zn  Zn0  1  0.333333  0.666667  0.309138  1
  Zn  Zn1  1  0.666667  0.333333  0.809138  1
  Zn  Zn2  1  0.666667  0.333333  0.065289  1
  Zn  Zn3  1  0.333333  0.666667  0.565289  1
  In  In4  1  0.333333  0.666667  0.917872  1
  In  In5  1  0.000000  0.000000  0.188491  1
  In  In6  1  0.000000  0.000000  0.688491  1
  In  In7  1  0.666667  0.333333  0.417872  1
  S  S8  1  0.666667  0.333333  0.337032  1
  S  S9  1  0.333333  0.666667  0.045192  1
  S  S10  1  0.333333  0.666667  0.451501  1
  S  S11  1  0.333333  0.666667  0.236706  1
  S  S12  1  0.666667  0.333333  0.146778  1
  S  S13  1  0.666667  0.333333  0.951501  1
  S  S14  1  0.333333  0.666667  0.837032  1
  S  S15  1  0.333333  0.666667  0.646778  1
  S  S16  1  0.666667  0.333333  0.736706  1
  S  S17  1  0.666667  0.333333  0.545192  1
