# generated using pymatgen
data_CeF3
_symmetry_space_group_name_H-M   'P 1'
_cell_length_a   7.18111241
_cell_length_b   7.18111241
_cell_length_c   7.32590793
_cell_angle_alpha   90.00000000
_cell_angle_beta   90.00000000
_cell_angle_gamma   120.00000000
_symmetry_Int_Tables_number   1
_chemical_formula_structural   CeF3
_chemical_formula_sum   'Ce6 F18'
_cell_volume   327.17155492
_cell_formula_units_Z   6
loop_
 _symmetry_equiv_pos_site_id
 _symmetry_equiv_pos_as_xyz
  1  'x, y, z'
loop_
 _atom_site_type_symbol
 _atom_site_label
 _atom_site_symmetry_multiplicity
 _atom_site_fract_x
 _atom_site_fract_y
 _atom_site_fract_z
 _atom_site_occupancy
  Ce  Ce0  1  0.658083  0.000000  0.250000  1
  Ce  Ce1  1  0.000000  0.658083  0.250000  1
  Ce  Ce2  1  0.341917  0.341917  0.250000  1
  Ce  Ce3  1  0.341917  0.000000  0.750000  1
  Ce  Ce4  1  0.000000  0.341917  0.750000  1
  Ce  Ce5  1  0.658083  0.658083  0.750000  1
  F  F6  1  0.368543  0.058775  0.079372  1
  F  F7  1  0.941225  0.309767  0.079372  1
  F  F8  1  0.690233  0.631457  0.079372  1
  F  F9  1  0.309767  0.941225  0.420628  1
  F  F10  1  0.631457  0.690233  0.420628  1
  F  F11  1  0.058775  0.368543  0.420628  1
  F  F12  1  0.631457  0.941225  0.920628  1
  F  F13  1  0.058775  0.690233  0.920628  1
  F  F14  1  0.309767  0.368543  0.920628  1
  F  F15  1  0.690233  0.058775  0.579372  1
  F  F16  1  0.368543  0.309767  0.579372  1
  F  F17  1  0.941225  0.631457  0.579372  1
  F  F18  1  0.333333  0.666667  0.187367  1
  F  F19  1  0.666667  0.333333  0.312633  1
  F  F20  1  0.666667  0.333333  0.812633  1
  F  F21  1  0.333333  0.666667  0.687367  1
  F  F22  1  0.000000  0.000000  0.250000  1
  F  F23  1  0.000000  0.000000  0.750000  1
