# generated using pymatgen
data_Li2Cu(WO4)2
_symmetry_space_group_name_H-M   'P 1'
_cell_length_a   5.11741223
_cell_length_b   5.47539652
_cell_length_c   5.94654372
_cell_angle_alpha   106.57157469
_cell_angle_beta   85.35669535
_cell_angle_gamma   112.62079673
_symmetry_Int_Tables_number   1
_chemical_formula_structural   Li2Cu(WO4)2
_chemical_formula_sum   'Li2 Cu1 W2 O8'
_cell_volume   147.33706861
_cell_formula_units_Z   1
loop_
 _symmetry_equiv_pos_site_id
 _symmetry_equiv_pos_as_xyz
  1  'x, y, z'
loop_
 _atom_site_type_symbol
 _atom_site_label
 _atom_site_symmetry_multiplicity
 _atom_site_fract_x
 _atom_site_fract_y
 _atom_site_fract_z
 _atom_site_occupancy
  Li  Li0  1  0.064130  0.586011  0.775265  1
  Li  Li1  1  0.935870  0.413989  0.224735  1
  Cu  Cu2  1  0.500000  0.500000  0.000000  1
  W  W3  1  0.728146  0.974710  0.657330  1
  W  W4  1  0.271854  0.025290  0.342670  1
  O  O5  1  0.279145  0.729452  0.087689  1
  O  O6  1  0.861242  0.779874  0.358047  1
  O  O7  1  0.720855  0.270548  0.912311  1
  O  O8  1  0.339050  0.798253  0.569244  1
  O  O9  1  0.245598  0.253639  0.179982  1
  O  O10  1  0.138758  0.220126  0.641953  1
  O  O11  1  0.754402  0.746361  0.820018  1
  O  O12  1  0.660950  0.201747  0.430756  1
