# generated using pymatgen
data_Sr3CaRu2O9
_symmetry_space_group_name_H-M   'P 1'
_cell_length_a   9.98124106
_cell_length_b   5.80100518
_cell_length_c   14.17466878
_cell_angle_alpha   90.00000000
_cell_angle_beta   90.05716079
_cell_angle_gamma   90.00000000
_symmetry_Int_Tables_number   1
_chemical_formula_structural   Sr3CaRu2O9
_chemical_formula_sum   'Sr12 Ca4 Ru8 O36'
_cell_volume   820.73036368
_cell_formula_units_Z   4
loop_
 _symmetry_equiv_pos_site_id
 _symmetry_equiv_pos_as_xyz
  1  'x, y, z'
loop_
 _atom_site_type_symbol
 _atom_site_label
 _atom_site_symmetry_multiplicity
 _atom_site_fract_x
 _atom_site_fract_y
 _atom_site_fract_z
 _atom_site_occupancy
  Sr  Sr0  1  0.831813  0.535000  0.583281  1
  Sr  Sr1  1  0.492809  0.541107  0.247582  1
  Sr  Sr2  1  0.331813  0.965000  0.583281  1
  Sr  Sr3  1  0.832773  0.463535  0.088353  1
  Sr  Sr4  1  0.167227  0.536465  0.911647  1
  Sr  Sr5  1  0.007191  0.041107  0.752418  1
  Sr  Sr6  1  0.332773  0.036465  0.088353  1
  Sr  Sr7  1  0.992809  0.958893  0.247582  1
  Sr  Sr8  1  0.168187  0.465000  0.416719  1
  Sr  Sr9  1  0.668187  0.035000  0.416719  1
  Sr  Sr10  1  0.507191  0.458893  0.752418  1
  Sr  Sr11  1  0.667227  0.963535  0.911647  1
  Ca  Ca12  1  0.500000  0.500000  0.000000  1
  Ca  Ca13  1  0.000000  0.000000  0.500000  1
  Ca  Ca14  1  0.500000  0.500000  0.500000  1
  Ca  Ca15  1  0.000000  0.000000  0.000000  1
  Ru  Ru16  1  0.827609  0.502647  0.331706  1
  Ru  Ru17  1  0.327609  0.997353  0.331706  1
  Ru  Ru18  1  0.161222  0.494380  0.168959  1
  Ru  Ru19  1  0.672391  0.002647  0.668294  1
  Ru  Ru20  1  0.661222  0.005620  0.168959  1
  Ru  Ru21  1  0.172391  0.497353  0.668294  1
  Ru  Ru22  1  0.838778  0.505620  0.831041  1
  Ru  Ru23  1  0.338778  0.994380  0.831041  1
  O  O24  1  0.794954  0.015764  0.070185  1
  O  O25  1  0.604920  0.804607  0.569317  1
  O  O26  1  0.871432  0.769935  0.405998  1
  O  O27  1  0.262980  0.788255  0.224361  1
  O  O28  1  0.212801  0.786780  0.750397  1
  O  O29  1  0.448862  0.197154  0.905041  1
  O  O30  1  0.051138  0.697154  0.094959  1
  O  O31  1  0.024506  0.516396  0.275615  1
  O  O32  1  0.762980  0.711745  0.224361  1
  O  O33  1  0.128568  0.230065  0.594002  1
  O  O34  1  0.104920  0.695393  0.569317  1
  O  O35  1  0.152156  0.015950  0.382936  1
  O  O36  1  0.205046  0.984236  0.929815  1
  O  O37  1  0.425778  0.729334  0.881282  1
  O  O38  1  0.475494  0.016396  0.724385  1
  O  O39  1  0.294954  0.484236  0.070185  1
  O  O40  1  0.524506  0.983604  0.275615  1
  O  O41  1  0.712801  0.713220  0.750397  1
  O  O42  1  0.948862  0.302846  0.905041  1
  O  O43  1  0.574222  0.270666  0.118718  1
  O  O44  1  0.237020  0.288255  0.775639  1
  O  O45  1  0.347844  0.515950  0.617064  1
  O  O46  1  0.787199  0.213220  0.249603  1
  O  O47  1  0.737020  0.211745  0.775639  1
  O  O48  1  0.705046  0.515764  0.929815  1
  O  O49  1  0.925778  0.770666  0.881282  1
  O  O50  1  0.975494  0.483604  0.724385  1
  O  O51  1  0.395080  0.195393  0.430683  1
  O  O52  1  0.652156  0.484050  0.382936  1
  O  O53  1  0.371432  0.730065  0.405998  1
  O  O54  1  0.847844  0.984050  0.617064  1
  O  O55  1  0.628568  0.269935  0.594002  1
  O  O56  1  0.287199  0.286780  0.249603  1
  O  O57  1  0.074222  0.229334  0.118718  1
  O  O58  1  0.895080  0.304607  0.430683  1
  O  O59  1  0.551138  0.802846  0.094959  1
