# generated using pymatgen
data_Dy2MoO6
_symmetry_space_group_name_H-M   'P 1'
_cell_length_a   9.95578344
_cell_length_b   9.95578344
_cell_length_c   5.40324563
_cell_angle_alpha   75.00937672
_cell_angle_beta   104.99062328
_cell_angle_gamma   111.96786453
_symmetry_Int_Tables_number   1
_chemical_formula_structural   Dy2MoO6
_chemical_formula_sum   'Dy8 Mo4 O24'
_cell_volume   471.86942353
_cell_formula_units_Z   4
loop_
 _symmetry_equiv_pos_site_id
 _symmetry_equiv_pos_as_xyz
  1  'x, y, z'
loop_
 _atom_site_type_symbol
 _atom_site_label
 _atom_site_symmetry_multiplicity
 _atom_site_fract_x
 _atom_site_fract_y
 _atom_site_fract_z
 _atom_site_occupancy
  Dy  Dy0  1  0.783721  0.448136  0.378591  1
  Dy  Dy1  1  0.448136  0.783721  0.121409  1
  Dy  Dy2  1  0.216279  0.551864  0.621409  1
  Dy  Dy3  1  0.551864  0.216279  0.878591  1
  Dy  Dy4  1  0.863957  0.863957  0.250000  1
  Dy  Dy5  1  0.136043  0.136043  0.750000  1
  Dy  Dy6  1  0.393097  0.393097  0.250000  1
  Dy  Dy7  1  0.606903  0.606903  0.750000  1
  Mo  Mo8  1  0.988131  0.295869  0.060292  1
  Mo  Mo9  1  0.295869  0.988131  0.439708  1
  Mo  Mo10  1  0.011869  0.704131  0.939708  1
  Mo  Mo11  1  0.704131  0.011869  0.560292  1
  O  O12  1  0.426552  0.608965  0.921731  1
  O  O13  1  0.608965  0.426552  0.578269  1
  O  O14  1  0.573448  0.391035  0.078269  1
  O  O15  1  0.391035  0.573448  0.421731  1
  O  O16  1  0.192125  0.336915  0.917344  1
  O  O17  1  0.336915  0.192125  0.582656  1
  O  O18  1  0.807875  0.663085  0.082656  1
  O  O19  1  0.663085  0.807875  0.417344  1
  O  O20  1  0.116052  0.326670  0.370995  1
  O  O21  1  0.326670  0.116052  0.129005  1
  O  O22  1  0.883948  0.673330  0.629005  1
  O  O23  1  0.673330  0.883948  0.870995  1
  O  O24  1  0.710158  0.183106  0.636583  1
  O  O25  1  0.183106  0.710158  0.863417  1
  O  O26  1  0.289842  0.816894  0.363417  1
  O  O27  1  0.816894  0.289842  0.136583  1
  O  O28  1  0.890041  0.048966  0.514636  1
  O  O29  1  0.048966  0.890041  0.985364  1
  O  O30  1  0.109959  0.951034  0.485364  1
  O  O31  1  0.951034  0.109959  0.014636  1
  O  O32  1  0.568984  0.025186  0.254161  1
  O  O33  1  0.025186  0.568984  0.245839  1
  O  O34  1  0.431016  0.974814  0.745839  1
  O  O35  1  0.974814  0.431016  0.754161  1
