# generated using pymatgen
data_EuHSO5
_symmetry_space_group_name_H-M   'P 1'
_cell_length_a   4.52402770
_cell_length_b   12.49186945
_cell_length_c   7.15768619
_cell_angle_alpha   90.00000000
_cell_angle_beta   110.82160473
_cell_angle_gamma   90.00000000
_symmetry_Int_Tables_number   1
_chemical_formula_structural   EuHSO5
_chemical_formula_sum   'Eu4 H4 S4 O20'
_cell_volume   378.08873355
_cell_formula_units_Z   4
loop_
 _symmetry_equiv_pos_site_id
 _symmetry_equiv_pos_as_xyz
  1  'x, y, z'
loop_
 _atom_site_type_symbol
 _atom_site_label
 _atom_site_symmetry_multiplicity
 _atom_site_fract_x
 _atom_site_fract_y
 _atom_site_fract_z
 _atom_site_occupancy
  Eu  Eu0  1  0.836661  0.561534  0.699089  1
  Eu  Eu1  1  0.163339  0.438466  0.300911  1
  Eu  Eu2  1  0.836661  0.938466  0.199089  1
  Eu  Eu3  1  0.163339  0.061534  0.800911  1
  H  H4  1  0.785104  0.344876  0.515753  1
  H  H5  1  0.214896  0.655124  0.484247  1
  H  H6  1  0.214896  0.844876  0.984247  1
  H  H7  1  0.785104  0.155124  0.015753  1
  S  S8  1  0.588041  0.852370  0.608154  1
  S  S9  1  0.411959  0.352370  0.891846  1
  S  S10  1  0.588041  0.647630  0.108154  1
  S  S11  1  0.411959  0.147630  0.391846  1
  O  O12  1  0.201064  0.428920  0.950286  1
  O  O13  1  0.520452  0.599984  0.278674  1
  O  O14  1  0.760144  0.749794  0.171721  1
  O  O15  1  0.201064  0.071080  0.450286  1
  O  O16  1  0.763201  0.083344  0.956081  1
  O  O17  1  0.520452  0.900016  0.778674  1
  O  O18  1  0.798936  0.928920  0.549714  1
  O  O19  1  0.296857  0.833338  0.435340  1
  O  O20  1  0.239856  0.250206  0.828279  1
  O  O21  1  0.236799  0.583344  0.543919  1
  O  O22  1  0.798936  0.571080  0.049714  1
  O  O23  1  0.763201  0.416656  0.456081  1
  O  O24  1  0.703143  0.166662  0.564660  1
  O  O25  1  0.703143  0.333338  0.064660  1
  O  O26  1  0.296857  0.666662  0.935340  1
  O  O27  1  0.239856  0.249794  0.328279  1
  O  O28  1  0.236799  0.916656  0.043919  1
  O  O29  1  0.479548  0.099984  0.221326  1
  O  O30  1  0.479548  0.400016  0.721326  1
  O  O31  1  0.760144  0.750206  0.671721  1
