# generated using pymatgen
data_Tb5CoSb2
_symmetry_space_group_name_H-M   'P 1'
_cell_length_a   7.91746568
_cell_length_b   8.80884393
_cell_length_c   12.24302433
_cell_angle_alpha   90.00000000
_cell_angle_beta   90.00000000
_cell_angle_gamma   90.00000000
_symmetry_Int_Tables_number   1
_chemical_formula_structural   Tb5CoSb2
_chemical_formula_sum   'Tb20 Co4 Sb8'
_cell_volume   853.87405466
_cell_formula_units_Z   4
loop_
 _symmetry_equiv_pos_site_id
 _symmetry_equiv_pos_as_xyz
  1  'x, y, z'
loop_
 _atom_site_type_symbol
 _atom_site_label
 _atom_site_symmetry_multiplicity
 _atom_site_fract_x
 _atom_site_fract_y
 _atom_site_fract_z
 _atom_site_occupancy
  Tb  Tb0  1  0.154722  0.750000  0.203709  1
  Tb  Tb1  1  0.654722  0.250000  0.296291  1
  Tb  Tb2  1  0.845278  0.250000  0.796291  1
  Tb  Tb3  1  0.345278  0.750000  0.703709  1
  Tb  Tb4  1  0.454047  0.750000  0.997956  1
  Tb  Tb5  1  0.954047  0.250000  0.502044  1
  Tb  Tb6  1  0.545953  0.250000  0.002044  1
  Tb  Tb7  1  0.045953  0.750000  0.497956  1
  Tb  Tb8  1  0.621928  0.750000  0.305334  1
  Tb  Tb9  1  0.121928  0.250000  0.194666  1
  Tb  Tb10  1  0.378072  0.250000  0.694666  1
  Tb  Tb11  1  0.878072  0.750000  0.805334  1
  Tb  Tb12  1  0.821526  0.963268  0.064764  1
  Tb  Tb13  1  0.321526  0.036732  0.435236  1
  Tb  Tb14  1  0.178474  0.463268  0.935236  1
  Tb  Tb15  1  0.678474  0.536732  0.564764  1
  Tb  Tb16  1  0.178474  0.036732  0.935236  1
  Tb  Tb17  1  0.678474  0.963268  0.564764  1
  Tb  Tb18  1  0.821526  0.536732  0.064764  1
  Tb  Tb19  1  0.321526  0.463268  0.435236  1
  Co  Co20  1  0.429904  0.750000  0.489170  1
  Co  Co21  1  0.929904  0.250000  0.010830  1
  Co  Co22  1  0.570096  0.250000  0.510830  1
  Co  Co23  1  0.070096  0.750000  0.989170  1
  Sb  Sb24  1  0.927792  0.991720  0.326889  1
  Sb  Sb25  1  0.427792  0.008280  0.173111  1
  Sb  Sb26  1  0.072208  0.491720  0.673111  1
  Sb  Sb27  1  0.572208  0.508280  0.826889  1
  Sb  Sb28  1  0.072208  0.008280  0.673111  1
  Sb  Sb29  1  0.572208  0.991720  0.826889  1
  Sb  Sb30  1  0.927792  0.508280  0.326889  1
  Sb  Sb31  1  0.427792  0.491720  0.173111  1
