# generated using pymatgen
data_LiMnO2
_symmetry_space_group_name_H-M   'P 1'
_cell_length_a   6.19248068
_cell_length_b   6.19248068
_cell_length_c   6.19248068
_cell_angle_alpha   124.50011615
_cell_angle_beta   124.50011615
_cell_angle_gamma   82.36766204
_symmetry_Int_Tables_number   1
_chemical_formula_structural   LiMnO2
_chemical_formula_sum   'Li4 Mn4 O8'
_cell_volume   154.97797600
_cell_formula_units_Z   4
loop_
 _symmetry_equiv_pos_site_id
 _symmetry_equiv_pos_as_xyz
  1  'x, y, z'
loop_
 _atom_site_type_symbol
 _atom_site_label
 _atom_site_symmetry_multiplicity
 _atom_site_fract_x
 _atom_site_fract_y
 _atom_site_fract_z
 _atom_site_occupancy
  Li  Li0  1  0.875000  0.625000  0.250000  1
  Li  Li1  1  0.375000  0.625000  0.250000  1
  Li  Li2  1  0.375000  0.625000  0.750000  1
  Li  Li3  1  0.375000  0.125000  0.750000  1
  Mn  Mn4  1  0.875000  0.125000  0.250000  1
  Mn  Mn5  1  0.375000  0.125000  0.250000  1
  Mn  Mn6  1  0.875000  0.625000  0.750000  1
  Mn  Mn7  1  0.875000  0.125000  0.750000  1
  O  O8  1  0.644958  0.375802  0.269156  1
  O  O9  1  0.125802  0.356645  0.230844  1
  O  O10  1  0.105042  0.874198  0.230844  1
  O  O11  1  0.643355  0.874198  0.769156  1
  O  O12  1  0.624198  0.355042  0.730844  1
  O  O13  1  0.624198  0.893355  0.269156  1
  O  O14  1  0.125802  0.894958  0.769156  1
  O  O15  1  0.106645  0.375802  0.730844  1
