# generated using pymatgen
data_Cs2AgSbS4
_symmetry_space_group_name_H-M   'P 1'
_cell_length_a   7.09673144
_cell_length_b   7.54271176
_cell_length_c   11.28954147
_cell_angle_alpha   73.20390829
_cell_angle_beta   75.56293205
_cell_angle_gamma   72.07257223
_symmetry_Int_Tables_number   1
_chemical_formula_structural   Cs2AgSbS4
_chemical_formula_sum   'Cs4 Ag2 Sb2 S8'
_cell_volume   541.84483718
_cell_formula_units_Z   2
loop_
 _symmetry_equiv_pos_site_id
 _symmetry_equiv_pos_as_xyz
  1  'x, y, z'
loop_
 _atom_site_type_symbol
 _atom_site_label
 _atom_site_symmetry_multiplicity
 _atom_site_fract_x
 _atom_site_fract_y
 _atom_site_fract_z
 _atom_site_occupancy
  Cs  Cs0  1  0.717400  0.756281  0.594582  1
  Cs  Cs1  1  0.282600  0.243719  0.405418  1
  Cs  Cs2  1  0.764466  0.510517  0.188402  1
  Cs  Cs3  1  0.235534  0.489483  0.811598  1
  Ag  Ag4  1  0.621159  0.091100  0.072431  1
  Ag  Ag5  1  0.378841  0.908900  0.927569  1
  Sb  Sb6  1  0.869629  0.132217  0.764371  1
  Sb  Sb7  1  0.130371  0.867783  0.235629  1
  S  S8  1  0.265053  0.638553  0.110338  1
  S  S9  1  0.771522  0.948326  0.269385  1
  S  S10  1  0.754763  0.261522  0.571903  1
  S  S11  1  0.734947  0.361447  0.889662  1
  S  S12  1  0.238387  0.148767  0.117959  1
  S  S13  1  0.245237  0.738478  0.428097  1
  S  S14  1  0.761613  0.851233  0.882041  1
  S  S15  1  0.228478  0.051674  0.730615  1
