# generated using pymatgen
data_La3(SiNi)4
_symmetry_space_group_name_H-M   'P 1'
_cell_length_a   12.15529090
_cell_length_b   12.15529090
_cell_length_c   12.15529090
_cell_angle_alpha   160.49062565
_cell_angle_beta   160.23560779
_cell_angle_gamma   27.91073203
_symmetry_Int_Tables_number   1
_chemical_formula_structural   La3(SiNi)4
_chemical_formula_sum   'La3 Si4 Ni4'
_cell_volume   202.72647898
_cell_formula_units_Z   1
loop_
 _symmetry_equiv_pos_site_id
 _symmetry_equiv_pos_as_xyz
  1  'x, y, z'
loop_
 _atom_site_type_symbol
 _atom_site_label
 _atom_site_symmetry_multiplicity
 _atom_site_fract_x
 _atom_site_fract_y
 _atom_site_fract_z
 _atom_site_occupancy
  La  La0  1  0.149990  0.649990  0.500000  1
  La  La1  1  0.000000  0.000000  0.000000  1
  La  La2  1  0.850010  0.350010  0.500000  1
  Si  Si3  1  0.299109  0.799109  0.500000  1
  Si  Si4  1  0.551761  0.551761  0.000000  1
  Si  Si5  1  0.448239  0.448239  0.000000  1
  Si  Si6  1  0.700891  0.200891  0.500000  1
  Ni  Ni7  1  0.751498  0.751498  0.000000  1
  Ni  Ni8  1  0.248502  0.248502  0.000000  1
  Ni  Ni9  1  0.400421  0.900421  0.500000  1
  Ni  Ni10  1  0.599579  0.099579  0.500000  1
