# generated using pymatgen
data_CaCu
_symmetry_space_group_name_H-M   'P 1'
_cell_length_a   4.26325503
_cell_length_b   5.80624791
_cell_length_c   38.38016680
_cell_angle_alpha   90.00000000
_cell_angle_beta   90.00000000
_cell_angle_gamma   90.00000000
_symmetry_Int_Tables_number   1
_chemical_formula_structural   CaCu
_chemical_formula_sum   'Ca20 Cu20'
_cell_volume   950.04405791
_cell_formula_units_Z   20
loop_
 _symmetry_equiv_pos_site_id
 _symmetry_equiv_pos_as_xyz
  1  'x, y, z'
loop_
 _atom_site_type_symbol
 _atom_site_label
 _atom_site_symmetry_multiplicity
 _atom_site_fract_x
 _atom_site_fract_y
 _atom_site_fract_z
 _atom_site_occupancy
  Ca  Ca0  1  0.750000  0.372284  0.535802  1
  Ca  Ca1  1  0.250000  0.376596  0.764309  1
  Ca  Ca2  1  0.250000  0.627716  0.464198  1
  Ca  Ca3  1  0.750000  0.372288  0.135862  1
  Ca  Ca4  1  0.250000  0.627712  0.864138  1
  Ca  Ca5  1  0.250000  0.123404  0.264309  1
  Ca  Ca6  1  0.750000  0.127712  0.635862  1
  Ca  Ca7  1  0.250000  0.872284  0.964198  1
  Ca  Ca8  1  0.250000  0.624194  0.664119  1
  Ca  Ca9  1  0.750000  0.623404  0.235691  1
  Ca  Ca10  1  0.250000  0.872288  0.364138  1
  Ca  Ca11  1  0.750000  0.876596  0.735691  1
  Ca  Ca12  1  0.750000  0.372238  0.936005  1
  Ca  Ca13  1  0.250000  0.875806  0.164119  1
  Ca  Ca14  1  0.750000  0.127762  0.436005  1
  Ca  Ca15  1  0.750000  0.124194  0.835881  1
  Ca  Ca16  1  0.250000  0.627762  0.063995  1
  Ca  Ca17  1  0.750000  0.127716  0.035802  1
  Ca  Ca18  1  0.750000  0.375806  0.335881  1
  Ca  Ca19  1  0.250000  0.872238  0.563995  1
  Cu  Cu20  1  0.250000  0.393285  0.593971  1
  Cu  Cu21  1  0.250000  0.857552  0.793785  1
  Cu  Cu22  1  0.250000  0.642448  0.293785  1
  Cu  Cu23  1  0.750000  0.855032  0.306056  1
  Cu  Cu24  1  0.750000  0.893298  0.106229  1
  Cu  Cu25  1  0.750000  0.357552  0.706215  1
  Cu  Cu26  1  0.250000  0.106702  0.893771  1
  Cu  Cu27  1  0.750000  0.606715  0.406029  1
  Cu  Cu28  1  0.750000  0.893285  0.906029  1
  Cu  Cu29  1  0.750000  0.606702  0.606229  1
  Cu  Cu30  1  0.750000  0.606588  0.005923  1
  Cu  Cu31  1  0.250000  0.106715  0.093971  1
  Cu  Cu32  1  0.750000  0.644968  0.806056  1
  Cu  Cu33  1  0.250000  0.106588  0.494077  1
  Cu  Cu34  1  0.750000  0.893412  0.505923  1
  Cu  Cu35  1  0.250000  0.393298  0.393771  1
  Cu  Cu36  1  0.250000  0.393412  0.994077  1
  Cu  Cu37  1  0.250000  0.144968  0.693944  1
  Cu  Cu38  1  0.250000  0.355032  0.193944  1
  Cu  Cu39  1  0.750000  0.142448  0.206215  1
