# generated using pymatgen
data_BaY2CuO5
_symmetry_space_group_name_H-M   'P 1'
_cell_length_a   5.71688539
_cell_length_b   7.24591718
_cell_length_c   12.28199811
_cell_angle_alpha   90.00000000
_cell_angle_beta   90.00000000
_cell_angle_gamma   90.00000000
_symmetry_Int_Tables_number   1
_chemical_formula_structural   BaY2CuO5
_chemical_formula_sum   'Ba4 Y8 Cu4 O20'
_cell_volume   508.77044848
_cell_formula_units_Z   4
loop_
 _symmetry_equiv_pos_site_id
 _symmetry_equiv_pos_as_xyz
  1  'x, y, z'
loop_
 _atom_site_type_symbol
 _atom_site_label
 _atom_site_symmetry_multiplicity
 _atom_site_fract_x
 _atom_site_fract_y
 _atom_site_fract_z
 _atom_site_occupancy
  Ba  Ba0  1  0.750000  0.069839  0.095266  1
  Ba  Ba1  1  0.250000  0.930161  0.904734  1
  Ba  Ba2  1  0.250000  0.569839  0.404734  1
  Ba  Ba3  1  0.750000  0.430161  0.595266  1
  Y  Y4  1  0.250000  0.114367  0.287371  1
  Y  Y5  1  0.750000  0.885633  0.712629  1
  Y  Y6  1  0.750000  0.614367  0.212629  1
  Y  Y7  1  0.250000  0.385633  0.787371  1
  Y  Y8  1  0.250000  0.396644  0.074121  1
  Y  Y9  1  0.750000  0.603356  0.925879  1
  Y  Y10  1  0.750000  0.896644  0.425879  1
  Y  Y11  1  0.250000  0.103356  0.574121  1
  Cu  Cu12  1  0.750000  0.283722  0.339555  1
  Cu  Cu13  1  0.250000  0.716278  0.660445  1
  Cu  Cu14  1  0.250000  0.783722  0.160445  1
  Cu  Cu15  1  0.750000  0.216278  0.839555  1
  O  O16  1  0.506574  0.163292  0.432312  1
  O  O17  1  0.006574  0.836708  0.567688  1
  O  O18  1  0.493426  0.663292  0.067688  1
  O  O19  1  0.993426  0.336708  0.932312  1
  O  O20  1  0.493426  0.836708  0.567688  1
  O  O21  1  0.993426  0.163292  0.432312  1
  O  O22  1  0.506574  0.336708  0.932312  1
  O  O23  1  0.006574  0.663292  0.067688  1
  O  O24  1  0.504193  0.355878  0.228006  1
  O  O25  1  0.004193  0.644122  0.771994  1
  O  O26  1  0.495807  0.855878  0.271994  1
  O  O27  1  0.995807  0.144122  0.728006  1
  O  O28  1  0.495807  0.644122  0.771994  1
  O  O29  1  0.995807  0.355878  0.228006  1
  O  O30  1  0.504193  0.144122  0.728006  1
  O  O31  1  0.004193  0.855878  0.271994  1
  O  O32  1  0.250000  0.083838  0.100017  1
  O  O33  1  0.750000  0.916162  0.899983  1
  O  O34  1  0.750000  0.583838  0.399983  1
  O  O35  1  0.250000  0.416162  0.600017  1
