# generated using pymatgen
data_SbS(BrF2)3
_symmetry_space_group_name_H-M   'P 1'
_cell_length_a   8.36338193
_cell_length_b   9.81167232
_cell_length_c   12.69626210
_cell_angle_alpha   90.00000000
_cell_angle_beta   96.71890677
_cell_angle_gamma   90.00000000
_symmetry_Int_Tables_number   1
_chemical_formula_structural   SbS(BrF2)3
_chemical_formula_sum   'Sb4 S4 Br12 F24'
_cell_volume   1034.68430836
_cell_formula_units_Z   4
loop_
 _symmetry_equiv_pos_site_id
 _symmetry_equiv_pos_as_xyz
  1  'x, y, z'
loop_
 _atom_site_type_symbol
 _atom_site_label
 _atom_site_symmetry_multiplicity
 _atom_site_fract_x
 _atom_site_fract_y
 _atom_site_fract_z
 _atom_site_occupancy
  Sb  Sb0  1  0.795477  0.727748  0.438710  1
  Sb  Sb1  1  0.795477  0.772252  0.938710  1
  Sb  Sb2  1  0.204523  0.227748  0.061290  1
  Sb  Sb3  1  0.204523  0.272252  0.561290  1
  S  S4  1  0.793498  0.196917  0.787287  1
  S  S5  1  0.793498  0.303083  0.287287  1
  S  S6  1  0.206502  0.803083  0.212713  1
  S  S7  1  0.206502  0.696917  0.712713  1
  Br  Br8  1  0.577696  0.189405  0.869361  1
  Br  Br9  1  0.262970  0.566007  0.851622  1
  Br  Br10  1  0.422304  0.810595  0.130639  1
  Br  Br11  1  0.793295  0.403591  0.724668  1
  Br  Br12  1  0.737030  0.066007  0.648378  1
  Br  Br13  1  0.737030  0.433993  0.148378  1
  Br  Br14  1  0.422304  0.689405  0.630639  1
  Br  Br15  1  0.793295  0.096409  0.224668  1
  Br  Br16  1  0.206705  0.596409  0.275332  1
  Br  Br17  1  0.206705  0.903591  0.775332  1
  Br  Br18  1  0.262970  0.933993  0.351622  1
  Br  Br19  1  0.577696  0.310595  0.369361  1
  F  F20  1  0.121977  0.052114  0.094254  1
  F  F21  1  0.588597  0.821097  0.867499  1
  F  F22  1  0.121977  0.447886  0.594254  1
  F  F23  1  0.269918  0.155987  0.931007  1
  F  F24  1  0.000167  0.278372  0.986858  1
  F  F25  1  0.708376  0.903028  0.472316  1
  F  F26  1  0.708376  0.596972  0.972316  1
  F  F27  1  0.411403  0.178903  0.132501  1
  F  F28  1  0.269918  0.344013  0.431007  1
  F  F29  1  0.291624  0.403028  0.027684  1
  F  F30  1  0.730082  0.655987  0.568993  1
  F  F31  1  0.588597  0.678903  0.367499  1
  F  F32  1  0.730082  0.844013  0.068993  1
  F  F33  1  0.859710  0.700009  0.809436  1
  F  F34  1  0.999833  0.778372  0.513142  1
  F  F35  1  0.878023  0.947886  0.905746  1
  F  F36  1  0.000167  0.221628  0.486858  1
  F  F37  1  0.140290  0.200009  0.690564  1
  F  F38  1  0.140290  0.299991  0.190564  1
  F  F39  1  0.999833  0.721628  0.013142  1
  F  F40  1  0.291624  0.096972  0.527684  1
  F  F41  1  0.411403  0.321097  0.632501  1
  F  F42  1  0.878023  0.552114  0.405746  1
  F  F43  1  0.859710  0.799991  0.309436  1
