# generated using pymatgen
data_Na24In5O15
_symmetry_space_group_name_H-M   'P 1'
_cell_length_a   9.76182420
_cell_length_b   9.76182420
_cell_length_c   9.76182420
_cell_angle_alpha   109.47122063
_cell_angle_beta   109.47122063
_cell_angle_gamma   109.47122063
_symmetry_Int_Tables_number   1
_chemical_formula_structural   Na24In5O15
_chemical_formula_sum   'Na24 In5 O15'
_cell_volume   716.09568284
_cell_formula_units_Z   1
loop_
 _symmetry_equiv_pos_site_id
 _symmetry_equiv_pos_as_xyz
  1  'x, y, z'
loop_
 _atom_site_type_symbol
 _atom_site_label
 _atom_site_symmetry_multiplicity
 _atom_site_fract_x
 _atom_site_fract_y
 _atom_site_fract_z
 _atom_site_occupancy
  Na  Na0  1  0.547454  0.265324  0.547454  1
  Na  Na1  1  0.215802  0.433218  0.000000  1
  Na  Na2  1  0.215802  0.000000  0.433218  1
  Na  Na3  1  0.782584  0.566782  0.566782  1
  Na  Na4  1  0.433218  0.000000  0.215802  1
  Na  Na5  1  0.566782  0.566782  0.782584  1
  Na  Na6  1  0.000000  0.215802  0.433218  1
  Na  Na7  1  0.217416  0.784198  0.784198  1
  Na  Na8  1  0.566782  0.782584  0.566782  1
  Na  Na9  1  0.784198  0.217416  0.784198  1
  Na  Na10  1  0.717869  0.452546  0.000000  1
  Na  Na11  1  0.452546  0.000000  0.717869  1
  Na  Na12  1  0.000000  0.717869  0.452546  1
  Na  Na13  1  0.282131  0.734677  0.282131  1
  Na  Na14  1  0.547454  0.547454  0.265323  1
  Na  Na15  1  0.000000  0.433218  0.215802  1
  Na  Na16  1  0.734677  0.282131  0.282131  1
  Na  Na17  1  0.000000  0.452546  0.717869  1
  Na  Na18  1  0.433218  0.215802  1.000000  1
  Na  Na19  1  0.784198  0.784198  0.217416  1
  Na  Na20  1  0.452546  0.717869  1.000000  1
  Na  Na21  1  0.282131  0.282131  0.734677  1
  Na  Na22  1  0.265324  0.547454  0.547454  1
  Na  Na23  1  0.717869  0.000000  0.452546  1
  In  In24  1  0.000000  1.000000  0.712607  1
  In  In25  1  0.000000  0.712607  1.000000  1
  In  In26  1  0.287393  0.287393  0.287393  1
  In  In27  1  0.000000  0.000000  0.000000  1
  In  In28  1  0.712607  0.000000  0.000000  1
  O  O29  1  0.307890  0.307890  0.521570  1
  O  O30  1  0.213680  0.692110  0.000000  1
  O  O31  1  0.500000  0.000000  0.500000  1
  O  O32  1  0.213680  0.000000  0.692110  1
  O  O33  1  0.000000  0.213680  0.692110  1
  O  O34  1  0.692110  0.000000  0.213680  1
  O  O35  1  0.478430  0.786320  0.786320  1
  O  O36  1  0.307890  0.521570  0.307890  1
  O  O37  1  0.692110  0.213680  1.000000  1
  O  O38  1  0.786320  0.478430  0.786320  1
  O  O39  1  0.521570  0.307890  0.307890  1
  O  O40  1  0.786320  0.786320  0.478430  1
  O  O41  1  0.000000  0.692110  0.213680  1
  O  O42  1  0.500000  0.500000  1.000000  1
  O  O43  1  0.000000  0.500000  0.500000  1
