# generated using pymatgen
data_LiCoP2O7
_symmetry_space_group_name_H-M   'P 1'
_cell_length_a   8.11291317
_cell_length_b   8.11291317
_cell_length_c   8.68611383
_cell_angle_alpha   69.01437025
_cell_angle_beta   110.98562975
_cell_angle_gamma   143.83272003
_symmetry_Int_Tables_number   1
_chemical_formula_structural   LiCoP2O7
_chemical_formula_sum   'Li2 Co2 P4 O14'
_cell_volume   312.53429893
_cell_formula_units_Z   2
loop_
 _symmetry_equiv_pos_site_id
 _symmetry_equiv_pos_as_xyz
  1  'x, y, z'
loop_
 _atom_site_type_symbol
 _atom_site_label
 _atom_site_symmetry_multiplicity
 _atom_site_fract_x
 _atom_site_fract_y
 _atom_site_fract_z
 _atom_site_occupancy
  Li  Li0  1  0.470242  0.868802  0.956654  1
  Li  Li1  1  0.131198  0.529758  0.456654  1
  Co  Co2  1  0.488573  0.487171  0.503543  1
  Co  Co3  1  0.512829  0.511427  0.003543  1
  P  P4  1  0.757914  0.951333  0.689079  1
  P  P5  1  0.048667  0.242086  0.189079  1
  P  P6  1  0.255789  0.057207  0.307904  1
  P  P7  1  0.942793  0.744211  0.807904  1
  O  O8  1  0.190065  0.383275  0.350488  1
  O  O9  1  0.411810  0.221360  0.151636  1
  O  O10  1  0.018728  0.015552  0.744776  1
  O  O11  1  0.537982  0.723046  0.565875  1
  O  O12  1  0.439900  0.254691  0.443217  1
  O  O13  1  0.869837  0.219413  0.616688  1
  O  O14  1  0.207155  0.847138  0.866583  1
  O  O15  1  0.616725  0.809935  0.850488  1
  O  O16  1  0.778640  0.588190  0.651636  1
  O  O17  1  0.152862  0.792845  0.366583  1
  O  O18  1  0.745309  0.560100  0.943217  1
  O  O19  1  0.276954  0.462018  0.065875  1
  O  O20  1  0.984448  0.981272  0.244776  1
  O  O21  1  0.780587  0.130163  0.116688  1
