# generated using pymatgen
data_Yb3CoSn6
_symmetry_space_group_name_H-M   'P 1'
_cell_length_a   8.34828694
_cell_length_b   8.34828694
_cell_length_c   13.27333743
_cell_angle_alpha   90.00000000
_cell_angle_beta   90.00000000
_cell_angle_gamma   147.07138443
_symmetry_Int_Tables_number   1
_chemical_formula_structural   Yb3CoSn6
_chemical_formula_sum   'Yb6 Co2 Sn12'
_cell_volume   502.86255803
_cell_formula_units_Z   2
loop_
 _symmetry_equiv_pos_site_id
 _symmetry_equiv_pos_as_xyz
  1  'x, y, z'
loop_
 _atom_site_type_symbol
 _atom_site_label
 _atom_site_symmetry_multiplicity
 _atom_site_fract_x
 _atom_site_fract_y
 _atom_site_fract_z
 _atom_site_occupancy
  Yb  Yb0  1  0.901813  0.098187  0.097674  1
  Yb  Yb1  1  0.098187  0.901813  0.597674  1
  Yb  Yb2  1  0.901917  0.098083  0.750000  1
  Yb  Yb3  1  0.098187  0.901813  0.902326  1
  Yb  Yb4  1  0.098083  0.901917  0.250000  1
  Yb  Yb5  1  0.901813  0.098187  0.402326  1
  Co  Co6  1  0.294887  0.705113  0.250000  1
  Co  Co7  1  0.705113  0.294887  0.750000  1
  Sn  Sn8  1  0.755207  0.244793  0.570654  1
  Sn  Sn9  1  0.426679  0.573321  0.576859  1
  Sn  Sn10  1  0.573321  0.426679  0.423141  1
  Sn  Sn11  1  0.731328  0.268672  0.250000  1
  Sn  Sn12  1  0.268672  0.731328  0.750000  1
  Sn  Sn13  1  0.244793  0.755207  0.070654  1
  Sn  Sn14  1  0.244793  0.755207  0.429346  1
  Sn  Sn15  1  0.573321  0.426679  0.076859  1
  Sn  Sn16  1  0.453744  0.546256  0.250000  1
  Sn  Sn17  1  0.546256  0.453744  0.750000  1
  Sn  Sn18  1  0.755207  0.244793  0.929346  1
  Sn  Sn19  1  0.426679  0.573321  0.923141  1
