# generated using pymatgen
data_Na2Ca(PO3)4
_symmetry_space_group_name_H-M   'P 1'
_cell_length_a   9.77702684
_cell_length_b   9.77702684
_cell_length_c   5.00971491
_cell_angle_alpha   90.00000000
_cell_angle_beta   90.00000000
_cell_angle_gamma   90.00000000
_symmetry_Int_Tables_number   1
_chemical_formula_structural   Na2Ca(PO3)4
_chemical_formula_sum   'Na4 Ca2 P8 O24'
_cell_volume   478.87991986
_cell_formula_units_Z   2
loop_
 _symmetry_equiv_pos_site_id
 _symmetry_equiv_pos_as_xyz
  1  'x, y, z'
loop_
 _atom_site_type_symbol
 _atom_site_label
 _atom_site_symmetry_multiplicity
 _atom_site_fract_x
 _atom_site_fract_y
 _atom_site_fract_z
 _atom_site_occupancy
  Na  Na0  1  0.750000  0.750000  0.500000  1
  Na  Na1  1  0.750000  0.250000  0.500000  1
  Na  Na2  1  0.250000  0.750000  0.500000  1
  Na  Na3  1  0.250000  0.250000  0.500000  1
  Ca  Ca4  1  0.000000  0.000000  0.500000  1
  Ca  Ca5  1  0.500000  0.500000  0.500000  1
  P  P6  1  0.000000  0.282528  0.000000  1
  P  P7  1  0.282528  0.000000  0.000000  1
  P  P8  1  0.717472  0.000000  0.000000  1
  P  P9  1  0.000000  0.717472  0.000000  1
  P  P10  1  0.500000  0.217472  0.000000  1
  P  P11  1  0.217472  0.500000  0.000000  1
  P  P12  1  0.782528  0.500000  0.000000  1
  P  P13  1  0.500000  0.782528  0.000000  1
  O  O14  1  0.112963  0.387037  0.128155  1
  O  O15  1  0.387037  0.887037  0.128155  1
  O  O16  1  0.612963  0.112963  0.128155  1
  O  O17  1  0.887037  0.612963  0.128155  1
  O  O18  1  0.887037  0.387037  0.871845  1
  O  O19  1  0.112963  0.612963  0.871845  1
  O  O20  1  0.387037  0.112963  0.871845  1
  O  O21  1  0.612963  0.887037  0.871845  1
  O  O22  1  0.792726  0.940260  0.232838  1
  O  O23  1  0.940260  0.207274  0.232838  1
  O  O24  1  0.059740  0.792726  0.232838  1
  O  O25  1  0.207274  0.059740  0.232838  1
  O  O26  1  0.207274  0.940260  0.767162  1
  O  O27  1  0.792726  0.059740  0.767162  1
  O  O28  1  0.940260  0.792726  0.767162  1
  O  O29  1  0.059740  0.207274  0.767162  1
  O  O30  1  0.707274  0.559740  0.767162  1
  O  O31  1  0.559740  0.292726  0.767162  1
  O  O32  1  0.440260  0.707274  0.767162  1
  O  O33  1  0.292726  0.440260  0.767162  1
  O  O34  1  0.292726  0.559740  0.232838  1
  O  O35  1  0.707274  0.440260  0.232838  1
  O  O36  1  0.559740  0.707274  0.232838  1
  O  O37  1  0.440260  0.292726  0.232838  1
