# generated using pymatgen
data_CdGe(BiO3)2
_symmetry_space_group_name_H-M   'P 1'
_cell_length_a   5.70901739
_cell_length_b   10.35137545
_cell_length_c   10.58609873
_cell_angle_alpha   90.00000000
_cell_angle_beta   90.00000000
_cell_angle_gamma   90.00000000
_symmetry_Int_Tables_number   1
_chemical_formula_structural   CdGe(BiO3)2
_chemical_formula_sum   'Cd4 Ge4 Bi8 O24'
_cell_volume   625.59802203
_cell_formula_units_Z   4
loop_
 _symmetry_equiv_pos_site_id
 _symmetry_equiv_pos_as_xyz
  1  'x, y, z'
loop_
 _atom_site_type_symbol
 _atom_site_label
 _atom_site_symmetry_multiplicity
 _atom_site_fract_x
 _atom_site_fract_y
 _atom_site_fract_z
 _atom_site_occupancy
  Cd  Cd0  1  0.250000  0.386113  0.500000  1
  Cd  Cd1  1  0.750000  0.613887  0.500000  1
  Cd  Cd2  1  0.750000  0.113887  0.000000  1
  Cd  Cd3  1  0.250000  0.886113  0.000000  1
  Ge  Ge4  1  0.250000  0.846354  0.500000  1
  Ge  Ge5  1  0.750000  0.653646  0.000000  1
  Ge  Ge6  1  0.750000  0.153646  0.500000  1
  Ge  Ge7  1  0.250000  0.346354  0.000000  1
  Bi  Bi8  1  0.214943  0.607413  0.241178  1
  Bi  Bi9  1  0.785057  0.392587  0.758822  1
  Bi  Bi10  1  0.714943  0.392587  0.241178  1
  Bi  Bi11  1  0.214943  0.107413  0.258822  1
  Bi  Bi12  1  0.285057  0.607413  0.758822  1
  Bi  Bi13  1  0.785057  0.892587  0.741178  1
  Bi  Bi14  1  0.285057  0.107413  0.741178  1
  Bi  Bi15  1  0.714943  0.892587  0.258822  1
  O  O16  1  0.125035  0.944192  0.621812  1
  O  O17  1  0.965000  0.249629  0.578486  1
  O  O18  1  0.013462  0.470357  0.353402  1
  O  O19  1  0.035000  0.750371  0.421514  1
  O  O20  1  0.625035  0.055808  0.621812  1
  O  O21  1  0.986538  0.029643  0.853402  1
  O  O22  1  0.513462  0.029643  0.146598  1
  O  O23  1  0.486538  0.970357  0.853402  1
  O  O24  1  0.874965  0.555808  0.121812  1
  O  O25  1  0.374965  0.944192  0.378188  1
  O  O26  1  0.535000  0.249629  0.421514  1
  O  O27  1  0.986538  0.529643  0.646598  1
  O  O28  1  0.465000  0.750371  0.578486  1
  O  O29  1  0.486538  0.470357  0.646598  1
  O  O30  1  0.874965  0.055808  0.378188  1
  O  O31  1  0.465000  0.250371  0.921514  1
  O  O32  1  0.035000  0.250371  0.078486  1
  O  O33  1  0.013462  0.970357  0.146598  1
  O  O34  1  0.513462  0.529643  0.353402  1
  O  O35  1  0.374965  0.444192  0.121812  1
  O  O36  1  0.125035  0.444192  0.878188  1
  O  O37  1  0.965000  0.749629  0.921514  1
  O  O38  1  0.625035  0.555808  0.878188  1
  O  O39  1  0.535000  0.749629  0.078486  1
