# generated using pymatgen
data_CaAl2B2O7
_symmetry_space_group_name_H-M   'P 1'
_cell_length_a   15.96034727
_cell_length_b   15.96034727
_cell_length_c   15.96034727
_cell_angle_alpha   17.52726628
_cell_angle_beta   17.52726628
_cell_angle_gamma   17.52726628
_symmetry_Int_Tables_number   1
_chemical_formula_structural   CaAl2B2O7
_chemical_formula_sum   'Ca2 Al4 B4 O14'
_cell_volume   321.82830057
_cell_formula_units_Z   2
loop_
 _symmetry_equiv_pos_site_id
 _symmetry_equiv_pos_as_xyz
  1  'x, y, z'
loop_
 _atom_site_type_symbol
 _atom_site_label
 _atom_site_symmetry_multiplicity
 _atom_site_fract_x
 _atom_site_fract_y
 _atom_site_fract_z
 _atom_site_occupancy
  Ca  Ca0  1  0.000000  0.000000  0.000000  1
  Ca  Ca1  1  0.500000  0.500000  0.500000  1
  Al  Al2  1  0.714146  0.714146  0.714146  1
  Al  Al3  1  0.214146  0.214146  0.214146  1
  Al  Al4  1  0.285854  0.285854  0.285854  1
  Al  Al5  1  0.785854  0.785854  0.785854  1
  B  B6  1  0.365846  0.365846  0.365846  1
  B  B7  1  0.134154  0.134154  0.134154  1
  B  B8  1  0.634154  0.634154  0.634154  1
  B  B9  1  0.865846  0.865846  0.865846  1
  O  O10  1  0.563519  0.902963  0.128176  1
  O  O11  1  0.402963  0.063519  0.628176  1
  O  O12  1  0.597037  0.936481  0.371824  1
  O  O13  1  0.097037  0.871824  0.436481  1
  O  O14  1  0.436481  0.097037  0.871824  1
  O  O15  1  0.128176  0.563519  0.902963  1
  O  O16  1  0.628176  0.402963  0.063519  1
  O  O17  1  0.371824  0.597037  0.936481  1
  O  O18  1  0.063519  0.628176  0.402963  1
  O  O19  1  0.871824  0.436481  0.097037  1
  O  O20  1  0.902963  0.128176  0.563519  1
  O  O21  1  0.750000  0.750000  0.750000  1
  O  O22  1  0.936481  0.371824  0.597037  1
  O  O23  1  0.250000  0.250000  0.250000  1
