# generated using pymatgen
data_Na5Y(CO3)4
_symmetry_space_group_name_H-M   'P 1'
_cell_length_a   8.87630620
_cell_length_b   10.20851696
_cell_length_c   12.36584079
_cell_angle_alpha   90.00000000
_cell_angle_beta   90.26813303
_cell_angle_gamma   90.00000000
_symmetry_Int_Tables_number   1
_chemical_formula_structural   Na5Y(CO3)4
_chemical_formula_sum   'Na20 Y4 C16 O48'
_cell_volume   1120.50506779
_cell_formula_units_Z   4
loop_
 _symmetry_equiv_pos_site_id
 _symmetry_equiv_pos_as_xyz
  1  'x, y, z'
loop_
 _atom_site_type_symbol
 _atom_site_label
 _atom_site_symmetry_multiplicity
 _atom_site_fract_x
 _atom_site_fract_y
 _atom_site_fract_z
 _atom_site_occupancy
  Na  Na0  1  0.453339  0.625538  0.925384  1
  Na  Na1  1  0.195488  0.374307  0.211572  1
  Na  Na2  1  0.987021  0.823119  0.634503  1
  Na  Na3  1  0.576766  0.920284  0.401293  1
  Na  Na4  1  0.584455  0.872994  0.105119  1
  Na  Na5  1  0.695488  0.125693  0.211572  1
  Na  Na6  1  0.423234  0.079716  0.598707  1
  Na  Na7  1  0.304512  0.874307  0.788428  1
  Na  Na8  1  0.084455  0.627006  0.105119  1
  Na  Na9  1  0.487021  0.676881  0.634503  1
  Na  Na10  1  0.046661  0.125538  0.074616  1
  Na  Na11  1  0.415545  0.127006  0.894881  1
  Na  Na12  1  0.076766  0.579716  0.401293  1
  Na  Na13  1  0.923234  0.420284  0.598707  1
  Na  Na14  1  0.953339  0.874462  0.925384  1
  Na  Na15  1  0.012979  0.176881  0.365497  1
  Na  Na16  1  0.804512  0.625693  0.788428  1
  Na  Na17  1  0.512979  0.323119  0.365497  1
  Na  Na18  1  0.546661  0.374462  0.074616  1
  Na  Na19  1  0.915545  0.372994  0.894881  1
  Y  Y20  1  0.285351  0.376302  0.723603  1
  Y  Y21  1  0.714649  0.623698  0.276397  1
  Y  Y22  1  0.785351  0.123698  0.723603  1
  Y  Y23  1  0.214649  0.876302  0.276397  1
  C  C24  1  0.261978  0.865770  0.503736  1
  C  C25  1  0.238022  0.365770  0.496264  1
  C  C26  1  0.142682  0.618419  0.781694  1
  C  C27  1  0.244728  0.391529  0.986789  1
  C  C28  1  0.888514  0.866328  0.277721  1
  C  C29  1  0.111486  0.133672  0.722279  1
  C  C30  1  0.738022  0.134230  0.496264  1
  C  C31  1  0.761978  0.634230  0.503736  1
  C  C32  1  0.388514  0.633672  0.277721  1
  C  C33  1  0.857318  0.381581  0.218306  1
  C  C34  1  0.744728  0.108471  0.986789  1
  C  C35  1  0.611486  0.366328  0.722279  1
  C  C36  1  0.357318  0.118419  0.218306  1
  C  C37  1  0.255272  0.891529  0.013211  1
  C  C38  1  0.642682  0.881581  0.781694  1
  C  C39  1  0.755272  0.608471  0.013211  1
  O  O40  1  0.380088  0.836698  0.986872  1
  O  O41  1  0.176127  0.847540  0.096086  1
  O  O42  1  0.676127  0.652460  0.096086  1
  O  O43  1  0.743546  0.868001  0.268496  1
  O  O44  1  0.457069  0.746945  0.271187  1
  O  O45  1  0.957069  0.753055  0.271187  1
  O  O46  1  0.564085  0.989827  0.777180  1
  O  O47  1  0.349503  0.298998  0.538038  1
  O  O48  1  0.756454  0.368001  0.731504  1
  O  O49  1  0.200838  0.988557  0.957502  1
  O  O50  1  0.700838  0.511443  0.957502  1
  O  O51  1  0.935915  0.489827  0.222820  1
  O  O52  1  0.968105  0.970219  0.293094  1
  O  O53  1  0.688834  0.151776  0.400139  1
  O  O54  1  0.188834  0.348224  0.400139  1
  O  O55  1  0.150497  0.798998  0.461962  1
  O  O56  1  0.650497  0.701002  0.461962  1
  O  O57  1  0.256454  0.131999  0.731504  1
  O  O58  1  0.711048  0.394250  0.229126  1
  O  O59  1  0.799162  0.011443  0.042498  1
  O  O60  1  0.323728  0.954812  0.440359  1
  O  O61  1  0.064085  0.510173  0.777180  1
  O  O62  1  0.468105  0.529781  0.293094  1
  O  O63  1  0.849503  0.201002  0.538038  1
  O  O64  1  0.081446  0.730966  0.793960  1
  O  O65  1  0.418554  0.230966  0.206040  1
  O  O66  1  0.676272  0.045188  0.559641  1
  O  O67  1  0.880088  0.663302  0.986872  1
  O  O68  1  0.299162  0.488557  0.042498  1
  O  O69  1  0.823873  0.152460  0.903914  1
  O  O70  1  0.311166  0.848224  0.599861  1
  O  O71  1  0.788952  0.894250  0.770874  1
  O  O72  1  0.581446  0.769034  0.793960  1
  O  O73  1  0.031895  0.029781  0.706906  1
  O  O74  1  0.243546  0.631999  0.268496  1
  O  O75  1  0.619912  0.163302  0.013128  1
  O  O76  1  0.435915  0.010173  0.222820  1
  O  O77  1  0.811166  0.651776  0.599861  1
  O  O78  1  0.323873  0.347540  0.903914  1
  O  O79  1  0.288952  0.605750  0.770874  1
  O  O80  1  0.918554  0.269034  0.206040  1
  O  O81  1  0.176272  0.454812  0.559641  1
  O  O82  1  0.531895  0.470219  0.706906  1
  O  O83  1  0.542931  0.253055  0.728813  1
  O  O84  1  0.823728  0.545188  0.440359  1
  O  O85  1  0.119912  0.336698  0.013128  1
  O  O86  1  0.042931  0.246945  0.728813  1
  O  O87  1  0.211048  0.105750  0.229126  1
