# generated using pymatgen
data_Y2InNi2
_symmetry_space_group_name_H-M   'P 1'
_cell_length_a   7.39432127
_cell_length_b   7.39432127
_cell_length_c   3.64037133
_cell_angle_alpha   90.00000000
_cell_angle_beta   90.00000000
_cell_angle_gamma   148.78368757
_symmetry_Int_Tables_number   1
_chemical_formula_structural   Y2InNi2
_chemical_formula_sum   'Y2 In1 Ni2'
_cell_volume   103.15702750
_cell_formula_units_Z   1
loop_
 _symmetry_equiv_pos_site_id
 _symmetry_equiv_pos_as_xyz
  1  'x, y, z'
loop_
 _atom_site_type_symbol
 _atom_site_label
 _atom_site_symmetry_multiplicity
 _atom_site_fract_x
 _atom_site_fract_y
 _atom_site_fract_z
 _atom_site_occupancy
  Y  Y0  1  0.362512  0.637488  0.500000  1
  Y  Y1  1  0.637488  0.362512  0.500000  1
  In  In2  1  0.000000  0.000000  0.000000  1
  Ni  Ni3  1  0.800476  0.199524  0.000000  1
  Ni  Ni4  1  0.199524  0.800476  1.000000  1
