# generated using pymatgen
data_BaCuTe2O7
_symmetry_space_group_name_H-M   'P 1'
_cell_length_a   8.74940665
_cell_length_b   8.74940665
_cell_length_c   5.56078029
_cell_angle_alpha   90.00000000
_cell_angle_beta   90.00000000
_cell_angle_gamma   130.70540508
_symmetry_Int_Tables_number   1
_chemical_formula_structural   BaCuTe2O7
_chemical_formula_sum   'Ba2 Cu2 Te4 O14'
_cell_volume   322.70363914
_cell_formula_units_Z   2
loop_
 _symmetry_equiv_pos_site_id
 _symmetry_equiv_pos_as_xyz
  1  'x, y, z'
loop_
 _atom_site_type_symbol
 _atom_site_label
 _atom_site_symmetry_multiplicity
 _atom_site_fract_x
 _atom_site_fract_y
 _atom_site_fract_z
 _atom_site_occupancy
  Ba  Ba0  1  0.797731  0.216775  0.750000  1
  Ba  Ba1  1  0.216775  0.797731  0.250000  1
  Cu  Cu2  1  0.366783  0.628840  0.750000  1
  Cu  Cu3  1  0.628840  0.366783  0.250000  1
  Te  Te4  1  0.170705  0.325486  0.250000  1
  Te  Te5  1  0.679950  0.822125  0.250000  1
  Te  Te6  1  0.822125  0.679950  0.750000  1
  Te  Te7  1  0.325486  0.170705  0.750000  1
  O  O8  1  0.501015  0.463436  0.750000  1
  O  O9  1  0.161815  0.475295  0.002310  1
  O  O10  1  0.161815  0.475295  0.497690  1
  O  O11  1  0.463436  0.501015  0.250000  1
  O  O12  1  0.137884  0.137884  0.500000  1
  O  O13  1  0.475295  0.161815  0.997690  1
  O  O14  1  0.551283  0.840842  0.508367  1
  O  O15  1  0.551283  0.840842  0.991633  1
  O  O16  1  0.872634  0.139683  0.250000  1
  O  O17  1  0.840842  0.551283  0.491633  1
  O  O18  1  0.840842  0.551283  0.008367  1
  O  O19  1  0.475295  0.161815  0.502310  1
  O  O20  1  0.139683  0.872634  0.750000  1
  O  O21  1  0.137884  0.137884  0.000000  1
