# generated using pymatgen
data_RbNa11(WN3)4
_symmetry_space_group_name_H-M   'P 1'
_cell_length_a   11.76566758
_cell_length_b   12.26677189
_cell_length_c   12.59264670
_cell_angle_alpha   90.00000000
_cell_angle_beta   90.00000000
_cell_angle_gamma   90.00000000
_symmetry_Int_Tables_number   1
_chemical_formula_structural   RbNa11(WN3)4
_chemical_formula_sum   'Rb4 Na44 W16 N48'
_cell_volume   1817.45590228
_cell_formula_units_Z   4
loop_
 _symmetry_equiv_pos_site_id
 _symmetry_equiv_pos_as_xyz
  1  'x, y, z'
loop_
 _atom_site_type_symbol
 _atom_site_label
 _atom_site_symmetry_multiplicity
 _atom_site_fract_x
 _atom_site_fract_y
 _atom_site_fract_z
 _atom_site_occupancy
  Rb  Rb0  1  0.000000  0.000000  0.500000  1
  Rb  Rb1  1  0.500000  0.000000  0.000000  1
  Rb  Rb2  1  0.500000  0.500000  0.500000  1
  Rb  Rb3  1  0.000000  0.500000  0.000000  1
  Na  Na4  1  0.131135  0.554878  0.235902  1
  Na  Na5  1  0.868865  0.445122  0.764098  1
  Na  Na6  1  0.631135  0.945122  0.235902  1
  Na  Na7  1  0.631135  0.445122  0.264098  1
  Na  Na8  1  0.779198  0.189169  0.672045  1
  Na  Na9  1  0.257105  0.375720  0.405976  1
  Na  Na10  1  0.757105  0.624280  0.094024  1
  Na  Na11  1  0.279198  0.310831  0.672045  1
  Na  Na12  1  0.382839  0.020770  0.268758  1
  Na  Na13  1  0.449982  0.740782  0.378027  1
  Na  Na14  1  0.368865  0.054878  0.764098  1
  Na  Na15  1  0.949982  0.259218  0.121973  1
  Na  Na16  1  0.882839  0.979230  0.231242  1
  Na  Na17  1  0.117161  0.020770  0.768758  1
  Na  Na18  1  0.757105  0.124280  0.405976  1
  Na  Na19  1  0.742895  0.124280  0.905976  1
  Na  Na20  1  0.550018  0.259218  0.621973  1
  Na  Na21  1  0.131135  0.054878  0.264098  1
  Na  Na22  1  0.949982  0.759218  0.378027  1
  Na  Na23  1  0.242895  0.875720  0.594024  1
  Na  Na24  1  0.220802  0.810831  0.327955  1
  Na  Na25  1  0.617161  0.479230  0.768758  1
  Na  Na26  1  0.000000  0.000000  0.000000  1
  Na  Na27  1  0.257105  0.875720  0.094024  1
  Na  Na28  1  0.050018  0.740782  0.878027  1
  Na  Na29  1  0.742895  0.624280  0.594024  1
  Na  Na30  1  0.117161  0.520770  0.731242  1
  Na  Na31  1  0.449982  0.240782  0.121973  1
  Na  Na32  1  0.279198  0.810831  0.827955  1
  Na  Na33  1  0.500000  0.500000  0.000000  1
  Na  Na34  1  0.242895  0.375720  0.905976  1
  Na  Na35  1  0.382839  0.520770  0.231242  1
  Na  Na36  1  0.000000  0.500000  0.500000  1
  Na  Na37  1  0.368865  0.554878  0.735902  1
  Na  Na38  1  0.500000  0.000000  0.500000  1
  Na  Na39  1  0.617161  0.979230  0.731242  1
  Na  Na40  1  0.720802  0.189169  0.172045  1
  Na  Na41  1  0.550018  0.759218  0.878027  1
  Na  Na42  1  0.868865  0.945122  0.735902  1
  Na  Na43  1  0.882839  0.479230  0.268758  1
  Na  Na44  1  0.220802  0.310831  0.172045  1
  Na  Na45  1  0.720802  0.689169  0.327955  1
  Na  Na46  1  0.779198  0.689169  0.827955  1
  Na  Na47  1  0.050018  0.240782  0.621973  1
  W  W48  1  0.990045  0.738039  0.636104  1
  W  W49  1  0.734419  0.383221  0.991826  1
  W  W50  1  0.734419  0.883221  0.508174  1
  W  W51  1  0.009955  0.261961  0.363896  1
  W  W52  1  0.990045  0.238039  0.863896  1
  W  W53  1  0.234419  0.616779  0.508174  1
  W  W54  1  0.490045  0.261961  0.863896  1
  W  W55  1  0.509955  0.738039  0.136104  1
  W  W56  1  0.765581  0.383221  0.491826  1
  W  W57  1  0.509955  0.238039  0.363896  1
  W  W58  1  0.265581  0.616779  0.008174  1
  W  W59  1  0.009955  0.761961  0.136104  1
  W  W60  1  0.490045  0.761961  0.636104  1
  W  W61  1  0.265581  0.116779  0.491826  1
  W  W62  1  0.765581  0.883221  0.008174  1
  W  W63  1  0.234419  0.116779  0.991826  1
  N  N64  1  0.067483  0.342654  0.788445  1
  N  N65  1  0.271335  0.604617  0.367542  1
  N  N66  1  0.271283  0.480348  0.069626  1
  N  N67  1  0.228665  0.104617  0.632458  1
  N  N68  1  0.144670  0.199310  0.425991  1
  N  N69  1  0.855330  0.300690  0.925991  1
  N  N70  1  0.771335  0.895383  0.367542  1
  N  N71  1  0.567483  0.157346  0.788445  1
  N  N72  1  0.055608  0.873006  0.225515  1
  N  N73  1  0.728665  0.895383  0.867542  1
  N  N74  1  0.728717  0.519652  0.930374  1
  N  N75  1  0.944392  0.626994  0.725515  1
  N  N76  1  0.932517  0.657346  0.211555  1
  N  N77  1  0.728665  0.395383  0.632458  1
  N  N78  1  0.914189  0.312649  0.480336  1
  N  N79  1  0.585811  0.812649  0.519664  1
  N  N80  1  0.271335  0.104617  0.132458  1
  N  N81  1  0.067483  0.842654  0.711555  1
  N  N82  1  0.228717  0.480348  0.569626  1
  N  N83  1  0.355330  0.199310  0.925991  1
  N  N84  1  0.228717  0.980348  0.930374  1
  N  N85  1  0.228665  0.604617  0.867542  1
  N  N86  1  0.585811  0.312649  0.980336  1
  N  N87  1  0.914189  0.812649  0.019664  1
  N  N88  1  0.644670  0.300690  0.425991  1
  N  N89  1  0.085811  0.687351  0.519664  1
  N  N90  1  0.271283  0.980348  0.430374  1
  N  N91  1  0.444392  0.373006  0.774485  1
  N  N92  1  0.771283  0.019652  0.069626  1
  N  N93  1  0.144670  0.699310  0.074009  1
  N  N94  1  0.414189  0.687351  0.019664  1
  N  N95  1  0.855330  0.800690  0.574009  1
  N  N96  1  0.085811  0.187351  0.980336  1
  N  N97  1  0.444392  0.873006  0.725515  1
  N  N98  1  0.932517  0.157346  0.288445  1
  N  N99  1  0.355330  0.699310  0.574009  1
  N  N100  1  0.728717  0.019652  0.569626  1
  N  N101  1  0.555608  0.126994  0.274485  1
  N  N102  1  0.432517  0.342654  0.288445  1
  N  N103  1  0.055608  0.373006  0.274485  1
  N  N104  1  0.414189  0.187351  0.480336  1
  N  N105  1  0.555608  0.626994  0.225515  1
  N  N106  1  0.771335  0.395383  0.132458  1
  N  N107  1  0.644670  0.800690  0.074009  1
  N  N108  1  0.944392  0.126994  0.774485  1
  N  N109  1  0.567483  0.657346  0.711555  1
  N  N110  1  0.432517  0.842654  0.211555  1
  N  N111  1  0.771283  0.519652  0.430374  1
