# generated using pymatgen
data_Li(CuO)2
_symmetry_space_group_name_H-M   'P 1'
_cell_length_a   5.75816207
_cell_length_b   5.75816207
_cell_length_c   12.55863199
_cell_angle_alpha   90.00000000
_cell_angle_beta   90.00000000
_cell_angle_gamma   90.00000000
_symmetry_Int_Tables_number   1
_chemical_formula_structural   Li(CuO)2
_chemical_formula_sum   'Li8 Cu16 O16'
_cell_volume   416.39940780
_cell_formula_units_Z   8
loop_
 _symmetry_equiv_pos_site_id
 _symmetry_equiv_pos_as_xyz
  1  'x, y, z'
loop_
 _atom_site_type_symbol
 _atom_site_label
 _atom_site_symmetry_multiplicity
 _atom_site_fract_x
 _atom_site_fract_y
 _atom_site_fract_z
 _atom_site_occupancy
  Li  Li0  1  0.756483  0.500000  0.427718  1
  Li  Li1  1  0.743517  0.000000  0.072282  1
  Li  Li2  1  0.000000  0.743517  0.927718  1
  Li  Li3  1  0.000000  0.256483  0.927718  1
  Li  Li4  1  0.256483  0.000000  0.072282  1
  Li  Li5  1  0.500000  0.243517  0.572282  1
  Li  Li6  1  0.500000  0.756483  0.572282  1
  Li  Li7  1  0.243517  0.500000  0.427718  1
  Cu  Cu8  1  0.747938  0.500000  0.743294  1
  Cu  Cu9  1  0.751959  0.000000  0.400495  1
  Cu  Cu10  1  0.500000  0.252062  0.256706  1
  Cu  Cu11  1  0.251959  0.500000  0.099505  1
  Cu  Cu12  1  0.000000  0.247938  0.243294  1
  Cu  Cu13  1  0.500000  0.748041  0.900495  1
  Cu  Cu14  1  0.500000  0.747938  0.256706  1
  Cu  Cu15  1  0.248041  0.000000  0.400495  1
  Cu  Cu16  1  0.752062  0.000000  0.756706  1
  Cu  Cu17  1  0.252062  0.500000  0.743294  1
  Cu  Cu18  1  0.748041  0.500000  0.099505  1
  Cu  Cu19  1  0.500000  0.251959  0.900495  1
  Cu  Cu20  1  0.247938  0.000000  0.756706  1
  Cu  Cu21  1  0.000000  0.752062  0.243294  1
  Cu  Cu22  1  0.000000  0.248041  0.599505  1
  Cu  Cu23  1  0.000000  0.751959  0.599505  1
  O  O24  1  0.000000  0.759385  0.391455  1
  O  O25  1  0.500000  0.740615  0.108545  1
  O  O26  1  0.259237  0.000000  0.906287  1
  O  O27  1  0.759385  0.000000  0.608545  1
  O  O28  1  0.000000  0.259237  0.093713  1
  O  O29  1  0.500000  0.259385  0.108545  1
  O  O30  1  0.259385  0.500000  0.891455  1
  O  O31  1  0.740615  0.500000  0.891455  1
  O  O32  1  0.000000  0.740763  0.093713  1
  O  O33  1  0.759237  0.500000  0.593713  1
  O  O34  1  0.240615  0.000000  0.608545  1
  O  O35  1  0.740763  0.000000  0.906287  1
  O  O36  1  0.500000  0.240763  0.406287  1
  O  O37  1  0.500000  0.759237  0.406287  1
  O  O38  1  0.240763  0.500000  0.593713  1
  O  O39  1  0.000000  0.240615  0.391455  1
