# generated using pymatgen
data_MnF4
_symmetry_space_group_name_H-M   'P 1'
_cell_length_a   9.62885053
_cell_length_b   9.62885053
_cell_length_c   9.62885053
_cell_angle_alpha   96.13532720
_cell_angle_beta   96.13532720
_cell_angle_gamma   141.83604011
_symmetry_Int_Tables_number   1
_chemical_formula_structural   MnF4
_chemical_formula_sum   'Mn8 F32'
_cell_volume   521.32306853
_cell_formula_units_Z   8
loop_
 _symmetry_equiv_pos_site_id
 _symmetry_equiv_pos_as_xyz
  1  'x, y, z'
loop_
 _atom_site_type_symbol
 _atom_site_label
 _atom_site_symmetry_multiplicity
 _atom_site_fract_x
 _atom_site_fract_y
 _atom_site_fract_z
 _atom_site_occupancy
  Mn  Mn0  1  0.243178  0.493488  0.010688  1
  Mn  Mn1  1  0.482489  0.993178  0.249690  1
  Mn  Mn2  1  0.743488  0.232800  0.750310  1
  Mn  Mn3  1  0.482800  0.232489  0.989312  1
  Mn  Mn4  1  0.006822  0.256512  0.489312  1
  Mn  Mn5  1  0.767511  0.756822  0.250310  1
  Mn  Mn6  1  0.506512  0.517200  0.749690  1
  Mn  Mn7  1  0.767200  0.517511  0.510688  1
  F  F8  1  0.434865  0.541962  0.158957  1
  F  F9  1  0.525908  0.184865  0.392904  1
  F  F10  1  0.791962  0.133004  0.607096  1
  F  F11  1  0.383004  0.275908  0.841043  1
  F  F12  1  0.815135  0.208038  0.341043  1
  F  F13  1  0.724092  0.565135  0.107096  1
  F  F14  1  0.458038  0.616996  0.892904  1
  F  F15  1  0.866996  0.474092  0.658957  1
  F  F16  1  0.637485  0.535516  0.365082  1
  F  F17  1  0.522403  0.387485  0.601969  1
  F  F18  1  0.785516  0.920434  0.398031  1
  F  F19  1  0.170434  0.272403  0.634918  1
  F  F20  1  0.612515  0.214484  0.134918  1
  F  F21  1  0.727597  0.362515  0.898031  1
  F  F22  1  0.464484  0.829566  0.101969  1
  F  F23  1  0.079566  0.477597  0.865082  1
  F  F24  1  0.068920  0.208550  0.920497  1
  F  F25  1  0.398423  0.818920  0.360370  1
  F  F26  1  0.458550  0.038053  0.639630  1
  F  F27  1  0.288053  0.148423  0.079503  1
  F  F28  1  0.181080  0.541450  0.579503  1
  F  F29  1  0.851577  0.931080  0.139630  1
  F  F30  1  0.791450  0.711947  0.860370  1
  F  F31  1  0.961947  0.601577  0.420497  1
  F  F32  1  0.065154  0.406539  0.119045  1
  F  F33  1  0.196109  0.815154  0.158615  1
  F  F34  1  0.656539  0.037495  0.841385  1
  F  F35  1  0.287495  0.946109  0.880955  1
  F  F36  1  0.184846  0.343461  0.380955  1
  F  F37  1  0.053891  0.934846  0.341385  1
  F  F38  1  0.593461  0.712505  0.658615  1
  F  F39  1  0.962505  0.803891  0.619045  1
