# generated using pymatgen
data_Cr3(P2O7)2
_symmetry_space_group_name_H-M   'P 1'
_cell_length_a   7.35900356
_cell_length_b   8.01831082
_cell_length_c   9.41767465
_cell_angle_alpha   90.00000000
_cell_angle_beta   110.96398923
_cell_angle_gamma   90.00000000
_symmetry_Int_Tables_number   1
_chemical_formula_structural   Cr3(P2O7)2
_chemical_formula_sum   'Cr6 P8 O28'
_cell_volume   518.92190182
_cell_formula_units_Z   2
loop_
 _symmetry_equiv_pos_site_id
 _symmetry_equiv_pos_as_xyz
  1  'x, y, z'
loop_
 _atom_site_type_symbol
 _atom_site_label
 _atom_site_symmetry_multiplicity
 _atom_site_fract_x
 _atom_site_fract_y
 _atom_site_fract_z
 _atom_site_occupancy
  Cr  Cr0  1  0.000000  0.000000  0.500000  1
  Cr  Cr1  1  0.804667  0.367609  0.471141  1
  Cr  Cr2  1  0.195333  0.632391  0.528859  1
  Cr  Cr3  1  0.000000  0.500000  0.000000  1
  Cr  Cr4  1  0.804667  0.132391  0.971141  1
  Cr  Cr5  1  0.195333  0.867609  0.028859  1
  P  P6  1  0.890351  0.791975  0.195825  1
  P  P7  1  0.890351  0.708025  0.695825  1
  P  P8  1  0.109649  0.291975  0.304175  1
  P  P9  1  0.109649  0.208025  0.804175  1
  P  P10  1  0.601770  0.038367  0.207284  1
  P  P11  1  0.601770  0.461633  0.707284  1
  P  P12  1  0.398230  0.538367  0.292716  1
  P  P13  1  0.398230  0.961633  0.792716  1
  O  O14  1  0.996198  0.294306  0.128293  1
  O  O15  1  0.996198  0.205694  0.628293  1
  O  O16  1  0.003802  0.794306  0.371707  1
  O  O17  1  0.003802  0.705694  0.871707  1
  O  O18  1  0.971019  0.920569  0.110441  1
  O  O19  1  0.971019  0.579431  0.610441  1
  O  O20  1  0.028981  0.420569  0.389559  1
  O  O21  1  0.028981  0.079431  0.889559  1
  O  O22  1  0.874167  0.621286  0.125856  1
  O  O23  1  0.874167  0.878714  0.625856  1
  O  O24  1  0.125833  0.121286  0.374144  1
  O  O25  1  0.125833  0.378714  0.874144  1
  O  O26  1  0.680689  0.852708  0.185458  1
  O  O27  1  0.680689  0.647292  0.685458  1
  O  O28  1  0.319311  0.352708  0.314542  1
  O  O29  1  0.319311  0.147292  0.814542  1
  O  O30  1  0.628351  0.152567  0.087964  1
  O  O31  1  0.628351  0.347433  0.587964  1
  O  O32  1  0.371649  0.652567  0.412036  1
  O  O33  1  0.371649  0.847433  0.912036  1
  O  O34  1  0.736454  0.098430  0.368994  1
  O  O35  1  0.736454  0.401570  0.868994  1
  O  O36  1  0.263546  0.598430  0.131006  1
  O  O37  1  0.263546  0.901570  0.631006  1
  O  O38  1  0.607512  0.507467  0.308107  1
  O  O39  1  0.392488  0.007467  0.191893  1
  O  O40  1  0.607512  0.992533  0.808107  1
  O  O41  1  0.392488  0.492533  0.691893  1
