# generated using pymatgen
data_KTeOF3
_symmetry_space_group_name_H-M   'P 1'
_cell_length_a   10.31308408
_cell_length_b   10.31308408
_cell_length_c   8.04286460
_cell_angle_alpha   90.00000000
_cell_angle_beta   90.00000000
_cell_angle_gamma   90.00000000
_symmetry_Int_Tables_number   1
_chemical_formula_structural   KTeOF3
_chemical_formula_sum   'K8 Te8 O8 F24'
_cell_volume   855.43669206
_cell_formula_units_Z   8
loop_
 _symmetry_equiv_pos_site_id
 _symmetry_equiv_pos_as_xyz
  1  'x, y, z'
loop_
 _atom_site_type_symbol
 _atom_site_label
 _atom_site_symmetry_multiplicity
 _atom_site_fract_x
 _atom_site_fract_y
 _atom_site_fract_z
 _atom_site_occupancy
  K  K0  1  0.500000  0.500000  0.500000  1
  K  K1  1  0.000000  0.000000  0.000000  1
  K  K2  1  0.500000  0.500000  0.000000  1
  K  K3  1  0.000000  0.000000  0.500000  1
  K  K4  1  0.750000  0.250000  0.250000  1
  K  K5  1  0.250000  0.750000  0.250000  1
  K  K6  1  0.250000  0.250000  0.750000  1
  K  K7  1  0.750000  0.750000  0.750000  1
  Te  Te8  1  0.656629  0.866897  0.209695  1
  Te  Te9  1  0.133103  0.656629  0.790305  1
  Te  Te10  1  0.843371  0.633103  0.290305  1
  Te  Te11  1  0.366897  0.843371  0.709695  1
  Te  Te12  1  0.866897  0.343371  0.790305  1
  Te  Te13  1  0.633103  0.156629  0.709695  1
  Te  Te14  1  0.343371  0.133103  0.209695  1
  Te  Te15  1  0.156629  0.366897  0.290305  1
  O  O16  1  0.253786  0.721542  0.598515  1
  O  O17  1  0.246214  0.778458  0.901485  1
  O  O18  1  0.278458  0.253786  0.401485  1
  O  O19  1  0.778458  0.753786  0.098515  1
  O  O20  1  0.753786  0.221542  0.901485  1
  O  O21  1  0.221542  0.246214  0.098515  1
  O  O22  1  0.746214  0.278458  0.598515  1
  O  O23  1  0.721542  0.746214  0.401485  1
  F  F24  1  0.513795  0.738996  0.146731  1
  F  F25  1  0.994540  0.184560  0.763270  1
  F  F26  1  0.986205  0.761004  0.353269  1
  F  F27  1  0.184560  0.005460  0.236730  1
  F  F28  1  0.761004  0.013795  0.646731  1
  F  F29  1  0.486205  0.261004  0.146731  1
  F  F30  1  0.315440  0.494540  0.263270  1
  F  F31  1  0.505460  0.315440  0.736730  1
  F  F32  1  0.061625  0.640027  0.026243  1
  F  F33  1  0.005460  0.815440  0.763270  1
  F  F34  1  0.938375  0.359973  0.026243  1
  F  F35  1  0.640027  0.938375  0.973757  1
  F  F36  1  0.561625  0.140027  0.473757  1
  F  F37  1  0.140027  0.438375  0.526243  1
  F  F38  1  0.859973  0.561625  0.526243  1
  F  F39  1  0.238996  0.986205  0.646731  1
  F  F40  1  0.438375  0.859973  0.473757  1
  F  F41  1  0.359973  0.061625  0.973757  1
  F  F42  1  0.684560  0.505460  0.263270  1
  F  F43  1  0.261004  0.513795  0.853269  1
  F  F44  1  0.738996  0.486205  0.853269  1
  F  F45  1  0.013795  0.238996  0.353269  1
  F  F46  1  0.815440  0.994540  0.236730  1
  F  F47  1  0.494540  0.684560  0.736730  1
