# generated using pymatgen
data_Ba3(PSe4)2
_symmetry_space_group_name_H-M   'P 1'
_cell_length_a   12.43256981
_cell_length_b   6.99250443
_cell_length_c   18.33855189
_cell_angle_alpha   90.00000000
_cell_angle_beta   90.03165580
_cell_angle_gamma   90.00000000
_symmetry_Int_Tables_number   1
_chemical_formula_structural   Ba3(PSe4)2
_chemical_formula_sum   'Ba12 P8 Se32'
_cell_volume   1594.25808753
_cell_formula_units_Z   4
loop_
 _symmetry_equiv_pos_site_id
 _symmetry_equiv_pos_as_xyz
  1  'x, y, z'
loop_
 _atom_site_type_symbol
 _atom_site_label
 _atom_site_symmetry_multiplicity
 _atom_site_fract_x
 _atom_site_fract_y
 _atom_site_fract_z
 _atom_site_occupancy
  Ba  Ba0  1  0.849882  0.507279  0.922520  1
  Ba  Ba1  1  0.650118  0.007279  0.077480  1
  Ba  Ba2  1  0.326849  0.984433  0.423457  1
  Ba  Ba3  1  0.349882  0.992721  0.922520  1
  Ba  Ba4  1  0.472777  0.435055  0.253440  1
  Ba  Ba5  1  0.150118  0.492721  0.077480  1
  Ba  Ba6  1  0.527223  0.564945  0.746560  1
  Ba  Ba7  1  0.826849  0.515567  0.423457  1
  Ba  Ba8  1  0.673151  0.015567  0.576543  1
  Ba  Ba9  1  0.173151  0.484433  0.576543  1
  Ba  Ba10  1  0.972777  0.064945  0.253440  1
  Ba  Ba11  1  0.027223  0.935055  0.746560  1
  P  P12  1  0.667585  0.020339  0.361099  1
  P  P13  1  0.833966  0.543910  0.139342  1
  P  P14  1  0.166034  0.456090  0.860658  1
  P  P15  1  0.332415  0.979661  0.638901  1
  P  P16  1  0.832415  0.520339  0.638901  1
  P  P17  1  0.333966  0.956090  0.139342  1
  P  P18  1  0.666034  0.043910  0.860658  1
  P  P19  1  0.167585  0.479661  0.361099  1
  Se  Se20  1  0.394836  0.230018  0.090880  1
  Se  Se21  1  0.105164  0.730018  0.909120  1
  Se  Se22  1  0.799602  0.642723  0.748593  1
  Se  Se23  1  0.325449  0.490936  0.419325  1
  Se  Se24  1  0.898201  0.781572  0.070862  1
  Se  Se25  1  0.408430  0.264351  0.622069  1
  Se  Se26  1  0.825449  0.009064  0.419325  1
  Se  Se27  1  0.934308  0.733554  0.580448  1
  Se  Se28  1  0.101799  0.218428  0.929138  1
  Se  Se29  1  0.200398  0.357277  0.251407  1
  Se  Se30  1  0.605164  0.769982  0.909120  1
  Se  Se31  1  0.090564  0.417336  0.751245  1
  Se  Se32  1  0.700398  0.142723  0.251407  1
  Se  Se33  1  0.155941  0.955365  0.123624  1
  Se  Se34  1  0.908430  0.235649  0.622069  1
  Se  Se35  1  0.409436  0.917336  0.248755  1
  Se  Se36  1  0.434308  0.766446  0.580448  1
  Se  Se37  1  0.909436  0.582664  0.248755  1
  Se  Se38  1  0.299602  0.857277  0.748593  1
  Se  Se39  1  0.601799  0.281572  0.929138  1
  Se  Se40  1  0.894836  0.269982  0.090880  1
  Se  Se41  1  0.655941  0.544635  0.123624  1
  Se  Se42  1  0.065692  0.266446  0.419552  1
  Se  Se43  1  0.590564  0.082664  0.751245  1
  Se  Se44  1  0.344059  0.455365  0.876376  1
  Se  Se45  1  0.591570  0.735649  0.377931  1
  Se  Se46  1  0.174551  0.990936  0.580675  1
  Se  Se47  1  0.844059  0.044635  0.876376  1
  Se  Se48  1  0.565692  0.233554  0.419552  1
  Se  Se49  1  0.398201  0.718428  0.070862  1
  Se  Se50  1  0.674551  0.509064  0.580675  1
  Se  Se51  1  0.091570  0.764351  0.377931  1
