# generated using pymatgen
data_AsS3(NF3)2
_symmetry_space_group_name_H-M   'P 1'
_cell_length_a   8.63183807
_cell_length_b   8.50337944
_cell_length_c   11.41727996
_cell_angle_alpha   90.00000000
_cell_angle_beta   95.68319366
_cell_angle_gamma   90.00000000
_symmetry_Int_Tables_number   1
_chemical_formula_structural   AsS3(NF3)2
_chemical_formula_sum   'As4 S12 N8 F24'
_cell_volume   833.90681838
_cell_formula_units_Z   4
loop_
 _symmetry_equiv_pos_site_id
 _symmetry_equiv_pos_as_xyz
  1  'x, y, z'
loop_
 _atom_site_type_symbol
 _atom_site_label
 _atom_site_symmetry_multiplicity
 _atom_site_fract_x
 _atom_site_fract_y
 _atom_site_fract_z
 _atom_site_occupancy
  As  As0  1  0.731882  0.104814  0.873361  1
  As  As1  1  0.268118  0.604814  0.626639  1
  As  As2  1  0.268118  0.895186  0.126639  1
  As  As3  1  0.731882  0.395186  0.373361  1
  S  S4  1  0.961939  0.650496  0.886501  1
  S  S5  1  0.350625  0.431408  0.141329  1
  S  S6  1  0.038061  0.349504  0.113499  1
  S  S7  1  0.854317  0.630817  0.055576  1
  S  S8  1  0.145683  0.130817  0.444424  1
  S  S9  1  0.145683  0.369183  0.944424  1
  S  S10  1  0.649375  0.931408  0.358671  1
  S  S11  1  0.961939  0.849504  0.386501  1
  S  S12  1  0.854317  0.869183  0.555576  1
  S  S13  1  0.649375  0.568592  0.858671  1
  S  S14  1  0.038061  0.150496  0.613499  1
  S  S15  1  0.350625  0.068592  0.641329  1
  N  N16  1  0.684269  0.912816  0.496648  1
  N  N17  1  0.684269  0.587184  0.996648  1
  N  N18  1  0.194067  0.389619  0.194974  1
  N  N19  1  0.315731  0.087184  0.503352  1
  N  N20  1  0.805933  0.889619  0.305026  1
  N  N21  1  0.194067  0.110381  0.694974  1
  N  N22  1  0.315731  0.412816  0.003352  1
  N  N23  1  0.805933  0.610381  0.805026  1
  F  F24  1  0.159355  0.718837  0.077923  1
  F  F25  1  0.840645  0.218837  0.422077  1
  F  F26  1  0.090522  0.979509  0.163052  1
  F  F27  1  0.293929  0.812729  0.270183  1
  F  F28  1  0.090522  0.520491  0.663052  1
  F  F29  1  0.840645  0.281163  0.922077  1
  F  F30  1  0.628656  0.566077  0.322957  1
  F  F31  1  0.628656  0.933923  0.822957  1
  F  F32  1  0.235600  0.528480  0.483478  1
  F  F33  1  0.764400  0.471520  0.516522  1
  F  F34  1  0.909478  0.479509  0.336948  1
  F  F35  1  0.235600  0.971520  0.983478  1
  F  F36  1  0.559316  0.301622  0.406768  1
  F  F37  1  0.559316  0.198378  0.906768  1
  F  F38  1  0.706071  0.187271  0.729817  1
  F  F39  1  0.293929  0.687271  0.770183  1
  F  F40  1  0.159355  0.781163  0.577923  1
  F  F41  1  0.371344  0.433923  0.677043  1
  F  F42  1  0.440684  0.801622  0.093232  1
  F  F43  1  0.764400  0.028480  0.016522  1
  F  F44  1  0.371344  0.066077  0.177043  1
  F  F45  1  0.706071  0.312729  0.229817  1
  F  F46  1  0.909478  0.020491  0.836948  1
  F  F47  1  0.440684  0.698378  0.593232  1
