# generated using pymatgen
data_RbNaMo3O10
_symmetry_space_group_name_H-M   'P 1'
_cell_length_a   7.72239486
_cell_length_b   7.82897505
_cell_length_c   15.83312026
_cell_angle_alpha   90.00000000
_cell_angle_beta   90.00000000
_cell_angle_gamma   90.00000000
_symmetry_Int_Tables_number   1
_chemical_formula_structural   RbNaMo3O10
_chemical_formula_sum   'Rb4 Na4 Mo12 O40'
_cell_volume   957.24569877
_cell_formula_units_Z   4
loop_
 _symmetry_equiv_pos_site_id
 _symmetry_equiv_pos_as_xyz
  1  'x, y, z'
loop_
 _atom_site_type_symbol
 _atom_site_label
 _atom_site_symmetry_multiplicity
 _atom_site_fract_x
 _atom_site_fract_y
 _atom_site_fract_z
 _atom_site_occupancy
  Rb  Rb0  1  0.750000  0.640994  0.354237  1
  Rb  Rb1  1  0.250000  0.359006  0.645763  1
  Rb  Rb2  1  0.750000  0.140994  0.145763  1
  Rb  Rb3  1  0.250000  0.859006  0.854237  1
  Na  Na4  1  0.750000  0.562325  0.723418  1
  Na  Na5  1  0.250000  0.937675  0.223418  1
  Na  Na6  1  0.750000  0.062325  0.776582  1
  Na  Na7  1  0.250000  0.437675  0.276582  1
  Mo  Mo8  1  0.499324  0.610329  0.101463  1
  Mo  Mo9  1  0.750000  0.237507  0.555986  1
  Mo  Mo10  1  0.999324  0.389671  0.898537  1
  Mo  Mo11  1  0.250000  0.262493  0.055986  1
  Mo  Mo12  1  0.000676  0.610329  0.101463  1
  Mo  Mo13  1  0.250000  0.762493  0.444014  1
  Mo  Mo14  1  0.500676  0.389671  0.898537  1
  Mo  Mo15  1  0.750000  0.737507  0.944014  1
  Mo  Mo16  1  0.500676  0.889671  0.601463  1
  Mo  Mo17  1  0.499324  0.110329  0.398537  1
  Mo  Mo18  1  0.000676  0.110329  0.398537  1
  Mo  Mo19  1  0.999324  0.889671  0.601463  1
  O  O20  1  0.513844  0.155725  0.535990  1
  O  O21  1  0.986156  0.155725  0.535990  1
  O  O22  1  0.033024  0.996039  0.697647  1
  O  O23  1  0.028988  0.322748  0.368870  1
  O  O24  1  0.750000  0.941270  0.588488  1
  O  O25  1  0.466976  0.496039  0.802353  1
  O  O26  1  0.013844  0.344275  0.035990  1
  O  O27  1  0.750000  0.778987  0.833773  1
  O  O28  1  0.750000  0.937328  0.990543  1
  O  O29  1  0.466976  0.996039  0.697647  1
  O  O30  1  0.750000  0.114275  0.426783  1
  O  O31  1  0.750000  0.441270  0.911512  1
  O  O32  1  0.966976  0.503961  0.197647  1
  O  O33  1  0.471012  0.822748  0.131130  1
  O  O34  1  0.528988  0.677252  0.631130  1
  O  O35  1  0.750000  0.437328  0.509457  1
  O  O36  1  0.966976  0.003961  0.302353  1
  O  O37  1  0.986156  0.655725  0.964010  1
  O  O38  1  0.471012  0.322748  0.368870  1
  O  O39  1  0.533024  0.503961  0.197647  1
  O  O40  1  0.971012  0.677252  0.631130  1
  O  O41  1  0.250000  0.058730  0.411512  1
  O  O42  1  0.013844  0.844275  0.464010  1
  O  O43  1  0.486156  0.844275  0.464010  1
  O  O44  1  0.250000  0.562672  0.490543  1
  O  O45  1  0.250000  0.221013  0.166227  1
  O  O46  1  0.250000  0.721013  0.333773  1
  O  O47  1  0.533024  0.003961  0.302353  1
  O  O48  1  0.750000  0.278987  0.666227  1
  O  O49  1  0.513844  0.655725  0.964010  1
  O  O50  1  0.250000  0.558730  0.088488  1
  O  O51  1  0.028988  0.822748  0.131130  1
  O  O52  1  0.486156  0.344275  0.035990  1
  O  O53  1  0.750000  0.614275  0.073217  1
  O  O54  1  0.250000  0.385725  0.926783  1
  O  O55  1  0.250000  0.885725  0.573217  1
  O  O56  1  0.250000  0.062672  0.009457  1
  O  O57  1  0.971012  0.177252  0.868870  1
  O  O58  1  0.528988  0.177252  0.868870  1
  O  O59  1  0.033024  0.496039  0.802353  1
