# generated using pymatgen
data_La3NbSe2(O2F)2
_symmetry_space_group_name_H-M   'P 1'
_cell_length_a   4.02929539
_cell_length_b   11.42458742
_cell_length_c   18.26168420
_cell_angle_alpha   90.00000000
_cell_angle_beta   90.00000000
_cell_angle_gamma   90.00000000
_symmetry_Int_Tables_number   1
_chemical_formula_structural   La3NbSe2(O2F)2
_chemical_formula_sum   'La12 Nb4 Se8 O16 F8'
_cell_volume   840.64079220
_cell_formula_units_Z   4
loop_
 _symmetry_equiv_pos_site_id
 _symmetry_equiv_pos_as_xyz
  1  'x, y, z'
loop_
 _atom_site_type_symbol
 _atom_site_label
 _atom_site_symmetry_multiplicity
 _atom_site_fract_x
 _atom_site_fract_y
 _atom_site_fract_z
 _atom_site_occupancy
  La  La0  1  0.750000  0.206236  0.968190  1
  La  La1  1  0.750000  0.996216  0.393356  1
  La  La2  1  0.250000  0.293764  0.468190  1
  La  La3  1  0.250000  0.566383  0.301520  1
  La  La4  1  0.750000  0.933617  0.801520  1
  La  La5  1  0.750000  0.496216  0.106644  1
  La  La6  1  0.250000  0.793764  0.031810  1
  La  La7  1  0.250000  0.003784  0.606644  1
  La  La8  1  0.750000  0.433617  0.698480  1
  La  La9  1  0.250000  0.066383  0.198480  1
  La  La10  1  0.750000  0.706236  0.531810  1
  La  La11  1  0.250000  0.503784  0.893356  1
  Nb  Nb12  1  0.250000  0.192218  0.804883  1
  Nb  Nb13  1  0.750000  0.807782  0.195117  1
  Nb  Nb14  1  0.250000  0.692218  0.695117  1
  Nb  Nb15  1  0.750000  0.307782  0.304883  1
  Se  Se16  1  0.250000  0.284467  0.091420  1
  Se  Se17  1  0.750000  0.493424  0.420304  1
  Se  Se18  1  0.750000  0.993424  0.079696  1
  Se  Se19  1  0.750000  0.715533  0.908580  1
  Se  Se20  1  0.750000  0.215533  0.591420  1
  Se  Se21  1  0.250000  0.006576  0.920304  1
  Se  Se22  1  0.250000  0.784467  0.408580  1
  Se  Se23  1  0.250000  0.506576  0.579696  1
  O  O24  1  0.250000  0.330208  0.321058  1
  O  O25  1  0.750000  0.447790  0.244977  1
  O  O26  1  0.250000  0.552210  0.755023  1
  O  O27  1  0.250000  0.830208  0.178942  1
  O  O28  1  0.750000  0.685690  0.261399  1
  O  O29  1  0.250000  0.314310  0.738601  1
  O  O30  1  0.750000  0.717868  0.098787  1
  O  O31  1  0.750000  0.217868  0.401213  1
  O  O32  1  0.250000  0.814310  0.761399  1
  O  O33  1  0.250000  0.782132  0.598787  1
  O  O34  1  0.750000  0.185690  0.238601  1
  O  O35  1  0.750000  0.669792  0.678942  1
  O  O36  1  0.750000  0.947790  0.255023  1
  O  O37  1  0.250000  0.282132  0.901213  1
  O  O38  1  0.750000  0.169792  0.821058  1
  O  O39  1  0.250000  0.052210  0.744977  1
  F  F40  1  0.750000  0.930321  0.526232  1
  F  F41  1  0.250000  0.069679  0.473768  1
  F  F42  1  0.250000  0.569679  0.026232  1
  F  F43  1  0.750000  0.430321  0.973768  1
  F  F44  1  0.250000  0.561854  0.168485  1
  F  F45  1  0.750000  0.938146  0.668485  1
  F  F46  1  0.750000  0.438146  0.831515  1
  F  F47  1  0.250000  0.061854  0.331515  1
