# generated using pymatgen
data_La5(SiN3)3
_symmetry_space_group_name_H-M   'P 1'
_cell_length_a   7.84741762
_cell_length_b   7.84741762
_cell_length_c   16.08170047
_cell_angle_alpha   90.00000000
_cell_angle_beta   90.00000000
_cell_angle_gamma   93.78859706
_symmetry_Int_Tables_number   1
_chemical_formula_structural   La5(SiN3)3
_chemical_formula_sum   'La20 Si12 N36'
_cell_volume   988.17843061
_cell_formula_units_Z   4
loop_
 _symmetry_equiv_pos_site_id
 _symmetry_equiv_pos_as_xyz
  1  'x, y, z'
loop_
 _atom_site_type_symbol
 _atom_site_label
 _atom_site_symmetry_multiplicity
 _atom_site_fract_x
 _atom_site_fract_y
 _atom_site_fract_z
 _atom_site_occupancy
  La  La0  1  0.546338  0.034809  0.130690  1
  La  La1  1  0.980760  0.019240  0.337861  1
  La  La2  1  0.996841  0.003159  0.886279  1
  La  La3  1  0.292234  0.292234  0.000000  1
  La  La4  1  0.953662  0.465191  0.630690  1
  La  La5  1  0.003159  0.996841  0.113721  1
  La  La6  1  0.496841  0.503159  0.613721  1
  La  La7  1  0.034809  0.546338  0.869310  1
  La  La8  1  0.965191  0.453662  0.130690  1
  La  La9  1  0.480760  0.519240  0.162139  1
  La  La10  1  0.465191  0.953662  0.369310  1
  La  La11  1  0.019240  0.980760  0.662139  1
  La  La12  1  0.534809  0.046338  0.630690  1
  La  La13  1  0.207766  0.207766  0.500000  1
  La  La14  1  0.792234  0.792234  0.500000  1
  La  La15  1  0.519240  0.480760  0.837861  1
  La  La16  1  0.453662  0.965191  0.869310  1
  La  La17  1  0.707766  0.707766  0.000000  1
  La  La18  1  0.046338  0.534809  0.369310  1
  La  La19  1  0.503159  0.496841  0.386279  1
  Si  Si20  1  0.761974  0.238026  0.982941  1
  Si  Si21  1  0.738026  0.261974  0.482941  1
  Si  Si22  1  0.221227  0.778773  0.226191  1
  Si  Si23  1  0.238026  0.761974  0.017059  1
  Si  Si24  1  0.721227  0.278773  0.273809  1
  Si  Si25  1  0.283813  0.216187  0.250000  1
  Si  Si26  1  0.261974  0.738026  0.517059  1
  Si  Si27  1  0.778773  0.221227  0.773809  1
  Si  Si28  1  0.278773  0.721227  0.726191  1
  Si  Si29  1  0.216187  0.283813  0.750000  1
  Si  Si30  1  0.783813  0.716187  0.250000  1
  Si  Si31  1  0.716187  0.783813  0.750000  1
  N  N32  1  0.746423  0.004346  0.757417  1
  N  N33  1  0.230603  0.769397  0.624062  1
  N  N34  1  0.753577  0.495654  0.257417  1
  N  N35  1  0.269397  0.730603  0.124062  1
  N  N36  1  0.004346  0.746423  0.242583  1
  N  N37  1  0.730603  0.269397  0.875938  1
  N  N38  1  0.837032  0.162968  0.205294  1
  N  N39  1  0.200281  0.275093  0.345713  1
  N  N40  1  0.722063  0.015193  0.000336  1
  N  N41  1  0.864235  0.135765  0.545115  1
  N  N42  1  0.775093  0.700281  0.845713  1
  N  N43  1  0.724907  0.799719  0.345713  1
  N  N44  1  0.364235  0.635765  0.954885  1
  N  N45  1  0.224907  0.299719  0.154287  1
  N  N46  1  0.799719  0.724907  0.654287  1
  N  N47  1  0.253577  0.995654  0.242583  1
  N  N48  1  0.662968  0.337032  0.705294  1
  N  N49  1  0.275093  0.200281  0.654287  1
  N  N50  1  0.337032  0.662968  0.294706  1
  N  N51  1  0.277937  0.984807  0.999664  1
  N  N52  1  0.995654  0.253577  0.757417  1
  N  N53  1  0.246423  0.504346  0.742583  1
  N  N54  1  0.700281  0.775093  0.154287  1
  N  N55  1  0.984807  0.277937  0.000336  1
  N  N56  1  0.222063  0.515193  0.499664  1
  N  N57  1  0.504346  0.246423  0.257417  1
  N  N58  1  0.515193  0.222063  0.500336  1
  N  N59  1  0.495654  0.753577  0.742583  1
  N  N60  1  0.484807  0.777937  0.499664  1
  N  N61  1  0.135765  0.864235  0.454885  1
  N  N62  1  0.299719  0.224907  0.845713  1
  N  N63  1  0.015193  0.722063  0.999664  1
  N  N64  1  0.769397  0.230603  0.375938  1
  N  N65  1  0.777937  0.484807  0.500336  1
  N  N66  1  0.162968  0.837032  0.794706  1
  N  N67  1  0.635765  0.364235  0.045115  1
