# generated using pymatgen
data_Na3B(PO4)2
_symmetry_space_group_name_H-M   'P 1'
_cell_length_a   8.21118051
_cell_length_b   8.21118051
_cell_length_c   10.33789989
_cell_angle_alpha   88.16907077
_cell_angle_beta   91.83092923
_cell_angle_gamma   101.42541761
_symmetry_Int_Tables_number   1
_chemical_formula_structural   Na3B(PO4)2
_chemical_formula_sum   'Na12 B4 P8 O32'
_cell_volume   682.62236020
_cell_formula_units_Z   4
loop_
 _symmetry_equiv_pos_site_id
 _symmetry_equiv_pos_as_xyz
  1  'x, y, z'
loop_
 _atom_site_type_symbol
 _atom_site_label
 _atom_site_symmetry_multiplicity
 _atom_site_fract_x
 _atom_site_fract_y
 _atom_site_fract_z
 _atom_site_occupancy
  Na  Na0  1  0.636488  0.142899  0.231811  1
  Na  Na1  1  0.957893  0.957893  0.250000  1
  Na  Na2  1  0.526322  0.703558  0.120046  1
  Na  Na3  1  0.142899  0.636488  0.268189  1
  Na  Na4  1  0.473678  0.296442  0.879954  1
  Na  Na5  1  0.296442  0.473678  0.620046  1
  Na  Na6  1  0.347196  0.347196  0.250000  1
  Na  Na7  1  0.363512  0.857101  0.768189  1
  Na  Na8  1  0.042107  0.042107  0.750000  1
  Na  Na9  1  0.703558  0.526322  0.379954  1
  Na  Na10  1  0.857101  0.363512  0.731811  1
  Na  Na11  1  0.652804  0.652804  0.750000  1
  B  B12  1  0.021910  0.754852  0.998599  1
  B  B13  1  0.978090  0.245148  0.001401  1
  B  B14  1  0.754852  0.021910  0.501401  1
  B  B15  1  0.245148  0.978090  0.498599  1
  P  P16  1  0.772938  0.945253  0.957750  1
  P  P17  1  0.789829  0.468877  0.061341  1
  P  P18  1  0.531123  0.210171  0.561341  1
  P  P19  1  0.945253  0.772938  0.542250  1
  P  P20  1  0.210171  0.531123  0.938659  1
  P  P21  1  0.227062  0.054747  0.042250  1
  P  P22  1  0.054747  0.227062  0.457750  1
  P  P23  1  0.468877  0.789829  0.438659  1
  O  O24  1  0.064603  0.257189  0.602574  1
  O  O25  1  0.742811  0.935397  0.102574  1
  O  O26  1  0.158754  0.089602  0.419948  1
  O  O27  1  0.841246  0.910398  0.580052  1
  O  O28  1  0.935397  0.742811  0.397426  1
  O  O29  1  0.531436  0.272859  0.421599  1
  O  O30  1  0.370269  0.069794  0.589585  1
  O  O31  1  0.460178  0.658514  0.336797  1
  O  O32  1  0.930206  0.629731  0.089585  1
  O  O33  1  0.113770  0.379390  0.373718  1
  O  O34  1  0.629731  0.930206  0.410415  1
  O  O35  1  0.684005  0.121016  0.593448  1
  O  O36  1  0.886230  0.620610  0.626282  1
  O  O37  1  0.379390  0.113770  0.126282  1
  O  O38  1  0.870084  0.138420  0.413149  1
  O  O39  1  0.069794  0.370269  0.910415  1
  O  O40  1  0.121016  0.684005  0.906552  1
  O  O41  1  0.539822  0.341486  0.663203  1
  O  O42  1  0.089602  0.158754  0.080052  1
  O  O43  1  0.138420  0.870084  0.086851  1
  O  O44  1  0.468564  0.727141  0.578401  1
  O  O45  1  0.727141  0.468564  0.921599  1
  O  O46  1  0.878984  0.315995  0.093448  1
  O  O47  1  0.620610  0.886230  0.873718  1
  O  O48  1  0.910398  0.841246  0.919948  1
  O  O49  1  0.272859  0.531436  0.078401  1
  O  O50  1  0.341486  0.539822  0.836797  1
  O  O51  1  0.257189  0.064603  0.897426  1
  O  O52  1  0.129916  0.861580  0.586851  1
  O  O53  1  0.658514  0.460178  0.163203  1
  O  O54  1  0.861580  0.129916  0.913149  1
  O  O55  1  0.315995  0.878984  0.406552  1
