# generated using pymatgen
data_Ba5Al2Ge7
_symmetry_space_group_name_H-M   'P 1'
_cell_length_a   6.80766682
_cell_length_b   6.80766682
_cell_length_c   18.68978784
_cell_angle_alpha   81.38468913
_cell_angle_beta   98.61531087
_cell_angle_gamma   79.89718866
_symmetry_Int_Tables_number   1
_chemical_formula_structural   Ba5Al2Ge7
_chemical_formula_sum   'Ba10 Al4 Ge14'
_cell_volume   829.20474491
_cell_formula_units_Z   2
loop_
 _symmetry_equiv_pos_site_id
 _symmetry_equiv_pos_as_xyz
  1  'x, y, z'
loop_
 _atom_site_type_symbol
 _atom_site_label
 _atom_site_symmetry_multiplicity
 _atom_site_fract_x
 _atom_site_fract_y
 _atom_site_fract_z
 _atom_site_occupancy
  Ba  Ba0  1  0.750894  0.750894  0.000000  1
  Ba  Ba1  1  0.122616  0.429714  0.210360  1
  Ba  Ba2  1  0.290671  0.290671  0.500000  1
  Ba  Ba3  1  0.761188  0.238812  0.355380  1
  Ba  Ba4  1  0.238812  0.761188  0.644620  1
  Ba  Ba5  1  0.570286  0.877384  0.210360  1
  Ba  Ba6  1  0.249106  0.249106  0.000000  1
  Ba  Ba7  1  0.709329  0.709329  0.500000  1
  Ba  Ba8  1  0.429714  0.122616  0.789640  1
  Ba  Ba9  1  0.877384  0.570286  0.789640  1
  Al  Al10  1  0.224944  0.775056  0.928582  1
  Al  Al11  1  0.924569  0.075431  0.733275  1
  Al  Al12  1  0.075431  0.924569  0.266725  1
  Al  Al13  1  0.775056  0.224944  0.071418  1
  Ge  Ge14  1  0.361918  0.638082  0.355975  1
  Ge  Ge15  1  0.297157  0.702843  0.067014  1
  Ge  Ge16  1  0.939085  0.060915  0.868203  1
  Ge  Ge17  1  0.638082  0.361918  0.644025  1
  Ge  Ge18  1  0.413289  0.586711  0.845938  1
  Ge  Ge19  1  0.060915  0.939085  0.131797  1
  Ge  Ge20  1  0.819658  0.180342  0.546668  1
  Ge  Ge21  1  0.334939  0.039546  0.357628  1
  Ge  Ge22  1  0.665061  0.960454  0.642372  1
  Ge  Ge23  1  0.180342  0.819658  0.453332  1
  Ge  Ge24  1  0.960454  0.665061  0.357628  1
  Ge  Ge25  1  0.039546  0.334939  0.642372  1
  Ge  Ge26  1  0.702843  0.297157  0.932986  1
  Ge  Ge27  1  0.586711  0.413289  0.154062  1
