# generated using pymatgen
data_KNb5O13
_symmetry_space_group_name_H-M   'P 1'
_cell_length_a   5.79959395
_cell_length_b   10.95673686
_cell_length_c   17.07994880
_cell_angle_alpha   90.00000000
_cell_angle_beta   90.00000000
_cell_angle_gamma   90.00000000
_symmetry_Int_Tables_number   1
_chemical_formula_structural   KNb5O13
_chemical_formula_sum   'K4 Nb20 O52'
_cell_volume   1085.33893818
_cell_formula_units_Z   4
loop_
 _symmetry_equiv_pos_site_id
 _symmetry_equiv_pos_as_xyz
  1  'x, y, z'
loop_
 _atom_site_type_symbol
 _atom_site_label
 _atom_site_symmetry_multiplicity
 _atom_site_fract_x
 _atom_site_fract_y
 _atom_site_fract_z
 _atom_site_occupancy
  K  K0  1  0.788469  0.325813  0.250000  1
  K  K1  1  0.211531  0.674187  0.750000  1
  K  K2  1  0.211531  0.825813  0.250000  1
  K  K3  1  0.788469  0.174187  0.750000  1
  Nb  Nb4  1  0.831898  0.935231  0.076319  1
  Nb  Nb5  1  0.339998  0.133049  0.136840  1
  Nb  Nb6  1  0.339998  0.366951  0.863160  1
  Nb  Nb7  1  0.831898  0.935231  0.423681  1
  Nb  Nb8  1  0.168102  0.064769  0.923681  1
  Nb  Nb9  1  0.831898  0.564769  0.576319  1
  Nb  Nb10  1  0.660002  0.633049  0.363160  1
  Nb  Nb11  1  0.831898  0.564769  0.923681  1
  Nb  Nb12  1  0.660002  0.633049  0.136840  1
  Nb  Nb13  1  0.339998  0.133049  0.363160  1
  Nb  Nb14  1  0.168102  0.064769  0.576319  1
  Nb  Nb15  1  0.323090  0.750000  0.500000  1
  Nb  Nb16  1  0.168102  0.435231  0.423681  1
  Nb  Nb17  1  0.323090  0.750000  0.000000  1
  Nb  Nb18  1  0.676910  0.250000  0.000000  1
  Nb  Nb19  1  0.339998  0.366951  0.636840  1
  Nb  Nb20  1  0.168102  0.435231  0.076319  1
  Nb  Nb21  1  0.676910  0.250000  0.500000  1
  Nb  Nb22  1  0.660002  0.866951  0.636840  1
  Nb  Nb23  1  0.660002  0.866951  0.863160  1
  O  O24  1  0.131839  0.283349  0.127950  1
  O  O25  1  0.593318  0.251998  0.390098  1
  O  O26  1  0.407589  0.994232  0.635546  1
  O  O27  1  0.909151  0.982048  0.864714  1
  O  O28  1  0.909151  0.517952  0.364714  1
  O  O29  1  0.354401  0.123433  0.487539  1
  O  O30  1  0.129166  0.607647  0.496296  1
  O  O31  1  0.129166  0.892353  0.996296  1
  O  O32  1  0.354401  0.376567  0.987539  1
  O  O33  1  0.366965  0.347415  0.750000  1
  O  O34  1  0.593318  0.248002  0.890098  1
  O  O35  1  0.090849  0.017952  0.135286  1
  O  O36  1  0.593318  0.251998  0.109902  1
  O  O37  1  0.129166  0.607647  0.003704  1
  O  O38  1  0.406682  0.751998  0.109902  1
  O  O39  1  0.407589  0.505768  0.364454  1
  O  O40  1  0.633035  0.652585  0.250000  1
  O  O41  1  0.131839  0.216651  0.627950  1
  O  O42  1  0.592411  0.494232  0.864454  1
  O  O43  1  0.406682  0.751998  0.390098  1
  O  O44  1  0.090849  0.482048  0.864714  1
  O  O45  1  0.645599  0.623433  0.487539  1
  O  O46  1  0.645599  0.876567  0.512461  1
  O  O47  1  0.131839  0.216651  0.872050  1
  O  O48  1  0.633035  0.847415  0.750000  1
  O  O49  1  0.407589  0.505768  0.135546  1
  O  O50  1  0.870834  0.107647  0.496296  1
  O  O51  1  0.406682  0.748002  0.609902  1
  O  O52  1  0.909151  0.517952  0.135286  1
  O  O53  1  0.407589  0.994232  0.864454  1
  O  O54  1  0.592411  0.494232  0.635546  1
  O  O55  1  0.090849  0.017952  0.364714  1
  O  O56  1  0.870834  0.392353  0.503704  1
  O  O57  1  0.406682  0.748002  0.890098  1
  O  O58  1  0.645599  0.876567  0.987539  1
  O  O59  1  0.090849  0.482048  0.635286  1
  O  O60  1  0.366965  0.152585  0.250000  1
  O  O61  1  0.354401  0.376567  0.512461  1
  O  O62  1  0.593318  0.248002  0.609902  1
  O  O63  1  0.129166  0.892353  0.503704  1
  O  O64  1  0.645599  0.623433  0.012461  1
  O  O65  1  0.592411  0.005768  0.364454  1
  O  O66  1  0.870834  0.392353  0.996296  1
  O  O67  1  0.870834  0.107647  0.003704  1
  O  O68  1  0.592411  0.005768  0.135546  1
  O  O69  1  0.868161  0.783349  0.372050  1
  O  O70  1  0.868161  0.783349  0.127950  1
  O  O71  1  0.909151  0.982048  0.635286  1
  O  O72  1  0.868161  0.716651  0.872050  1
  O  O73  1  0.131839  0.283349  0.372050  1
  O  O74  1  0.868161  0.716651  0.627950  1
  O  O75  1  0.354401  0.123433  0.012461  1
