# generated using pymatgen
data_Na5Fe3F14
_symmetry_space_group_name_H-M   'P 1'
_cell_length_a   7.74013703
_cell_length_b   7.74013703
_cell_length_c   10.24011626
_cell_angle_alpha   90.00000000
_cell_angle_beta   90.00000000
_cell_angle_gamma   90.00000000
_symmetry_Int_Tables_number   1
_chemical_formula_structural   Na5Fe3F14
_chemical_formula_sum   'Na10 Fe6 F28'
_cell_volume   613.48251063
_cell_formula_units_Z   2
loop_
 _symmetry_equiv_pos_site_id
 _symmetry_equiv_pos_as_xyz
  1  'x, y, z'
loop_
 _atom_site_type_symbol
 _atom_site_label
 _atom_site_symmetry_multiplicity
 _atom_site_fract_x
 _atom_site_fract_y
 _atom_site_fract_z
 _atom_site_occupancy
  Na  Na0  1  0.000000  0.000000  0.000000  1
  Na  Na1  1  0.500000  0.500000  0.500000  1
  Na  Na2  1  0.766494  0.233506  0.740181  1
  Na  Na3  1  0.233506  0.766494  0.740181  1
  Na  Na4  1  0.233506  0.766494  0.259819  1
  Na  Na5  1  0.733506  0.733506  0.240181  1
  Na  Na6  1  0.266494  0.266494  0.240181  1
  Na  Na7  1  0.733506  0.733506  0.759819  1
  Na  Na8  1  0.266494  0.266494  0.759819  1
  Na  Na9  1  0.766494  0.233506  0.259819  1
  Fe  Fe10  1  0.000000  0.000000  0.500000  1
  Fe  Fe11  1  0.500000  0.500000  0.000000  1
  Fe  Fe12  1  0.000000  0.500000  0.500000  1
  Fe  Fe13  1  0.000000  0.500000  0.000000  1
  Fe  Fe14  1  0.500000  0.000000  0.000000  1
  Fe  Fe15  1  0.500000  0.000000  0.500000  1
  F  F16  1  0.500000  0.500000  0.812389  1
  F  F17  1  0.000000  0.000000  0.312389  1
  F  F18  1  0.000000  0.000000  0.687611  1
  F  F19  1  0.500000  0.500000  0.187611  1
  F  F20  1  0.997414  0.249181  0.500000  1
  F  F21  1  0.002586  0.750819  0.500000  1
  F  F22  1  0.249181  0.997414  0.500000  1
  F  F23  1  0.749181  0.502586  0.000000  1
  F  F24  1  0.250819  0.497414  0.000000  1
  F  F25  1  0.502586  0.749181  0.000000  1
  F  F26  1  0.497414  0.250819  0.000000  1
  F  F27  1  0.750819  0.002586  0.500000  1
  F  F28  1  0.502817  0.185362  0.629473  1
  F  F29  1  0.497183  0.814638  0.629473  1
  F  F30  1  0.185362  0.502817  0.370527  1
  F  F31  1  0.685362  0.997183  0.129473  1
  F  F32  1  0.497183  0.814638  0.370527  1
  F  F33  1  0.685362  0.997183  0.870527  1
  F  F34  1  0.314638  0.002817  0.870527  1
  F  F35  1  0.997183  0.685362  0.129473  1
  F  F36  1  0.002817  0.314638  0.129473  1
  F  F37  1  0.502817  0.185362  0.370527  1
  F  F38  1  0.814638  0.497183  0.629473  1
  F  F39  1  0.185362  0.502817  0.629473  1
  F  F40  1  0.814638  0.497183  0.370527  1
  F  F41  1  0.002817  0.314638  0.870527  1
  F  F42  1  0.997183  0.685362  0.870527  1
  F  F43  1  0.314638  0.002817  0.129473  1
