# generated using pymatgen
data_Yb2Ni12P7
_symmetry_space_group_name_H-M   'P 1'
_cell_length_a   9.01617057
_cell_length_b   9.01617057
_cell_length_c   3.65822277
_cell_angle_alpha   90.00000000
_cell_angle_beta   90.00000000
_cell_angle_gamma   120.00000000
_symmetry_Int_Tables_number   1
_chemical_formula_structural   Yb2Ni12P7
_chemical_formula_sum   'Yb2 Ni12 P7'
_cell_volume   257.54019414
_cell_formula_units_Z   1
loop_
 _symmetry_equiv_pos_site_id
 _symmetry_equiv_pos_as_xyz
  1  'x, y, z'
loop_
 _atom_site_type_symbol
 _atom_site_label
 _atom_site_symmetry_multiplicity
 _atom_site_fract_x
 _atom_site_fract_y
 _atom_site_fract_z
 _atom_site_occupancy
  Yb  Yb0  1  0.000000  0.000000  0.000000  1
  Yb  Yb1  1  0.333333  0.666667  0.500000  1
  Ni  Ni2  1  0.101911  0.394008  0.000000  1
  Ni  Ni3  1  0.292096  0.898089  0.000000  1
  Ni  Ni4  1  0.605992  0.707904  0.000000  1
  Ni  Ni5  1  0.820120  0.609724  0.000000  1
  Ni  Ni6  1  0.789603  0.179880  0.000000  1
  Ni  Ni7  1  0.390276  0.210397  0.000000  1
  Ni  Ni8  1  0.046866  0.764019  0.500000  1
  Ni  Ni9  1  0.717153  0.953134  0.500000  1
  Ni  Ni10  1  0.235981  0.282847  0.500000  1
  Ni  Ni11  1  0.880490  0.426860  0.500000  1
  Ni  Ni12  1  0.546370  0.119510  0.500000  1
  Ni  Ni13  1  0.573140  0.453630  0.500000  1
  P  P14  1  0.074605  0.627414  0.000000  1
  P  P15  1  0.552809  0.925395  0.000000  1
  P  P16  1  0.372586  0.447191  0.000000  1
  P  P17  1  0.775802  0.738276  0.500000  1
  P  P18  1  0.962473  0.224198  0.500000  1
  P  P19  1  0.261724  0.037527  0.500000  1
  P  P20  1  0.666667  0.333333  0.000000  1
