# generated using pymatgen
data_Sr2TmNbO6
_symmetry_space_group_name_H-M   'P 1'
_cell_length_a   5.90626427
_cell_length_b   5.93948991
_cell_length_c   8.35541035
_cell_angle_alpha   90.00000000
_cell_angle_beta   90.00000000
_cell_angle_gamma   90.00000000
_symmetry_Int_Tables_number   1
_chemical_formula_structural   Sr2TmNbO6
_chemical_formula_sum   'Sr4 Tm2 Nb2 O12'
_cell_volume   293.10944141
_cell_formula_units_Z   2
loop_
 _symmetry_equiv_pos_site_id
 _symmetry_equiv_pos_as_xyz
  1  'x, y, z'
loop_
 _atom_site_type_symbol
 _atom_site_label
 _atom_site_symmetry_multiplicity
 _atom_site_fract_x
 _atom_site_fract_y
 _atom_site_fract_z
 _atom_site_occupancy
  Sr  Sr0  1  0.504220  0.980802  0.748381  1
  Sr  Sr1  1  0.004220  0.519198  0.248381  1
  Sr  Sr2  1  0.004220  0.480802  0.751619  1
  Sr  Sr3  1  0.504220  0.019198  0.251619  1
  Tm  Tm4  1  0.003653  0.000000  0.500000  1
  Tm  Tm5  1  0.503653  0.500000  0.000000  1
  Nb  Nb6  1  0.003239  0.000000  0.000000  1
  Nb  Nb7  1  0.503239  0.500000  0.500000  1
  O  O8  1  0.274208  0.249732  0.508661  1
  O  O9  1  0.481921  0.513398  0.739680  1
  O  O10  1  0.774208  0.250268  0.008661  1
  O  O11  1  0.481921  0.486602  0.260320  1
  O  O12  1  0.774208  0.749732  0.991339  1
  O  O13  1  0.274208  0.750268  0.491339  1
  O  O14  1  0.252305  0.230569  0.995974  1
  O  O15  1  0.752305  0.730569  0.504026  1
  O  O16  1  0.981921  0.013398  0.760320  1
  O  O17  1  0.252305  0.769431  0.004026  1
  O  O18  1  0.752305  0.269431  0.495974  1
  O  O19  1  0.981921  0.986602  0.239680  1
