# generated using pymatgen
data_CaCr2O4
_symmetry_space_group_name_H-M   'P 1'
_cell_length_a   3.03758394
_cell_length_b   9.19878243
_cell_length_c   10.79494018
_cell_angle_alpha   90.00000000
_cell_angle_beta   90.00000000
_cell_angle_gamma   90.00000000
_symmetry_Int_Tables_number   1
_chemical_formula_structural   CaCr2O4
_chemical_formula_sum   'Ca4 Cr8 O16'
_cell_volume   301.63301493
_cell_formula_units_Z   4
loop_
 _symmetry_equiv_pos_site_id
 _symmetry_equiv_pos_as_xyz
  1  'x, y, z'
loop_
 _atom_site_type_symbol
 _atom_site_label
 _atom_site_symmetry_multiplicity
 _atom_site_fract_x
 _atom_site_fract_y
 _atom_site_fract_z
 _atom_site_occupancy
  Ca  Ca0  1  0.750000  0.740237  0.659174  1
  Ca  Ca1  1  0.250000  0.259763  0.340826  1
  Ca  Ca2  1  0.750000  0.240237  0.840826  1
  Ca  Ca3  1  0.250000  0.759763  0.159174  1
  Cr  Cr4  1  0.750000  0.059791  0.612937  1
  Cr  Cr5  1  0.250000  0.940209  0.387063  1
  Cr  Cr6  1  0.750000  0.559791  0.887063  1
  Cr  Cr7  1  0.250000  0.440209  0.112937  1
  Cr  Cr8  1  0.750000  0.084052  0.100897  1
  Cr  Cr9  1  0.250000  0.915948  0.899103  1
  Cr  Cr10  1  0.750000  0.584052  0.399103  1
  Cr  Cr11  1  0.250000  0.415948  0.600897  1
  O  O12  1  0.750000  0.298493  0.162172  1
  O  O13  1  0.250000  0.701507  0.837828  1
  O  O14  1  0.750000  0.798493  0.337828  1
  O  O15  1  0.250000  0.201507  0.662172  1
  O  O16  1  0.750000  0.382281  0.474945  1
  O  O17  1  0.250000  0.617719  0.525055  1
  O  O18  1  0.750000  0.882281  0.025055  1
  O  O19  1  0.250000  0.117719  0.974945  1
  O  O20  1  0.750000  0.970890  0.785802  1
  O  O21  1  0.250000  0.029110  0.214198  1
  O  O22  1  0.750000  0.470890  0.714198  1
  O  O23  1  0.250000  0.529110  0.285802  1
  O  O24  1  0.750000  0.082011  0.426327  1
  O  O25  1  0.250000  0.917989  0.573673  1
  O  O26  1  0.750000  0.582011  0.073673  1
  O  O27  1  0.250000  0.417989  0.926327  1
