# generated using pymatgen
data_Yb(ClO4)3
_symmetry_space_group_name_H-M   'P 1'
_cell_length_a   9.58253746
_cell_length_b   9.58253746
_cell_length_c   9.58253746
_cell_angle_alpha   51.98284386
_cell_angle_beta   51.98284386
_cell_angle_gamma   51.98284386
_symmetry_Int_Tables_number   1
_chemical_formula_structural   Yb(ClO4)3
_chemical_formula_sum   'Yb2 Cl6 O24'
_cell_volume   504.91230107
_cell_formula_units_Z   2
loop_
 _symmetry_equiv_pos_site_id
 _symmetry_equiv_pos_as_xyz
  1  'x, y, z'
loop_
 _atom_site_type_symbol
 _atom_site_label
 _atom_site_symmetry_multiplicity
 _atom_site_fract_x
 _atom_site_fract_y
 _atom_site_fract_z
 _atom_site_occupancy
  Yb  Yb0  1  0.940248  0.940248  0.940248  1
  Yb  Yb1  1  0.440248  0.440248  0.440248  1
  Cl  Cl2  1  0.032880  0.307858  0.659876  1
  Cl  Cl3  1  0.659876  0.032880  0.307858  1
  Cl  Cl4  1  0.307858  0.659876  0.032880  1
  Cl  Cl5  1  0.807858  0.532880  0.159876  1
  Cl  Cl6  1  0.159876  0.807858  0.532880  1
  Cl  Cl7  1  0.532880  0.159876  0.807858  1
  O  O8  1  0.422291  0.367204  0.749586  1
  O  O9  1  0.799426  0.711939  0.118658  1
  O  O10  1  0.163911  0.606471  0.080313  1
  O  O11  1  0.922291  0.249586  0.867204  1
  O  O12  1  0.118658  0.799426  0.711939  1
  O  O13  1  0.749586  0.422291  0.367204  1
  O  O14  1  0.249586  0.867204  0.922291  1
  O  O15  1  0.426050  0.055585  0.995404  1
  O  O16  1  0.367204  0.749586  0.422291  1
  O  O17  1  0.211939  0.299426  0.618658  1
  O  O18  1  0.663911  0.580313  0.106471  1
  O  O19  1  0.618658  0.211939  0.299426  1
  O  O20  1  0.926050  0.495404  0.555585  1
  O  O21  1  0.080313  0.163911  0.606471  1
  O  O22  1  0.055585  0.995404  0.426050  1
  O  O23  1  0.580313  0.106471  0.663911  1
  O  O24  1  0.495404  0.555585  0.926050  1
  O  O25  1  0.299426  0.618658  0.211939  1
  O  O26  1  0.555585  0.926050  0.495404  1
  O  O27  1  0.606471  0.080313  0.163911  1
  O  O28  1  0.106471  0.663911  0.580313  1
  O  O29  1  0.995404  0.426050  0.055585  1
  O  O30  1  0.711939  0.118658  0.799426  1
  O  O31  1  0.867204  0.922291  0.249586  1
