# generated using pymatgen
data_CdI2
_symmetry_space_group_name_H-M   'P 1'
_cell_length_a   4.33578929
_cell_length_b   4.33578929
_cell_length_c   100.78163979
_cell_angle_alpha   90.00000000
_cell_angle_beta   90.00000000
_cell_angle_gamma   120.00000000
_symmetry_Int_Tables_number   1
_chemical_formula_structural   CdI2
_chemical_formula_sum   'Cd13 I26'
_cell_volume   1640.77257660
_cell_formula_units_Z   13
loop_
 _symmetry_equiv_pos_site_id
 _symmetry_equiv_pos_as_xyz
  1  'x, y, z'
loop_
 _atom_site_type_symbol
 _atom_site_label
 _atom_site_symmetry_multiplicity
 _atom_site_fract_x
 _atom_site_fract_y
 _atom_site_fract_z
 _atom_site_occupancy
  Cd  Cd0  1  0.000000  0.000000  0.711605  1
  Cd  Cd1  1  0.000000  0.000000  0.480797  1
  Cd  Cd2  1  0.666667  0.333333  0.634559  1
  Cd  Cd3  1  0.666667  0.333333  0.096176  1
  Cd  Cd4  1  0.000000  0.000000  0.557674  1
  Cd  Cd5  1  0.000000  0.000000  0.019125  1
  Cd  Cd6  1  0.000000  0.000000  0.403765  1
  Cd  Cd7  1  0.000000  0.000000  0.326957  1
  Cd  Cd8  1  0.000000  0.000000  0.173242  1
  Cd  Cd9  1  0.666667  0.333333  0.788467  1
  Cd  Cd10  1  0.666667  0.333333  0.865356  1
  Cd  Cd11  1  0.666667  0.333333  0.249924  1
  Cd  Cd12  1  0.666667  0.333333  0.942354  1
  I  I13  1  0.000000  0.000000  0.882416  1
  I  I14  1  0.333333  0.666667  0.617485  1
  I  I15  1  0.333333  0.666667  0.540590  1
  I  I16  1  0.666667  0.333333  0.190303  1
  I  I17  1  0.333333  0.666667  0.232849  1
  I  I18  1  0.000000  0.000000  0.959426  1
  I  I19  1  0.666667  0.333333  0.344037  1
  I  I20  1  0.333333  0.666667  0.848292  1
  I  I21  1  0.000000  0.000000  0.651627  1
  I  I22  1  0.333333  0.666667  0.156183  1
  I  I23  1  0.333333  0.666667  0.771382  1
  I  I24  1  0.333333  0.666667  0.694559  1
  I  I25  1  0.666667  0.333333  0.420846  1
  I  I26  1  0.333333  0.666667  0.002034  1
  I  I27  1  0.000000  0.000000  0.267000  1
  I  I28  1  0.333333  0.666667  0.925275  1
  I  I29  1  0.666667  0.333333  0.574763  1
  I  I30  1  0.666667  0.333333  0.036211  1
  I  I31  1  0.666667  0.333333  0.728660  1
  I  I32  1  0.333333  0.666667  0.079129  1
  I  I33  1  0.000000  0.000000  0.113237  1
  I  I34  1  0.333333  0.666667  0.309879  1
  I  I35  1  0.333333  0.666667  0.463728  1
  I  I36  1  0.000000  0.000000  0.805552  1
  I  I37  1  0.333333  0.666667  0.386673  1
  I  I38  1  0.666667  0.333333  0.497862  1
