# generated using pymatgen
data_Rb2Na4Co2O5
_symmetry_space_group_name_H-M   'P 1'
_cell_length_a   6.52680537
_cell_length_b   6.52680537
_cell_length_c   10.34603246
_cell_angle_alpha   90.00000000
_cell_angle_beta   90.00000000
_cell_angle_gamma   90.00000000
_symmetry_Int_Tables_number   1
_chemical_formula_structural   Rb2Na4Co2O5
_chemical_formula_sum   'Rb4 Na8 Co4 O10'
_cell_volume   440.73258531
_cell_formula_units_Z   2
loop_
 _symmetry_equiv_pos_site_id
 _symmetry_equiv_pos_as_xyz
  1  'x, y, z'
loop_
 _atom_site_type_symbol
 _atom_site_label
 _atom_site_symmetry_multiplicity
 _atom_site_fract_x
 _atom_site_fract_y
 _atom_site_fract_z
 _atom_site_occupancy
  Rb  Rb0  1  0.303598  0.303598  0.000000  1
  Rb  Rb1  1  0.196402  0.803598  0.500000  1
  Rb  Rb2  1  0.803598  0.196402  0.500000  1
  Rb  Rb3  1  0.696402  0.696402  0.000000  1
  Na  Na4  1  0.000000  0.500000  0.750000  1
  Na  Na5  1  0.500000  0.000000  0.750000  1
  Na  Na6  1  0.000000  0.000000  0.777465  1
  Na  Na7  1  0.500000  0.000000  0.250000  1
  Na  Na8  1  0.500000  0.500000  0.277465  1
  Na  Na9  1  0.500000  0.500000  0.722535  1
  Na  Na10  1  0.000000  0.000000  0.222535  1
  Na  Na11  1  0.000000  0.500000  0.250000  1
  Co  Co12  1  0.710026  0.710026  0.500000  1
  Co  Co13  1  0.789974  0.210026  0.000000  1
  Co  Co14  1  0.210026  0.789974  0.000000  1
  Co  Co15  1  0.289974  0.289974  0.500000  1
  O  O16  1  0.500000  0.500000  0.500000  1
  O  O17  1  0.000000  0.000000  0.000000  1
  O  O18  1  0.718353  0.281647  0.835729  1
  O  O19  1  0.281647  0.718353  0.835729  1
  O  O20  1  0.218353  0.218353  0.335729  1
  O  O21  1  0.781647  0.781647  0.664271  1
  O  O22  1  0.218353  0.218353  0.664271  1
  O  O23  1  0.718353  0.281647  0.164271  1
  O  O24  1  0.781647  0.781647  0.335729  1
  O  O25  1  0.281647  0.718353  0.164271  1
