# generated using pymatgen
data_DyCo3
_symmetry_space_group_name_H-M   'P 1'
_cell_length_a   8.62181632
_cell_length_b   8.62181632
_cell_length_c   8.62181632
_cell_angle_alpha   33.39628970
_cell_angle_beta   33.39628970
_cell_angle_gamma   33.39628970
_symmetry_Int_Tables_number   1
_chemical_formula_structural   DyCo3
_chemical_formula_sum   'Dy3 Co9'
_cell_volume   172.91132203
_cell_formula_units_Z   3
loop_
 _symmetry_equiv_pos_site_id
 _symmetry_equiv_pos_as_xyz
  1  'x, y, z'
loop_
 _atom_site_type_symbol
 _atom_site_label
 _atom_site_symmetry_multiplicity
 _atom_site_fract_x
 _atom_site_fract_y
 _atom_site_fract_z
 _atom_site_occupancy
  Dy  Dy0  1  0.860523  0.860523  0.860523  1
  Dy  Dy1  1  0.139477  0.139477  0.139477  1
  Dy  Dy2  1  0.000000  0.000000  0.000000  1
  Co  Co3  1  0.921132  0.417835  0.417835  1
  Co  Co4  1  0.417835  0.921132  0.417835  1
  Co  Co5  1  0.665025  0.665025  0.665025  1
  Co  Co6  1  0.582165  0.582165  0.078868  1
  Co  Co7  1  0.417835  0.417835  0.921132  1
  Co  Co8  1  0.078868  0.582165  0.582165  1
  Co  Co9  1  0.334975  0.334975  0.334975  1
  Co  Co10  1  0.500000  0.500000  0.500000  1
  Co  Co11  1  0.582165  0.078868  0.582165  1
