# generated using pymatgen
data_Al5C3N
_symmetry_space_group_name_H-M   'P 1'
_cell_length_a   3.34566170
_cell_length_b   3.34566170
_cell_length_c   20.97145642
_cell_angle_alpha   90.00000000
_cell_angle_beta   90.00000000
_cell_angle_gamma   120.00000000
_symmetry_Int_Tables_number   1
_chemical_formula_structural   Al5C3N
_chemical_formula_sum   'Al10 C6 N2'
_cell_volume   203.29339751
_cell_formula_units_Z   2
loop_
 _symmetry_equiv_pos_site_id
 _symmetry_equiv_pos_as_xyz
  1  'x, y, z'
loop_
 _atom_site_type_symbol
 _atom_site_label
 _atom_site_symmetry_multiplicity
 _atom_site_fract_x
 _atom_site_fract_y
 _atom_site_fract_z
 _atom_site_occupancy
  Al  Al0  1  0.333333  0.666667  0.250000  1
  Al  Al1  1  0.666667  0.333333  0.750000  1
  Al  Al2  1  0.000000  0.000000  0.845190  1
  Al  Al3  1  0.000000  0.000000  0.345190  1
  Al  Al4  1  0.666667  0.333333  0.950921  1
  Al  Al5  1  0.333333  0.666667  0.450921  1
  Al  Al6  1  0.666667  0.333333  0.549079  1
  Al  Al7  1  0.333333  0.666667  0.049079  1
  Al  Al8  1  0.000000  0.000000  0.654810  1
  Al  Al9  1  0.000000  0.000000  0.154810  1
  C  C10  1  0.333333  0.666667  0.138649  1
  C  C11  1  0.666667  0.333333  0.638649  1
  C  C12  1  0.666667  0.333333  0.861351  1
  C  C13  1  0.333333  0.666667  0.361351  1
  C  C14  1  0.000000  0.000000  0.500000  1
  C  C15  1  0.000000  0.000000  0.000000  1
  N  N16  1  0.000000  0.000000  0.250000  1
  N  N17  1  0.000000  0.000000  0.750000  1
