# generated using pymatgen
data_Ta2CuO6
_symmetry_space_group_name_H-M   'P 1'
_cell_length_a   7.57343702
_cell_length_b   7.60506939
_cell_length_c   15.19424314
_cell_angle_alpha   90.00000000
_cell_angle_beta   90.00000000
_cell_angle_gamma   90.00000000
_symmetry_Int_Tables_number   1
_chemical_formula_structural   Ta2CuO6
_chemical_formula_sum   'Ta16 Cu8 O48'
_cell_volume   875.13543861
_cell_formula_units_Z   8
loop_
 _symmetry_equiv_pos_site_id
 _symmetry_equiv_pos_as_xyz
  1  'x, y, z'
loop_
 _atom_site_type_symbol
 _atom_site_label
 _atom_site_symmetry_multiplicity
 _atom_site_fract_x
 _atom_site_fract_y
 _atom_site_fract_z
 _atom_site_occupancy
  Ta  Ta0  1  0.251077  0.744178  0.625526  1
  Ta  Ta1  1  0.251077  0.744178  0.374474  1
  Ta  Ta2  1  0.255479  0.751154  0.123686  1
  Ta  Ta3  1  0.748923  0.744178  0.374474  1
  Ta  Ta4  1  0.744521  0.751154  0.876314  1
  Ta  Ta5  1  0.255479  0.751154  0.876314  1
  Ta  Ta6  1  0.748923  0.744178  0.625526  1
  Ta  Ta7  1  0.744521  0.751154  0.123686  1
  Ta  Ta8  1  0.251077  0.255822  0.374474  1
  Ta  Ta9  1  0.255479  0.248846  0.876314  1
  Ta  Ta10  1  0.748923  0.255822  0.625526  1
  Ta  Ta11  1  0.748923  0.255822  0.374474  1
  Ta  Ta12  1  0.251077  0.255822  0.625526  1
  Ta  Ta13  1  0.744521  0.248846  0.123686  1
  Ta  Ta14  1  0.744521  0.248846  0.876314  1
  Ta  Ta15  1  0.255479  0.248846  0.123686  1
  Cu  Cu16  1  0.000000  0.000000  0.500000  1
  Cu  Cu17  1  0.500000  0.000000  0.747974  1
  Cu  Cu18  1  0.500000  0.000000  0.500000  1
  Cu  Cu19  1  0.500000  0.000000  0.252026  1
  Cu  Cu20  1  0.000000  0.000000  0.000000  1
  Cu  Cu21  1  0.000000  0.500000  0.751215  1
  Cu  Cu22  1  0.000000  0.500000  0.248785  1
  Cu  Cu23  1  0.000000  0.500000  0.000000  1
  O  O24  1  0.694969  0.000000  0.661311  1
  O  O25  1  0.694969  0.000000  0.338689  1
  O  O26  1  0.690931  0.000000  0.159868  1
  O  O27  1  0.309069  0.000000  0.159868  1
  O  O28  1  0.690931  0.000000  0.840132  1
  O  O29  1  0.000000  0.818645  0.406036  1
  O  O30  1  0.000000  0.818645  0.593964  1
  O  O31  1  0.000000  0.821971  0.903718  1
  O  O32  1  0.000000  0.821971  0.096282  1
  O  O33  1  0.686494  0.814945  0.500000  1
  O  O34  1  0.313506  0.814945  0.500000  1
  O  O35  1  0.700536  0.795117  0.000000  1
  O  O36  1  0.299464  0.795117  0.000000  1
  O  O37  1  0.819312  0.689838  0.750603  1
  O  O38  1  0.819312  0.689838  0.249397  1
  O  O39  1  0.180688  0.689838  0.750603  1
  O  O40  1  0.180688  0.689838  0.249397  1
  O  O41  1  0.500000  0.703176  0.647607  1
  O  O42  1  0.500000  0.693036  0.146958  1
  O  O43  1  0.500000  0.703176  0.352393  1
  O  O44  1  0.500000  0.693036  0.853042  1
  O  O45  1  0.793763  0.500000  0.596894  1
  O  O46  1  0.815314  0.500000  0.093223  1
  O  O47  1  0.793763  0.500000  0.403106  1
  O  O48  1  0.206237  0.500000  0.596894  1
  O  O49  1  0.206237  0.500000  0.403106  1
  O  O50  1  0.815314  0.500000  0.906777  1
  O  O51  1  0.184686  0.500000  0.093223  1
  O  O52  1  0.184686  0.500000  0.906777  1
  O  O53  1  0.500000  0.296824  0.647607  1
  O  O54  1  0.500000  0.296824  0.352393  1
  O  O55  1  0.500000  0.306964  0.146958  1
  O  O56  1  0.500000  0.306964  0.853042  1
  O  O57  1  0.819312  0.310162  0.750603  1
  O  O58  1  0.180688  0.310162  0.750603  1
  O  O59  1  0.819312  0.310162  0.249397  1
  O  O60  1  0.180688  0.310162  0.249397  1
  O  O61  1  0.686494  0.185055  0.500000  1
  O  O62  1  0.313506  0.185055  0.500000  1
  O  O63  1  0.700536  0.204883  0.000000  1
  O  O64  1  0.299464  0.204883  0.000000  1
  O  O65  1  0.000000  0.181355  0.593964  1
  O  O66  1  0.000000  0.181355  0.406036  1
  O  O67  1  0.000000  0.178029  0.903718  1
  O  O68  1  0.000000  0.178029  0.096282  1
  O  O69  1  0.305031  0.000000  0.661311  1
  O  O70  1  0.305031  0.000000  0.338689  1
  O  O71  1  0.309069  0.000000  0.840132  1
