# generated using pymatgen
data_Ag10Te4Br3
_symmetry_space_group_name_H-M   'P 1'
_cell_length_a   11.18513876
_cell_length_b   11.18513876
_cell_length_c   13.91523083
_cell_angle_alpha   90.00000000
_cell_angle_beta   90.00000000
_cell_angle_gamma   91.18424817
_symmetry_Int_Tables_number   1
_chemical_formula_structural   Ag10Te4Br3
_chemical_formula_sum   'Ag40 Te16 Br12'
_cell_volume   1740.52551290
_cell_formula_units_Z   4
loop_
 _symmetry_equiv_pos_site_id
 _symmetry_equiv_pos_as_xyz
  1  'x, y, z'
loop_
 _atom_site_type_symbol
 _atom_site_label
 _atom_site_symmetry_multiplicity
 _atom_site_fract_x
 _atom_site_fract_y
 _atom_site_fract_z
 _atom_site_occupancy
  Ag  Ag0  1  0.881893  0.934111  0.216439  1
  Ag  Ag1  1  0.152170  0.647345  0.358573  1
  Ag  Ag2  1  0.825022  0.365058  0.098130  1
  Ag  Ag3  1  0.174978  0.634942  0.598130  1
  Ag  Ag4  1  0.313500  0.401874  0.340273  1
  Ag  Ag5  1  0.886100  0.357865  0.359748  1
  Ag  Ag6  1  0.352655  0.847830  0.358573  1
  Ag  Ag7  1  0.604556  0.147741  0.631883  1
  Ag  Ag8  1  0.642135  0.113900  0.359748  1
  Ag  Ag9  1  0.852259  0.395444  0.631883  1
  Ag  Ag10  1  0.357625  0.400616  0.124919  1
  Ag  Ag11  1  0.625839  0.374161  0.737974  1
  Ag  Ag12  1  0.598126  0.686500  0.340273  1
  Ag  Ag13  1  0.798104  0.988392  0.552873  1
  Ag  Ag14  1  0.634942  0.174978  0.098130  1
  Ag  Ag15  1  0.025780  0.163587  0.908094  1
  Ag  Ag16  1  0.400616  0.357625  0.624919  1
  Ag  Ag17  1  0.988392  0.798104  0.052873  1
  Ag  Ag18  1  0.357865  0.886100  0.859748  1
  Ag  Ag19  1  0.599384  0.642375  0.124919  1
  Ag  Ag20  1  0.647345  0.152170  0.858573  1
  Ag  Ag21  1  0.147741  0.604556  0.131883  1
  Ag  Ag22  1  0.163587  0.025780  0.408094  1
  Ag  Ag23  1  0.836413  0.974220  0.908094  1
  Ag  Ag24  1  0.934111  0.881893  0.716439  1
  Ag  Ag25  1  0.365058  0.825022  0.598130  1
  Ag  Ag26  1  0.401874  0.313500  0.840273  1
  Ag  Ag27  1  0.201896  0.011608  0.052873  1
  Ag  Ag28  1  0.974220  0.836413  0.408094  1
  Ag  Ag29  1  0.065889  0.118107  0.216439  1
  Ag  Ag30  1  0.146042  0.853958  0.219881  1
  Ag  Ag31  1  0.113900  0.642135  0.859748  1
  Ag  Ag32  1  0.118107  0.065889  0.716439  1
  Ag  Ag33  1  0.395444  0.852259  0.131883  1
  Ag  Ag34  1  0.642375  0.599384  0.624919  1
  Ag  Ag35  1  0.011608  0.201896  0.552873  1
  Ag  Ag36  1  0.374161  0.625839  0.237974  1
  Ag  Ag37  1  0.853958  0.146042  0.719881  1
  Ag  Ag38  1  0.847830  0.352655  0.858573  1
  Ag  Ag39  1  0.686500  0.598126  0.840273  1
  Te  Te40  1  0.630626  0.369374  0.538025  1
  Te  Te41  1  0.891066  0.108934  0.392197  1
  Te  Te42  1  0.369374  0.630626  0.038025  1
  Te  Te43  1  0.291849  0.524504  0.751732  1
  Te  Te44  1  0.049404  0.308592  0.739839  1
  Te  Te45  1  0.308592  0.049404  0.239839  1
  Te  Te46  1  0.691408  0.950596  0.739839  1
  Te  Te47  1  0.524504  0.291849  0.251732  1
  Te  Te48  1  0.119050  0.880950  0.572704  1
  Te  Te49  1  0.619112  0.380888  0.938775  1
  Te  Te50  1  0.950596  0.691408  0.239839  1
  Te  Te51  1  0.108934  0.891066  0.892197  1
  Te  Te52  1  0.880950  0.119050  0.072704  1
  Te  Te53  1  0.708151  0.475496  0.251732  1
  Te  Te54  1  0.475496  0.708151  0.751732  1
  Te  Te55  1  0.380888  0.619112  0.438775  1
  Br  Br56  1  0.505581  0.005141  0.991201  1
  Br  Br57  1  0.102793  0.362899  0.238343  1
  Br  Br58  1  0.251478  0.252536  0.990612  1
  Br  Br59  1  0.005141  0.505581  0.491201  1
  Br  Br60  1  0.637101  0.897207  0.238343  1
  Br  Br61  1  0.748522  0.747464  0.490612  1
  Br  Br62  1  0.747464  0.748522  0.990612  1
  Br  Br63  1  0.362899  0.102793  0.738343  1
  Br  Br64  1  0.252536  0.251478  0.490612  1
  Br  Br65  1  0.494419  0.994859  0.491201  1
  Br  Br66  1  0.897207  0.637101  0.738343  1
  Br  Br67  1  0.994859  0.494419  0.991201  1
