# generated using pymatgen
data_CdAg2GeS4
_symmetry_space_group_name_H-M   'P 1'
_cell_length_a   6.71456419
_cell_length_b   7.13403339
_cell_length_c   7.91523500
_cell_angle_alpha   90.00000000
_cell_angle_beta   90.00000000
_cell_angle_gamma   90.00000000
_symmetry_Int_Tables_number   1
_chemical_formula_structural   CdAg2GeS4
_chemical_formula_sum   'Cd2 Ag4 Ge2 S8'
_cell_volume   379.15499436
_cell_formula_units_Z   2
loop_
 _symmetry_equiv_pos_site_id
 _symmetry_equiv_pos_as_xyz
  1  'x, y, z'
loop_
 _atom_site_type_symbol
 _atom_site_label
 _atom_site_symmetry_multiplicity
 _atom_site_fract_x
 _atom_site_fract_y
 _atom_site_fract_z
 _atom_site_occupancy
  Cd  Cd0  1  0.015789  0.145034  0.000000  1
  Cd  Cd1  1  0.515789  0.854966  0.500000  1
  Ag  Ag2  1  0.495608  0.321050  0.243513  1
  Ag  Ag3  1  0.495608  0.321050  0.756487  1
  Ag  Ag4  1  0.995608  0.678950  0.743513  1
  Ag  Ag5  1  0.995608  0.678950  0.256487  1
  Ge  Ge6  1  0.012288  0.174760  0.500000  1
  Ge  Ge7  1  0.512288  0.825240  0.000000  1
  S  S8  1  0.176518  0.820725  0.000000  1
  S  S9  1  0.618659  0.666665  0.768960  1
  S  S10  1  0.629972  0.120202  0.000000  1
  S  S11  1  0.676518  0.179275  0.500000  1
  S  S12  1  0.118659  0.333335  0.731040  1
  S  S13  1  0.618659  0.666665  0.231040  1
  S  S14  1  0.129972  0.879798  0.500000  1
  S  S15  1  0.118659  0.333335  0.268960  1
