# generated using pymatgen
data_In2Te2MoO10
_symmetry_space_group_name_H-M   'P 1'
_cell_length_a   12.16824639
_cell_length_b   5.47548330
_cell_length_c   17.04190455
_cell_angle_alpha   90.00000000
_cell_angle_beta   129.78359608
_cell_angle_gamma   90.00000000
_symmetry_Int_Tables_number   1
_chemical_formula_structural   In2Te2MoO10
_chemical_formula_sum   'In8 Te8 Mo4 O40'
_cell_volume   872.55671953
_cell_formula_units_Z   4
loop_
 _symmetry_equiv_pos_site_id
 _symmetry_equiv_pos_as_xyz
  1  'x, y, z'
loop_
 _atom_site_type_symbol
 _atom_site_label
 _atom_site_symmetry_multiplicity
 _atom_site_fract_x
 _atom_site_fract_y
 _atom_site_fract_z
 _atom_site_occupancy
  In  In0  1  0.973910  0.295412  0.818549  1
  In  In1  1  0.026090  0.704588  0.181451  1
  In  In2  1  0.813674  0.761832  0.874369  1
  In  In3  1  0.973910  0.204588  0.318549  1
  In  In4  1  0.186326  0.261832  0.625631  1
  In  In5  1  0.813674  0.738168  0.374369  1
  In  In6  1  0.186326  0.238168  0.125631  1
  In  In7  1  0.026090  0.795412  0.681451  1
  Te  Te8  1  0.380614  0.760208  0.255518  1
  Te  Te9  1  0.821368  0.308116  0.541289  1
  Te  Te10  1  0.380614  0.739792  0.755518  1
  Te  Te11  1  0.821368  0.191884  0.041289  1
  Te  Te12  1  0.178632  0.691884  0.458711  1
  Te  Te13  1  0.619386  0.260208  0.244482  1
  Te  Te14  1  0.178632  0.808116  0.958711  1
  Te  Te15  1  0.619386  0.239792  0.744482  1
  Mo  Mo16  1  0.678577  0.732443  0.113254  1
  Mo  Mo17  1  0.678577  0.767557  0.613254  1
  Mo  Mo18  1  0.321423  0.232443  0.386746  1
  Mo  Mo19  1  0.321423  0.267557  0.886746  1
  O  O20  1  0.744839  0.924963  0.225799  1
  O  O21  1  0.800914  0.087149  0.788993  1
  O  O22  1  0.392557  0.451322  0.696745  1
  O  O23  1  0.255161  0.075037  0.774201  1
  O  O24  1  0.103290  0.402828  0.478253  1
  O  O25  1  0.199086  0.912851  0.211007  1
  O  O26  1  0.800914  0.412851  0.288993  1
  O  O27  1  0.536587  0.566932  0.089515  1
  O  O28  1  0.815797  0.533090  0.127676  1
  O  O29  1  0.184203  0.466910  0.872324  1
  O  O30  1  0.989662  0.385829  0.087483  1
  O  O31  1  0.722735  0.421821  0.870662  1
  O  O32  1  0.616925  0.924434  0.009412  1
  O  O33  1  0.080572  0.545541  0.322425  1
  O  O34  1  0.010338  0.614171  0.912517  1
  O  O35  1  0.989662  0.114171  0.587483  1
  O  O36  1  0.744839  0.575037  0.725799  1
  O  O37  1  0.896710  0.902828  0.021747  1
  O  O38  1  0.463413  0.066932  0.410485  1
  O  O39  1  0.184203  0.033090  0.372324  1
  O  O40  1  0.392557  0.048678  0.196745  1
  O  O41  1  0.616925  0.575566  0.509412  1
  O  O42  1  0.383075  0.424434  0.490588  1
  O  O43  1  0.722735  0.078179  0.370662  1
  O  O44  1  0.896710  0.597172  0.521747  1
  O  O45  1  0.463413  0.433068  0.910485  1
  O  O46  1  0.277265  0.578179  0.129338  1
  O  O47  1  0.607443  0.548678  0.303255  1
  O  O48  1  0.383075  0.075566  0.990588  1
  O  O49  1  0.080572  0.954459  0.822425  1
  O  O50  1  0.815797  0.966910  0.627676  1
  O  O51  1  0.919428  0.045541  0.177575  1
  O  O52  1  0.607443  0.951322  0.803255  1
  O  O53  1  0.010338  0.885829  0.412517  1
  O  O54  1  0.919428  0.454459  0.677575  1
  O  O55  1  0.536587  0.933068  0.589515  1
  O  O56  1  0.277265  0.921821  0.629338  1
  O  O57  1  0.199086  0.587149  0.711007  1
  O  O58  1  0.103290  0.097172  0.978253  1
  O  O59  1  0.255161  0.424963  0.274201  1
