# generated using pymatgen
data_Tb4CdCo
_symmetry_space_group_name_H-M   'P 1'
_cell_length_a   9.53818055
_cell_length_b   9.53818055
_cell_length_c   9.53818055
_cell_angle_alpha   60.00000000
_cell_angle_beta   60.00000000
_cell_angle_gamma   60.00000000
_symmetry_Int_Tables_number   1
_chemical_formula_structural   Tb4CdCo
_chemical_formula_sum   'Tb16 Cd4 Co4'
_cell_volume   613.59472759
_cell_formula_units_Z   4
loop_
 _symmetry_equiv_pos_site_id
 _symmetry_equiv_pos_as_xyz
  1  'x, y, z'
loop_
 _atom_site_type_symbol
 _atom_site_label
 _atom_site_symmetry_multiplicity
 _atom_site_fract_x
 _atom_site_fract_y
 _atom_site_fract_z
 _atom_site_occupancy
  Tb  Tb0  1  0.438542  0.438542  0.061458  1
  Tb  Tb1  1  0.903511  0.289467  0.903511  1
  Tb  Tb2  1  0.688302  0.311698  0.688302  1
  Tb  Tb3  1  0.061458  0.061458  0.438542  1
  Tb  Tb4  1  0.438542  0.061458  0.438542  1
  Tb  Tb5  1  0.688302  0.311698  0.311698  1
  Tb  Tb6  1  0.061458  0.438542  0.438542  1
  Tb  Tb7  1  0.903511  0.903511  0.289467  1
  Tb  Tb8  1  0.311698  0.311698  0.688302  1
  Tb  Tb9  1  0.903511  0.903511  0.903511  1
  Tb  Tb10  1  0.311698  0.688302  0.311698  1
  Tb  Tb11  1  0.061458  0.438542  0.061458  1
  Tb  Tb12  1  0.311698  0.688302  0.688302  1
  Tb  Tb13  1  0.289467  0.903511  0.903511  1
  Tb  Tb14  1  0.688302  0.688302  0.311698  1
  Tb  Tb15  1  0.438542  0.061458  0.061458  1
  Cd  Cd16  1  0.990985  0.669672  0.669672  1
  Cd  Cd17  1  0.669672  0.990985  0.669672  1
  Cd  Cd18  1  0.669672  0.669672  0.669672  1
  Cd  Cd19  1  0.669672  0.669672  0.990985  1
  Co  Co20  1  0.108965  0.673104  0.108965  1
  Co  Co21  1  0.108965  0.108965  0.108965  1
  Co  Co22  1  0.108965  0.108965  0.673104  1
  Co  Co23  1  0.673104  0.108965  0.108965  1
