# generated using pymatgen
data_LiAlS3(Cl2O3)2
_symmetry_space_group_name_H-M   'P 1'
_cell_length_a   9.75969573
_cell_length_b   10.24860882
_cell_length_c   13.69713438
_cell_angle_alpha   90.00000000
_cell_angle_beta   90.00000000
_cell_angle_gamma   90.00000000
_symmetry_Int_Tables_number   1
_chemical_formula_structural   LiAlS3(Cl2O3)2
_chemical_formula_sum   'Li4 Al4 S12 Cl16 O24'
_cell_volume   1370.03263244
_cell_formula_units_Z   4
loop_
 _symmetry_equiv_pos_site_id
 _symmetry_equiv_pos_as_xyz
  1  'x, y, z'
loop_
 _atom_site_type_symbol
 _atom_site_label
 _atom_site_symmetry_multiplicity
 _atom_site_fract_x
 _atom_site_fract_y
 _atom_site_fract_z
 _atom_site_occupancy
  Li  Li0  1  0.375414  0.750000  0.745911  1
  Li  Li1  1  0.875414  0.750000  0.754089  1
  Li  Li2  1  0.624586  0.250000  0.254089  1
  Li  Li3  1  0.124586  0.250000  0.245911  1
  Al  Al4  1  0.761224  0.750000  0.371232  1
  Al  Al5  1  0.238776  0.250000  0.628768  1
  Al  Al6  1  0.261224  0.750000  0.128768  1
  Al  Al7  1  0.738776  0.250000  0.871232  1
  S  S8  1  0.872497  0.042686  0.146030  1
  S  S9  1  0.627503  0.542686  0.646030  1
  S  S10  1  0.375231  0.250000  0.065665  1
  S  S11  1  0.624769  0.750000  0.934335  1
  S  S12  1  0.372497  0.457314  0.353970  1
  S  S13  1  0.372497  0.042686  0.353970  1
  S  S14  1  0.127503  0.957314  0.853970  1
  S  S15  1  0.627503  0.957314  0.646030  1
  S  S16  1  0.127503  0.542686  0.853970  1
  S  S17  1  0.124769  0.750000  0.565665  1
  S  S18  1  0.875231  0.250000  0.434335  1
  S  S19  1  0.872497  0.457314  0.146030  1
  Cl  Cl20  1  0.876581  0.578053  0.409453  1
  Cl  Cl21  1  0.219023  0.750000  0.283191  1
  Cl  Cl22  1  0.280977  0.250000  0.783191  1
  Cl  Cl23  1  0.072148  0.750000  0.044563  1
  Cl  Cl24  1  0.719023  0.750000  0.216809  1
  Cl  Cl25  1  0.123419  0.078053  0.590547  1
  Cl  Cl26  1  0.623419  0.078053  0.909453  1
  Cl  Cl27  1  0.780977  0.250000  0.716809  1
  Cl  Cl28  1  0.876581  0.921947  0.409453  1
  Cl  Cl29  1  0.927852  0.250000  0.955437  1
  Cl  Cl30  1  0.623419  0.421947  0.909453  1
  Cl  Cl31  1  0.572148  0.750000  0.455437  1
  Cl  Cl32  1  0.123419  0.421947  0.590547  1
  Cl  Cl33  1  0.376581  0.921947  0.090547  1
  Cl  Cl34  1  0.427852  0.250000  0.544563  1
  Cl  Cl35  1  0.376581  0.578053  0.090547  1
  O  O36  1  0.758782  0.750000  0.888154  1
  O  O37  1  0.258782  0.750000  0.611846  1
  O  O38  1  0.996523  0.591624  0.819400  1
  O  O39  1  0.006440  0.750000  0.629467  1
  O  O40  1  0.250398  0.106185  0.316746  1
  O  O41  1  0.493560  0.250000  0.129467  1
  O  O42  1  0.503477  0.408376  0.319400  1
  O  O43  1  0.496523  0.591624  0.680600  1
  O  O44  1  0.003477  0.091624  0.180600  1
  O  O45  1  0.249602  0.893815  0.816746  1
  O  O46  1  0.993560  0.250000  0.370533  1
  O  O47  1  0.003477  0.408376  0.180600  1
  O  O48  1  0.506440  0.750000  0.870533  1
  O  O49  1  0.749602  0.893815  0.683254  1
  O  O50  1  0.241218  0.250000  0.111846  1
  O  O51  1  0.749602  0.606185  0.683254  1
  O  O52  1  0.503477  0.091624  0.319400  1
  O  O53  1  0.496523  0.908376  0.680600  1
  O  O54  1  0.750398  0.106185  0.183254  1
  O  O55  1  0.750398  0.393815  0.183254  1
  O  O56  1  0.741218  0.250000  0.388154  1
  O  O57  1  0.250398  0.393815  0.316746  1
  O  O58  1  0.249602  0.606185  0.816746  1
  O  O59  1  0.996523  0.908376  0.819400  1
