# generated using pymatgen
data_La2CoO4
_symmetry_space_group_name_H-M   'P 1'
_cell_length_a   6.84778664
_cell_length_b   6.84778664
_cell_length_c   5.75486978
_cell_angle_alpha   90.00000000
_cell_angle_beta   90.00000000
_cell_angle_gamma   132.66902962
_symmetry_Int_Tables_number   1
_chemical_formula_structural   La2CoO4
_chemical_formula_sum   'La4 Co2 O8'
_cell_volume   198.42176967
_cell_formula_units_Z   2
loop_
 _symmetry_equiv_pos_site_id
 _symmetry_equiv_pos_as_xyz
  1  'x, y, z'
loop_
 _atom_site_type_symbol
 _atom_site_label
 _atom_site_symmetry_multiplicity
 _atom_site_fract_x
 _atom_site_fract_y
 _atom_site_fract_z
 _atom_site_occupancy
  La  La0  1  0.362013  0.637987  0.517986  1
  La  La1  1  0.637987  0.362013  0.482014  1
  La  La2  1  0.137987  0.862013  0.017986  1
  La  La3  1  0.862013  0.137987  0.982014  1
  Co  Co4  1  0.000000  0.000000  0.500000  1
  Co  Co5  1  0.500000  0.500000  0.000000  1
  O  O6  1  0.182172  0.817828  0.426727  1
  O  O7  1  0.817828  0.182172  0.573273  1
  O  O8  1  0.317828  0.682172  0.926727  1
  O  O9  1  0.682172  0.317828  0.073273  1
  O  O10  1  0.269977  0.230023  0.750000  1
  O  O11  1  0.230023  0.269977  0.250000  1
  O  O12  1  0.769977  0.730023  0.750000  1
  O  O13  1  0.730023  0.769977  0.250000  1
