# generated using pymatgen
data_Na2NpH2(CO3)3
_symmetry_space_group_name_H-M   'P 1'
_cell_length_a   6.95184520
_cell_length_b   8.44575482
_cell_length_c   8.76409130
_cell_angle_alpha   76.54707756
_cell_angle_beta   71.04564765
_cell_angle_gamma   68.75864700
_symmetry_Int_Tables_number   1
_chemical_formula_structural   Na2NpH2(CO3)3
_chemical_formula_sum   'Na4 Np2 H4 C6 O18'
_cell_volume   449.73258628
_cell_formula_units_Z   2
loop_
 _symmetry_equiv_pos_site_id
 _symmetry_equiv_pos_as_xyz
  1  'x, y, z'
loop_
 _atom_site_type_symbol
 _atom_site_label
 _atom_site_symmetry_multiplicity
 _atom_site_fract_x
 _atom_site_fract_y
 _atom_site_fract_z
 _atom_site_occupancy
  Na  Na0  1  0.510358  0.618060  0.790043  1
  Na  Na1  1  0.489642  0.381940  0.209957  1
  Na  Na2  1  0.364251  0.037465  0.821097  1
  Na  Na3  1  0.635749  0.962535  0.178903  1
  Np  Np4  1  0.966995  0.836530  0.725780  1
  Np  Np5  1  0.033005  0.163470  0.274220  1
  H  H6  1  0.694924  0.647614  0.409493  1
  H  H7  1  0.305076  0.352386  0.590507  1
  H  H8  1  0.681090  0.791718  0.500726  1
  H  H9  1  0.318910  0.208282  0.499274  1
  C  C10  1  0.299060  0.777452  0.156820  1
  C  C11  1  0.700940  0.222548  0.843180  1
  C  C12  1  0.776932  0.269726  0.655767  1
  C  C13  1  0.223068  0.730274  0.344233  1
  C  C14  1  0.084239  0.444812  0.934303  1
  C  C15  1  0.915761  0.555188  0.065697  1
  O  O16  1  0.886480  0.139122  0.576840  1
  O  O17  1  0.276680  0.188289  0.299655  1
  O  O18  1  0.730482  0.422373  0.594824  1
  O  O19  1  0.794641  0.137979  0.245001  1
  O  O20  1  0.381605  0.659889  0.069489  1
  O  O21  1  0.849096  0.715055  0.022623  1
  O  O22  1  0.205359  0.862021  0.754999  1
  O  O23  1  0.723320  0.811711  0.700345  1
  O  O24  1  0.272784  0.937749  0.106041  1
  O  O25  1  0.113520  0.860878  0.423160  1
  O  O26  1  0.269518  0.577627  0.405176  1
  O  O27  1  0.857470  0.475410  0.205630  1
  O  O28  1  0.727216  0.062251  0.893959  1
  O  O29  1  0.618395  0.340111  0.930511  1
  O  O30  1  0.359356  0.228334  0.588968  1
  O  O31  1  0.640644  0.771666  0.411032  1
  O  O32  1  0.150904  0.284945  0.977377  1
  O  O33  1  0.142530  0.524590  0.794370  1
