# generated using pymatgen
data_W2C
_symmetry_space_group_name_H-M   'P 1'
_cell_length_a   5.25685343
_cell_length_b   5.25685343
_cell_length_c   4.77941169
_cell_angle_alpha   90.00000000
_cell_angle_beta   90.00000000
_cell_angle_gamma   120.00000000
_symmetry_Int_Tables_number   1
_chemical_formula_structural   W2C
_chemical_formula_sum   'W6 C3'
_cell_volume   114.38176944
_cell_formula_units_Z   3
loop_
 _symmetry_equiv_pos_site_id
 _symmetry_equiv_pos_as_xyz
  1  'x, y, z'
loop_
 _atom_site_type_symbol
 _atom_site_label
 _atom_site_symmetry_multiplicity
 _atom_site_fract_x
 _atom_site_fract_y
 _atom_site_fract_z
 _atom_site_occupancy
  W  W0  1  0.667974  0.667974  0.247896  1
  W  W1  1  0.332026  0.332026  0.752104  1
  W  W2  1  0.000000  0.332026  0.247896  1
  W  W3  1  0.332026  0.000000  0.247896  1
  W  W4  1  0.667974  0.000000  0.752104  1
  W  W5  1  0.000000  0.667974  0.752104  1
  C  C6  1  0.000000  0.000000  0.000000  1
  C  C7  1  0.666667  0.333333  0.500000  1
  C  C8  1  0.333333  0.666667  0.500000  1
