# generated using pymatgen
data_Mg7As6(HO6)4
_symmetry_space_group_name_H-M   'P 1'
_cell_length_a   6.83479085
_cell_length_b   8.44792696
_cell_length_c   9.66345471
_cell_angle_alpha   73.01181356
_cell_angle_beta   72.04127792
_cell_angle_gamma   82.56095167
_symmetry_Int_Tables_number   1
_chemical_formula_structural   Mg7As6(HO6)4
_chemical_formula_sum   'Mg7 As6 H4 O24'
_cell_volume   507.14482979
_cell_formula_units_Z   1
loop_
 _symmetry_equiv_pos_site_id
 _symmetry_equiv_pos_as_xyz
  1  'x, y, z'
loop_
 _atom_site_type_symbol
 _atom_site_label
 _atom_site_symmetry_multiplicity
 _atom_site_fract_x
 _atom_site_fract_y
 _atom_site_fract_z
 _atom_site_occupancy
  Mg  Mg0  1  0.000000  0.000000  0.000000  1
  Mg  Mg1  1  0.718209  0.455945  0.888606  1
  Mg  Mg2  1  0.281791  0.544055  0.111394  1
  Mg  Mg3  1  0.004252  0.206919  0.280097  1
  Mg  Mg4  1  0.995748  0.793081  0.719903  1
  Mg  Mg5  1  0.614249  0.313842  0.517274  1
  Mg  Mg6  1  0.385751  0.686158  0.482726  1
  As  As7  1  0.542091  0.199296  0.211121  1
  As  As8  1  0.457909  0.800704  0.788879  1
  As  As9  1  0.759663  0.578861  0.180552  1
  As  As10  1  0.240337  0.421139  0.819448  1
  As  As11  1  0.007773  0.204306  0.643083  1
  As  As12  1  0.992227  0.795694  0.356917  1
  H  H13  1  0.329044  0.157315  0.761030  1
  H  H14  1  0.670956  0.842685  0.238970  1
  H  H15  1  0.313586  0.789612  0.178650  1
  H  H16  1  0.686414  0.210388  0.821350  1
  O  O17  1  0.666873  0.217347  0.332395  1
  O  O18  1  0.333127  0.782653  0.667605  1
  O  O19  1  0.715617  0.204297  0.038063  1
  O  O20  1  0.284383  0.795703  0.961937  1
  O  O21  1  0.696724  0.703798  0.773869  1
  O  O22  1  0.303276  0.296202  0.226131  1
  O  O23  1  0.568248  0.002877  0.721504  1
  O  O24  1  0.431752  0.997123  0.278496  1
  O  O25  1  0.609471  0.524576  0.089108  1
  O  O26  1  0.390529  0.475424  0.910892  1
  O  O27  1  0.627228  0.544687  0.369595  1
  O  O28  1  0.372772  0.455313  0.630405  1
  O  O29  1  0.807901  0.787688  0.109096  1
  O  O30  1  0.192099  0.212312  0.890904  1
  O  O31  1  0.013391  0.537600  0.833038  1
  O  O32  1  0.986609  0.462400  0.166962  1
  O  O33  1  0.903041  0.198715  0.499450  1
  O  O34  1  0.096959  0.801285  0.500550  1
  O  O35  1  0.750700  0.306783  0.740487  1
  O  O36  1  0.249300  0.693217  0.259513  1
  O  O37  1  0.422020  0.126453  0.662578  1
  O  O38  1  0.577980  0.873547  0.337422  1
  O  O39  1  0.032851  0.992814  0.216630  1
  O  O40  1  0.967149  0.007186  0.783370  1
