# generated using pymatgen
data_HoB7Mo3
_symmetry_space_group_name_H-M   'P 1'
_cell_length_a   3.10583386
_cell_length_b   11.03486624
_cell_length_c   12.88637162
_cell_angle_alpha   90.00000000
_cell_angle_beta   90.00000000
_cell_angle_gamma   90.00000000
_symmetry_Int_Tables_number   1
_chemical_formula_structural   HoB7Mo3
_chemical_formula_sum   'Ho4 B28 Mo12'
_cell_volume   441.64767147
_cell_formula_units_Z   4
loop_
 _symmetry_equiv_pos_site_id
 _symmetry_equiv_pos_as_xyz
  1  'x, y, z'
loop_
 _atom_site_type_symbol
 _atom_site_label
 _atom_site_symmetry_multiplicity
 _atom_site_fract_x
 _atom_site_fract_y
 _atom_site_fract_z
 _atom_site_occupancy
  Ho  Ho0  1  0.750000  0.949003  0.691845  1
  Ho  Ho1  1  0.250000  0.050997  0.308155  1
  Ho  Ho2  1  0.750000  0.449003  0.808155  1
  Ho  Ho3  1  0.250000  0.550997  0.191845  1
  B  B4  1  0.750000  0.510114  0.362090  1
  B  B5  1  0.250000  0.489886  0.637910  1
  B  B6  1  0.750000  0.010114  0.137910  1
  B  B7  1  0.250000  0.989886  0.862090  1
  B  B8  1  0.750000  0.665550  0.332431  1
  B  B9  1  0.250000  0.334450  0.667569  1
  B  B10  1  0.750000  0.165550  0.167569  1
  B  B11  1  0.250000  0.834450  0.832431  1
  B  B12  1  0.750000  0.685717  0.066585  1
  B  B13  1  0.250000  0.314283  0.933415  1
  B  B14  1  0.750000  0.185717  0.433415  1
  B  B15  1  0.250000  0.814283  0.566585  1
  B  B16  1  0.750000  0.568280  0.615989  1
  B  B17  1  0.250000  0.431720  0.384011  1
  B  B18  1  0.750000  0.068280  0.884011  1
  B  B19  1  0.250000  0.931720  0.115989  1
  B  B20  1  0.750000  0.537306  0.018144  1
  B  B21  1  0.250000  0.462694  0.981856  1
  B  B22  1  0.750000  0.037306  0.481856  1
  B  B23  1  0.250000  0.962694  0.518144  1
  B  B24  1  0.750000  0.750020  0.826020  1
  B  B25  1  0.250000  0.249980  0.173980  1
  B  B26  1  0.750000  0.250020  0.673980  1
  B  B27  1  0.250000  0.749980  0.326020  1
  B  B28  1  0.750000  0.730890  0.581455  1
  B  B29  1  0.250000  0.269110  0.418545  1
  B  B30  1  0.750000  0.230890  0.918545  1
  B  B31  1  0.250000  0.769110  0.081455  1
  Mo  Mo32  1  0.750000  0.814856  0.201931  1
  Mo  Mo33  1  0.250000  0.185144  0.798069  1
  Mo  Mo34  1  0.750000  0.314856  0.298069  1
  Mo  Mo35  1  0.250000  0.685144  0.701931  1
  Mo  Mo36  1  0.750000  0.840080  0.435382  1
  Mo  Mo37  1  0.250000  0.159920  0.564618  1
  Mo  Mo38  1  0.750000  0.340080  0.064618  1
  Mo  Mo39  1  0.250000  0.659920  0.935382  1
  Mo  Mo40  1  0.750000  0.882540  0.972651  1
  Mo  Mo41  1  0.250000  0.117460  0.027349  1
  Mo  Mo42  1  0.750000  0.382540  0.527349  1
  Mo  Mo43  1  0.250000  0.617460  0.472651  1
