# generated using pymatgen
data_CaMg3Si3O10
_symmetry_space_group_name_H-M   'P 1'
_cell_length_a   8.93076087
_cell_length_b   9.83294481
_cell_length_c   10.38657211
_cell_angle_alpha   115.62343055
_cell_angle_beta   84.01368243
_cell_angle_gamma   114.12731204
_symmetry_Int_Tables_number   1
_chemical_formula_structural   CaMg3Si3O10
_chemical_formula_sum   'Ca4 Mg12 Si12 O40'
_cell_volume   747.64080105
_cell_formula_units_Z   4
loop_
 _symmetry_equiv_pos_site_id
 _symmetry_equiv_pos_as_xyz
  1  'x, y, z'
loop_
 _atom_site_type_symbol
 _atom_site_label
 _atom_site_symmetry_multiplicity
 _atom_site_fract_x
 _atom_site_fract_y
 _atom_site_fract_z
 _atom_site_occupancy
  Ca  Ca0  1  0.383039  0.633627  0.427788  1
  Ca  Ca1  1  0.616961  0.366373  0.572212  1
  Ca  Ca2  1  0.366053  0.618940  0.949846  1
  Ca  Ca3  1  0.633947  0.381060  0.050154  1
  Mg  Mg4  1  0.500000  0.000000  0.000000  1
  Mg  Mg5  1  0.000000  0.500000  0.500000  1
  Mg  Mg6  1  0.168128  0.847318  0.540303  1
  Mg  Mg7  1  0.831872  0.152682  0.459697  1
  Mg  Mg8  1  0.152893  0.833445  0.050361  1
  Mg  Mg9  1  0.847107  0.166555  0.949639  1
  Mg  Mg10  1  0.067021  0.930147  0.841107  1
  Mg  Mg11  1  0.932979  0.069853  0.158893  1
  Mg  Mg12  1  0.064789  0.941728  0.344889  1
  Mg  Mg13  1  0.935211  0.058272  0.655111  1
  Mg  Mg14  1  0.257469  0.743723  0.746977  1
  Mg  Mg15  1  0.742531  0.256277  0.253023  1
  Si  Si16  1  0.329328  0.229564  0.756848  1
  Si  Si17  1  0.670672  0.770436  0.243152  1
  Si  Si18  1  0.340013  0.226352  0.249002  1
  Si  Si19  1  0.659987  0.773648  0.750998  1
  Si  Si20  1  0.233611  0.336831  0.550654  1
  Si  Si21  1  0.766389  0.663169  0.449346  1
  Si  Si22  1  0.220431  0.333504  0.062297  1
  Si  Si23  1  0.779569  0.666496  0.937703  1
  Si  Si24  1  0.438836  0.947750  0.304399  1
  Si  Si25  1  0.561164  0.052250  0.695601  1
  Si  Si26  1  0.047953  0.563590  0.201874  1
  Si  Si27  1  0.952047  0.436410  0.798126  1
  O  O28  1  0.162780  0.067210  0.712113  1
  O  O29  1  0.837220  0.932790  0.287887  1
  O  O30  1  0.169319  0.065068  0.214593  1
  O  O31  1  0.830681  0.934932  0.785407  1
  O  O32  1  0.287594  0.954898  0.405555  1
  O  O33  1  0.712406  0.045102  0.594445  1
  O  O34  1  0.270925  0.942223  0.925065  1
  O  O35  1  0.729075  0.057777  0.074935  1
  O  O36  1  0.399060  0.876321  0.623807  1
  O  O37  1  0.600940  0.123679  0.376193  1
  O  O38  1  0.384122  0.874263  0.132437  1
  O  O39  1  0.615878  0.125737  0.867563  1
  O  O40  1  0.497223  0.199865  0.701942  1
  O  O41  1  0.502777  0.800135  0.298058  1
  O  O42  1  0.490663  0.777595  0.821743  1
  O  O43  1  0.509337  0.222405  0.178257  1
  O  O44  1  0.373888  0.318325  0.428762  1
  O  O45  1  0.626112  0.681675  0.571238  1
  O  O46  1  0.358310  0.340041  0.936856  1
  O  O47  1  0.641690  0.659959  0.063144  1
  O  O48  1  0.069984  0.167959  0.516776  1
  O  O49  1  0.930016  0.832041  0.483224  1
  O  O50  1  0.063167  0.162964  0.008582  1
  O  O51  1  0.936833  0.837036  0.991418  1
  O  O52  1  0.039388  0.714979  0.180793  1
  O  O53  1  0.960612  0.285021  0.819207  1
  O  O54  1  0.059788  0.729583  0.660211  1
  O  O55  1  0.940212  0.270417  0.339789  1
  O  O56  1  0.123048  0.615672  0.362953  1
  O  O57  1  0.876952  0.384328  0.637047  1
  O  O58  1  0.127515  0.599866  0.863676  1
  O  O59  1  0.872485  0.400134  0.136324  1
  O  O60  1  0.192110  0.500410  0.097809  1
  O  O61  1  0.807890  0.499590  0.902191  1
  O  O62  1  0.225124  0.506888  0.573719  1
  O  O63  1  0.774876  0.493112  0.426281  1
  O  O64  1  0.318240  0.367847  0.207396  1
  O  O65  1  0.681760  0.632153  0.792604  1
  O  O66  1  0.338223  0.365823  0.696666  1
  O  O67  1  0.661777  0.634177  0.303334  1
