# generated using pymatgen
data_Mg5Tl2
_symmetry_space_group_name_H-M   'P 1'
_cell_length_a   8.68477045
_cell_length_b   8.68477045
_cell_length_c   8.68477045
_cell_angle_alpha   137.91550896
_cell_angle_beta   129.16166128
_cell_angle_gamma   68.05799494
_symmetry_Int_Tables_number   1
_chemical_formula_structural   Mg5Tl2
_chemical_formula_sum   'Mg10 Tl4'
_cell_volume   334.67311475
_cell_formula_units_Z   2
loop_
 _symmetry_equiv_pos_site_id
 _symmetry_equiv_pos_as_xyz
  1  'x, y, z'
loop_
 _atom_site_type_symbol
 _atom_site_label
 _atom_site_symmetry_multiplicity
 _atom_site_fract_x
 _atom_site_fract_y
 _atom_site_fract_z
 _atom_site_occupancy
  Mg  Mg0  1  0.074924  0.915485  0.159439  1
  Mg  Mg1  1  0.734206  0.984206  0.250000  1
  Mg  Mg2  1  0.500000  0.750000  0.250000  1
  Mg  Mg3  1  0.243954  0.584515  0.659439  1
  Mg  Mg4  1  0.925076  0.084515  0.840561  1
  Mg  Mg5  1  0.265794  0.015794  0.750000  1
  Mg  Mg6  1  0.265794  0.515794  0.250000  1
  Mg  Mg7  1  0.734206  0.484206  0.750000  1
  Mg  Mg8  1  0.756046  0.415485  0.340561  1
  Mg  Mg9  1  0.500000  0.250000  0.750000  1
  Tl  Tl10  1  0.357093  0.122938  0.234155  1
  Tl  Tl11  1  0.111217  0.377062  0.734155  1
  Tl  Tl12  1  0.888783  0.622938  0.265845  1
  Tl  Tl13  1  0.642907  0.877062  0.765845  1
