# generated using pymatgen
data_NaLiCO3
_symmetry_space_group_name_H-M   'P 1'
_cell_length_a   14.51381704
_cell_length_b   14.51381704
_cell_length_c   3.36094185
_cell_angle_alpha   90.00000000
_cell_angle_beta   90.00000000
_cell_angle_gamma   120.00000000
_symmetry_Int_Tables_number   1
_chemical_formula_structural   NaLiCO3
_chemical_formula_sum   'Na9 Li9 C9 O27'
_cell_volume   613.13332047
_cell_formula_units_Z   9
loop_
 _symmetry_equiv_pos_site_id
 _symmetry_equiv_pos_as_xyz
  1  'x, y, z'
loop_
 _atom_site_type_symbol
 _atom_site_label
 _atom_site_symmetry_multiplicity
 _atom_site_fract_x
 _atom_site_fract_y
 _atom_site_fract_z
 _atom_site_occupancy
  Na  Na0  1  0.775591  0.907323  0.500000  1
  Na  Na1  1  0.120050  0.575385  0.500000  1
  Na  Na2  1  0.744760  0.193415  0.500000  1
  Na  Na3  1  0.131731  0.224409  0.500000  1
  Na  Na4  1  0.092677  0.868269  0.500000  1
  Na  Na5  1  0.424615  0.544665  0.500000  1
  Na  Na6  1  0.806585  0.551344  0.500000  1
  Na  Na7  1  0.448656  0.255240  0.500000  1
  Na  Na8  1  0.455335  0.879950  0.500000  1
  Li  Li9  1  0.567864  0.746956  0.000000  1
  Li  Li10  1  0.580153  0.474166  0.000000  1
  Li  Li11  1  0.226263  0.100115  0.000000  1
  Li  Li12  1  0.525834  0.105987  0.000000  1
  Li  Li13  1  0.873853  0.773737  0.000000  1
  Li  Li14  1  0.179092  0.432136  0.000000  1
  Li  Li15  1  0.899885  0.126147  0.000000  1
  Li  Li16  1  0.253044  0.820908  0.000000  1
  Li  Li17  1  0.894013  0.419847  0.000000  1
  C  C18  1  0.680269  0.667747  0.500000  1
  C  C19  1  0.655541  0.991387  0.000000  1
  C  C20  1  0.332253  0.012522  0.500000  1
  C  C21  1  0.000000  0.000000  0.000000  1
  C  C22  1  0.987478  0.319731  0.500000  1
  C  C23  1  0.335846  0.344459  0.000000  1
  C  C24  1  0.008613  0.664154  0.000000  1
  C  C25  1  0.666667  0.333333  0.000000  1
  C  C26  1  0.333333  0.666667  0.000000  1
  O  O27  1  0.648886  0.898543  0.000000  1
  O  O28  1  0.759402  0.419440  0.000000  1
  O  O29  1  0.416537  0.655302  0.000000  1
  O  O30  1  0.569237  0.997808  0.000000  1
  O  O31  1  0.748164  0.077208  0.000000  1
  O  O32  1  0.781225  0.738996  0.500000  1
  O  O33  1  0.957771  0.218775  0.500000  1
  O  O34  1  0.433324  0.083054  0.500000  1
  O  O35  1  0.609782  0.698300  0.500000  1
  O  O36  1  0.088518  0.390218  0.500000  1
  O  O37  1  0.249657  0.351114  0.000000  1
  O  O38  1  0.580560  0.339962  0.000000  1
  O  O39  1  0.344698  0.761235  0.000000  1
  O  O40  1  0.922792  0.670956  0.000000  1
  O  O41  1  0.907937  0.995060  0.000000  1
  O  O42  1  0.660038  0.240598  0.000000  1
  O  O43  1  0.261004  0.042229  0.500000  1
  O  O44  1  0.087124  0.092063  0.000000  1
  O  O45  1  0.329044  0.251836  0.000000  1
  O  O46  1  0.101457  0.750343  0.000000  1
  O  O47  1  0.916946  0.350270  0.500000  1
  O  O48  1  0.238765  0.583463  0.000000  1
  O  O49  1  0.649730  0.566676  0.500000  1
  O  O50  1  0.301700  0.911482  0.500000  1
  O  O51  1  0.004940  0.912876  0.000000  1
  O  O52  1  0.428571  0.430763  0.000000  1
  O  O53  1  0.002192  0.571429  0.000000  1
