# generated using pymatgen
data_TiBr3
_symmetry_space_group_name_H-M   'P 1'
_cell_length_a   7.63880184
_cell_length_b   7.63880184
_cell_length_c   7.63880184
_cell_angle_alpha   50.21278946
_cell_angle_beta   50.21278946
_cell_angle_gamma   50.21278946
_symmetry_Int_Tables_number   1
_chemical_formula_structural   TiBr3
_chemical_formula_sum   'Ti2 Br6'
_cell_volume   242.33070327
_cell_formula_units_Z   2
loop_
 _symmetry_equiv_pos_site_id
 _symmetry_equiv_pos_as_xyz
  1  'x, y, z'
loop_
 _atom_site_type_symbol
 _atom_site_label
 _atom_site_symmetry_multiplicity
 _atom_site_fract_x
 _atom_site_fract_y
 _atom_site_fract_z
 _atom_site_occupancy
  Ti  Ti0  1  0.666586  0.666586  0.666586  1
  Ti  Ti1  1  0.333414  0.333414  0.333414  1
  Br  Br2  1  0.573482  0.924963  0.275358  1
  Br  Br3  1  0.724642  0.426518  0.075037  1
  Br  Br4  1  0.426518  0.075037  0.724642  1
  Br  Br5  1  0.924963  0.275358  0.573482  1
  Br  Br6  1  0.075037  0.724642  0.426518  1
  Br  Br7  1  0.275358  0.573482  0.924963  1
