# generated using pymatgen
data_Nd2NiO4
_symmetry_space_group_name_H-M   'P 1'
_cell_length_a   5.57569496
_cell_length_b   5.57569496
_cell_length_c   12.14209081
_cell_angle_alpha   90.00000000
_cell_angle_beta   90.00000000
_cell_angle_gamma   90.00000000
_symmetry_Int_Tables_number   1
_chemical_formula_structural   Nd2NiO4
_chemical_formula_sum   'Nd8 Ni4 O16'
_cell_volume   377.47786373
_cell_formula_units_Z   4
loop_
 _symmetry_equiv_pos_site_id
 _symmetry_equiv_pos_as_xyz
  1  'x, y, z'
loop_
 _atom_site_type_symbol
 _atom_site_label
 _atom_site_symmetry_multiplicity
 _atom_site_fract_x
 _atom_site_fract_y
 _atom_site_fract_z
 _atom_site_occupancy
  Nd  Nd0  1  0.233229  0.733229  0.113175  1
  Nd  Nd1  1  0.766771  0.733229  0.613175  1
  Nd  Nd2  1  0.233229  0.266771  0.613175  1
  Nd  Nd3  1  0.733229  0.766771  0.886825  1
  Nd  Nd4  1  0.266771  0.233229  0.886825  1
  Nd  Nd5  1  0.766771  0.266771  0.113175  1
  Nd  Nd6  1  0.733229  0.233229  0.386825  1
  Nd  Nd7  1  0.266771  0.766771  0.386825  1
  Ni  Ni8  1  0.250000  0.750000  0.750000  1
  Ni  Ni9  1  0.750000  0.750000  0.250000  1
  Ni  Ni10  1  0.250000  0.250000  0.250000  1
  Ni  Ni11  1  0.750000  0.250000  0.750000  1
  O  O12  1  0.500000  0.000000  0.720005  1
  O  O13  1  0.500000  0.000000  0.220005  1
  O  O14  1  0.000000  0.500000  0.279995  1
  O  O15  1  0.000000  0.500000  0.779995  1
  O  O16  1  0.303801  0.803801  0.929981  1
  O  O17  1  0.696199  0.803801  0.429981  1
  O  O18  1  0.303801  0.196199  0.429981  1
  O  O19  1  0.803801  0.696199  0.070019  1
  O  O20  1  0.196199  0.303801  0.070019  1
  O  O21  1  0.696199  0.196199  0.929981  1
  O  O22  1  0.803801  0.303801  0.570019  1
  O  O23  1  0.196199  0.696199  0.570019  1
  O  O24  1  0.000000  0.000000  0.750000  1
  O  O25  1  0.500000  0.500000  0.250000  1
  O  O26  1  0.500000  0.500000  0.750000  1
  O  O27  1  0.000000  0.000000  0.250000  1
