# generated using pymatgen
data_BaHgO2
_symmetry_space_group_name_H-M   'P 1'
_cell_length_a   6.98173184
_cell_length_b   6.98173184
_cell_length_c   12.67976011
_cell_angle_alpha   90.00000000
_cell_angle_beta   90.00000000
_cell_angle_gamma   120.00000000
_symmetry_Int_Tables_number   1
_chemical_formula_structural   BaHgO2
_chemical_formula_sum   'Ba6 Hg6 O12'
_cell_volume   535.26395283
_cell_formula_units_Z   6
loop_
 _symmetry_equiv_pos_site_id
 _symmetry_equiv_pos_as_xyz
  1  'x, y, z'
loop_
 _atom_site_type_symbol
 _atom_site_label
 _atom_site_symmetry_multiplicity
 _atom_site_fract_x
 _atom_site_fract_y
 _atom_site_fract_z
 _atom_site_occupancy
  Ba  Ba0  1  0.333333  0.666667  0.967470  1
  Ba  Ba1  1  0.666667  0.333333  0.467470  1
  Ba  Ba2  1  0.000000  0.000000  0.500000  1
  Ba  Ba3  1  0.333333  0.666667  0.532530  1
  Ba  Ba4  1  0.666667  0.333333  0.032530  1
  Ba  Ba5  1  0.000000  0.000000  0.000000  1
  Hg  Hg6  1  0.174841  0.825159  0.250000  1
  Hg  Hg7  1  0.650317  0.825159  0.250000  1
  Hg  Hg8  1  0.825159  0.174841  0.750000  1
  Hg  Hg9  1  0.349683  0.174841  0.750000  1
  Hg  Hg10  1  0.825159  0.650317  0.750000  1
  Hg  Hg11  1  0.174841  0.349683  0.250000  1
  O  O12  1  0.650107  0.687362  0.109789  1
  O  O13  1  0.687362  0.650107  0.890211  1
  O  O14  1  0.037255  0.349893  0.109789  1
  O  O15  1  0.349893  0.037255  0.890211  1
  O  O16  1  0.687362  0.037255  0.609789  1
  O  O17  1  0.312638  0.962745  0.109789  1
  O  O18  1  0.037255  0.687362  0.390211  1
  O  O19  1  0.650107  0.962745  0.390211  1
  O  O20  1  0.962745  0.650107  0.609789  1
  O  O21  1  0.962745  0.312638  0.890211  1
  O  O22  1  0.349893  0.312638  0.609789  1
  O  O23  1  0.312638  0.349893  0.390211  1
