# generated using pymatgen
data_UTlH(SeO4)2
_symmetry_space_group_name_H-M   'P 1'
_cell_length_a   8.56306865
_cell_length_b   10.40282975
_cell_length_c   12.74207211
_cell_angle_alpha   90.00000000
_cell_angle_beta   127.13704616
_cell_angle_gamma   90.00000000
_symmetry_Int_Tables_number   1
_chemical_formula_structural   UTlH(SeO4)2
_chemical_formula_sum   'U4 Tl4 H4 Se8 O32'
_cell_volume   904.86722079
_cell_formula_units_Z   4
loop_
 _symmetry_equiv_pos_site_id
 _symmetry_equiv_pos_as_xyz
  1  'x, y, z'
loop_
 _atom_site_type_symbol
 _atom_site_label
 _atom_site_symmetry_multiplicity
 _atom_site_fract_x
 _atom_site_fract_y
 _atom_site_fract_z
 _atom_site_occupancy
  U  U0  1  0.189731  0.290750  0.815527  1
  U  U1  1  0.810269  0.790750  0.684473  1
  U  U2  1  0.810269  0.709250  0.184473  1
  U  U3  1  0.189731  0.209250  0.315527  1
  Tl  Tl4  1  0.733187  0.051719  0.954036  1
  Tl  Tl5  1  0.266813  0.551719  0.545964  1
  Tl  Tl6  1  0.266813  0.948281  0.045964  1
  Tl  Tl7  1  0.733187  0.448281  0.454036  1
  H  H8  1  0.590319  0.354466  0.831245  1
  H  H9  1  0.409681  0.854466  0.668755  1
  H  H10  1  0.409681  0.645534  0.168755  1
  H  H11  1  0.590319  0.145534  0.331245  1
  Se  Se12  1  0.807984  0.473511  0.814673  1
  Se  Se13  1  0.192016  0.973511  0.685327  1
  Se  Se14  1  0.192016  0.526489  0.185327  1
  Se  Se15  1  0.807984  0.026489  0.314673  1
  Se  Se16  1  0.290258  0.622132  0.905168  1
  Se  Se17  1  0.709742  0.122132  0.594832  1
  Se  Se18  1  0.709742  0.377868  0.094832  1
  Se  Se19  1  0.290258  0.877868  0.405168  1
  O  O20  1  0.603585  0.368694  0.758656  1
  O  O21  1  0.396415  0.868694  0.741344  1
  O  O22  1  0.396415  0.631306  0.241344  1
  O  O23  1  0.603585  0.131306  0.258656  1
  O  O24  1  0.885781  0.395390  0.735880  1
  O  O25  1  0.114219  0.895390  0.764120  1
  O  O26  1  0.114219  0.604610  0.264120  1
  O  O27  1  0.885781  0.104610  0.235880  1
  O  O28  1  0.287820  0.466694  0.955050  1
  O  O29  1  0.712180  0.966694  0.544950  1
  O  O30  1  0.712180  0.533306  0.044950  1
  O  O31  1  0.287820  0.033306  0.455050  1
  O  O32  1  0.069611  0.674976  0.867056  1
  O  O33  1  0.930389  0.174976  0.632944  1
  O  O34  1  0.930389  0.325024  0.132944  1
  O  O35  1  0.069611  0.825024  0.367056  1
  O  O36  1  0.549236  0.303094  0.943619  1
  O  O37  1  0.450764  0.803094  0.556381  1
  O  O38  1  0.450764  0.696906  0.056381  1
  O  O39  1  0.549236  0.196906  0.443619  1
  O  O40  1  0.324912  0.099115  0.789476  1
  O  O41  1  0.675088  0.599115  0.710524  1
  O  O42  1  0.675088  0.900885  0.210524  1
  O  O43  1  0.324912  0.400885  0.289476  1
  O  O44  1  0.189000  0.393418  0.698430  1
  O  O45  1  0.811000  0.893418  0.801570  1
  O  O46  1  0.811000  0.606582  0.301570  1
  O  O47  1  0.189000  0.106582  0.198430  1
  O  O48  1  0.180102  0.198197  0.933258  1
  O  O49  1  0.819898  0.698197  0.566742  1
  O  O50  1  0.819898  0.801803  0.066742  1
  O  O51  1  0.180102  0.301803  0.433258  1
