# generated using pymatgen
data_GeXeF10
_symmetry_space_group_name_H-M   'P 1'
_cell_length_a   7.25247888
_cell_length_b   7.54744064
_cell_length_c   13.42777613
_cell_angle_alpha   90.00000000
_cell_angle_beta   90.00000000
_cell_angle_gamma   90.00000000
_symmetry_Int_Tables_number   1
_chemical_formula_structural   GeXeF10
_chemical_formula_sum   'Ge4 Xe4 F40'
_cell_volume   735.00496164
_cell_formula_units_Z   4
loop_
 _symmetry_equiv_pos_site_id
 _symmetry_equiv_pos_as_xyz
  1  'x, y, z'
loop_
 _atom_site_type_symbol
 _atom_site_label
 _atom_site_symmetry_multiplicity
 _atom_site_fract_x
 _atom_site_fract_y
 _atom_site_fract_z
 _atom_site_occupancy
  Ge  Ge0  1  0.500000  0.500000  0.500000  1
  Ge  Ge1  1  0.000000  0.000000  0.000000  1
  Ge  Ge2  1  0.500000  0.000000  0.000000  1
  Ge  Ge3  1  0.000000  0.500000  0.500000  1
  Xe  Xe4  1  0.750000  0.854416  0.635545  1
  Xe  Xe5  1  0.250000  0.145584  0.364455  1
  Xe  Xe6  1  0.250000  0.354416  0.864455  1
  Xe  Xe7  1  0.750000  0.645584  0.135545  1
  F  F8  1  0.436597  0.275323  0.526466  1
  F  F9  1  0.250000  0.923084  0.029172  1
  F  F10  1  0.018333  0.895895  0.651819  1
  F  F11  1  0.750000  0.424961  0.214027  1
  F  F12  1  0.936597  0.775323  0.973534  1
  F  F13  1  0.481667  0.604105  0.151819  1
  F  F14  1  0.750000  0.750309  0.770724  1
  F  F15  1  0.436597  0.224677  0.026466  1
  F  F16  1  0.250000  0.530026  0.973647  1
  F  F17  1  0.563403  0.724677  0.473534  1
  F  F18  1  0.750000  0.423084  0.470828  1
  F  F19  1  0.936145  0.542423  0.627440  1
  F  F20  1  0.250000  0.575039  0.785973  1
  F  F21  1  0.981667  0.395895  0.848181  1
  F  F22  1  0.250000  0.924961  0.285973  1
  F  F23  1  0.436145  0.457577  0.372560  1
  F  F24  1  0.250000  0.969974  0.473647  1
  F  F25  1  0.250000  0.250309  0.729276  1
  F  F26  1  0.750000  0.075039  0.714027  1
  F  F27  1  0.563855  0.542423  0.627440  1
  F  F28  1  0.063403  0.224677  0.026466  1
  F  F29  1  0.981667  0.104105  0.348181  1
  F  F30  1  0.750000  0.749691  0.270724  1
  F  F31  1  0.063855  0.457577  0.372560  1
  F  F32  1  0.018333  0.604105  0.151819  1
  F  F33  1  0.563403  0.775323  0.973534  1
  F  F34  1  0.518333  0.104105  0.348181  1
  F  F35  1  0.063403  0.275323  0.526466  1
  F  F36  1  0.436145  0.042423  0.872560  1
  F  F37  1  0.936597  0.724677  0.473534  1
  F  F38  1  0.481667  0.895895  0.651819  1
  F  F39  1  0.750000  0.469974  0.026353  1
  F  F40  1  0.250000  0.576916  0.529172  1
  F  F41  1  0.936145  0.957577  0.127440  1
  F  F42  1  0.518333  0.395895  0.848181  1
  F  F43  1  0.563855  0.957577  0.127440  1
  F  F44  1  0.750000  0.076916  0.970828  1
  F  F45  1  0.750000  0.030026  0.526353  1
  F  F46  1  0.063855  0.042423  0.872560  1
  F  F47  1  0.250000  0.249691  0.229276  1
