# generated using pymatgen
data_RbBa4Sb3O
_symmetry_space_group_name_H-M   'P 1'
_cell_length_a   10.55673247
_cell_length_b   10.55673247
_cell_length_c   10.55673247
_cell_angle_alpha   129.12287720
_cell_angle_beta   129.12287720
_cell_angle_gamma   74.81293937
_symmetry_Int_Tables_number   1
_chemical_formula_structural   RbBa4Sb3O
_chemical_formula_sum   'Rb2 Ba8 Sb6 O2'
_cell_volume   689.71800810
_cell_formula_units_Z   2
loop_
 _symmetry_equiv_pos_site_id
 _symmetry_equiv_pos_as_xyz
  1  'x, y, z'
loop_
 _atom_site_type_symbol
 _atom_site_label
 _atom_site_symmetry_multiplicity
 _atom_site_fract_x
 _atom_site_fract_y
 _atom_site_fract_z
 _atom_site_occupancy
  Rb  Rb0  1  0.000000  0.000000  0.000000  1
  Rb  Rb1  1  0.500000  0.500000  0.000000  1
  Ba  Ba2  1  0.688763  0.502469  0.500000  1
  Ba  Ba3  1  0.002469  0.188763  0.500000  1
  Ba  Ba4  1  0.997531  0.811237  0.500000  1
  Ba  Ba5  1  0.502469  0.002469  0.813707  1
  Ba  Ba6  1  0.311237  0.497531  0.500000  1
  Ba  Ba7  1  0.188763  0.688763  0.186293  1
  Ba  Ba8  1  0.497531  0.997531  0.186293  1
  Ba  Ba9  1  0.811237  0.311237  0.813707  1
  Sb  Sb10  1  0.613614  0.886386  0.500000  1
  Sb  Sb11  1  0.113614  0.613614  0.727228  1
  Sb  Sb12  1  0.386386  0.113614  0.500000  1
  Sb  Sb13  1  0.886386  0.386386  0.272772  1
  Sb  Sb14  1  0.250000  0.250000  0.000000  1
  Sb  Sb15  1  0.750000  0.750000  0.000000  1
  O  O16  1  0.250000  0.750000  0.500000  1
  O  O17  1  0.750000  0.250000  0.500000  1
