# generated using pymatgen
data_Zr3(VGa2)2
_symmetry_space_group_name_H-M   'P 1'
_cell_length_a   5.42632743
_cell_length_b   13.72857368
_cell_length_c   16.93101908
_cell_angle_alpha   90.00000000
_cell_angle_beta   90.00000000
_cell_angle_gamma   90.00000000
_symmetry_Int_Tables_number   1
_chemical_formula_structural   Zr3(VGa2)2
_chemical_formula_sum   'Zr24 V16 Ga32'
_cell_volume   1261.28872649
_cell_formula_units_Z   8
loop_
 _symmetry_equiv_pos_site_id
 _symmetry_equiv_pos_as_xyz
  1  'x, y, z'
loop_
 _atom_site_type_symbol
 _atom_site_label
 _atom_site_symmetry_multiplicity
 _atom_site_fract_x
 _atom_site_fract_y
 _atom_site_fract_z
 _atom_site_occupancy
  Zr  Zr0  1  0.750000  0.813081  0.710108  1
  Zr  Zr1  1  0.750000  0.469730  0.066040  1
  Zr  Zr2  1  0.750000  0.230725  0.059150  1
  Zr  Zr3  1  0.250000  0.969730  0.433960  1
  Zr  Zr4  1  0.250000  0.145969  0.965468  1
  Zr  Zr5  1  0.250000  0.354031  0.465468  1
  Zr  Zr6  1  0.250000  0.530270  0.933960  1
  Zr  Zr7  1  0.750000  0.645969  0.534532  1
  Zr  Zr8  1  0.250000  0.972564  0.673461  1
  Zr  Zr9  1  0.250000  0.769275  0.940850  1
  Zr  Zr10  1  0.750000  0.027436  0.326539  1
  Zr  Zr11  1  0.750000  0.472564  0.826539  1
  Zr  Zr12  1  0.250000  0.527436  0.173461  1
  Zr  Zr13  1  0.750000  0.320080  0.348984  1
  Zr  Zr14  1  0.250000  0.730725  0.440850  1
  Zr  Zr15  1  0.250000  0.679920  0.651016  1
  Zr  Zr16  1  0.750000  0.854031  0.034532  1
  Zr  Zr17  1  0.750000  0.269275  0.559150  1
  Zr  Zr18  1  0.750000  0.179920  0.848984  1
  Zr  Zr19  1  0.250000  0.820080  0.151016  1
  Zr  Zr20  1  0.250000  0.186919  0.289892  1
  Zr  Zr21  1  0.250000  0.313081  0.789892  1
  Zr  Zr22  1  0.750000  0.030270  0.566040  1
  Zr  Zr23  1  0.750000  0.686919  0.210108  1
  V  V24  1  0.990830  0.040704  0.129855  1
  V  V25  1  0.983323  0.161669  0.687725  1
  V  V26  1  0.483323  0.661669  0.812275  1
  V  V27  1  0.983323  0.338331  0.187725  1
  V  V28  1  0.990830  0.459296  0.629855  1
  V  V29  1  0.016677  0.838331  0.312275  1
  V  V30  1  0.516677  0.338331  0.187725  1
  V  V31  1  0.009170  0.959296  0.870145  1
  V  V32  1  0.490830  0.540704  0.370145  1
  V  V33  1  0.016677  0.661669  0.812275  1
  V  V34  1  0.009170  0.540704  0.370145  1
  V  V35  1  0.516677  0.161669  0.687725  1
  V  V36  1  0.509170  0.040704  0.129855  1
  V  V37  1  0.483323  0.838331  0.312275  1
  V  V38  1  0.509170  0.459296  0.629855  1
  V  V39  1  0.490830  0.959296  0.870145  1
  Ga  Ga40  1  0.250000  0.551121  0.515564  1
  Ga  Ga41  1  0.750000  0.175950  0.219242  1
  Ga  Ga42  1  0.006877  0.659947  0.066486  1
  Ga  Ga43  1  0.750000  0.324050  0.719242  1
  Ga  Ga44  1  0.250000  0.392481  0.307225  1
  Ga  Ga45  1  0.250000  0.107519  0.807225  1
  Ga  Ga46  1  0.750000  0.488948  0.241442  1
  Ga  Ga47  1  0.250000  0.988948  0.258558  1
  Ga  Ga48  1  0.993123  0.159947  0.433514  1
  Ga  Ga49  1  0.250000  0.375195  0.060463  1
  Ga  Ga50  1  0.493123  0.840053  0.566486  1
  Ga  Ga51  1  0.250000  0.301183  0.623441  1
  Ga  Ga52  1  0.250000  0.198817  0.123441  1
  Ga  Ga53  1  0.750000  0.624805  0.939537  1
  Ga  Ga54  1  0.506877  0.159947  0.433514  1
  Ga  Ga55  1  0.250000  0.511052  0.758558  1
  Ga  Ga56  1  0.750000  0.875195  0.439537  1
  Ga  Ga57  1  0.250000  0.675950  0.280758  1
  Ga  Ga58  1  0.506877  0.340053  0.933514  1
  Ga  Ga59  1  0.750000  0.801183  0.876559  1
  Ga  Ga60  1  0.493123  0.659947  0.066486  1
  Ga  Ga61  1  0.250000  0.824050  0.780758  1
  Ga  Ga62  1  0.750000  0.448879  0.484436  1
  Ga  Ga63  1  0.750000  0.011052  0.741442  1
  Ga  Ga64  1  0.006877  0.840053  0.566486  1
  Ga  Ga65  1  0.250000  0.948879  0.015564  1
  Ga  Ga66  1  0.750000  0.051121  0.984436  1
  Ga  Ga67  1  0.750000  0.698817  0.376559  1
  Ga  Ga68  1  0.750000  0.892481  0.192775  1
  Ga  Ga69  1  0.993123  0.340053  0.933514  1
  Ga  Ga70  1  0.750000  0.607519  0.692775  1
  Ga  Ga71  1  0.250000  0.124805  0.560463  1
