# generated using pymatgen
data_Pr2Mo4O15
_symmetry_space_group_name_H-M   'P 1'
_cell_length_a   7.52474083
_cell_length_b   7.67424413
_cell_length_c   12.00665385
_cell_angle_alpha   88.69952793
_cell_angle_beta   83.89974285
_cell_angle_gamma   84.42924959
_symmetry_Int_Tables_number   1
_chemical_formula_structural   Pr2Mo4O15
_chemical_formula_sum   'Pr4 Mo8 O30'
_cell_volume   686.10877794
_cell_formula_units_Z   2
loop_
 _symmetry_equiv_pos_site_id
 _symmetry_equiv_pos_as_xyz
  1  'x, y, z'
loop_
 _atom_site_type_symbol
 _atom_site_label
 _atom_site_symmetry_multiplicity
 _atom_site_fract_x
 _atom_site_fract_y
 _atom_site_fract_z
 _atom_site_occupancy
  Pr  Pr0  1  0.243459  0.410193  0.222368  1
  Pr  Pr1  1  0.756541  0.589807  0.777632  1
  Pr  Pr2  1  0.319850  0.910423  0.777100  1
  Pr  Pr3  1  0.680150  0.089577  0.222900  1
  Mo  Mo4  1  0.563367  0.749866  0.474485  1
  Mo  Mo5  1  0.095897  0.667963  0.532224  1
  Mo  Mo6  1  0.772284  0.075013  0.870944  1
  Mo  Mo7  1  0.904103  0.332037  0.467776  1
  Mo  Mo8  1  0.227716  0.924987  0.129056  1
  Mo  Mo9  1  0.726262  0.571855  0.127837  1
  Mo  Mo10  1  0.436633  0.250134  0.525515  1
  Mo  Mo11  1  0.273738  0.428145  0.872163  1
  O  O12  1  0.722989  0.596545  0.980471  1
  O  O13  1  0.377805  0.051880  0.594981  1
  O  O14  1  0.996275  0.001882  0.153081  1
  O  O15  1  0.034481  0.171376  0.531063  1
  O  O16  1  0.332341  0.712870  0.447242  1
  O  O17  1  0.946618  0.491848  0.157295  1
  O  O18  1  0.003725  0.998118  0.846919  1
  O  O19  1  0.707716  0.099526  0.016980  1
  O  O20  1  0.353415  0.091636  0.184942  1
  O  O21  1  0.646585  0.908364  0.815058  1
  O  O22  1  0.416187  0.260640  0.377583  1
  O  O23  1  0.132844  0.765345  0.661022  1
  O  O24  1  0.734626  0.285185  0.804703  1
  O  O25  1  0.297000  0.428028  0.587233  1
  O  O26  1  0.667659  0.287130  0.552758  1
  O  O27  1  0.622195  0.948120  0.405019  1
  O  O28  1  0.053382  0.508152  0.842705  1
  O  O29  1  0.265374  0.714815  0.195297  1
  O  O30  1  0.573260  0.407297  0.179734  1
  O  O31  1  0.277011  0.403455  0.019529  1
  O  O32  1  0.662580  0.783278  0.186669  1
  O  O33  1  0.292284  0.900474  0.983020  1
  O  O34  1  0.703000  0.571972  0.412767  1
  O  O35  1  0.867156  0.234655  0.338978  1
  O  O36  1  0.337420  0.216722  0.813331  1
  O  O37  1  0.917141  0.520813  0.596625  1
  O  O38  1  0.583813  0.739360  0.622417  1
  O  O39  1  0.426740  0.592703  0.820266  1
  O  O40  1  0.082859  0.479187  0.403375  1
  O  O41  1  0.965519  0.828624  0.468937  1
