# generated using pymatgen
data_CsNaTiO3
_symmetry_space_group_name_H-M   'P 1'
_cell_length_a   6.45640709
_cell_length_b   6.45640709
_cell_length_c   5.67114048
_cell_angle_alpha   90.00000000
_cell_angle_beta   90.00000000
_cell_angle_gamma   123.86922747
_symmetry_Int_Tables_number   1
_chemical_formula_structural   CsNaTiO3
_chemical_formula_sum   'Cs2 Na2 Ti2 O6'
_cell_volume   196.28783502
_cell_formula_units_Z   2
loop_
 _symmetry_equiv_pos_site_id
 _symmetry_equiv_pos_as_xyz
  1  'x, y, z'
loop_
 _atom_site_type_symbol
 _atom_site_label
 _atom_site_symmetry_multiplicity
 _atom_site_fract_x
 _atom_site_fract_y
 _atom_site_fract_z
 _atom_site_occupancy
  Cs  Cs0  1  0.732337  0.267663  0.750000  1
  Cs  Cs1  1  0.267663  0.732337  0.250000  1
  Na  Na2  1  0.573817  0.426183  0.250000  1
  Na  Na3  1  0.426183  0.573817  0.750000  1
  Ti  Ti4  1  0.951126  0.048874  0.250000  1
  Ti  Ti5  1  0.048874  0.951126  0.750000  1
  O  O6  1  0.795766  0.204234  0.250000  1
  O  O7  1  0.210717  0.210717  1.000000  1
  O  O8  1  0.789283  0.789283  0.500000  1
  O  O9  1  0.210717  0.210717  0.500000  1
  O  O10  1  0.789283  0.789283  1.000000  1
  O  O11  1  0.204234  0.795766  0.750000  1
