# generated using pymatgen
data_Ba6Na2Si4O15
_symmetry_space_group_name_H-M   'P 1'
_cell_length_a   9.65510856
_cell_length_b   7.97304700
_cell_length_c   11.67912932
_cell_angle_alpha   90.00000000
_cell_angle_beta   107.64198239
_cell_angle_gamma   90.00000000
_symmetry_Int_Tables_number   1
_chemical_formula_structural   Ba6Na2Si4O15
_chemical_formula_sum   'Ba12 Na4 Si8 O30'
_cell_volume   856.78264410
_cell_formula_units_Z   2
loop_
 _symmetry_equiv_pos_site_id
 _symmetry_equiv_pos_as_xyz
  1  'x, y, z'
loop_
 _atom_site_type_symbol
 _atom_site_label
 _atom_site_symmetry_multiplicity
 _atom_site_fract_x
 _atom_site_fract_y
 _atom_site_fract_z
 _atom_site_occupancy
  Ba  Ba0  1  0.332687  0.978548  0.083710  1
  Ba  Ba1  1  0.659176  0.995965  0.414519  1
  Ba  Ba2  1  0.001292  0.502499  0.774292  1
  Ba  Ba3  1  0.001292  0.997501  0.274292  1
  Ba  Ba4  1  0.998708  0.002499  0.725708  1
  Ba  Ba5  1  0.667313  0.478548  0.416290  1
  Ba  Ba6  1  0.332687  0.521452  0.583710  1
  Ba  Ba7  1  0.667313  0.021452  0.916290  1
  Ba  Ba8  1  0.340824  0.004035  0.585481  1
  Ba  Ba9  1  0.340824  0.495965  0.085481  1
  Ba  Ba10  1  0.659176  0.504035  0.914519  1
  Ba  Ba11  1  0.998708  0.497501  0.225708  1
  Na  Na12  1  0.321392  0.248130  0.330576  1
  Na  Na13  1  0.678608  0.748130  0.169424  1
  Na  Na14  1  0.321392  0.251870  0.830576  1
  Na  Na15  1  0.678608  0.751870  0.669424  1
  Si  Si16  1  0.621455  0.255484  0.655225  1
  Si  Si17  1  0.378545  0.744516  0.344775  1
  Si  Si18  1  0.035515  0.209594  0.009084  1
  Si  Si19  1  0.035515  0.290406  0.509084  1
  Si  Si20  1  0.621455  0.244516  0.155225  1
  Si  Si21  1  0.964485  0.790406  0.990916  1
  Si  Si22  1  0.378545  0.755484  0.844775  1
  Si  Si23  1  0.964485  0.709594  0.490916  1
  O  O24  1  0.287926  0.923012  0.317684  1
  O  O25  1  0.880960  0.307144  0.970337  1
  O  O26  1  0.712074  0.423012  0.182316  1
  O  O27  1  0.866537  0.756966  0.851934  1
  O  O28  1  0.287926  0.576988  0.817684  1
  O  O29  1  0.284034  0.930647  0.825125  1
  O  O30  1  0.486448  0.751468  0.986984  1
  O  O31  1  0.512957  0.238497  0.242897  1
  O  O32  1  0.866086  0.754374  0.080029  1
  O  O33  1  0.119040  0.692856  0.029663  1
  O  O34  1  0.133914  0.245626  0.919971  1
  O  O35  1  0.512957  0.261503  0.742897  1
  O  O36  1  0.133463  0.256966  0.648066  1
  O  O37  1  0.880960  0.192856  0.470337  1
  O  O38  1  0.133463  0.243034  0.148066  1
  O  O39  1  0.866537  0.743034  0.351934  1
  O  O40  1  0.513552  0.251468  0.513016  1
  O  O41  1  0.133914  0.254374  0.419971  1
  O  O42  1  0.486448  0.748532  0.486984  1
  O  O43  1  0.487043  0.761503  0.757103  1
  O  O44  1  0.487043  0.738497  0.257103  1
  O  O45  1  0.715966  0.430647  0.674875  1
  O  O46  1  0.866086  0.745626  0.580029  1
  O  O47  1  0.284034  0.569353  0.325125  1
  O  O48  1  0.712074  0.076988  0.682316  1
  O  O49  1  0.000000  0.000000  0.000000  1
  O  O50  1  0.119040  0.807144  0.529663  1
  O  O51  1  0.513552  0.248532  0.013016  1
  O  O52  1  0.715966  0.069353  0.174875  1
  O  O53  1  0.000000  0.500000  0.500000  1
