# generated using pymatgen
data_Cr3(P2O7)2
_symmetry_space_group_name_H-M   'P 1'
_cell_length_a   4.80035463
_cell_length_b   8.02368660
_cell_length_c   12.89677628
_cell_angle_alpha   89.56915372
_cell_angle_beta   89.74659158
_cell_angle_gamma   87.84649205
_symmetry_Int_Tables_number   1
_chemical_formula_structural   Cr3(P2O7)2
_chemical_formula_sum   'Cr6 P8 O28'
_cell_volume   496.37009058
_cell_formula_units_Z   2
loop_
 _symmetry_equiv_pos_site_id
 _symmetry_equiv_pos_as_xyz
  1  'x, y, z'
loop_
 _atom_site_type_symbol
 _atom_site_label
 _atom_site_symmetry_multiplicity
 _atom_site_fract_x
 _atom_site_fract_y
 _atom_site_fract_z
 _atom_site_occupancy
  Cr  Cr0  1  0.765799  0.990979  0.732302  1
  Cr  Cr1  1  0.714944  0.489557  0.762384  1
  Cr  Cr2  1  0.000000  0.000000  0.500000  1
  Cr  Cr3  1  0.234201  0.009021  0.267698  1
  Cr  Cr4  1  0.285056  0.510443  0.237616  1
  Cr  Cr5  1  0.500000  0.500000  0.000000  1
  P  P6  1  0.241500  0.238090  0.844103  1
  P  P7  1  0.233372  0.706076  0.650545  1
  P  P8  1  0.766628  0.293924  0.349455  1
  P  P9  1  0.505535  0.252594  0.561273  1
  P  P10  1  0.758500  0.761910  0.155897  1
  P  P11  1  0.028066  0.250544  0.062372  1
  P  P12  1  0.494465  0.747406  0.438727  1
  P  P13  1  0.971934  0.749456  0.937628  1
  O  O14  1  0.655748  0.339111  0.464457  1
  O  O15  1  0.211370  0.207034  0.533833  1
  O  O16  1  0.059344  0.118101  0.143555  1
  O  O17  1  0.940656  0.881899  0.856445  1
  O  O18  1  0.017947  0.581414  0.678421  1
  O  O19  1  0.812480  0.821937  0.038341  1
  O  O20  1  0.316143  0.910922  0.415056  1
  O  O21  1  0.591726  0.597397  0.140387  1
  O  O22  1  0.474484  0.624549  0.351492  1
  O  O23  1  0.683857  0.089078  0.584944  1
  O  O24  1  0.959962  0.279462  0.792379  1
  O  O25  1  0.590599  0.899572  0.206351  1
  O  O26  1  0.344252  0.660889  0.535543  1
  O  O27  1  0.269565  0.701919  0.966707  1
  O  O28  1  0.191398  0.411662  0.092292  1
  O  O29  1  0.040038  0.720538  0.207621  1
  O  O30  1  0.409401  0.100428  0.793649  1
  O  O31  1  0.730435  0.298081  0.033293  1
  O  O32  1  0.187520  0.178063  0.961659  1
  O  O33  1  0.982053  0.418586  0.321579  1
  O  O34  1  0.525516  0.375451  0.648508  1
  O  O35  1  0.788630  0.792966  0.466167  1
  O  O36  1  0.408274  0.402603  0.859613  1
  O  O37  1  0.808602  0.588338  0.907708  1
  O  O38  1  0.895662  0.112236  0.361899  1
  O  O39  1  0.514202  0.296935  0.276618  1
  O  O40  1  0.104338  0.887764  0.638101  1
  O  O41  1  0.485798  0.703065  0.723382  1
