# generated using pymatgen
data_Ta4Mn11O21
_symmetry_space_group_name_H-M   'P 1'
_cell_length_a   5.45070229
_cell_length_b   5.45070229
_cell_length_c   34.36120182
_cell_angle_alpha   90.00000000
_cell_angle_beta   90.00000000
_cell_angle_gamma   120.00000000
_symmetry_Int_Tables_number   1
_chemical_formula_structural   Ta4Mn11O21
_chemical_formula_sum   'Ta8 Mn22 O42'
_cell_volume   884.10511083
_cell_formula_units_Z   2
loop_
 _symmetry_equiv_pos_site_id
 _symmetry_equiv_pos_as_xyz
  1  'x, y, z'
loop_
 _atom_site_type_symbol
 _atom_site_label
 _atom_site_symmetry_multiplicity
 _atom_site_fract_x
 _atom_site_fract_y
 _atom_site_fract_z
 _atom_site_occupancy
  Ta  Ta0  1  0.333333  0.666667  0.070835  1
  Ta  Ta1  1  0.666667  0.333333  0.429165  1
  Ta  Ta2  1  0.666667  0.333333  0.929165  1
  Ta  Ta3  1  0.333333  0.666667  0.570835  1
  Ta  Ta4  1  0.000000  0.000000  0.205297  1
  Ta  Ta5  1  0.000000  0.000000  0.294703  1
  Ta  Ta6  1  0.000000  0.000000  0.794703  1
  Ta  Ta7  1  0.000000  0.000000  0.705297  1
  Mn  Mn8  1  0.000000  0.000000  0.087747  1
  Mn  Mn9  1  0.000000  0.000000  0.412253  1
  Mn  Mn10  1  0.000000  0.000000  0.912253  1
  Mn  Mn11  1  0.000000  0.000000  0.587747  1
  Mn  Mn12  1  0.333333  0.666667  0.980150  1
  Mn  Mn13  1  0.666667  0.333333  0.519850  1
  Mn  Mn14  1  0.666667  0.333333  0.019850  1
  Mn  Mn15  1  0.333333  0.666667  0.480150  1
  Mn  Mn16  1  0.333333  0.666667  0.156906  1
  Mn  Mn17  1  0.666667  0.333333  0.343094  1
  Mn  Mn18  1  0.666667  0.333333  0.843094  1
  Mn  Mn19  1  0.333333  0.666667  0.656906  1
  Mn  Mn20  1  0.666667  0.333333  0.134954  1
  Mn  Mn21  1  0.333333  0.666667  0.365046  1
  Mn  Mn22  1  0.333333  0.666667  0.865046  1
  Mn  Mn23  1  0.666667  0.333333  0.634954  1
  Mn  Mn24  1  0.666667  0.333333  0.226285  1
  Mn  Mn25  1  0.333333  0.666667  0.273715  1
  Mn  Mn26  1  0.333333  0.666667  0.773715  1
  Mn  Mn27  1  0.666667  0.333333  0.726285  1
  Mn  Mn28  1  0.000000  0.000000  0.000000  1
  Mn  Mn29  1  0.000000  0.000000  0.500000  1
  O  O30  1  0.647980  0.696312  0.036482  1
  O  O31  1  0.303688  0.951668  0.036482  1
  O  O32  1  0.048332  0.352020  0.036482  1
  O  O33  1  0.951668  0.303688  0.463518  1
  O  O34  1  0.352020  0.048332  0.463518  1
  O  O35  1  0.696312  0.647980  0.463518  1
  O  O36  1  0.352020  0.303688  0.963518  1
  O  O37  1  0.696312  0.048332  0.963518  1
  O  O38  1  0.951668  0.647980  0.963518  1
  O  O39  1  0.048332  0.696312  0.536482  1
  O  O40  1  0.647980  0.951668  0.536482  1
  O  O41  1  0.303688  0.352020  0.536482  1
  O  O42  1  0.346246  0.382511  0.106532  1
  O  O43  1  0.617489  0.963735  0.106532  1
  O  O44  1  0.036265  0.653754  0.106532  1
  O  O45  1  0.963735  0.617489  0.393468  1
  O  O46  1  0.653754  0.036265  0.393468  1
  O  O47  1  0.382511  0.346246  0.393468  1
  O  O48  1  0.653754  0.617489  0.893468  1
  O  O49  1  0.382511  0.036265  0.893468  1
  O  O50  1  0.963735  0.346246  0.893468  1
  O  O51  1  0.036265  0.382511  0.606532  1
  O  O52  1  0.346246  0.963735  0.606532  1
  O  O53  1  0.617489  0.653754  0.606532  1
  O  O54  1  0.699951  0.668010  0.180950  1
  O  O55  1  0.331990  0.031941  0.180950  1
  O  O56  1  0.968059  0.300049  0.180950  1
  O  O57  1  0.031941  0.331990  0.319050  1
  O  O58  1  0.300049  0.968059  0.319050  1
  O  O59  1  0.668010  0.699951  0.319050  1
  O  O60  1  0.300049  0.331990  0.819050  1
  O  O61  1  0.668010  0.968059  0.819050  1
  O  O62  1  0.031941  0.699951  0.819050  1
  O  O63  1  0.968059  0.668010  0.680950  1
  O  O64  1  0.699951  0.031941  0.680950  1
  O  O65  1  0.331990  0.300049  0.680950  1
  O  O66  1  0.275884  0.275884  0.250000  1
  O  O67  1  0.724116  0.000000  0.250000  1
  O  O68  1  0.000000  0.724116  0.250000  1
  O  O69  1  0.724116  0.724116  0.750000  1
  O  O70  1  0.275884  0.000000  0.750000  1
  O  O71  1  0.000000  0.275884  0.750000  1
