# generated using pymatgen
data_Li4Ti7O16
_symmetry_space_group_name_H-M   'P 1'
_cell_length_a   5.99388039
_cell_length_b   8.47172152
_cell_length_c   11.79651157
_cell_angle_alpha   90.00000000
_cell_angle_beta   90.00000000
_cell_angle_gamma   90.00000000
_symmetry_Int_Tables_number   1
_chemical_formula_structural   Li4Ti7O16
_chemical_formula_sum   'Li8 Ti14 O32'
_cell_volume   599.00899138
_cell_formula_units_Z   2
loop_
 _symmetry_equiv_pos_site_id
 _symmetry_equiv_pos_as_xyz
  1  'x, y, z'
loop_
 _atom_site_type_symbol
 _atom_site_label
 _atom_site_symmetry_multiplicity
 _atom_site_fract_x
 _atom_site_fract_y
 _atom_site_fract_z
 _atom_site_occupancy
  Li  Li0  1  0.000000  0.884361  0.627079  1
  Li  Li1  1  0.500000  0.377062  0.371434  1
  Li  Li2  1  0.000000  0.877062  0.128566  1
  Li  Li3  1  0.000000  0.115639  0.372921  1
  Li  Li4  1  0.500000  0.615639  0.127079  1
  Li  Li5  1  0.500000  0.384361  0.872921  1
  Li  Li6  1  0.000000  0.122938  0.871434  1
  Li  Li7  1  0.500000  0.622938  0.628566  1
  Ti  Ti8  1  0.239164  0.261988  0.618443  1
  Ti  Ti9  1  0.760836  0.261988  0.618443  1
  Ti  Ti10  1  0.760836  0.738012  0.381557  1
  Ti  Ti11  1  0.500000  0.000000  0.500000  1
  Ti  Ti12  1  0.500000  0.985731  0.241235  1
  Ti  Ti13  1  0.239164  0.738012  0.381557  1
  Ti  Ti14  1  0.260836  0.238012  0.118443  1
  Ti  Ti15  1  0.000000  0.485731  0.258765  1
  Ti  Ti16  1  0.000000  0.500000  0.000000  1
  Ti  Ti17  1  0.739164  0.238012  0.118443  1
  Ti  Ti18  1  0.739164  0.761988  0.881557  1
  Ti  Ti19  1  0.500000  0.014269  0.758765  1
  Ti  Ti20  1  0.260836  0.761988  0.881557  1
  Ti  Ti21  1  0.000000  0.514269  0.741235  1
  O  O22  1  0.000000  0.240733  0.516895  1
  O  O23  1  0.717532  0.014096  0.623514  1
  O  O24  1  0.717532  0.985904  0.376486  1
  O  O25  1  0.500000  0.239044  0.511127  1
  O  O26  1  0.500000  0.765551  0.259727  1
  O  O27  1  0.500000  0.760956  0.488873  1
  O  O28  1  0.241534  0.520690  0.360832  1
  O  O29  1  0.217532  0.485904  0.123514  1
  O  O30  1  0.282468  0.014096  0.623514  1
  O  O31  1  0.282468  0.985904  0.376486  1
  O  O32  1  0.000000  0.739233  0.265541  1
  O  O33  1  0.000000  0.759267  0.483105  1
  O  O34  1  0.000000  0.265551  0.240273  1
  O  O35  1  0.000000  0.260956  0.011127  1
  O  O36  1  0.741534  0.020690  0.139168  1
  O  O37  1  0.741534  0.979310  0.860832  1
  O  O38  1  0.758466  0.520690  0.360832  1
  O  O39  1  0.782468  0.485904  0.123514  1
  O  O40  1  0.500000  0.259267  0.016895  1
  O  O41  1  0.500000  0.239233  0.234459  1
  O  O42  1  0.500000  0.740733  0.983105  1
  O  O43  1  0.500000  0.760767  0.765541  1
  O  O44  1  0.258466  0.020690  0.139168  1
  O  O45  1  0.217532  0.514096  0.876486  1
  O  O46  1  0.241534  0.479310  0.639168  1
  O  O47  1  0.258466  0.979310  0.860832  1
  O  O48  1  0.000000  0.734449  0.759727  1
  O  O49  1  0.000000  0.739044  0.988873  1
  O  O50  1  0.000000  0.260767  0.734459  1
  O  O51  1  0.782468  0.514096  0.876486  1
  O  O52  1  0.758466  0.479310  0.639168  1
  O  O53  1  0.500000  0.234449  0.740273  1
