# generated using pymatgen
data_Ba3SrTa2O9
_symmetry_space_group_name_H-M   'P 1'
_cell_length_a   6.15079966
_cell_length_b   6.15079966
_cell_length_c   15.61389024
_cell_angle_alpha   90.00000000
_cell_angle_beta   90.00000000
_cell_angle_gamma   120.00000000
_symmetry_Int_Tables_number   1
_chemical_formula_structural   Ba3SrTa2O9
_chemical_formula_sum   'Ba6 Sr2 Ta4 O18'
_cell_volume   511.56982219
_cell_formula_units_Z   2
loop_
 _symmetry_equiv_pos_site_id
 _symmetry_equiv_pos_as_xyz
  1  'x, y, z'
loop_
 _atom_site_type_symbol
 _atom_site_label
 _atom_site_symmetry_multiplicity
 _atom_site_fract_x
 _atom_site_fract_y
 _atom_site_fract_z
 _atom_site_occupancy
  Ba  Ba0  1  0.000000  0.000000  0.250000  1
  Ba  Ba1  1  0.000000  0.000000  0.750000  1
  Ba  Ba2  1  0.333333  0.666667  0.119169  1
  Ba  Ba3  1  0.666667  0.333333  0.619169  1
  Ba  Ba4  1  0.666667  0.333333  0.880831  1
  Ba  Ba5  1  0.333333  0.666667  0.380831  1
  Sr  Sr6  1  0.000000  0.000000  0.000000  1
  Sr  Sr7  1  0.000000  0.000000  0.500000  1
  Ta  Ta8  1  0.333333  0.666667  0.845521  1
  Ta  Ta9  1  0.666667  0.333333  0.345521  1
  Ta  Ta10  1  0.666667  0.333333  0.154479  1
  Ta  Ta11  1  0.333333  0.666667  0.654479  1
  O  O12  1  0.570466  0.045597  0.250000  1
  O  O13  1  0.524869  0.570466  0.750000  1
  O  O14  1  0.045597  0.475131  0.750000  1
  O  O15  1  0.954403  0.524869  0.250000  1
  O  O16  1  0.475131  0.429534  0.250000  1
  O  O17  1  0.429534  0.954403  0.750000  1
  O  O18  1  0.758758  0.644006  0.098125  1
  O  O19  1  0.114751  0.758758  0.598125  1
  O  O20  1  0.644006  0.885249  0.598125  1
  O  O21  1  0.355994  0.114751  0.098125  1
  O  O22  1  0.885249  0.241242  0.098125  1
  O  O23  1  0.241242  0.355994  0.598125  1
  O  O24  1  0.241242  0.355994  0.901875  1
  O  O25  1  0.885249  0.241242  0.401875  1
  O  O26  1  0.355994  0.114751  0.401875  1
  O  O27  1  0.644006  0.885249  0.901875  1
  O  O28  1  0.114751  0.758758  0.901875  1
  O  O29  1  0.758758  0.644006  0.401875  1
