# generated using pymatgen
data_Ni3(AsO4)2
_symmetry_space_group_name_H-M   'P 1'
_cell_length_a   6.43636330
_cell_length_b   6.43636330
_cell_length_c   8.28572615
_cell_angle_alpha   90.00000000
_cell_angle_beta   90.00000000
_cell_angle_gamma   124.36764485
_symmetry_Int_Tables_number   1
_chemical_formula_structural   Ni3(AsO4)2
_chemical_formula_sum   'Ni6 As4 O16'
_cell_volume   283.33040952
_cell_formula_units_Z   2
loop_
 _symmetry_equiv_pos_site_id
 _symmetry_equiv_pos_as_xyz
  1  'x, y, z'
loop_
 _atom_site_type_symbol
 _atom_site_label
 _atom_site_symmetry_multiplicity
 _atom_site_fract_x
 _atom_site_fract_y
 _atom_site_fract_z
 _atom_site_occupancy
  Ni  Ni0  1  0.000000  0.000000  0.000000  1
  Ni  Ni1  1  0.500000  0.500000  0.500000  1
  Ni  Ni2  1  0.616771  0.883229  0.750000  1
  Ni  Ni3  1  0.883229  0.616771  0.250000  1
  Ni  Ni4  1  0.383229  0.116771  0.250000  1
  Ni  Ni5  1  0.116771  0.383229  0.750000  1
  As  As6  1  0.623696  0.376304  0.884960  1
  As  As7  1  0.376304  0.623696  0.115040  1
  As  As8  1  0.876304  0.123696  0.384960  1
  As  As9  1  0.123696  0.876304  0.615040  1
  O  O10  1  0.747492  0.252508  0.766461  1
  O  O11  1  0.252508  0.747492  0.233539  1
  O  O12  1  0.752508  0.247492  0.266461  1
  O  O13  1  0.247492  0.752508  0.733539  1
  O  O14  1  0.001156  0.998844  0.749804  1
  O  O15  1  0.998844  0.001156  0.250196  1
  O  O16  1  0.498844  0.501156  0.249804  1
  O  O17  1  0.501156  0.498844  0.750196  1
  O  O18  1  0.616982  0.858594  0.999115  1
  O  O19  1  0.858594  0.616982  0.000885  1
  O  O20  1  0.883018  0.641406  0.499115  1
  O  O21  1  0.641406  0.883018  0.500885  1
  O  O22  1  0.383018  0.141406  0.000885  1
  O  O23  1  0.141406  0.383018  0.999115  1
  O  O24  1  0.116982  0.358594  0.500885  1
  O  O25  1  0.358594  0.116982  0.499115  1
