# generated using pymatgen
data_CaSb10(S3O5)2
_symmetry_space_group_name_H-M   'P 1'
_cell_length_a   13.27253447
_cell_length_b   13.27253447
_cell_length_c   17.24906529
_cell_angle_alpha   62.98633802
_cell_angle_beta   117.01366198
_cell_angle_gamma   154.91133441
_symmetry_Int_Tables_number   1
_chemical_formula_structural   CaSb10(S3O5)2
_chemical_formula_sum   'Ca2 Sb20 S12 O20'
_cell_volume   1140.44805810
_cell_formula_units_Z   2
loop_
 _symmetry_equiv_pos_site_id
 _symmetry_equiv_pos_as_xyz
  1  'x, y, z'
loop_
 _atom_site_type_symbol
 _atom_site_label
 _atom_site_symmetry_multiplicity
 _atom_site_fract_x
 _atom_site_fract_y
 _atom_site_fract_z
 _atom_site_occupancy
  Ca  Ca0  1  0.549758  0.549758  0.750000  1
  Ca  Ca1  1  0.450242  0.450242  0.250000  1
  Sb  Sb2  1  0.957204  0.052834  0.589242  1
  Sb  Sb3  1  0.052834  0.957204  0.910758  1
  Sb  Sb4  1  0.042796  0.947166  0.410758  1
  Sb  Sb5  1  0.947166  0.042796  0.089242  1
  Sb  Sb6  1  0.617593  0.497647  0.584665  1
  Sb  Sb7  1  0.497647  0.617593  0.915335  1
  Sb  Sb8  1  0.382407  0.502353  0.415335  1
  Sb  Sb9  1  0.502353  0.382407  0.084665  1
  Sb  Sb10  1  0.013646  0.208899  0.747908  1
  Sb  Sb11  1  0.208899  0.013646  0.752092  1
  Sb  Sb12  1  0.986354  0.791101  0.252092  1
  Sb  Sb13  1  0.791101  0.986354  0.247908  1
  Sb  Sb14  1  0.781203  0.451269  0.952097  1
  Sb  Sb15  1  0.451269  0.781203  0.547903  1
  Sb  Sb16  1  0.218797  0.548731  0.047903  1
  Sb  Sb17  1  0.548731  0.218797  0.452097  1
  Sb  Sb18  1  0.133964  0.679143  0.633836  1
  Sb  Sb19  1  0.679143  0.133964  0.866164  1
  Sb  Sb20  1  0.866036  0.320857  0.366164  1
  Sb  Sb21  1  0.320857  0.866036  0.133836  1
  S  S22  1  0.814099  0.225334  0.525302  1
  S  S23  1  0.225334  0.814099  0.974698  1
  S  S24  1  0.185901  0.774666  0.474698  1
  S  S25  1  0.774666  0.185901  0.025302  1
  S  S26  1  0.742959  0.399649  0.811659  1
  S  S27  1  0.399649  0.742959  0.688341  1
  S  S28  1  0.257041  0.600351  0.188341  1
  S  S29  1  0.600351  0.257041  0.311659  1
  S  S30  1  0.066129  0.417792  0.856399  1
  S  S31  1  0.417792  0.066129  0.643601  1
  S  S32  1  0.933871  0.582208  0.143601  1
  S  S33  1  0.582208  0.933871  0.356399  1
  O  O34  1  0.696751  0.648439  0.982347  1
  O  O35  1  0.648439  0.696751  0.517653  1
  O  O36  1  0.303249  0.351561  0.017653  1
  O  O37  1  0.351561  0.303249  0.482347  1
  O  O38  1  0.828732  0.663122  0.872281  1
  O  O39  1  0.663122  0.828732  0.627719  1
  O  O40  1  0.171268  0.336878  0.127719  1
  O  O41  1  0.336878  0.171268  0.372281  1
  O  O42  1  0.311856  0.399052  0.835290  1
  O  O43  1  0.399052  0.311856  0.664710  1
  O  O44  1  0.688144  0.600948  0.164710  1
  O  O45  1  0.600948  0.688144  0.335290  1
  O  O46  1  0.158794  0.282313  0.673176  1
  O  O47  1  0.282313  0.158794  0.826824  1
  O  O48  1  0.841206  0.717687  0.326824  1
  O  O49  1  0.717687  0.841206  0.173176  1
  O  O50  1  0.911127  0.849495  0.678952  1
  O  O51  1  0.849495  0.911127  0.821048  1
  O  O52  1  0.088873  0.150505  0.321048  1
  O  O53  1  0.150505  0.088873  0.178952  1
