# generated using pymatgen
data_KGd(PO3)4
_symmetry_space_group_name_H-M   'P 1'
_cell_length_a   7.45039874
_cell_length_b   7.45039874
_cell_length_c   10.63716534
_cell_angle_alpha   79.06933131
_cell_angle_beta   100.93066869
_cell_angle_gamma   64.63199367
_symmetry_Int_Tables_number   1
_chemical_formula_structural   KGd(PO3)4
_chemical_formula_sum   'K2 Gd2 P8 O24'
_cell_volume   498.82768269
_cell_formula_units_Z   2
loop_
 _symmetry_equiv_pos_site_id
 _symmetry_equiv_pos_as_xyz
  1  'x, y, z'
loop_
 _atom_site_type_symbol
 _atom_site_label
 _atom_site_symmetry_multiplicity
 _atom_site_fract_x
 _atom_site_fract_y
 _atom_site_fract_z
 _atom_site_occupancy
  K  K0  1  0.815624  0.815624  0.250000  1
  K  K1  1  0.184376  0.184376  0.750000  1
  Gd  Gd2  1  0.879739  0.879739  0.750000  1
  Gd  Gd3  1  0.120261  0.120261  0.250000  1
  P  P4  1  0.743503  0.303781  0.443335  1
  P  P5  1  0.256497  0.696219  0.556665  1
  P  P6  1  0.373701  0.286675  0.497683  1
  P  P7  1  0.713325  0.626299  0.997683  1
  P  P8  1  0.303781  0.743503  0.056665  1
  P  P9  1  0.626299  0.713325  0.502317  1
  P  P10  1  0.696219  0.256497  0.943335  1
  P  P11  1  0.286675  0.373701  0.002317  1
  O  O12  1  0.137149  0.838570  0.415013  1
  O  O13  1  0.161430  0.862851  0.915013  1
  O  O14  1  0.808890  0.700163  0.600530  1
  O  O15  1  0.501142  0.356885  0.412216  1
  O  O16  1  0.754201  0.186247  0.827880  1
  O  O17  1  0.191110  0.299837  0.399470  1
  O  O18  1  0.356885  0.501142  0.087784  1
  O  O19  1  0.186247  0.754201  0.672120  1
  O  O20  1  0.275953  0.469526  0.566133  1
  O  O21  1  0.245799  0.813753  0.172120  1
  O  O22  1  0.299837  0.191110  0.100530  1
  O  O23  1  0.469526  0.275953  0.933867  1
  O  O24  1  0.530474  0.724047  0.066133  1
  O  O25  1  0.813753  0.245799  0.327880  1
  O  O26  1  0.862851  0.161430  0.584987  1
  O  O27  1  0.700163  0.808890  0.899470  1
  O  O28  1  0.488863  0.908653  0.386061  1
  O  O29  1  0.511137  0.091347  0.613939  1
  O  O30  1  0.724047  0.530474  0.433867  1
  O  O31  1  0.091347  0.511137  0.886061  1
  O  O32  1  0.838570  0.137149  0.084987  1
  O  O33  1  0.643115  0.498858  0.912216  1
  O  O34  1  0.498858  0.643115  0.587784  1
  O  O35  1  0.908653  0.488863  0.113939  1
