# generated using pymatgen
data_Ca3UO6
_symmetry_space_group_name_H-M   'P 1'
_cell_length_a   5.76377419
_cell_length_b   5.99427153
_cell_length_c   10.12940550
_cell_angle_alpha   90.00000000
_cell_angle_beta   123.98885130
_cell_angle_gamma   90.00000000
_symmetry_Int_Tables_number   1
_chemical_formula_structural   Ca3UO6
_chemical_formula_sum   'Ca6 U2 O12'
_cell_volume   290.17402141
_cell_formula_units_Z   2
loop_
 _symmetry_equiv_pos_site_id
 _symmetry_equiv_pos_as_xyz
  1  'x, y, z'
loop_
 _atom_site_type_symbol
 _atom_site_label
 _atom_site_symmetry_multiplicity
 _atom_site_fract_x
 _atom_site_fract_y
 _atom_site_fract_z
 _atom_site_occupancy
  Ca  Ca0  1  0.724154  0.551597  0.240119  1
  Ca  Ca1  1  0.275846  0.051597  0.259881  1
  Ca  Ca2  1  0.500000  0.500000  0.500000  1
  Ca  Ca3  1  0.500000  0.000000  0.000000  1
  Ca  Ca4  1  0.724154  0.948403  0.740119  1
  Ca  Ca5  1  0.275846  0.448403  0.759881  1
  U  U6  1  0.000000  0.500000  0.000000  1
  U  U7  1  0.000000  0.000000  0.500000  1
  O  O8  1  0.898342  0.571207  0.769011  1
  O  O9  1  0.101658  0.071207  0.730989  1
  O  O10  1  0.101658  0.428793  0.230989  1
  O  O11  1  0.898342  0.928793  0.269011  1
  O  O12  1  0.649461  0.821275  0.445215  1
  O  O13  1  0.350539  0.321275  0.054785  1
  O  O14  1  0.350539  0.178725  0.554785  1
  O  O15  1  0.649461  0.678725  0.945215  1
  O  O16  1  0.739530  0.215387  0.916632  1
  O  O17  1  0.260470  0.715387  0.583368  1
  O  O18  1  0.260470  0.784613  0.083368  1
  O  O19  1  0.739530  0.284613  0.416632  1
