# generated using pymatgen
data_Na2RuO3
_symmetry_space_group_name_H-M   'P 1'
_cell_length_a   5.48273998
_cell_length_b   5.48273998
_cell_length_c   10.87913303
_cell_angle_alpha   85.07866108
_cell_angle_beta   94.92133892
_cell_angle_gamma   60.16565556
_symmetry_Int_Tables_number   1
_chemical_formula_structural   Na2RuO3
_chemical_formula_sum   'Na8 Ru4 O12'
_cell_volume   279.50344395
_cell_formula_units_Z   4
loop_
 _symmetry_equiv_pos_site_id
 _symmetry_equiv_pos_as_xyz
  1  'x, y, z'
loop_
 _atom_site_type_symbol
 _atom_site_label
 _atom_site_symmetry_multiplicity
 _atom_site_fract_x
 _atom_site_fract_y
 _atom_site_fract_z
 _atom_site_occupancy
  Na  Na0  1  0.913093  0.913093  0.750000  1
  Na  Na1  1  0.319799  0.843374  0.002013  1
  Na  Na2  1  0.156626  0.680201  0.502013  1
  Na  Na3  1  0.843374  0.319799  0.497987  1
  Na  Na4  1  0.500000  1.000000  0.500000  1
  Na  Na5  1  0.680201  0.156626  0.997987  1
  Na  Na6  1  0.086907  0.086907  0.250000  1
  Na  Na7  1  0.000000  0.500000  0.000000  1
  Ru  Ru8  1  0.419790  0.419790  0.250000  1
  Ru  Ru9  1  0.246207  0.246207  0.750000  1
  Ru  Ru10  1  0.580210  0.580210  0.750000  1
  Ru  Ru11  1  0.753793  0.753793  0.250000  1
  O  O12  1  0.873808  0.580488  0.647050  1
  O  O13  1  0.683466  0.490822  0.149670  1
  O  O14  1  0.316534  0.509178  0.850330  1
  O  O15  1  0.952681  0.244439  0.854343  1
  O  O16  1  0.490822  0.683466  0.350330  1
  O  O17  1  0.126192  0.419512  0.352950  1
  O  O18  1  0.244439  0.952681  0.645657  1
  O  O19  1  0.419512  0.126192  0.147050  1
  O  O20  1  0.580488  0.873808  0.852950  1
  O  O21  1  0.047319  0.755561  0.145657  1
  O  O22  1  0.509178  0.316534  0.649670  1
  O  O23  1  0.755561  0.047319  0.354343  1
