# generated using pymatgen
data_ScOs2
_symmetry_space_group_name_H-M   'P 1'
_cell_length_a   5.20607450
_cell_length_b   5.20607450
_cell_length_c   8.61270601
_cell_angle_alpha   90.00000000
_cell_angle_beta   90.00000000
_cell_angle_gamma   120.00000000
_symmetry_Int_Tables_number   1
_chemical_formula_structural   ScOs2
_chemical_formula_sum   'Sc4 Os8'
_cell_volume   202.15803684
_cell_formula_units_Z   4
loop_
 _symmetry_equiv_pos_site_id
 _symmetry_equiv_pos_as_xyz
  1  'x, y, z'
loop_
 _atom_site_type_symbol
 _atom_site_label
 _atom_site_symmetry_multiplicity
 _atom_site_fract_x
 _atom_site_fract_y
 _atom_site_fract_z
 _atom_site_occupancy
  Sc  Sc0  1  0.333333  0.666667  0.433335  1
  Sc  Sc1  1  0.666667  0.333333  0.566665  1
  Sc  Sc2  1  0.666667  0.333333  0.933335  1
  Sc  Sc3  1  0.333333  0.666667  0.066665  1
  Os  Os4  1  0.172871  0.345741  0.750000  1
  Os  Os5  1  0.172871  0.827129  0.750000  1
  Os  Os6  1  0.345741  0.172871  0.250000  1
  Os  Os7  1  0.827129  0.654259  0.250000  1
  Os  Os8  1  0.654259  0.827129  0.750000  1
  Os  Os9  1  0.000000  0.000000  0.000000  1
  Os  Os10  1  0.827129  0.172871  0.250000  1
  Os  Os11  1  0.000000  0.000000  0.500000  1
