# generated using pymatgen
data_Li2Co(PO3)4
_symmetry_space_group_name_H-M   'P 1'
_cell_length_a   4.96649017
_cell_length_b   7.16646060
_cell_length_c   7.60494972
_cell_angle_alpha   115.31096507
_cell_angle_beta   82.30281300
_cell_angle_gamma   109.79177354
_symmetry_Int_Tables_number   1
_chemical_formula_structural   Li2Co(PO3)4
_chemical_formula_sum   'Li2 Co1 P4 O12'
_cell_volume   230.21906955
_cell_formula_units_Z   1
loop_
 _symmetry_equiv_pos_site_id
 _symmetry_equiv_pos_as_xyz
  1  'x, y, z'
loop_
 _atom_site_type_symbol
 _atom_site_label
 _atom_site_symmetry_multiplicity
 _atom_site_fract_x
 _atom_site_fract_y
 _atom_site_fract_z
 _atom_site_occupancy
  Li  Li0  1  0.976600  0.244954  0.446216  1
  Li  Li1  1  0.023400  0.755046  0.553784  1
  Co  Co2  1  0.000000  0.000000  0.000000  1
  P  P3  1  0.438975  0.807307  0.211565  1
  P  P4  1  0.561025  0.192693  0.788435  1
  P  P5  1  0.561875  0.403154  0.216898  1
  P  P6  1  0.438125  0.596846  0.783102  1
  O  O7  1  0.717356  0.982131  0.209444  1
  O  O8  1  0.293356  0.693363  0.995028  1
  O  O9  1  0.734632  0.756250  0.788075  1
  O  O10  1  0.282644  0.017869  0.790556  1
  O  O11  1  0.706644  0.306637  0.004972  1
  O  O12  1  0.229568  0.537794  0.630728  1
  O  O13  1  0.265368  0.243750  0.211925  1
  O  O14  1  0.770432  0.462206  0.369272  1
  O  O15  1  0.526850  0.617533  0.221096  1
  O  O16  1  0.220822  0.869821  0.357031  1
  O  O17  1  0.473150  0.382467  0.778904  1
  O  O18  1  0.779178  0.130179  0.642969  1
