# generated using pymatgen
data_Tl4CdI6
_symmetry_space_group_name_H-M   'P 1'
_cell_length_a   9.40473751
_cell_length_b   9.40473751
_cell_length_c   9.96461419
_cell_angle_alpha   90.00000000
_cell_angle_beta   90.00000000
_cell_angle_gamma   90.00000000
_symmetry_Int_Tables_number   1
_chemical_formula_structural   Tl4CdI6
_chemical_formula_sum   'Tl8 Cd2 I12'
_cell_volume   881.36103371
_cell_formula_units_Z   2
loop_
 _symmetry_equiv_pos_site_id
 _symmetry_equiv_pos_as_xyz
  1  'x, y, z'
loop_
 _atom_site_type_symbol
 _atom_site_label
 _atom_site_symmetry_multiplicity
 _atom_site_fract_x
 _atom_site_fract_y
 _atom_site_fract_z
 _atom_site_occupancy
  Tl  Tl0  1  0.152178  0.347822  0.250000  1
  Tl  Tl1  1  0.847822  0.652178  0.750000  1
  Tl  Tl2  1  0.152178  0.347822  0.750000  1
  Tl  Tl3  1  0.347822  0.847822  0.250000  1
  Tl  Tl4  1  0.347822  0.847822  0.750000  1
  Tl  Tl5  1  0.847822  0.652178  0.250000  1
  Tl  Tl6  1  0.652178  0.152178  0.250000  1
  Tl  Tl7  1  0.652178  0.152178  0.750000  1
  Cd  Cd8  1  0.000000  0.000000  0.000000  1
  Cd  Cd9  1  0.500000  0.500000  0.500000  1
  I  I10  1  0.807102  0.363671  0.500000  1
  I  I11  1  0.000000  0.000000  0.289535  1
  I  I12  1  0.000000  0.000000  0.710465  1
  I  I13  1  0.136329  0.692898  0.000000  1
  I  I14  1  0.692898  0.863671  0.000000  1
  I  I15  1  0.192898  0.636329  0.500000  1
  I  I16  1  0.363671  0.192898  0.500000  1
  I  I17  1  0.636329  0.807102  0.500000  1
  I  I18  1  0.500000  0.500000  0.210465  1
  I  I19  1  0.307102  0.136329  0.000000  1
  I  I20  1  0.863671  0.307102  0.000000  1
  I  I21  1  0.500000  0.500000  0.789535  1
