# generated using pymatgen
data_Mn4(PO4)3
_symmetry_space_group_name_H-M   'P 1'
_cell_length_a   6.39801877
_cell_length_b   9.98264488
_cell_length_c   16.40698858
_cell_angle_alpha   90.00000000
_cell_angle_beta   90.00000000
_cell_angle_gamma   90.00000000
_symmetry_Int_Tables_number   1
_chemical_formula_structural   Mn4(PO4)3
_chemical_formula_sum   'Mn16 P12 O48'
_cell_volume   1047.90040345
_cell_formula_units_Z   4
loop_
 _symmetry_equiv_pos_site_id
 _symmetry_equiv_pos_as_xyz
  1  'x, y, z'
loop_
 _atom_site_type_symbol
 _atom_site_label
 _atom_site_symmetry_multiplicity
 _atom_site_fract_x
 _atom_site_fract_y
 _atom_site_fract_z
 _atom_site_occupancy
  Mn  Mn0  1  0.000000  0.451108  0.905881  1
  Mn  Mn1  1  0.000000  0.012458  0.860826  1
  Mn  Mn2  1  0.000000  0.987542  0.139174  1
  Mn  Mn3  1  0.000000  0.548892  0.094119  1
  Mn  Mn4  1  0.752756  0.240235  0.701115  1
  Mn  Mn5  1  0.752756  0.759765  0.298885  1
  Mn  Mn6  1  0.747244  0.740235  0.798885  1
  Mn  Mn7  1  0.747244  0.259765  0.201115  1
  Mn  Mn8  1  0.500000  0.512458  0.639174  1
  Mn  Mn9  1  0.500000  0.951108  0.594119  1
  Mn  Mn10  1  0.500000  0.048892  0.405881  1
  Mn  Mn11  1  0.500000  0.487542  0.360826  1
  Mn  Mn12  1  0.252756  0.740235  0.798885  1
  Mn  Mn13  1  0.252756  0.259765  0.201115  1
  Mn  Mn14  1  0.247244  0.240235  0.701115  1
  Mn  Mn15  1  0.247244  0.759765  0.298885  1
  P  P16  1  0.000000  0.784846  0.967257  1
  P  P17  1  0.000000  0.532186  0.720611  1
  P  P18  1  0.000000  0.947596  0.661100  1
  P  P19  1  0.000000  0.052404  0.338900  1
  P  P20  1  0.000000  0.467814  0.279389  1
  P  P21  1  0.000000  0.215154  0.032743  1
  P  P22  1  0.500000  0.447596  0.838900  1
  P  P23  1  0.500000  0.032186  0.779389  1
  P  P24  1  0.500000  0.284846  0.532743  1
  P  P25  1  0.500000  0.715154  0.467257  1
  P  P26  1  0.500000  0.967814  0.220611  1
  P  P27  1  0.500000  0.552404  0.161100  1
  O  O28  1  0.000000  0.627110  0.982409  1
  O  O29  1  0.000000  0.153439  0.948629  1
  O  O30  1  0.000000  0.583986  0.815030  1
  O  O31  1  0.000000  0.874792  0.748298  1
  O  O32  1  0.000000  0.377163  0.725514  1
  O  O33  1  0.000000  0.101982  0.677011  1
  O  O34  1  0.000000  0.898018  0.322989  1
  O  O35  1  0.000000  0.622837  0.274486  1
  O  O36  1  0.000000  0.125208  0.251702  1
  O  O37  1  0.000000  0.416014  0.184970  1
  O  O38  1  0.000000  0.846561  0.051371  1
  O  O39  1  0.000000  0.372890  0.017591  1
  O  O40  1  0.808665  0.825646  0.914017  1
  O  O41  1  0.808665  0.174354  0.085983  1
  O  O42  1  0.799572  0.905945  0.615886  1
  O  O43  1  0.799572  0.094055  0.384114  1
  O  O44  1  0.796929  0.591361  0.687098  1
  O  O45  1  0.796929  0.408639  0.312902  1
  O  O46  1  0.703071  0.091361  0.812902  1
  O  O47  1  0.703071  0.908639  0.187098  1
  O  O48  1  0.700428  0.405945  0.884114  1
  O  O49  1  0.700428  0.594055  0.115886  1
  O  O50  1  0.691335  0.325646  0.585983  1
  O  O51  1  0.691335  0.674354  0.414017  1
  O  O52  1  0.500000  0.601982  0.822989  1
  O  O53  1  0.500000  0.877163  0.774486  1
  O  O54  1  0.500000  0.374792  0.751702  1
  O  O55  1  0.500000  0.083986  0.684970  1
  O  O56  1  0.500000  0.653439  0.551371  1
  O  O57  1  0.500000  0.127110  0.517591  1
  O  O58  1  0.500000  0.872890  0.482409  1
  O  O59  1  0.500000  0.346561  0.448629  1
  O  O60  1  0.500000  0.916014  0.315030  1
  O  O61  1  0.500000  0.625208  0.248298  1
  O  O62  1  0.500000  0.122837  0.225514  1
  O  O63  1  0.500000  0.398018  0.177011  1
  O  O64  1  0.308665  0.325646  0.585983  1
  O  O65  1  0.308665  0.674354  0.414017  1
  O  O66  1  0.299572  0.405945  0.884114  1
  O  O67  1  0.299572  0.594055  0.115886  1
  O  O68  1  0.296929  0.091361  0.812902  1
  O  O69  1  0.296929  0.908639  0.187098  1
  O  O70  1  0.203071  0.591361  0.687098  1
  O  O71  1  0.203071  0.408639  0.312902  1
  O  O72  1  0.200428  0.905945  0.615886  1
  O  O73  1  0.200428  0.094055  0.384114  1
  O  O74  1  0.191335  0.825646  0.914017  1
  O  O75  1  0.191335  0.174354  0.085983  1
