# generated using pymatgen
data_K4SnSb2F14
_symmetry_space_group_name_H-M   'P 1'
_cell_length_a   6.83655868
_cell_length_b   7.61025856
_cell_length_c   7.79167521
_cell_angle_alpha   92.36472973
_cell_angle_beta   91.41657907
_cell_angle_gamma   115.33410781
_symmetry_Int_Tables_number   1
_chemical_formula_structural   K4SnSb2F14
_chemical_formula_sum   'K4 Sn1 Sb2 F14'
_cell_volume   365.68310687
_cell_formula_units_Z   1
loop_
 _symmetry_equiv_pos_site_id
 _symmetry_equiv_pos_as_xyz
  1  'x, y, z'
loop_
 _atom_site_type_symbol
 _atom_site_label
 _atom_site_symmetry_multiplicity
 _atom_site_fract_x
 _atom_site_fract_y
 _atom_site_fract_z
 _atom_site_occupancy
  K  K0  1  0.285953  0.553103  0.142944  1
  K  K1  1  0.851116  0.735684  0.413816  1
  K  K2  1  0.714047  0.446897  0.857056  1
  K  K3  1  0.148884  0.264316  0.586184  1
  Sn  Sn4  1  0.000000  0.000000  0.000000  1
  Sb  Sb5  1  0.390064  0.808618  0.684982  1
  Sb  Sb6  1  0.609936  0.191382  0.315018  1
  F  F7  1  0.922404  0.379444  0.329200  1
  F  F8  1  0.281423  0.126162  0.882178  1
  F  F9  1  0.429933  0.661582  0.483151  1
  F  F10  1  0.718577  0.873838  0.117822  1
  F  F11  1  0.937648  0.229084  0.948592  1
  F  F12  1  0.274244  0.935071  0.495822  1
  F  F13  1  0.062352  0.770916  0.051408  1
  F  F14  1  0.855785  0.868122  0.772652  1
  F  F15  1  0.077596  0.620556  0.670800  1
  F  F16  1  0.144215  0.131878  0.227348  1
  F  F17  1  0.401672  0.574404  0.812844  1
  F  F18  1  0.598328  0.425596  0.187156  1
  F  F19  1  0.725756  0.064929  0.504178  1
  F  F20  1  0.570067  0.338418  0.516849  1
