# generated using pymatgen
data_Ba14AlSb11
_symmetry_space_group_name_H-M   'P 1'
_cell_length_a   17.95679986
_cell_length_b   17.95679986
_cell_length_c   17.95679986
_cell_angle_alpha   117.88730551
_cell_angle_beta   117.88730551
_cell_angle_gamma   93.69998286
_symmetry_Int_Tables_number   1
_chemical_formula_structural   Ba14AlSb11
_chemical_formula_sum   'Ba56 Al4 Sb44'
_cell_volume   4215.46045382
_cell_formula_units_Z   4
loop_
 _symmetry_equiv_pos_site_id
 _symmetry_equiv_pos_as_xyz
  1  'x, y, z'
loop_
 _atom_site_type_symbol
 _atom_site_label
 _atom_site_symmetry_multiplicity
 _atom_site_fract_x
 _atom_site_fract_y
 _atom_site_fract_z
 _atom_site_occupancy
  Ba  Ba0  1  0.626314  0.286424  0.975821  1
  Ba  Ba1  1  0.900493  0.060603  0.524179  1
  Ba  Ba2  1  0.132144  0.498326  0.723117  1
  Ba  Ba3  1  0.659027  0.525209  0.776883  1
  Ba  Ba4  1  0.400493  0.876314  0.839890  1
  Ba  Ba5  1  0.810603  0.786424  0.660110  1
  Ba  Ba6  1  0.036424  0.560603  0.160110  1
  Ba  Ba7  1  0.126314  0.150493  0.339890  1
  Ba  Ba8  1  0.894563  0.748252  0.894221  1
  Ba  Ba9  1  0.159027  0.382144  0.133818  1
  Ba  Ba10  1  0.250342  0.604031  0.605779  1
  Ba  Ba11  1  0.275209  0.998326  0.366182  1
  Ba  Ba12  1  0.751748  0.605437  0.105779  1
  Ba  Ba13  1  0.310603  0.650493  0.024179  1
  Ba  Ba14  1  0.895969  0.249658  0.394221  1
  Ba  Ba15  1  0.248326  0.025209  0.866182  1
  Ba  Ba16  1  0.981118  0.875000  0.606118  1
  Ba  Ba17  1  0.536424  0.376314  0.475821  1
  Ba  Ba18  1  0.632144  0.909027  0.633818  1
  Ba  Ba19  1  0.625000  0.018882  0.893882  1
  Ba  Ba20  1  0.498252  0.104031  0.353689  1
  Ba  Ba21  1  0.394563  0.500342  0.146311  1
  Ba  Ba22  1  0.625000  0.518882  0.393882  1
  Ba  Ba23  1  0.481118  0.875000  0.106118  1
  Ba  Ba24  1  0.750342  0.144563  0.646311  1
  Ba  Ba25  1  0.001674  0.367856  0.276883  1
  Ba  Ba26  1  0.775209  0.409027  0.276883  1
  Ba  Ba27  1  0.354031  0.248252  0.853689  1
  Ba  Ba28  1  0.395969  0.001748  0.646311  1
  Ba  Ba29  1  0.974791  0.840973  0.223117  1
  Ba  Ba30  1  0.748326  0.882144  0.223117  1
  Ba  Ba31  1  0.999658  0.105437  0.853689  1
  Ba  Ba32  1  0.268882  0.375000  0.393882  1
  Ba  Ba33  1  0.125000  0.731118  0.106118  1
  Ba  Ba34  1  0.355437  0.749658  0.353689  1
  Ba  Ba35  1  0.251748  0.145969  0.146311  1
  Ba  Ba36  1  0.125000  0.231118  0.606118  1
  Ba  Ba37  1  0.117856  0.340973  0.866182  1
  Ba  Ba38  1  0.213576  0.873686  0.024179  1
  Ba  Ba39  1  0.768882  0.375000  0.893882  1
  Ba  Ba40  1  0.501674  0.224791  0.633818  1
  Ba  Ba41  1  0.854031  0.000342  0.105779  1
  Ba  Ba42  1  0.439397  0.599507  0.475821  1
  Ba  Ba43  1  0.998252  0.644563  0.394221  1
  Ba  Ba44  1  0.474791  0.251674  0.133818  1
  Ba  Ba45  1  0.499658  0.645969  0.894221  1
  Ba  Ba46  1  0.590973  0.867856  0.366182  1
  Ba  Ba47  1  0.855437  0.501748  0.605779  1
  Ba  Ba48  1  0.623686  0.099507  0.160110  1
  Ba  Ba49  1  0.713576  0.689397  0.339890  1
  Ba  Ba50  1  0.939397  0.463576  0.839890  1
  Ba  Ba51  1  0.349507  0.373686  0.660110  1
  Ba  Ba52  1  0.090973  0.724791  0.723117  1
  Ba  Ba53  1  0.617856  0.751674  0.776883  1
  Ba  Ba54  1  0.849507  0.189397  0.975821  1
  Ba  Ba55  1  0.123686  0.963576  0.524179  1
  Al  Al56  1  0.250000  0.750000  0.500000  1
  Al  Al57  1  0.750000  0.250000  0.500000  1
  Al  Al58  1  0.500000  0.500000  0.000000  1
  Al  Al59  1  0.000000  0.000000  0.000000  1
  Sb  Sb60  1  0.853417  0.445573  0.142200  1
  Sb  Sb61  1  0.961217  0.053373  0.357800  1
  Sb  Sb62  1  0.195573  0.553373  0.092156  1
  Sb  Sb63  1  0.353417  0.211217  0.407844  1
  Sb  Sb64  1  0.192963  0.560041  0.371748  1
  Sb  Sb65  1  0.071216  0.938294  0.128252  1
  Sb  Sb66  1  0.310041  0.438294  0.867078  1
  Sb  Sb67  1  0.692963  0.321216  0.632922  1
  Sb  Sb68  1  0.571216  0.442963  0.132922  1
  Sb  Sb69  1  0.688294  0.060041  0.367078  1
  Sb  Sb70  1  0.370356  0.870356  0.240713  1
  Sb  Sb71  1  0.250000  0.250000  0.000000  1
  Sb  Sb72  1  0.120356  0.120356  0.740713  1
  Sb  Sb73  1  0.461217  0.103417  0.907844  1
  Sb  Sb74  1  0.803373  0.945573  0.592156  1
  Sb  Sb75  1  0.188294  0.821216  0.628252  1
  Sb  Sb76  1  0.810041  0.942963  0.871748  1
  Sb  Sb77  1  0.620356  0.879644  0.000000  1
  Sb  Sb78  1  0.870356  0.629644  0.500000  1
  Sb  Sb79  1  0.054427  0.646583  0.857800  1
  Sb  Sb80  1  0.446627  0.538783  0.642200  1
  Sb  Sb81  1  0.750000  0.750000  0.000000  1
  Sb  Sb82  1  1.000000  0.500000  0.500000  1
  Sb  Sb83  1  0.303373  0.711217  0.857800  1
  Sb  Sb84  1  0.695573  0.603417  0.642200  1
  Sb  Sb85  1  0.879644  0.620356  0.000000  1
  Sb  Sb86  1  0.129644  0.370356  0.500000  1
  Sb  Sb87  1  0.939959  0.307037  0.628252  1
  Sb  Sb88  1  0.561706  0.428784  0.871748  1
  Sb  Sb89  1  0.946627  0.304427  0.907844  1
  Sb  Sb90  1  0.288783  0.146583  0.592156  1
  Sb  Sb91  1  0.629644  0.129644  0.759287  1
  Sb  Sb92  1  0.500000  1.000000  0.500000  1
  Sb  Sb93  1  0.379644  0.379644  0.259287  1
  Sb  Sb94  1  0.061706  0.189959  0.132922  1
  Sb  Sb95  1  0.178784  0.807037  0.367078  1
  Sb  Sb96  1  0.057037  0.928784  0.867078  1
  Sb  Sb97  1  0.439959  0.811706  0.632922  1
  Sb  Sb98  1  0.678784  0.311706  0.371748  1
  Sb  Sb99  1  0.557037  0.689959  0.128252  1
  Sb  Sb100  1  0.396583  0.038783  0.092156  1
  Sb  Sb101  1  0.554427  0.696627  0.407844  1
  Sb  Sb102  1  0.788783  0.196627  0.142200  1
  Sb  Sb103  1  0.896583  0.804427  0.357800  1
