# generated using pymatgen
data_SrZrS3
_symmetry_space_group_name_H-M   'P 1'
_cell_length_a   3.84618091
_cell_length_b   8.60624423
_cell_length_c   14.06768242
_cell_angle_alpha   90.00000000
_cell_angle_beta   90.00000000
_cell_angle_gamma   90.00000000
_symmetry_Int_Tables_number   1
_chemical_formula_structural   SrZrS3
_chemical_formula_sum   'Sr4 Zr4 S12'
_cell_volume   465.65677914
_cell_formula_units_Z   4
loop_
 _symmetry_equiv_pos_site_id
 _symmetry_equiv_pos_as_xyz
  1  'x, y, z'
loop_
 _atom_site_type_symbol
 _atom_site_label
 _atom_site_symmetry_multiplicity
 _atom_site_fract_x
 _atom_site_fract_y
 _atom_site_fract_z
 _atom_site_occupancy
  Sr  Sr0  1  0.250000  0.566864  0.320955  1
  Sr  Sr1  1  0.750000  0.433136  0.679045  1
  Sr  Sr2  1  0.250000  0.066864  0.179045  1
  Sr  Sr3  1  0.750000  0.933136  0.820955  1
  Zr  Zr4  1  0.750000  0.171797  0.442734  1
  Zr  Zr5  1  0.750000  0.671797  0.057266  1
  Zr  Zr6  1  0.250000  0.328203  0.942734  1
  Zr  Zr7  1  0.250000  0.828203  0.557266  1
  S  S8  1  0.750000  0.162701  0.013600  1
  S  S9  1  0.250000  0.706109  0.715807  1
  S  S10  1  0.250000  0.983538  0.393657  1
  S  S11  1  0.250000  0.483538  0.106343  1
  S  S12  1  0.250000  0.837299  0.986400  1
  S  S13  1  0.750000  0.516462  0.893657  1
  S  S14  1  0.750000  0.662701  0.486400  1
  S  S15  1  0.250000  0.206109  0.784193  1
  S  S16  1  0.750000  0.793891  0.215807  1
  S  S17  1  0.750000  0.293891  0.284193  1
  S  S18  1  0.250000  0.337299  0.513600  1
  S  S19  1  0.750000  0.016462  0.606343  1
