# generated using pymatgen
data_NbPO5
_symmetry_space_group_name_H-M   'P 1'
_cell_length_a   5.42506529
_cell_length_b   6.80099953
_cell_length_c   11.47263834
_cell_angle_alpha   90.00000000
_cell_angle_beta   90.00000000
_cell_angle_gamma   90.00000000
_symmetry_Int_Tables_number   1
_chemical_formula_structural   NbPO5
_chemical_formula_sum   'Nb4 P4 O20'
_cell_volume   423.29293245
_cell_formula_units_Z   4
loop_
 _symmetry_equiv_pos_site_id
 _symmetry_equiv_pos_as_xyz
  1  'x, y, z'
loop_
 _atom_site_type_symbol
 _atom_site_label
 _atom_site_symmetry_multiplicity
 _atom_site_fract_x
 _atom_site_fract_y
 _atom_site_fract_z
 _atom_site_occupancy
  Nb  Nb0  1  0.492930  0.331011  0.936725  1
  Nb  Nb1  1  0.992930  0.831011  0.563275  1
  Nb  Nb2  1  0.492930  0.168989  0.436725  1
  Nb  Nb3  1  0.992930  0.668989  0.063275  1
  P  P4  1  0.482135  0.528005  0.653663  1
  P  P5  1  0.482135  0.971995  0.153663  1
  P  P6  1  0.982135  0.471995  0.346337  1
  P  P7  1  0.982135  0.028005  0.846337  1
  O  O8  1  0.234291  0.869073  0.132935  1
  O  O9  1  0.200280  0.338455  0.376154  1
  O  O10  1  0.234291  0.630927  0.632935  1
  O  O11  1  0.995889  0.969923  0.716044  1
  O  O12  1  0.754163  0.011773  0.495832  1
  O  O13  1  0.254163  0.988227  0.504168  1
  O  O14  1  0.700280  0.838455  0.123846  1
  O  O15  1  0.992712  0.836881  0.919082  1
  O  O16  1  0.495889  0.030077  0.283956  1
  O  O17  1  0.734291  0.369073  0.367065  1
  O  O18  1  0.995889  0.530077  0.216044  1
  O  O19  1  0.200280  0.161545  0.876154  1
  O  O20  1  0.992712  0.663119  0.419082  1
  O  O21  1  0.734291  0.130927  0.867065  1
  O  O22  1  0.254163  0.511773  0.004168  1
  O  O23  1  0.700280  0.661545  0.623846  1
  O  O24  1  0.492712  0.163119  0.080918  1
  O  O25  1  0.495889  0.469923  0.783956  1
  O  O26  1  0.492712  0.336881  0.580918  1
  O  O27  1  0.754163  0.488227  0.995832  1
