# generated using pymatgen
data_MoS3(NCl4)2
_symmetry_space_group_name_H-M   'P 1'
_cell_length_a   7.67620150
_cell_length_b   16.69256585
_cell_length_c   12.98956933
_cell_angle_alpha   90.00000000
_cell_angle_beta   113.36183784
_cell_angle_gamma   90.00000000
_symmetry_Int_Tables_number   1
_chemical_formula_structural   MoS3(NCl4)2
_chemical_formula_sum   'Mo4 S12 N8 Cl32'
_cell_volume   1527.97363329
_cell_formula_units_Z   4
loop_
 _symmetry_equiv_pos_site_id
 _symmetry_equiv_pos_as_xyz
  1  'x, y, z'
loop_
 _atom_site_type_symbol
 _atom_site_label
 _atom_site_symmetry_multiplicity
 _atom_site_fract_x
 _atom_site_fract_y
 _atom_site_fract_z
 _atom_site_occupancy
  Mo  Mo0  1  0.062324  0.822636  0.210021  1
  Mo  Mo1  1  0.937676  0.322636  0.289979  1
  Mo  Mo2  1  0.062324  0.677364  0.710021  1
  Mo  Mo3  1  0.937676  0.177364  0.789979  1
  S  S4  1  0.863080  0.344380  0.526046  1
  S  S5  1  0.467816  0.126354  0.228035  1
  S  S6  1  0.532184  0.626354  0.271965  1
  S  S7  1  0.348835  0.464876  0.201438  1
  S  S8  1  0.863080  0.155620  0.026046  1
  S  S9  1  0.467816  0.373646  0.728035  1
  S  S10  1  0.136920  0.655620  0.473954  1
  S  S11  1  0.136920  0.844380  0.973954  1
  S  S12  1  0.651165  0.964876  0.298562  1
  S  S13  1  0.348835  0.035124  0.701438  1
  S  S14  1  0.532184  0.873646  0.771965  1
  S  S15  1  0.651165  0.535124  0.798562  1
  N  N16  1  0.882545  0.166348  0.911577  1
  N  N17  1  0.882545  0.333652  0.411577  1
  N  N18  1  0.546297  0.040484  0.235556  1
  N  N19  1  0.453703  0.959516  0.764444  1
  N  N20  1  0.117455  0.833652  0.088423  1
  N  N21  1  0.117455  0.666348  0.588423  1
  N  N22  1  0.453703  0.540484  0.264444  1
  N  N23  1  0.546297  0.459516  0.735556  1
  Cl  Cl24  1  0.042236  0.187439  0.630824  1
  Cl  Cl25  1  0.123286  0.958333  0.262528  1
  Cl  Cl26  1  0.019924  0.683928  0.191783  1
  Cl  Cl27  1  0.019924  0.816072  0.691783  1
  Cl  Cl28  1  0.123286  0.541667  0.762528  1
  Cl  Cl29  1  0.488368  0.830693  0.618312  1
  Cl  Cl30  1  0.736868  0.980873  0.466187  1
  Cl  Cl31  1  0.738707  0.649983  0.598637  1
  Cl  Cl32  1  0.250185  0.959901  0.983110  1
  Cl  Cl33  1  0.386434  0.797663  0.339567  1
  Cl  Cl34  1  0.736868  0.519127  0.966187  1
  Cl  Cl35  1  0.876714  0.041667  0.737472  1
  Cl  Cl36  1  0.613566  0.297663  0.160433  1
  Cl  Cl37  1  0.386434  0.702337  0.839567  1
  Cl  Cl38  1  0.749815  0.459901  0.516890  1
  Cl  Cl39  1  0.263132  0.480873  0.033813  1
  Cl  Cl40  1  0.613566  0.202337  0.660433  1
  Cl  Cl41  1  0.261293  0.149983  0.901363  1
  Cl  Cl42  1  0.042236  0.312561  0.130824  1
  Cl  Cl43  1  0.488368  0.669307  0.118312  1
  Cl  Cl44  1  0.876714  0.458333  0.237472  1
  Cl  Cl45  1  0.261293  0.350017  0.401363  1
  Cl  Cl46  1  0.980076  0.183928  0.308217  1
  Cl  Cl47  1  0.738707  0.850017  0.098637  1
  Cl  Cl48  1  0.957764  0.812561  0.369176  1
  Cl  Cl49  1  0.263132  0.019127  0.533813  1
  Cl  Cl50  1  0.250185  0.540099  0.483110  1
  Cl  Cl51  1  0.749815  0.040099  0.016890  1
  Cl  Cl52  1  0.957764  0.687439  0.869176  1
  Cl  Cl53  1  0.511632  0.169307  0.381688  1
  Cl  Cl54  1  0.980076  0.316072  0.808217  1
  Cl  Cl55  1  0.511632  0.330693  0.881688  1
