# generated using pymatgen
data_Pr2NiO4
_symmetry_space_group_name_H-M   'P 1'
_cell_length_a   5.58377077
_cell_length_b   5.58377077
_cell_length_c   12.29520522
_cell_angle_alpha   90.00000000
_cell_angle_beta   90.00000000
_cell_angle_gamma   90.00000000
_symmetry_Int_Tables_number   1
_chemical_formula_structural   Pr2NiO4
_chemical_formula_sum   'Pr8 Ni4 O16'
_cell_volume   383.34600692
_cell_formula_units_Z   4
loop_
 _symmetry_equiv_pos_site_id
 _symmetry_equiv_pos_as_xyz
  1  'x, y, z'
loop_
 _atom_site_type_symbol
 _atom_site_label
 _atom_site_symmetry_multiplicity
 _atom_site_fract_x
 _atom_site_fract_y
 _atom_site_fract_z
 _atom_site_occupancy
  Pr  Pr0  1  0.235043  0.735043  0.113309  1
  Pr  Pr1  1  0.764957  0.735043  0.613309  1
  Pr  Pr2  1  0.235043  0.264957  0.613309  1
  Pr  Pr3  1  0.735043  0.764957  0.886691  1
  Pr  Pr4  1  0.264957  0.235043  0.886691  1
  Pr  Pr5  1  0.764957  0.264957  0.113309  1
  Pr  Pr6  1  0.735043  0.235043  0.386691  1
  Pr  Pr7  1  0.264957  0.764957  0.386691  1
  Ni  Ni8  1  0.250000  0.750000  0.750000  1
  Ni  Ni9  1  0.750000  0.750000  0.250000  1
  Ni  Ni10  1  0.250000  0.250000  0.250000  1
  Ni  Ni11  1  0.750000  0.250000  0.750000  1
  O  O12  1  0.500000  0.000000  0.722911  1
  O  O13  1  0.500000  0.000000  0.222911  1
  O  O14  1  0.000000  0.500000  0.277089  1
  O  O15  1  0.000000  0.500000  0.777089  1
  O  O16  1  0.000000  0.000000  0.750000  1
  O  O17  1  0.500000  0.500000  0.250000  1
  O  O18  1  0.500000  0.500000  0.750000  1
  O  O19  1  0.000000  0.000000  0.250000  1
  O  O20  1  0.299587  0.799587  0.929060  1
  O  O21  1  0.700413  0.799587  0.429060  1
  O  O22  1  0.299587  0.200413  0.429060  1
  O  O23  1  0.799587  0.700413  0.070940  1
  O  O24  1  0.200413  0.299587  0.070940  1
  O  O25  1  0.700413  0.200413  0.929060  1
  O  O26  1  0.799587  0.299587  0.570940  1
  O  O27  1  0.200413  0.700413  0.570940  1
