# generated using pymatgen
data_Na3Li3V2F12
_symmetry_space_group_name_H-M   'P 1'
_cell_length_a   10.93392716
_cell_length_b   10.93392716
_cell_length_c   10.93392716
_cell_angle_alpha   109.47122063
_cell_angle_beta   109.47122063
_cell_angle_gamma   109.47122063
_symmetry_Int_Tables_number   1
_chemical_formula_structural   Na3Li3V2F12
_chemical_formula_sum   'Na12 Li12 V8 F48'
_cell_volume   1006.25172737
_cell_formula_units_Z   4
loop_
 _symmetry_equiv_pos_site_id
 _symmetry_equiv_pos_as_xyz
  1  'x, y, z'
loop_
 _atom_site_type_symbol
 _atom_site_label
 _atom_site_symmetry_multiplicity
 _atom_site_fract_x
 _atom_site_fract_y
 _atom_site_fract_z
 _atom_site_occupancy
  Na  Na0  1  0.250000  0.375000  0.125000  1
  Na  Na1  1  0.375000  0.750000  0.125000  1
  Na  Na2  1  0.125000  0.250000  0.375000  1
  Na  Na3  1  0.375000  0.125000  0.250000  1
  Na  Na4  1  0.125000  0.375000  0.750000  1
  Na  Na5  1  0.750000  0.125000  0.375000  1
  Na  Na6  1  0.750000  0.625000  0.875000  1
  Na  Na7  1  0.625000  0.250000  0.875000  1
  Na  Na8  1  0.250000  0.875000  0.625000  1
  Na  Na9  1  0.875000  0.625000  0.250000  1
  Na  Na10  1  0.875000  0.750000  0.625000  1
  Na  Na11  1  0.625000  0.875000  0.750000  1
  Li  Li12  1  0.250000  0.625000  0.375000  1
  Li  Li13  1  0.250000  0.125000  0.875000  1
  Li  Li14  1  0.750000  0.875000  0.125000  1
  Li  Li15  1  0.375000  0.250000  0.625000  1
  Li  Li16  1  0.625000  0.375000  0.250000  1
  Li  Li17  1  0.125000  0.750000  0.875000  1
  Li  Li18  1  0.875000  0.125000  0.750000  1
  Li  Li19  1  0.750000  0.375000  0.625000  1
  Li  Li20  1  0.375000  0.625000  0.750000  1
  Li  Li21  1  0.125000  0.875000  0.250000  1
  Li  Li22  1  0.875000  0.250000  0.125000  1
  Li  Li23  1  0.625000  0.750000  0.375000  1
  V  V24  1  0.000000  0.000000  0.000000  1
  V  V25  1  0.000000  0.500000  0.000000  1
  V  V26  1  0.000000  0.000000  0.500000  1
  V  V27  1  0.500000  0.000000  0.000000  1
  V  V28  1  1.000000  0.500000  0.500000  1
  V  V29  1  0.500000  0.000000  0.500000  1
  V  V30  1  0.500000  0.500000  0.000000  1
  V  V31  1  0.500000  0.500000  0.500000  1
  F  F32  1  0.402241  0.077649  0.882827  1
  F  F33  1  0.077649  0.694822  0.675407  1
  F  F34  1  0.980585  0.805178  0.882827  1
  F  F35  1  0.882827  0.980585  0.805178  1
  F  F36  1  0.402241  0.824593  0.519415  1
  F  F37  1  0.617173  0.694822  0.519415  1
  F  F38  1  0.097759  0.617173  0.422351  1
  F  F39  1  0.519415  0.617173  0.694822  1
  F  F40  1  0.694822  0.675407  0.077649  1
  F  F41  1  0.694822  0.519415  0.617173  1
  F  F42  1  0.675407  0.097759  0.980585  1
  F  F43  1  0.077649  0.882827  0.402241  1
  F  F44  1  0.617173  0.422351  0.097759  1
  F  F45  1  0.519415  0.402241  0.824593  1
  F  F46  1  0.675407  0.077649  0.694822  1
  F  F47  1  0.422351  0.097759  0.617173  1
  F  F48  1  0.824593  0.519415  0.402241  1
  F  F49  1  0.805178  0.422351  0.824593  1
  F  F50  1  0.097759  0.980585  0.675407  1
  F  F51  1  0.422351  0.824593  0.805178  1
  F  F52  1  0.194822  0.117173  0.019415  1
  F  F53  1  0.117173  0.597759  0.922351  1
  F  F54  1  0.175407  0.194822  0.577649  1
  F  F55  1  0.577649  0.175407  0.194822  1
  F  F56  1  0.019415  0.324593  0.902241  1
  F  F57  1  0.902241  0.019415  0.324593  1
  F  F58  1  0.597759  0.922351  0.117173  1
  F  F59  1  0.175407  0.480585  0.597759  1
  F  F60  1  0.577649  0.902241  0.382827  1
  F  F61  1  0.324593  0.922351  0.305178  1
  F  F62  1  0.480585  0.597759  0.175407  1
  F  F63  1  0.382827  0.577649  0.902241  1
  F  F64  1  0.922351  0.305178  0.324593  1
  F  F65  1  0.019415  0.194822  0.117173  1
  F  F66  1  0.117173  0.019415  0.194822  1
  F  F67  1  0.597759  0.175407  0.480585  1
  F  F68  1  0.382827  0.305178  0.480585  1
  F  F69  1  0.902241  0.382827  0.577649  1
  F  F70  1  0.480585  0.382827  0.305178  1
  F  F71  1  0.305178  0.324593  0.922351  1
  F  F72  1  0.305178  0.480585  0.382827  1
  F  F73  1  0.324593  0.902241  0.019415  1
  F  F74  1  0.922351  0.117173  0.597759  1
  F  F75  1  0.194822  0.577649  0.175407  1
  F  F76  1  0.805178  0.882827  0.980585  1
  F  F77  1  0.882827  0.402241  0.077649  1
  F  F78  1  0.824593  0.805178  0.422351  1
  F  F79  1  0.980585  0.675407  0.097759  1
