# generated using pymatgen
data_ZnS
_symmetry_space_group_name_H-M   'P 1'
_cell_length_a   3.85312191
_cell_length_b   3.85312191
_cell_length_c   88.12965815
_cell_angle_alpha   90.00000000
_cell_angle_beta   90.00000000
_cell_angle_gamma   120.00000000
_symmetry_Int_Tables_number   1
_chemical_formula_structural   ZnS
_chemical_formula_sum   'Zn28 S28'
_cell_volume   1133.12603113
_cell_formula_units_Z   28
loop_
 _symmetry_equiv_pos_site_id
 _symmetry_equiv_pos_as_xyz
  1  'x, y, z'
loop_
 _atom_site_type_symbol
 _atom_site_label
 _atom_site_symmetry_multiplicity
 _atom_site_fract_x
 _atom_site_fract_y
 _atom_site_fract_z
 _atom_site_occupancy
  Zn  Zn0  1  0.000000  0.000000  0.071431  1
  Zn  Zn1  1  0.333333  0.666667  0.321431  1
  Zn  Zn2  1  0.333333  0.666667  0.214291  1
  Zn  Zn3  1  0.666667  0.333333  0.142861  1
  Zn  Zn4  1  0.666667  0.333333  0.357143  1
  Zn  Zn5  1  0.000000  0.000000  0.392861  1
  Zn  Zn6  1  0.666667  0.333333  0.464291  1
  Zn  Zn7  1  0.000000  0.000000  0.821428  1
  Zn  Zn8  1  0.333333  0.666667  0.642860  1
  Zn  Zn9  1  0.666667  0.333333  0.571431  1
  Zn  Zn10  1  0.666667  0.333333  0.785715  1
  Zn  Zn11  1  0.333333  0.666667  0.535714  1
  Zn  Zn12  1  0.666667  0.333333  0.857147  1
  Zn  Zn13  1  0.333333  0.666667  0.892860  1
  Zn  Zn14  1  0.000000  0.000000  0.285714  1
  Zn  Zn15  1  0.000000  0.000000  0.607143  1
  Zn  Zn16  1  0.666667  0.333333  0.678573  1
  Zn  Zn17  1  0.000000  0.000000  0.714291  1
  Zn  Zn18  1  0.333333  0.666667  0.107143  1
  Zn  Zn19  1  0.000000  0.000000  0.928573  1
  Zn  Zn20  1  0.666667  0.333333  0.035719  1
  Zn  Zn21  1  0.000000  0.000000  0.178573  1
  Zn  Zn22  1  0.333333  0.666667  1.000000  1
  Zn  Zn23  1  0.000000  0.000000  0.500003  1
  Zn  Zn24  1  0.666667  0.333333  0.964291  1
  Zn  Zn25  1  0.333333  0.666667  0.428573  1
  Zn  Zn26  1  0.666667  0.333333  0.250003  1
  Zn  Zn27  1  0.333333  0.666667  0.750003  1
  S  S28  1  0.000000  0.000000  0.205357  1
  S  S29  1  0.333333  0.666667  0.348210  1
  S  S30  1  0.666667  0.333333  0.812483  1
  S  S31  1  0.666667  0.333333  0.991055  1
  S  S32  1  0.333333  0.666667  0.455357  1
  S  S33  1  0.333333  0.666667  0.026800  1
  S  S34  1  0.000000  0.000000  0.633927  1
  S  S35  1  0.000000  0.000000  0.848223  1
  S  S36  1  0.333333  0.666667  0.919640  1
  S  S37  1  0.000000  0.000000  0.419640  1
  S  S38  1  0.000000  0.000000  0.098208  1
  S  S39  1  0.333333  0.666667  0.133927  1
  S  S40  1  0.000000  0.000000  0.312497  1
  S  S41  1  0.666667  0.333333  0.883925  1
  S  S42  1  0.000000  0.000000  0.526787  1
  S  S43  1  0.666667  0.333333  0.383927  1
  S  S44  1  0.333333  0.666667  0.669639  1
  S  S45  1  0.333333  0.666667  0.776785  1
  S  S46  1  0.666667  0.333333  0.598208  1
  S  S47  1  0.333333  0.666667  0.241069  1
  S  S48  1  0.000000  0.000000  0.741069  1
  S  S49  1  0.000000  0.000000  0.955357  1
  S  S50  1  0.666667  0.333333  0.705356  1
  S  S51  1  0.666667  0.333333  0.276787  1
  S  S52  1  0.666667  0.333333  0.062496  1
  S  S53  1  0.666667  0.333333  0.491070  1
  S  S54  1  0.333333  0.666667  0.562497  1
  S  S55  1  0.666667  0.333333  0.169640  1
