# generated using pymatgen
data_KEr2F7
_symmetry_space_group_name_H-M   'P 1'
_cell_length_a   7.81037175
_cell_length_b   11.86578699
_cell_length_c   13.33657820
_cell_angle_alpha   90.00000000
_cell_angle_beta   90.00000000
_cell_angle_gamma   90.00000000
_symmetry_Int_Tables_number   1
_chemical_formula_structural   KEr2F7
_chemical_formula_sum   'K8 Er16 F56'
_cell_volume   1235.98348858
_cell_formula_units_Z   8
loop_
 _symmetry_equiv_pos_site_id
 _symmetry_equiv_pos_as_xyz
  1  'x, y, z'
loop_
 _atom_site_type_symbol
 _atom_site_label
 _atom_site_symmetry_multiplicity
 _atom_site_fract_x
 _atom_site_fract_y
 _atom_site_fract_z
 _atom_site_occupancy
  K  K0  1  0.250000  0.915005  0.905115  1
  K  K1  1  0.750000  0.434264  0.067730  1
  K  K2  1  0.750000  0.584995  0.405115  1
  K  K3  1  0.250000  0.415005  0.594885  1
  K  K4  1  0.250000  0.565736  0.932270  1
  K  K5  1  0.250000  0.065736  0.567730  1
  K  K6  1  0.750000  0.934264  0.432270  1
  K  K7  1  0.750000  0.084995  0.094885  1
  Er  Er8  1  0.476413  0.743787  0.662581  1
  Er  Er9  1  0.250000  0.506723  0.241414  1
  Er  Er10  1  0.750000  0.493277  0.758586  1
  Er  Er11  1  0.976413  0.256213  0.337419  1
  Er  Er12  1  0.250000  0.209957  0.062937  1
  Er  Er13  1  0.750000  0.993277  0.741414  1
  Er  Er14  1  0.523587  0.256213  0.337419  1
  Er  Er15  1  0.523587  0.756213  0.162581  1
  Er  Er16  1  0.750000  0.290043  0.562937  1
  Er  Er17  1  0.750000  0.790043  0.937063  1
  Er  Er18  1  0.250000  0.709957  0.437063  1
  Er  Er19  1  0.476413  0.243787  0.837419  1
  Er  Er20  1  0.250000  0.006723  0.258586  1
  Er  Er21  1  0.023587  0.243787  0.837419  1
  Er  Er22  1  0.976413  0.756213  0.162581  1
  Er  Er23  1  0.023587  0.743787  0.662581  1
  F  F24  1  0.985326  0.218604  0.002331  1
  F  F25  1  0.995701  0.925877  0.231827  1
  F  F26  1  0.750000  0.866390  0.095271  1
  F  F27  1  0.750000  0.192026  0.838851  1
  F  F28  1  0.918982  0.330282  0.698671  1
  F  F29  1  0.750000  0.242117  0.235282  1
  F  F30  1  0.420650  0.587851  0.123184  1
  F  F31  1  0.579350  0.412149  0.876816  1
  F  F32  1  0.750000  0.742117  0.264718  1
  F  F33  1  0.495701  0.574123  0.731827  1
  F  F34  1  0.079350  0.087851  0.376816  1
  F  F35  1  0.750000  0.973581  0.910840  1
  F  F36  1  0.514674  0.218604  0.002331  1
  F  F37  1  0.420650  0.087851  0.376816  1
  F  F38  1  0.918982  0.830282  0.801329  1
  F  F39  1  0.014674  0.281396  0.502331  1
  F  F40  1  0.250000  0.026419  0.089160  1
  F  F41  1  0.750000  0.123847  0.625435  1
  F  F42  1  0.250000  0.807974  0.161149  1
  F  F43  1  0.514674  0.718604  0.497669  1
  F  F44  1  0.250000  0.336797  0.919981  1
  F  F45  1  0.250000  0.633610  0.595271  1
  F  F46  1  0.581018  0.830282  0.801329  1
  F  F47  1  0.985326  0.718604  0.497669  1
  F  F48  1  0.418982  0.669718  0.301329  1
  F  F49  1  0.504299  0.925877  0.231827  1
  F  F50  1  0.014674  0.781396  0.997669  1
  F  F51  1  0.485326  0.281396  0.502331  1
  F  F52  1  0.750000  0.663203  0.080019  1
  F  F53  1  0.750000  0.366390  0.404729  1
  F  F54  1  0.485326  0.781396  0.997669  1
  F  F55  1  0.250000  0.526419  0.410840  1
  F  F56  1  0.920650  0.912149  0.623184  1
  F  F57  1  0.081018  0.669718  0.301329  1
  F  F58  1  0.750000  0.163203  0.419981  1
  F  F59  1  0.250000  0.836797  0.580019  1
  F  F60  1  0.250000  0.757883  0.764718  1
  F  F61  1  0.250000  0.307974  0.338851  1
  F  F62  1  0.750000  0.692026  0.661149  1
  F  F63  1  0.250000  0.133610  0.904729  1
  F  F64  1  0.995701  0.425877  0.268173  1
  F  F65  1  0.081018  0.169718  0.198671  1
  F  F66  1  0.418982  0.169718  0.198671  1
  F  F67  1  0.004299  0.574123  0.731827  1
  F  F68  1  0.250000  0.876153  0.374565  1
  F  F69  1  0.079350  0.587851  0.123184  1
  F  F70  1  0.250000  0.376153  0.125435  1
  F  F71  1  0.920650  0.412149  0.876816  1
  F  F72  1  0.504299  0.425877  0.268173  1
  F  F73  1  0.250000  0.257883  0.735282  1
  F  F74  1  0.004299  0.074123  0.768173  1
  F  F75  1  0.495701  0.074123  0.768173  1
  F  F76  1  0.581018  0.330282  0.698671  1
  F  F77  1  0.750000  0.623847  0.874565  1
  F  F78  1  0.579350  0.912149  0.623184  1
  F  F79  1  0.750000  0.473581  0.589160  1
