# generated using pymatgen
data_Cs2U3(TeO7)2
_symmetry_space_group_name_H-M   'P 1'
_cell_length_a   7.04113256
_cell_length_b   7.81428988
_cell_length_c   8.74638122
_cell_angle_alpha   111.70429510
_cell_angle_beta   99.77603039
_cell_angle_gamma   98.73058979
_symmetry_Int_Tables_number   1
_chemical_formula_structural   Cs2U3(TeO7)2
_chemical_formula_sum   'Cs2 U3 Te2 O14'
_cell_volume   428.35700255
_cell_formula_units_Z   1
loop_
 _symmetry_equiv_pos_site_id
 _symmetry_equiv_pos_as_xyz
  1  'x, y, z'
loop_
 _atom_site_type_symbol
 _atom_site_label
 _atom_site_symmetry_multiplicity
 _atom_site_fract_x
 _atom_site_fract_y
 _atom_site_fract_z
 _atom_site_occupancy
  Cs  Cs0  1  0.701074  0.367294  0.822559  1
  Cs  Cs1  1  0.298926  0.632706  0.177441  1
  U  U2  1  0.599879  0.178007  0.229883  1
  U  U3  1  0.000000  0.000000  0.000000  1
  U  U4  1  0.400121  0.821993  0.770117  1
  Te  Te5  1  0.150178  0.327185  0.471124  1
  Te  Te6  1  0.849822  0.672815  0.528876  1
  O  O7  1  0.035603  0.191124  0.923769  1
  O  O8  1  0.033532  0.776624  0.745980  1
  O  O9  1  0.624703  0.994108  0.310298  1
  O  O10  1  0.399197  0.617007  0.829996  1
  O  O11  1  0.801142  0.416602  0.504222  1
  O  O12  1  0.679977  0.004400  0.974590  1
  O  O13  1  0.198858  0.583398  0.495778  1
  O  O14  1  0.964397  0.808876  0.076231  1
  O  O15  1  0.966468  0.223376  0.254020  1
  O  O16  1  0.600803  0.382993  0.170004  1
  O  O17  1  0.361034  0.256156  0.373836  1
  O  O18  1  0.320023  0.995600  0.025410  1
  O  O19  1  0.375297  0.005892  0.689702  1
  O  O20  1  0.638966  0.743844  0.626164  1
