# generated using pymatgen
data_Li2V(PO4)2
_symmetry_space_group_name_H-M   'P 1'
_cell_length_a   5.06331541
_cell_length_b   7.84978627
_cell_length_c   8.83706641
_cell_angle_alpha   90.00000000
_cell_angle_beta   120.91587712
_cell_angle_gamma   90.00000000
_symmetry_Int_Tables_number   1
_chemical_formula_structural   Li2V(PO4)2
_chemical_formula_sum   'Li4 V2 P4 O16'
_cell_volume   301.33461593
_cell_formula_units_Z   2
loop_
 _symmetry_equiv_pos_site_id
 _symmetry_equiv_pos_as_xyz
  1  'x, y, z'
loop_
 _atom_site_type_symbol
 _atom_site_label
 _atom_site_symmetry_multiplicity
 _atom_site_fract_x
 _atom_site_fract_y
 _atom_site_fract_z
 _atom_site_occupancy
  Li  Li0  1  0.506479  0.133913  0.404269  1
  Li  Li1  1  0.493521  0.633913  0.095731  1
  Li  Li2  1  0.506479  0.366087  0.904269  1
  Li  Li3  1  0.493521  0.866087  0.595731  1
  V  V4  1  0.500000  0.000000  0.000000  1
  V  V5  1  0.500000  0.500000  0.500000  1
  P  P6  1  0.163471  0.811880  0.201974  1
  P  P7  1  0.163471  0.688120  0.701974  1
  P  P8  1  0.836529  0.188120  0.798026  1
  P  P9  1  0.836529  0.311880  0.298026  1
  O  O10  1  0.710848  0.432631  0.146194  1
  O  O11  1  0.710848  0.067369  0.646194  1
  O  O12  1  0.293016  0.626824  0.259934  1
  O  O13  1  0.201039  0.182964  0.898100  1
  O  O14  1  0.293016  0.873176  0.759934  1
  O  O15  1  0.706984  0.373176  0.740066  1
  O  O16  1  0.244425  0.639844  0.558014  1
  O  O17  1  0.289152  0.567369  0.853806  1
  O  O18  1  0.244425  0.860156  0.058014  1
  O  O19  1  0.798961  0.817036  0.101900  1
  O  O20  1  0.798961  0.682964  0.601900  1
  O  O21  1  0.755575  0.360156  0.441986  1
  O  O22  1  0.289152  0.932631  0.353806  1
  O  O23  1  0.706984  0.126824  0.240066  1
  O  O24  1  0.201039  0.317036  0.398100  1
  O  O25  1  0.755575  0.139844  0.941986  1
