# generated using pymatgen
data_Dy2Te4O11
_symmetry_space_group_name_H-M   'P 1'
_cell_length_a   6.76458926
_cell_length_b   6.76458926
_cell_length_c   16.30714413
_cell_angle_alpha   75.84899056
_cell_angle_beta   104.15100944
_cell_angle_gamma   135.00506105
_symmetry_Int_Tables_number   1
_chemical_formula_structural   Dy2Te4O11
_chemical_formula_sum   'Dy4 Te8 O22'
_cell_volume   508.79607746
_cell_formula_units_Z   2
loop_
 _symmetry_equiv_pos_site_id
 _symmetry_equiv_pos_as_xyz
  1  'x, y, z'
loop_
 _atom_site_type_symbol
 _atom_site_label
 _atom_site_symmetry_multiplicity
 _atom_site_fract_x
 _atom_site_fract_y
 _atom_site_fract_z
 _atom_site_occupancy
  Dy  Dy0  1  0.369184  0.130849  0.537107  1
  Dy  Dy1  1  0.869151  0.630816  0.037107  1
  Dy  Dy2  1  0.130849  0.369184  0.962893  1
  Dy  Dy3  1  0.630816  0.869151  0.462893  1
  Te  Te4  1  0.599989  0.843170  0.801604  1
  Te  Te5  1  0.156830  0.400011  0.301604  1
  Te  Te6  1  0.843170  0.599989  0.698396  1
  Te  Te7  1  0.589400  0.846329  0.125301  1
  Te  Te8  1  0.400011  0.156830  0.198396  1
  Te  Te9  1  0.410600  0.153671  0.874699  1
  Te  Te10  1  0.846329  0.589400  0.374699  1
  Te  Te11  1  0.153671  0.410600  0.625301  1
  O  O12  1  0.206273  0.908324  0.667286  1
  O  O13  1  0.446300  0.397739  0.096143  1
  O  O14  1  0.189982  0.684743  0.372445  1
  O  O15  1  0.823454  0.962096  0.044912  1
  O  O16  1  0.553700  0.602261  0.903857  1
  O  O17  1  0.037904  0.176546  0.544912  1
  O  O18  1  0.752901  0.337143  0.947727  1
  O  O19  1  0.315257  0.810018  0.872445  1
  O  O20  1  0.662857  0.247099  0.447727  1
  O  O21  1  0.247099  0.662857  0.052273  1
  O  O22  1  0.854571  0.854571  0.750000  1
  O  O23  1  0.337143  0.752901  0.552273  1
  O  O24  1  0.397739  0.446300  0.403857  1
  O  O25  1  0.602261  0.553700  0.596143  1
  O  O26  1  0.793727  0.091676  0.332714  1
  O  O27  1  0.145429  0.145429  0.250000  1
  O  O28  1  0.684743  0.189982  0.127555  1
  O  O29  1  0.176546  0.037904  0.955088  1
  O  O30  1  0.091676  0.793727  0.167286  1
  O  O31  1  0.908324  0.206273  0.832714  1
  O  O32  1  0.810018  0.315257  0.627555  1
  O  O33  1  0.962096  0.823454  0.455088  1
