# generated using pymatgen
data_Li9Al3P8O29
_symmetry_space_group_name_H-M   'P 1'
_cell_length_a   9.67060336
_cell_length_b   9.67060336
_cell_length_c   13.64591837
_cell_angle_alpha   90.00000000
_cell_angle_beta   90.00000000
_cell_angle_gamma   120.00000000
_symmetry_Int_Tables_number   1
_chemical_formula_structural   Li9Al3P8O29
_chemical_formula_sum   'Li18 Al6 P16 O58'
_cell_volume   1105.19915125
_cell_formula_units_Z   2
loop_
 _symmetry_equiv_pos_site_id
 _symmetry_equiv_pos_as_xyz
  1  'x, y, z'
loop_
 _atom_site_type_symbol
 _atom_site_label
 _atom_site_symmetry_multiplicity
 _atom_site_fract_x
 _atom_site_fract_y
 _atom_site_fract_z
 _atom_site_occupancy
  Li  Li0  1  0.898826  0.237121  0.064231  1
  Li  Li1  1  0.333333  0.666667  0.118720  1
  Li  Li2  1  0.237121  0.338294  0.935769  1
  Li  Li3  1  0.333333  0.666667  0.618720  1
  Li  Li4  1  0.101174  0.338294  0.435769  1
  Li  Li5  1  0.237121  0.898826  0.435769  1
  Li  Li6  1  0.338294  0.101174  0.064231  1
  Li  Li7  1  0.338294  0.237121  0.564231  1
  Li  Li8  1  0.666667  0.333333  0.381280  1
  Li  Li9  1  0.898826  0.661706  0.564231  1
  Li  Li10  1  0.666667  0.333333  0.881280  1
  Li  Li11  1  0.661706  0.762879  0.435769  1
  Li  Li12  1  0.000000  0.000000  0.500000  1
  Li  Li13  1  0.762879  0.101174  0.564231  1
  Li  Li14  1  0.101174  0.762879  0.935769  1
  Li  Li15  1  0.762879  0.661706  0.064231  1
  Li  Li16  1  0.000000  0.000000  0.000000  1
  Li  Li17  1  0.661706  0.898826  0.935769  1
  Al  Al18  1  0.565479  0.000000  0.750000  1
  Al  Al19  1  0.434521  0.434521  0.750000  1
  Al  Al20  1  0.565479  0.565479  0.250000  1
  Al  Al21  1  0.000000  0.434521  0.250000  1
  Al  Al22  1  0.434521  0.000000  0.250000  1
  Al  Al23  1  0.000000  0.565479  0.750000  1
  P  P24  1  0.318473  0.092102  0.842733  1
  P  P25  1  0.907898  0.226371  0.842733  1
  P  P26  1  0.318473  0.226371  0.342733  1
  P  P27  1  0.226371  0.907898  0.657267  1
  P  P28  1  0.907898  0.681527  0.342733  1
  P  P29  1  0.333333  0.666667  0.870617  1
  P  P30  1  0.666667  0.333333  0.129383  1
  P  P31  1  0.681527  0.907898  0.157267  1
  P  P32  1  0.333333  0.666667  0.370617  1
  P  P33  1  0.773629  0.092102  0.342733  1
  P  P34  1  0.681527  0.773629  0.657267  1
  P  P35  1  0.092102  0.318473  0.657267  1
  P  P36  1  0.666667  0.333333  0.629383  1
  P  P37  1  0.226371  0.318473  0.157267  1
  P  P38  1  0.092102  0.773629  0.157267  1
  P  P39  1  0.773629  0.681527  0.842733  1
  O  O40  1  0.740596  0.662017  0.340674  1
  O  O41  1  0.621395  0.102590  0.330137  1
  O  O42  1  0.921422  0.259404  0.340674  1
  O  O43  1  0.337983  0.078578  0.340674  1
  O  O44  1  0.225407  0.998533  0.566322  1
  O  O45  1  0.001467  0.774593  0.066322  1
  O  O46  1  0.329150  0.816345  0.331961  1
  O  O47  1  0.001467  0.226874  0.566322  1
  O  O48  1  0.207858  0.207858  0.250000  1
  O  O49  1  0.666667  0.333333  0.518030  1
  O  O50  1  0.226874  0.001467  0.933678  1
  O  O51  1  0.487196  0.670850  0.331961  1
  O  O52  1  0.000000  0.792142  0.250000  1
  O  O53  1  0.998533  0.773126  0.433678  1
  O  O54  1  0.897410  0.518805  0.330137  1
  O  O55  1  0.102590  0.621395  0.169863  1
  O  O56  1  0.670850  0.487196  0.168039  1
  O  O57  1  0.078578  0.740596  0.659326  1
  O  O58  1  0.512804  0.183655  0.168039  1
  O  O59  1  0.816345  0.487196  0.668039  1
  O  O60  1  0.518805  0.897410  0.169863  1
  O  O61  1  0.487196  0.816345  0.831961  1
  O  O62  1  0.225407  0.226874  0.066322  1
  O  O63  1  0.773126  0.774593  0.566322  1
  O  O64  1  0.740596  0.078578  0.840674  1
  O  O65  1  0.259404  0.337983  0.659326  1
  O  O66  1  0.481195  0.378605  0.330137  1
  O  O67  1  0.378605  0.481195  0.169863  1
  O  O68  1  0.662017  0.740596  0.159326  1
  O  O69  1  0.333333  0.666667  0.481970  1
  O  O70  1  0.773126  0.998533  0.066322  1
  O  O71  1  0.518805  0.621395  0.669863  1
  O  O72  1  0.183655  0.670850  0.831961  1
  O  O73  1  0.512804  0.329150  0.668039  1
  O  O74  1  0.259404  0.921422  0.159326  1
  O  O75  1  0.998533  0.225407  0.933678  1
  O  O76  1  0.774593  0.001467  0.433678  1
  O  O77  1  0.226874  0.225407  0.433678  1
  O  O78  1  0.333333  0.666667  0.981970  1
  O  O79  1  0.921422  0.662017  0.840674  1
  O  O80  1  0.792142  0.000000  0.250000  1
  O  O81  1  0.816345  0.329150  0.168039  1
  O  O82  1  0.662017  0.921422  0.659326  1
  O  O83  1  0.207858  0.000000  0.750000  1
  O  O84  1  0.897410  0.378605  0.830137  1
  O  O85  1  0.774593  0.773126  0.933678  1
  O  O86  1  0.078578  0.337983  0.159326  1
  O  O87  1  0.337983  0.259404  0.840674  1
  O  O88  1  0.621395  0.518805  0.830137  1
  O  O89  1  0.378605  0.897410  0.669863  1
  O  O90  1  0.670850  0.183655  0.668039  1
  O  O91  1  0.481195  0.102590  0.830137  1
  O  O92  1  0.792142  0.792142  0.750000  1
  O  O93  1  0.183655  0.512804  0.331961  1
  O  O94  1  0.329150  0.512804  0.831961  1
  O  O95  1  0.000000  0.207858  0.750000  1
  O  O96  1  0.666667  0.333333  0.018030  1
  O  O97  1  0.102590  0.481195  0.669863  1
