# generated using pymatgen
data_Nd2Ni7P4
_symmetry_space_group_name_H-M   'P 1'
_cell_length_a   3.77716571
_cell_length_b   9.23620273
_cell_length_c   10.41784515
_cell_angle_alpha   90.00000000
_cell_angle_beta   90.00000000
_cell_angle_gamma   90.00000000
_symmetry_Int_Tables_number   1
_chemical_formula_structural   Nd2Ni7P4
_chemical_formula_sum   'Nd4 Ni14 P8'
_cell_volume   363.44390755
_cell_formula_units_Z   2
loop_
 _symmetry_equiv_pos_site_id
 _symmetry_equiv_pos_as_xyz
  1  'x, y, z'
loop_
 _atom_site_type_symbol
 _atom_site_label
 _atom_site_symmetry_multiplicity
 _atom_site_fract_x
 _atom_site_fract_y
 _atom_site_fract_z
 _atom_site_occupancy
  Nd  Nd0  1  0.500000  0.436185  0.500588  1
  Nd  Nd1  1  0.500000  0.059557  0.282003  1
  Nd  Nd2  1  0.000000  0.940443  0.782003  1
  Nd  Nd3  1  0.000000  0.563815  0.000588  1
  Ni  Ni4  1  0.500000  0.306053  0.073940  1
  Ni  Ni5  1  0.500000  0.746759  0.403218  1
  Ni  Ni6  1  0.500000  0.416145  0.807067  1
  Ni  Ni7  1  0.500000  0.057777  0.981048  1
  Ni  Ni8  1  0.500000  0.682665  0.762690  1
  Ni  Ni9  1  0.000000  0.271372  0.669872  1
  Ni  Ni10  1  0.000000  0.253241  0.903218  1
  Ni  Ni11  1  0.000000  0.693947  0.573940  1
  Ni  Ni12  1  0.500000  0.097061  0.583263  1
  Ni  Ni13  1  0.000000  0.317335  0.262690  1
  Ni  Ni14  1  0.000000  0.583855  0.307067  1
  Ni  Ni15  1  0.000000  0.902939  0.083263  1
  Ni  Ni16  1  0.000000  0.942223  0.481048  1
  Ni  Ni17  1  0.500000  0.728628  0.169872  1
  P  P18  1  0.000000  0.817525  0.289463  1
  P  P19  1  0.000000  0.188051  0.467011  1
  P  P20  1  0.500000  0.182475  0.789463  1
  P  P21  1  0.000000  0.157420  0.090514  1
  P  P22  1  0.500000  0.479930  0.217023  1
  P  P23  1  0.500000  0.811949  0.967011  1
  P  P24  1  0.500000  0.842580  0.590514  1
  P  P25  1  0.000000  0.520070  0.717023  1
