# generated using pymatgen
data_Rb2Mo(IO3)6
_symmetry_space_group_name_H-M   'P 1'
_cell_length_a   7.84244596
_cell_length_b   7.84244596
_cell_length_c   7.84244596
_cell_angle_alpha   97.13758276
_cell_angle_beta   97.13758276
_cell_angle_gamma   97.13758276
_symmetry_Int_Tables_number   1
_chemical_formula_structural   Rb2Mo(IO3)6
_chemical_formula_sum   'Rb2 Mo1 I6 O18'
_cell_volume   470.09057166
_cell_formula_units_Z   1
loop_
 _symmetry_equiv_pos_site_id
 _symmetry_equiv_pos_as_xyz
  1  'x, y, z'
loop_
 _atom_site_type_symbol
 _atom_site_label
 _atom_site_symmetry_multiplicity
 _atom_site_fract_x
 _atom_site_fract_y
 _atom_site_fract_z
 _atom_site_occupancy
  Rb  Rb0  1  0.831345  0.831345  0.831345  1
  Rb  Rb1  1  0.168655  0.168655  0.168655  1
  Mo  Mo2  1  0.500000  0.500000  0.500000  1
  I  I3  1  0.867589  0.295972  0.668296  1
  I  I4  1  0.295972  0.668296  0.867589  1
  I  I5  1  0.704028  0.331704  0.132411  1
  I  I6  1  0.132411  0.704028  0.331704  1
  I  I7  1  0.668296  0.867589  0.295972  1
  I  I8  1  0.331704  0.132411  0.704028  1
  O  O9  1  0.610486  0.713847  0.095942  1
  O  O10  1  0.911096  0.309982  0.903445  1
  O  O11  1  0.389514  0.286153  0.904058  1
  O  O12  1  0.322052  0.304842  0.553619  1
  O  O13  1  0.677948  0.695158  0.446381  1
  O  O14  1  0.695158  0.446382  0.677948  1
  O  O15  1  0.095942  0.610486  0.713847  1
  O  O16  1  0.304842  0.553619  0.322052  1
  O  O17  1  0.904058  0.389514  0.286153  1
  O  O18  1  0.309982  0.903445  0.911096  1
  O  O19  1  0.713847  0.095942  0.610486  1
  O  O20  1  0.286153  0.904058  0.389514  1
  O  O21  1  0.903445  0.911096  0.309982  1
  O  O22  1  0.553619  0.322052  0.304842  1
  O  O23  1  0.690018  0.096555  0.088904  1
  O  O24  1  0.446382  0.677948  0.695158  1
  O  O25  1  0.088904  0.690018  0.096555  1
  O  O26  1  0.096555  0.088904  0.690018  1
