# generated using pymatgen
data_Ni3B7BrO13
_symmetry_space_group_name_H-M   'P 1'
_cell_length_a   8.59568880
_cell_length_b   8.61207933
_cell_length_c   12.17464674
_cell_angle_alpha   90.00000000
_cell_angle_beta   90.00000000
_cell_angle_gamma   90.00000000
_symmetry_Int_Tables_number   1
_chemical_formula_structural   Ni3B7BrO13
_chemical_formula_sum   'Ni12 B28 Br4 O52'
_cell_volume   901.24957733
_cell_formula_units_Z   4
loop_
 _symmetry_equiv_pos_site_id
 _symmetry_equiv_pos_as_xyz
  1  'x, y, z'
loop_
 _atom_site_type_symbol
 _atom_site_label
 _atom_site_symmetry_multiplicity
 _atom_site_fract_x
 _atom_site_fract_y
 _atom_site_fract_z
 _atom_site_occupancy
  Ni  Ni0  1  0.972299  0.013132  0.506545  1
  Ni  Ni1  1  0.250487  0.742281  0.231795  1
  Ni  Ni2  1  0.527263  0.012984  0.504626  1
  Ni  Ni3  1  0.027701  0.986868  0.006545  1
  Ni  Ni4  1  0.027701  0.513132  0.506545  1
  Ni  Ni5  1  0.749513  0.257719  0.731795  1
  Ni  Ni6  1  0.749513  0.242281  0.231795  1
  Ni  Ni7  1  0.472737  0.987016  0.004626  1
  Ni  Ni8  1  0.472737  0.512984  0.504626  1
  Ni  Ni9  1  0.527263  0.487016  0.004626  1
  Ni  Ni10  1  0.972299  0.486868  0.006545  1
  Ni  Ni11  1  0.250487  0.757719  0.731795  1
  B  B12  1  0.750103  0.953932  0.853896  1
  B  B13  1  0.501734  0.499074  0.253241  1
  B  B14  1  0.501734  0.000926  0.753241  1
  B  B15  1  0.596811  0.753478  0.173023  1
  B  B16  1  0.996809  0.002904  0.753604  1
  B  B17  1  0.096016  0.248041  0.673950  1
  B  B18  1  0.249897  0.046068  0.353896  1
  B  B19  1  0.996809  0.497096  0.253604  1
  B  B20  1  0.498266  0.500926  0.753241  1
  B  B21  1  0.754036  0.744177  0.501157  1
  B  B22  1  0.249257  0.405832  0.326542  1
  B  B23  1  0.403189  0.246522  0.673023  1
  B  B24  1  0.249897  0.453932  0.853896  1
  B  B25  1  0.403189  0.253478  0.173023  1
  B  B26  1  0.903984  0.748041  0.673950  1
  B  B27  1  0.903984  0.751959  0.173950  1
  B  B28  1  0.249257  0.094168  0.826542  1
  B  B29  1  0.096016  0.251959  0.173950  1
  B  B30  1  0.754036  0.755823  0.001157  1
  B  B31  1  0.003191  0.997096  0.253604  1
  B  B32  1  0.750743  0.905832  0.326542  1
  B  B33  1  0.750743  0.594168  0.826542  1
  B  B34  1  0.596811  0.746522  0.673023  1
  B  B35  1  0.003191  0.502904  0.753604  1
  B  B36  1  0.245964  0.255823  0.001157  1
  B  B37  1  0.245964  0.244177  0.501157  1
  B  B38  1  0.750103  0.546068  0.353896  1
  B  B39  1  0.498266  0.999074  0.253241  1
  Br  Br40  1  0.250861  0.779501  0.017141  1
  Br  Br41  1  0.749139  0.279501  0.017141  1
  Br  Br42  1  0.749139  0.220499  0.517141  1
  Br  Br43  1  0.250861  0.720499  0.517141  1
  O  O44  1  0.027305  0.669414  0.733342  1
  O  O45  1  0.827311  0.858507  0.428113  1
  O  O46  1  0.827311  0.641493  0.928113  1
  O  O47  1  0.910511  0.962906  0.857452  1
  O  O48  1  0.172689  0.358507  0.428113  1
  O  O49  1  0.089489  0.462906  0.857452  1
  O  O50  1  0.668944  0.458941  0.277667  1
  O  O51  1  0.940763  0.587543  0.158900  1
  O  O52  1  0.329227  0.118317  0.438427  1
  O  O53  1  0.668944  0.041059  0.777667  1
  O  O54  1  0.670773  0.618317  0.438427  1
  O  O55  1  0.749733  0.732698  0.743096  1
  O  O56  1  0.591138  0.549293  0.848544  1
  O  O57  1  0.837954  0.032150  0.273919  1
  O  O58  1  0.363123  0.177306  0.069875  1
  O  O59  1  0.027305  0.830586  0.233342  1
  O  O60  1  0.636877  0.677306  0.069875  1
  O  O61  1  0.542903  0.587457  0.654443  1
  O  O62  1  0.479898  0.834298  0.733632  1
  O  O63  1  0.520102  0.165702  0.233632  1
  O  O64  1  0.331056  0.541059  0.777667  1
  O  O65  1  0.162046  0.967850  0.773919  1
  O  O66  1  0.972695  0.169414  0.733342  1
  O  O67  1  0.408862  0.049293  0.848544  1
  O  O68  1  0.457097  0.087457  0.654443  1
  O  O69  1  0.250267  0.267302  0.243096  1
  O  O70  1  0.670773  0.881683  0.938427  1
  O  O71  1  0.591138  0.950707  0.348544  1
  O  O72  1  0.479898  0.665702  0.233632  1
  O  O73  1  0.363123  0.322694  0.569875  1
  O  O74  1  0.059237  0.087543  0.158900  1
  O  O75  1  0.059237  0.412457  0.658900  1
  O  O76  1  0.837954  0.467850  0.773919  1
  O  O77  1  0.089489  0.037094  0.357452  1
  O  O78  1  0.875165  0.828112  0.068830  1
  O  O79  1  0.636877  0.822694  0.569875  1
  O  O80  1  0.408862  0.450707  0.348544  1
  O  O81  1  0.972695  0.330586  0.233342  1
  O  O82  1  0.542903  0.912543  0.154443  1
  O  O83  1  0.457097  0.412543  0.154443  1
  O  O84  1  0.124835  0.171888  0.568830  1
  O  O85  1  0.875165  0.671888  0.568830  1
  O  O86  1  0.172689  0.141493  0.928113  1
  O  O87  1  0.940763  0.912457  0.658900  1
  O  O88  1  0.331056  0.958941  0.277667  1
  O  O89  1  0.124835  0.328112  0.068830  1
  O  O90  1  0.910511  0.537094  0.357452  1
  O  O91  1  0.250267  0.232698  0.743096  1
  O  O92  1  0.749733  0.767302  0.243096  1
  O  O93  1  0.329227  0.381683  0.938427  1
  O  O94  1  0.520102  0.334298  0.733632  1
  O  O95  1  0.162046  0.532150  0.273919  1
