# generated using pymatgen
data_Al3Pb5F19
_symmetry_space_group_name_H-M   'P 1'
_cell_length_a   10.84466495
_cell_length_b   10.84466495
_cell_length_c   10.84466495
_cell_angle_alpha   97.01428244
_cell_angle_beta   97.01428244
_cell_angle_gamma   139.09238873
_symmetry_Int_Tables_number   1
_chemical_formula_structural   Al3Pb5F19
_chemical_formula_sum   'Al6 Pb10 F38'
_cell_volume   782.53325572
_cell_formula_units_Z   2
loop_
 _symmetry_equiv_pos_site_id
 _symmetry_equiv_pos_as_xyz
  1  'x, y, z'
loop_
 _atom_site_type_symbol
 _atom_site_label
 _atom_site_symmetry_multiplicity
 _atom_site_fract_x
 _atom_site_fract_y
 _atom_site_fract_z
 _atom_site_occupancy
  Al  Al0  1  0.640474  0.140474  0.822027  1
  Al  Al1  1  0.818447  0.640474  0.500000  1
  Al  Al2  1  0.140474  0.318447  0.500000  1
  Al  Al3  1  0.318447  0.818447  0.177973  1
  Al  Al4  1  0.183237  0.183237  0.000000  1
  Al  Al5  1  0.683237  0.683237  0.000000  1
  Pb  Pb6  1  0.745494  0.446862  0.151503  1
  Pb  Pb7  1  0.593991  0.745494  0.298633  1
  Pb  Pb8  1  0.446862  0.295358  0.701367  1
  Pb  Pb9  1  0.295358  0.593991  0.848497  1
  Pb  Pb10  1  0.093991  0.795358  0.848497  1
  Pb  Pb11  1  0.946862  0.245494  0.151503  1
  Pb  Pb12  1  0.795358  0.946862  0.701367  1
  Pb  Pb13  1  0.245494  0.093991  0.298633  1
  Pb  Pb14  1  0.638431  0.138431  0.500000  1
  Pb  Pb15  1  0.138431  0.638431  0.500000  1
  F  F16  1  0.576190  0.939009  0.860469  1
  F  F17  1  0.715722  0.576190  0.637181  1
  F  F18  1  0.939009  0.078540  0.362819  1
  F  F19  1  0.078540  0.715722  0.139531  1
  F  F20  1  0.215722  0.578540  0.139531  1
  F  F21  1  0.439009  0.076190  0.860469  1
  F  F22  1  0.578540  0.439009  0.362819  1
  F  F23  1  0.076190  0.215722  0.637181  1
  F  F24  1  0.708423  0.333743  0.764017  1
  F  F25  1  0.944406  0.708423  0.374680  1
  F  F26  1  0.333743  0.569725  0.625320  1
  F  F27  1  0.569725  0.944406  0.235983  1
  F  F28  1  0.444406  0.069725  0.235983  1
  F  F29  1  0.833743  0.208423  0.764017  1
  F  F30  1  0.069725  0.833743  0.625320  1
  F  F31  1  0.208423  0.444406  0.374680  1
  F  F32  1  0.467820  0.967820  0.654136  1
  F  F33  1  0.813684  0.467820  0.500000  1
  F  F34  1  0.967820  0.313684  0.500000  1
  F  F35  1  0.313684  0.813684  0.345864  1
  F  F36  1  0.798968  0.298968  0.990226  1
  F  F37  1  0.808742  0.798968  0.500000  1
  F  F38  1  0.298968  0.308742  0.500000  1
  F  F39  1  0.308742  0.808742  0.009774  1
  F  F40  1  0.428398  0.428398  0.000000  1
  F  F41  1  0.928398  0.928398  0.000000  1
  F  F42  1  0.560960  0.621776  0.832889  1
  F  F43  1  0.728071  0.560960  0.939184  1
  F  F44  1  0.621776  0.788887  0.060816  1
  F  F45  1  0.788887  0.728071  0.167111  1
  F  F46  1  0.228071  0.288887  0.167111  1
  F  F47  1  0.121776  0.060960  0.832889  1
  F  F48  1  0.288887  0.121776  0.060816  1
  F  F49  1  0.060960  0.228071  0.939184  1
  F  F50  1  0.896489  0.396489  0.269503  1
  F  F51  1  0.626986  0.896489  0.500000  1
  F  F52  1  0.396489  0.126986  0.500000  1
  F  F53  1  0.126986  0.626986  0.730497  1
