# generated using pymatgen
data_MnP2PbO7
_symmetry_space_group_name_H-M   'P 1'
_cell_length_a   5.48951286
_cell_length_b   8.58511251
_cell_length_c   14.18245092
_cell_angle_alpha   90.00000000
_cell_angle_beta   112.57087786
_cell_angle_gamma   90.00000000
_symmetry_Int_Tables_number   1
_chemical_formula_structural   MnP2PbO7
_chemical_formula_sum   'Mn4 P8 Pb4 O28'
_cell_volume   617.19657826
_cell_formula_units_Z   4
loop_
 _symmetry_equiv_pos_site_id
 _symmetry_equiv_pos_as_xyz
  1  'x, y, z'
loop_
 _atom_site_type_symbol
 _atom_site_label
 _atom_site_symmetry_multiplicity
 _atom_site_fract_x
 _atom_site_fract_y
 _atom_site_fract_z
 _atom_site_occupancy
  Mn  Mn0  1  0.723450  0.850720  0.396998  1
  Mn  Mn1  1  0.276550  0.350720  0.103002  1
  Mn  Mn2  1  0.276550  0.149280  0.603002  1
  Mn  Mn3  1  0.723450  0.649280  0.896998  1
  P  P4  1  0.335597  0.794435  0.521005  1
  P  P5  1  0.664403  0.294435  0.978995  1
  P  P6  1  0.664403  0.205565  0.478995  1
  P  P7  1  0.335597  0.705565  0.021005  1
  P  P8  1  0.423162  0.537845  0.667968  1
  P  P9  1  0.576838  0.037845  0.832032  1
  P  P10  1  0.576838  0.462155  0.332032  1
  P  P11  1  0.423162  0.962155  0.167968  1
  Pb  Pb12  1  0.022056  0.677748  0.225314  1
  Pb  Pb13  1  0.977944  0.177748  0.274686  1
  Pb  Pb14  1  0.977944  0.322252  0.774686  1
  Pb  Pb15  1  0.022056  0.822252  0.725314  1
  O  O16  1  0.614722  0.828204  0.526321  1
  O  O17  1  0.385278  0.328204  0.973679  1
  O  O18  1  0.385278  0.171796  0.473679  1
  O  O19  1  0.614722  0.671796  0.026321  1
  O  O20  1  0.119704  0.800666  0.412820  1
  O  O21  1  0.880296  0.300666  0.087180  1
  O  O22  1  0.880296  0.199334  0.587180  1
  O  O23  1  0.119704  0.699334  0.912820  1
  O  O24  1  0.261300  0.896556  0.595596  1
  O  O25  1  0.738700  0.396556  0.904404  1
  O  O26  1  0.738700  0.103444  0.404404  1
  O  O27  1  0.261300  0.603444  0.095596  1
  O  O28  1  0.329324  0.614010  0.555336  1
  O  O29  1  0.670676  0.114010  0.944664  1
  O  O30  1  0.670676  0.385990  0.444664  1
  O  O31  1  0.329324  0.885990  0.055336  1
  O  O32  1  0.472882  0.365663  0.654624  1
  O  O33  1  0.527118  0.865663  0.845376  1
  O  O34  1  0.527118  0.634337  0.345376  1
  O  O35  1  0.472882  0.134337  0.154624  1
  O  O36  1  0.684092  0.616751  0.736726  1
  O  O37  1  0.315908  0.116751  0.763274  1
  O  O38  1  0.315908  0.383249  0.263274  1
  O  O39  1  0.684092  0.883249  0.236726  1
  O  O40  1  0.204015  0.565070  0.708277  1
  O  O41  1  0.795985  0.065070  0.791723  1
  O  O42  1  0.795985  0.434930  0.291723  1
  O  O43  1  0.204015  0.934930  0.208277  1
