# generated using pymatgen
data_La2TaCl3O4
_symmetry_space_group_name_H-M   'P 1'
_cell_length_a   3.97260823
_cell_length_b   15.76081953
_cell_length_c   18.27086841
_cell_angle_alpha   90.00000000
_cell_angle_beta   90.00000000
_cell_angle_gamma   90.00000000
_symmetry_Int_Tables_number   1
_chemical_formula_structural   La2TaCl3O4
_chemical_formula_sum   'La12 Ta6 Cl18 O24'
_cell_volume   1143.96759885
_cell_formula_units_Z   6
loop_
 _symmetry_equiv_pos_site_id
 _symmetry_equiv_pos_as_xyz
  1  'x, y, z'
loop_
 _atom_site_type_symbol
 _atom_site_label
 _atom_site_symmetry_multiplicity
 _atom_site_fract_x
 _atom_site_fract_y
 _atom_site_fract_z
 _atom_site_occupancy
  La  La0  1  0.500000  0.674703  0.614537  1
  La  La1  1  0.500000  0.150084  0.900837  1
  La  La2  1  0.000000  0.825297  0.385463  1
  La  La3  1  0.500000  0.849916  0.900837  1
  La  La4  1  0.500000  0.325297  0.614537  1
  La  La5  1  0.000000  0.000000  0.133888  1
  La  La6  1  0.000000  0.174703  0.385463  1
  La  La7  1  0.500000  0.500000  0.345031  1
  La  La8  1  0.000000  0.650084  0.099163  1
  La  La9  1  0.500000  0.500000  0.866112  1
  La  La10  1  0.000000  0.349916  0.099163  1
  La  La11  1  0.000000  0.000000  0.654969  1
  Ta  Ta12  1  0.000000  0.500000  0.516787  1
  Ta  Ta13  1  0.500000  0.806923  0.202972  1
  Ta  Ta14  1  0.500000  0.193077  0.202972  1
  Ta  Ta15  1  0.000000  0.693077  0.797028  1
  Ta  Ta16  1  0.000000  0.306923  0.797028  1
  Ta  Ta17  1  0.500000  0.000000  0.483213  1
  Cl  Cl18  1  0.500000  0.667428  0.973352  1
  Cl  Cl19  1  0.000000  0.832572  0.026648  1
  Cl  Cl20  1  0.000000  0.000000  0.855826  1
  Cl  Cl21  1  0.500000  0.332572  0.973352  1
  Cl  Cl22  1  0.000000  0.500000  0.997444  1
  Cl  Cl23  1  0.500000  0.500000  0.144174  1
  Cl  Cl24  1  0.000000  0.167428  0.026648  1
  Cl  Cl25  1  0.500000  0.113850  0.727384  1
  Cl  Cl26  1  0.000000  0.386150  0.272616  1
  Cl  Cl27  1  0.500000  0.886150  0.727384  1
  Cl  Cl28  1  0.500000  0.500000  0.700624  1
  Cl  Cl29  1  0.000000  0.187612  0.562132  1
  Cl  Cl30  1  0.500000  0.687612  0.437868  1
  Cl  Cl31  1  0.500000  0.000000  0.002556  1
  Cl  Cl32  1  0.000000  0.000000  0.299376  1
  Cl  Cl33  1  0.500000  0.312388  0.437868  1
  Cl  Cl34  1  0.000000  0.812388  0.562132  1
  Cl  Cl35  1  0.000000  0.613850  0.272616  1
  O  O36  1  0.000000  0.415064  0.839731  1
  O  O37  1  0.500000  0.500000  0.510286  1
  O  O38  1  0.000000  0.307515  0.694318  1
  O  O39  1  0.500000  0.084936  0.160269  1
  O  O40  1  0.000000  0.584936  0.839731  1
  O  O41  1  0.000000  0.200908  0.198327  1
  O  O42  1  0.000000  0.795024  0.858858  1
  O  O43  1  0.500000  0.000000  0.589312  1
  O  O44  1  0.500000  0.704976  0.141142  1
  O  O45  1  0.500000  0.700908  0.801673  1
  O  O46  1  0.000000  0.204976  0.858858  1
  O  O47  1  0.000000  0.692485  0.694318  1
  O  O48  1  0.000000  0.602619  0.569885  1
  O  O49  1  0.500000  0.915064  0.160269  1
  O  O50  1  0.000000  0.000000  0.489714  1
  O  O51  1  0.500000  0.102619  0.430115  1
  O  O52  1  0.000000  0.500000  0.410688  1
  O  O53  1  0.500000  0.897381  0.430115  1
  O  O54  1  0.000000  0.397381  0.569885  1
  O  O55  1  0.500000  0.299092  0.801673  1
  O  O56  1  0.500000  0.807515  0.305682  1
  O  O57  1  0.500000  0.192485  0.305682  1
  O  O58  1  0.000000  0.799092  0.198327  1
  O  O59  1  0.500000  0.295024  0.141142  1
