# generated using pymatgen
data_GaH20C2S2NO14
_symmetry_space_group_name_H-M   'P 1'
_cell_length_a   6.51158132
_cell_length_b   10.62989220
_cell_length_c   12.46441377
_cell_angle_alpha   90.00000000
_cell_angle_beta   111.13742965
_cell_angle_gamma   90.00000000
_symmetry_Int_Tables_number   1
_chemical_formula_structural   GaH20C2S2NO14
_chemical_formula_sum   'Ga2 H40 C4 S4 N2 O28'
_cell_volume   804.70670296
_cell_formula_units_Z   2
loop_
 _symmetry_equiv_pos_site_id
 _symmetry_equiv_pos_as_xyz
  1  'x, y, z'
loop_
 _atom_site_type_symbol
 _atom_site_label
 _atom_site_symmetry_multiplicity
 _atom_site_fract_x
 _atom_site_fract_y
 _atom_site_fract_z
 _atom_site_occupancy
  Ga  Ga0  1  0.507812  0.745322  0.499099  1
  Ga  Ga1  1  0.507812  0.254678  0.999099  1
  H  H2  1  0.757847  0.197753  0.495041  1
  H  H3  1  0.499351  0.067390  0.857621  1
  H  H4  1  0.080102  0.271855  0.880555  1
  H  H5  1  0.757847  0.802247  0.995041  1
  H  H6  1  0.187288  0.412672  0.903769  1
  H  H7  1  0.329033  0.222278  0.158832  1
  H  H8  1  0.685571  0.283420  0.841640  1
  H  H9  1  0.499351  0.932610  0.357621  1
  H  H10  1  0.179263  0.683584  0.121652  1
  H  H11  1  0.097750  0.693734  0.915626  1
  H  H12  1  0.136430  0.850408  0.119659  1
  H  H13  1  0.359347  0.787732  0.082967  1
  H  H14  1  0.743869  0.447440  0.113253  1
  H  H15  1  0.708144  0.252562  0.351358  1
  H  H16  1  0.187288  0.587328  0.403769  1
  H  H17  1  0.080102  0.728145  0.380555  1
  H  H18  1  0.518199  0.404126  0.826886  1
  H  H19  1  0.179263  0.316416  0.621652  1
  H  H20  1  0.800485  0.639278  0.969912  1
  H  H21  1  0.329033  0.777722  0.658832  1
  H  H22  1  0.136430  0.149592  0.619659  1
  H  H23  1  0.515584  0.562556  0.642382  1
  H  H24  1  0.708144  0.747438  0.851358  1
  H  H25  1  0.044194  0.850039  0.915762  1
  H  H26  1  0.504068  0.105698  0.175444  1
  H  H27  1  0.267520  0.061113  0.884470  1
  H  H28  1  0.504068  0.894302  0.675444  1
  H  H29  1  0.933880  0.231072  0.115562  1
  H  H30  1  0.518199  0.595874  0.326886  1
  H  H31  1  0.743869  0.552560  0.613253  1
  H  H32  1  0.933880  0.768928  0.615562  1
  H  H33  1  0.044194  0.149961  0.415762  1
  H  H34  1  0.800485  0.360722  0.469912  1
  H  H35  1  0.097750  0.306266  0.415626  1
  H  H36  1  0.359347  0.212268  0.582967  1
  H  H37  1  0.817109  0.906772  0.595060  1
  H  H38  1  0.515584  0.437444  0.142382  1
  H  H39  1  0.267520  0.938887  0.384470  1
  H  H40  1  0.817109  0.093228  0.095060  1
  H  H41  1  0.685571  0.716580  0.341640  1
  C  C42  1  0.809559  0.736062  0.942429  1
  C  C43  1  0.809559  0.263938  0.442429  1
  C  C44  1  0.190735  0.772111  0.079490  1
  C  C45  1  0.190735  0.227889  0.579490  1
  S  S46  1  0.834027  0.064502  0.765287  1
  S  S47  1  0.175710  0.571547  0.736354  1
  S  S48  1  0.175710  0.428453  0.236354  1
  S  S49  1  0.834027  0.935498  0.265287  1
  N  N50  1  0.042037  0.235506  0.456729  1
  N  N51  1  0.042037  0.764494  0.956729  1
  O  O52  1  0.806039  0.181645  0.062429  1
  O  O53  1  0.028243  0.000604  0.852606  1
  O  O54  1  0.425251  0.176252  0.123979  1
  O  O55  1  0.846900  0.797630  0.291400  1
  O  O56  1  0.204618  0.323133  0.933527  1
  O  O57  1  0.425251  0.823748  0.623979  1
  O  O58  1  0.625196  0.988592  0.271966  1
  O  O59  1  0.164790  0.555061  0.853527  1
  O  O60  1  0.204618  0.676867  0.433527  1
  O  O61  1  0.391541  0.478280  0.237186  1
  O  O62  1  0.835810  0.044003  0.647992  1
  O  O63  1  0.846900  0.202370  0.791400  1
  O  O64  1  0.806039  0.818355  0.562429  1
  O  O65  1  0.991015  0.495269  0.148799  1
  O  O66  1  0.162510  0.710121  0.710091  1
  O  O67  1  0.162510  0.289879  0.210091  1
  O  O68  1  0.586196  0.415765  0.085622  1
  O  O69  1  0.028243  0.999396  0.352606  1
  O  O70  1  0.391541  0.521720  0.737186  1
  O  O71  1  0.421818  0.096939  0.909406  1
  O  O72  1  0.835810  0.955997  0.147992  1
  O  O73  1  0.602859  0.664390  0.379731  1
  O  O74  1  0.991015  0.504731  0.648799  1
  O  O75  1  0.602859  0.335610  0.879731  1
  O  O76  1  0.421818  0.903061  0.409406  1
  O  O77  1  0.164790  0.444939  0.353527  1
  O  O78  1  0.586196  0.584235  0.585622  1
  O  O79  1  0.625196  0.011408  0.771966  1
