# generated using pymatgen
data_Tb5Se2Cl3O10
_symmetry_space_group_name_H-M   'P 1'
_cell_length_a   6.73083544
_cell_length_b   6.73083544
_cell_length_c   9.90766483
_cell_angle_alpha   89.09558405
_cell_angle_beta   90.90441595
_cell_angle_gamma   131.67745152
_symmetry_Int_Tables_number   1
_chemical_formula_structural   Tb5Se2Cl3O10
_chemical_formula_sum   'Tb5 Se2 Cl3 O10'
_cell_volume   335.20205102
_cell_formula_units_Z   1
loop_
 _symmetry_equiv_pos_site_id
 _symmetry_equiv_pos_as_xyz
  1  'x, y, z'
loop_
 _atom_site_type_symbol
 _atom_site_label
 _atom_site_symmetry_multiplicity
 _atom_site_fract_x
 _atom_site_fract_y
 _atom_site_fract_z
 _atom_site_occupancy
  Tb  Tb0  1  0.786295  0.213705  0.896783  1
  Tb  Tb1  1  0.098721  0.901279  0.765703  1
  Tb  Tb2  1  0.901279  0.098721  0.234297  1
  Tb  Tb3  1  0.500000  0.500000  0.000000  1
  Tb  Tb4  1  0.213705  0.786295  0.103217  1
  Se  Se5  1  0.592390  0.407610  0.316141  1
  Se  Se6  1  0.407610  0.592390  0.683859  1
  Cl  Cl7  1  0.336584  0.663416  0.350475  1
  Cl  Cl8  1  0.663416  0.336584  0.649525  1
  Cl  Cl9  1  0.000000  0.000000  0.500000  1
  O  O10  1  0.610006  0.898388  0.058828  1
  O  O11  1  0.205558  0.316945  0.795820  1
  O  O12  1  0.683055  0.794442  0.795820  1
  O  O13  1  0.898388  0.610006  0.941172  1
  O  O14  1  0.316945  0.205558  0.204180  1
  O  O15  1  0.389994  0.101612  0.941172  1
  O  O16  1  0.794442  0.683055  0.204180  1
  O  O17  1  0.273360  0.726640  0.715900  1
  O  O18  1  0.726640  0.273360  0.284100  1
  O  O19  1  0.101612  0.389994  0.058828  1
