# generated using pymatgen
data_CsNd(PO3)4
_symmetry_space_group_name_H-M   'P 1'
_cell_length_a   10.62608951
_cell_length_b   9.15407722
_cell_length_c   13.16331972
_cell_angle_alpha   90.00000000
_cell_angle_beta   124.05889923
_cell_angle_gamma   90.00000000
_symmetry_Int_Tables_number   1
_chemical_formula_structural   CsNd(PO3)4
_chemical_formula_sum   'Cs4 Nd4 P16 O48'
_cell_volume   1060.78218585
_cell_formula_units_Z   4
loop_
 _symmetry_equiv_pos_site_id
 _symmetry_equiv_pos_as_xyz
  1  'x, y, z'
loop_
 _atom_site_type_symbol
 _atom_site_label
 _atom_site_symmetry_multiplicity
 _atom_site_fract_x
 _atom_site_fract_y
 _atom_site_fract_z
 _atom_site_occupancy
  Cs  Cs0  1  0.775248  0.434294  0.460825  1
  Cs  Cs1  1  0.224752  0.934294  0.039175  1
  Cs  Cs2  1  0.224752  0.565706  0.539175  1
  Cs  Cs3  1  0.775248  0.065706  0.960825  1
  Nd  Nd4  1  0.316684  0.274010  0.818592  1
  Nd  Nd5  1  0.316684  0.225990  0.318592  1
  Nd  Nd6  1  0.683316  0.774010  0.681408  1
  Nd  Nd7  1  0.683316  0.725990  0.181408  1
  P  P8  1  0.675160  0.175059  0.636097  1
  P  P9  1  0.967021  0.469758  0.214951  1
  P  P10  1  0.324840  0.824941  0.363903  1
  P  P11  1  0.200137  0.103885  0.525434  1
  P  P12  1  0.032979  0.530242  0.785049  1
  P  P13  1  0.614257  0.407062  0.758663  1
  P  P14  1  0.799863  0.896115  0.474566  1
  P  P15  1  0.385743  0.592938  0.241337  1
  P  P16  1  0.385743  0.907062  0.741337  1
  P  P17  1  0.675160  0.324941  0.136097  1
  P  P18  1  0.614257  0.092938  0.258663  1
  P  P19  1  0.200137  0.396115  0.025434  1
  P  P20  1  0.799863  0.603885  0.974566  1
  P  P21  1  0.967021  0.030242  0.714951  1
  P  P22  1  0.032979  0.969758  0.285049  1
  P  P23  1  0.324840  0.675059  0.863903  1
  O  O24  1  0.422154  0.036876  0.823019  1
  O  O25  1  0.632640  0.035526  0.669161  1
  O  O26  1  0.266004  0.549311  0.099678  1
  O  O27  1  0.837801  0.706577  0.906407  1
  O  O28  1  0.577846  0.963124  0.176981  1
  O  O29  1  0.878627  0.902225  0.206979  1
  O  O30  1  0.046245  0.460844  0.904603  1
  O  O31  1  0.733996  0.450689  0.900322  1
  O  O32  1  0.923842  0.919750  0.775195  1
  O  O33  1  0.514024  0.823609  0.752212  1
  O  O34  1  0.076158  0.080250  0.224805  1
  O  O35  1  0.577846  0.536876  0.676981  1
  O  O36  1  0.840257  0.159896  0.655753  1
  O  O37  1  0.572110  0.244469  0.512907  1
  O  O38  1  0.162199  0.293423  0.093593  1
  O  O39  1  0.162199  0.206577  0.593593  1
  O  O40  1  0.923842  0.580250  0.275195  1
  O  O41  1  0.278585  0.793693  0.755928  1
  O  O42  1  0.046245  0.039156  0.404603  1
  O  O43  1  0.572110  0.255531  0.012907  1
  O  O44  1  0.485976  0.323609  0.747788  1
  O  O45  1  0.953755  0.539156  0.095397  1
  O  O46  1  0.427890  0.755531  0.487093  1
  O  O47  1  0.700392  0.840562  0.513514  1
  O  O48  1  0.299608  0.159438  0.486486  1
  O  O49  1  0.837801  0.793423  0.406407  1
  O  O50  1  0.278585  0.706307  0.255928  1
  O  O51  1  0.159743  0.659896  0.844247  1
  O  O52  1  0.159743  0.840104  0.344247  1
  O  O53  1  0.721415  0.206307  0.244072  1
  O  O54  1  0.700392  0.659438  0.013514  1
  O  O55  1  0.878627  0.597775  0.706979  1
  O  O56  1  0.299608  0.340562  0.986486  1
  O  O57  1  0.514024  0.676391  0.252212  1
  O  O58  1  0.121373  0.402225  0.293021  1
  O  O59  1  0.840257  0.340104  0.155753  1
  O  O60  1  0.427890  0.744469  0.987093  1
  O  O61  1  0.422154  0.463124  0.323019  1
  O  O62  1  0.721415  0.293693  0.744072  1
  O  O63  1  0.121373  0.097775  0.793021  1
  O  O64  1  0.632640  0.464474  0.169161  1
  O  O65  1  0.266004  0.950689  0.599678  1
  O  O66  1  0.367360  0.964474  0.330839  1
  O  O67  1  0.733996  0.049311  0.400322  1
  O  O68  1  0.485976  0.176391  0.247788  1
  O  O69  1  0.076158  0.419750  0.724805  1
  O  O70  1  0.367360  0.535526  0.830839  1
  O  O71  1  0.953755  0.960844  0.595397  1
