# generated using pymatgen
data_SmP4HO12
_symmetry_space_group_name_H-M   'P 1'
_cell_length_a   7.28343274
_cell_length_b   8.74468713
_cell_length_c   8.99975943
_cell_angle_alpha   99.46927542
_cell_angle_beta   112.32899960
_cell_angle_gamma   105.93686823
_symmetry_Int_Tables_number   1
_chemical_formula_structural   SmP4HO12
_chemical_formula_sum   'Sm2 P8 H2 O24'
_cell_volume   486.00129087
_cell_formula_units_Z   2
loop_
 _symmetry_equiv_pos_site_id
 _symmetry_equiv_pos_as_xyz
  1  'x, y, z'
loop_
 _atom_site_type_symbol
 _atom_site_label
 _atom_site_symmetry_multiplicity
 _atom_site_fract_x
 _atom_site_fract_y
 _atom_site_fract_z
 _atom_site_occupancy
  Sm  Sm0  1  0.093635  0.267202  0.258416  1
  Sm  Sm1  1  0.906365  0.732798  0.741584  1
  P  P2  1  0.613306  0.289434  0.580155  1
  P  P3  1  0.386694  0.710566  0.419845  1
  P  P4  1  0.067076  0.377716  0.655924  1
  P  P5  1  0.932924  0.622284  0.344076  1
  P  P6  1  0.209973  0.185764  0.894460  1
  P  P7  1  0.790027  0.814236  0.105540  1
  P  P8  1  0.579588  0.134334  0.850106  1
  P  P9  1  0.420412  0.865666  0.149894  1
  H  H10  1  0.499979  0.868842  0.742169  1
  H  H11  1  0.500021  0.131158  0.257831  1
  O  O12  1  0.675140  0.461810  0.688370  1
  O  O13  1  0.324860  0.538190  0.311630  1
  O  O14  1  0.439401  0.227815  0.401398  1
  O  O15  1  0.560599  0.772185  0.598602  1
  O  O16  1  0.543422  0.153122  0.669400  1
  O  O17  1  0.456578  0.846878  0.330600  1
  O  O18  1  0.816612  0.258054  0.570379  1
  O  O19  1  0.183388  0.741946  0.429621  1
  O  O20  1  0.093977  0.557934  0.701257  1
  O  O21  1  0.906023  0.442066  0.298743  1
  O  O22  1  0.157624  0.315016  0.545180  1
  O  O23  1  0.842376  0.684984  0.454820  1
  O  O24  1  0.159777  0.337536  0.832359  1
  O  O25  1  0.840223  0.662464  0.167641  1
  O  O26  1  0.060424  0.018559  0.768632  1
  O  O27  1  0.939576  0.981441  0.231368  1
  O  O28  1  0.235709  0.217417  0.070559  1
  O  O29  1  0.764291  0.782583  0.929441  1
  O  O30  1  0.448326  0.226197  0.906807  1
  O  O31  1  0.551674  0.773803  0.093193  1
  O  O32  1  0.807684  0.205007  0.977118  1
  O  O33  1  0.192316  0.794993  0.022882  1
  O  O34  1  0.457519  0.944474  0.810309  1
  O  O35  1  0.542481  0.055526  0.189691  1
