# generated using pymatgen
data_Na3Si3SnO9F
_symmetry_space_group_name_H-M   'P 1'
_cell_length_a   8.87128117
_cell_length_b   8.87128117
_cell_length_c   6.60520763
_cell_angle_alpha   77.16018751
_cell_angle_beta   102.83981249
_cell_angle_gamma   74.06171472
_symmetry_Int_Tables_number   1
_chemical_formula_structural   Na3Si3SnO9F
_chemical_formula_sum   'Na6 Si6 Sn2 O18 F2'
_cell_volume   464.57068608
_cell_formula_units_Z   2
loop_
 _symmetry_equiv_pos_site_id
 _symmetry_equiv_pos_as_xyz
  1  'x, y, z'
loop_
 _atom_site_type_symbol
 _atom_site_label
 _atom_site_symmetry_multiplicity
 _atom_site_fract_x
 _atom_site_fract_y
 _atom_site_fract_z
 _atom_site_occupancy
  Na  Na0  1  0.489511  0.510489  0.737296  1
  Na  Na1  1  0.606213  0.122802  0.081816  1
  Na  Na2  1  0.877198  0.393787  0.081816  1
  Na  Na3  1  0.510489  0.489511  0.262704  1
  Na  Na4  1  0.393787  0.877198  0.918184  1
  Na  Na5  1  0.122802  0.606213  0.918184  1
  Si  Si6  1  0.091738  0.687259  0.396530  1
  Si  Si7  1  0.687259  0.091738  0.603470  1
  Si  Si8  1  0.908262  0.312741  0.603470  1
  Si  Si9  1  0.786236  0.786236  0.000000  1
  Si  Si10  1  0.213764  0.213764  0.000000  1
  Si  Si11  1  0.312741  0.908262  0.396530  1
  Sn  Sn12  1  0.724546  0.724546  0.500000  1
  Sn  Sn13  1  0.275454  0.275454  0.500000  1
  O  O14  1  0.226481  0.327418  0.160955  1
  O  O15  1  0.017017  0.274548  0.860991  1
  O  O16  1  0.725452  0.982983  0.860991  1
  O  O17  1  0.982983  0.725452  0.139009  1
  O  O18  1  0.975016  0.676048  0.553712  1
  O  O19  1  0.327418  0.226481  0.839045  1
  O  O20  1  0.749164  0.479282  0.538259  1
  O  O21  1  0.520718  0.250836  0.538259  1
  O  O22  1  0.479282  0.749164  0.461741  1
  O  O23  1  0.672582  0.773519  0.160955  1
  O  O24  1  0.024984  0.323952  0.446288  1
  O  O25  1  0.840806  0.159194  0.593511  1
  O  O26  1  0.676048  0.975016  0.446288  1
  O  O27  1  0.250836  0.520718  0.461741  1
  O  O28  1  0.323952  0.024984  0.553712  1
  O  O29  1  0.773519  0.672582  0.839045  1
  O  O30  1  0.274548  0.017017  0.139009  1
  O  O31  1  0.159194  0.840806  0.406489  1
  F  F32  1  0.649074  0.350926  0.068844  1
  F  F33  1  0.350926  0.649074  0.931156  1
