# generated using pymatgen
data_RbLaTa2O7
_symmetry_space_group_name_H-M   'P 1'
_cell_length_a   3.91039378
_cell_length_b   3.91039378
_cell_length_c   11.31445780
_cell_angle_alpha   90.00000000
_cell_angle_beta   90.00000000
_cell_angle_gamma   90.00000000
_symmetry_Int_Tables_number   1
_chemical_formula_structural   RbLaTa2O7
_chemical_formula_sum   'Rb1 La1 Ta2 O7'
_cell_volume   173.01140533
_cell_formula_units_Z   1
loop_
 _symmetry_equiv_pos_site_id
 _symmetry_equiv_pos_as_xyz
  1  'x, y, z'
loop_
 _atom_site_type_symbol
 _atom_site_label
 _atom_site_symmetry_multiplicity
 _atom_site_fract_x
 _atom_site_fract_y
 _atom_site_fract_z
 _atom_site_occupancy
  Rb  Rb0  1  0.500000  0.500000  0.500000  1
  La  La1  1  0.500000  0.500000  0.000000  1
  Ta  Ta2  1  0.000000  0.000000  0.203683  1
  Ta  Ta3  1  0.000000  0.000000  0.796317  1
  O  O4  1  0.000000  0.000000  0.000000  1
  O  O5  1  0.000000  0.500000  0.165590  1
  O  O6  1  0.500000  0.000000  0.165590  1
  O  O7  1  0.000000  0.500000  0.834410  1
  O  O8  1  0.500000  0.000000  0.834410  1
  O  O9  1  0.000000  0.000000  0.362983  1
  O  O10  1  0.000000  0.000000  0.637017  1
