# generated using pymatgen
data_K2AgI3
_symmetry_space_group_name_H-M   'P 1'
_cell_length_a   4.86538029
_cell_length_b   10.22567797
_cell_length_c   19.86579579
_cell_angle_alpha   90.00000000
_cell_angle_beta   90.00000000
_cell_angle_gamma   90.00000000
_symmetry_Int_Tables_number   1
_chemical_formula_structural   K2AgI3
_chemical_formula_sum   'K8 Ag4 I12'
_cell_volume   988.35933831
_cell_formula_units_Z   4
loop_
 _symmetry_equiv_pos_site_id
 _symmetry_equiv_pos_as_xyz
  1  'x, y, z'
loop_
 _atom_site_type_symbol
 _atom_site_label
 _atom_site_symmetry_multiplicity
 _atom_site_fract_x
 _atom_site_fract_y
 _atom_site_fract_z
 _atom_site_occupancy
  K  K0  1  0.750000  0.750489  0.463066  1
  K  K1  1  0.250000  0.249511  0.536934  1
  K  K2  1  0.750000  0.250489  0.036934  1
  K  K3  1  0.250000  0.749511  0.963066  1
  K  K4  1  0.750000  0.424067  0.786009  1
  K  K5  1  0.250000  0.075933  0.286009  1
  K  K6  1  0.750000  0.924067  0.713991  1
  K  K7  1  0.250000  0.575933  0.213991  1
  Ag  Ag8  1  0.250000  0.630452  0.635776  1
  Ag  Ag9  1  0.250000  0.130452  0.864224  1
  Ag  Ag10  1  0.750000  0.369548  0.364224  1
  Ag  Ag11  1  0.750000  0.869548  0.135776  1
  I  I12  1  0.750000  0.991832  0.900814  1
  I  I13  1  0.250000  0.508168  0.400814  1
  I  I14  1  0.250000  0.187590  0.722701  1
  I  I15  1  0.750000  0.312410  0.222701  1
  I  I16  1  0.250000  0.381170  0.928292  1
  I  I17  1  0.750000  0.618830  0.071708  1
  I  I18  1  0.250000  0.008168  0.099186  1
  I  I19  1  0.750000  0.118830  0.428292  1
  I  I20  1  0.250000  0.881170  0.571708  1
  I  I21  1  0.750000  0.812410  0.277299  1
  I  I22  1  0.250000  0.687590  0.777299  1
  I  I23  1  0.750000  0.491832  0.599186  1
