# generated using pymatgen
data_BaCu2Te2(ClO3)2
_symmetry_space_group_name_H-M   'P 1'
_cell_length_a   7.52783846
_cell_length_b   7.57540806
_cell_length_c   8.37710870
_cell_angle_alpha   90.00000000
_cell_angle_beta   97.35979205
_cell_angle_gamma   90.00000000
_symmetry_Int_Tables_number   1
_chemical_formula_structural   BaCu2Te2(ClO3)2
_chemical_formula_sum   'Ba2 Cu4 Te4 Cl4 O12'
_cell_volume   473.78099032
_cell_formula_units_Z   2
loop_
 _symmetry_equiv_pos_site_id
 _symmetry_equiv_pos_as_xyz
  1  'x, y, z'
loop_
 _atom_site_type_symbol
 _atom_site_label
 _atom_site_symmetry_multiplicity
 _atom_site_fract_x
 _atom_site_fract_y
 _atom_site_fract_z
 _atom_site_occupancy
  Ba  Ba0  1  0.136158  0.658818  0.067481  1
  Ba  Ba1  1  0.863842  0.158818  0.932519  1
  Cu  Cu2  1  0.359502  0.156678  0.085116  1
  Cu  Cu3  1  0.310911  0.685552  0.596644  1
  Cu  Cu4  1  0.689089  0.185552  0.403356  1
  Cu  Cu5  1  0.640498  0.656678  0.914884  1
  Te  Te6  1  0.131330  0.028824  0.392638  1
  Te  Te7  1  0.657915  0.810372  0.233938  1
  Te  Te8  1  0.342085  0.310372  0.766062  1
  Te  Te9  1  0.868670  0.528824  0.607362  1
  Cl  Cl10  1  0.453600  0.385758  0.383281  1
  Cl  Cl11  1  0.114563  0.919452  0.762635  1
  Cl  Cl12  1  0.885437  0.419452  0.237365  1
  Cl  Cl13  1  0.546400  0.885758  0.616719  1
  O  O14  1  0.522175  0.223962  0.932385  1
  O  O15  1  0.186040  0.783807  0.397018  1
  O  O16  1  0.874946  0.001742  0.367723  1
  O  O17  1  0.550858  0.045169  0.233137  1
  O  O18  1  0.477825  0.723962  0.067615  1
  O  O19  1  0.125054  0.501742  0.632277  1
  O  O20  1  0.449142  0.545169  0.766863  1
  O  O21  1  0.800576  0.821887  0.057723  1
  O  O22  1  0.199424  0.321887  0.942277  1
  O  O23  1  0.846040  0.546779  0.831917  1
  O  O24  1  0.153960  0.046779  0.168083  1
  O  O25  1  0.813960  0.283807  0.602982  1
