# generated using pymatgen
data_CrCdF6
_symmetry_space_group_name_H-M   'P 1'
_cell_length_a   5.67561733
_cell_length_b   5.67561733
_cell_length_c   5.67561733
_cell_angle_alpha   55.73532807
_cell_angle_beta   55.73532807
_cell_angle_gamma   55.73532807
_symmetry_Int_Tables_number   1
_chemical_formula_structural   CrCdF6
_chemical_formula_sum   'Cr1 Cd1 F6'
_cell_volume   116.49017453
_cell_formula_units_Z   1
loop_
 _symmetry_equiv_pos_site_id
 _symmetry_equiv_pos_as_xyz
  1  'x, y, z'
loop_
 _atom_site_type_symbol
 _atom_site_label
 _atom_site_symmetry_multiplicity
 _atom_site_fract_x
 _atom_site_fract_y
 _atom_site_fract_z
 _atom_site_occupancy
  Cr  Cr0  1  0.000000  0.000000  0.000000  1
  Cd  Cd1  1  0.500000  0.500000  0.500000  1
  F  F2  1  0.909172  0.217724  0.646742  1
  F  F3  1  0.217724  0.646742  0.909172  1
  F  F4  1  0.353258  0.090828  0.782276  1
  F  F5  1  0.782276  0.353258  0.090828  1
  F  F6  1  0.090828  0.782276  0.353258  1
  F  F7  1  0.646742  0.909172  0.217724  1
