# generated using pymatgen
data_ZnGa3N3O
_symmetry_space_group_name_H-M   'P 1'
_cell_length_a   6.47408966
_cell_length_b   6.47383698
_cell_length_c   10.52069956
_cell_angle_alpha   89.93566901
_cell_angle_beta   89.90404334
_cell_angle_gamma   59.99636927
_symmetry_Int_Tables_number   1
_chemical_formula_structural   ZnGa3N3O
_chemical_formula_sum   'Zn4 Ga12 N12 O4'
_cell_volume   381.85562824
_cell_formula_units_Z   4
loop_
 _symmetry_equiv_pos_site_id
 _symmetry_equiv_pos_as_xyz
  1  'x, y, z'
loop_
 _atom_site_type_symbol
 _atom_site_label
 _atom_site_symmetry_multiplicity
 _atom_site_fract_x
 _atom_site_fract_y
 _atom_site_fract_z
 _atom_site_occupancy
  Zn  Zn0  1  0.338467  0.161622  0.254213  1
  Zn  Zn1  1  0.678070  0.339339  0.004427  1
  Zn  Zn2  1  0.167127  0.334215  0.505812  1
  Zn  Zn3  1  0.838659  0.677892  0.756874  1
  Ga  Ga4  1  0.826000  0.164576  0.247857  1
  Ga  Ga5  1  0.335047  0.674464  0.249631  1
  Ga  Ga6  1  0.835241  0.666725  0.249644  1
  Ga  Ga7  1  0.669247  0.834549  0.999626  1
  Ga  Ga8  1  0.160105  0.335595  0.999454  1
  Ga  Ga9  1  0.659565  0.839154  0.499722  1
  Ga  Ga10  1  0.324973  0.159515  0.747846  1
  Ga  Ga11  1  0.661615  0.321382  0.497606  1
  Ga  Ga12  1  0.336305  0.670717  0.749637  1
  Ga  Ga13  1  0.834307  0.158658  0.748092  1
  Ga  Ga14  1  0.160082  0.824471  0.998101  1
  Ga  Ga15  1  0.179451  0.838284  0.497891  1
  N  N16  1  0.677130  0.339526  0.313193  1
  N  N17  1  0.160903  0.823430  0.313990  1
  N  N18  1  0.837694  0.160869  0.063906  1
  N  N19  1  0.826356  0.163203  0.563757  1
  N  N20  1  0.336952  0.673584  0.563808  1
  N  N21  1  0.337353  0.163090  0.563003  1
  N  N22  1  0.176881  0.837576  0.814136  1
  N  N23  1  0.666747  0.832689  0.313272  1
  N  N24  1  0.837578  0.676804  0.063422  1
  N  N25  1  0.334183  0.666651  0.063193  1
  N  N26  1  0.167303  0.334330  0.812315  1
  N  N27  1  0.660979  0.837306  0.814104  1
  O  O28  1  0.832548  0.666587  0.553653  1
  O  O29  1  0.161468  0.339668  0.302942  1
  O  O30  1  0.660466  0.321842  0.804552  1
  O  O31  1  0.321195  0.161687  0.054338  1
