# generated using pymatgen
data_CsPbBr3
_symmetry_space_group_name_H-M   'P 1'
_cell_length_a   8.37036609
_cell_length_b   8.42533497
_cell_length_c   12.01129502
_cell_angle_alpha   90.00000000
_cell_angle_beta   90.00000000
_cell_angle_gamma   90.00000000
_symmetry_Int_Tables_number   1
_chemical_formula_structural   CsPbBr3
_chemical_formula_sum   'Cs4 Pb4 Br12'
_cell_volume   847.07421781
_cell_formula_units_Z   4
loop_
 _symmetry_equiv_pos_site_id
 _symmetry_equiv_pos_as_xyz
  1  'x, y, z'
loop_
 _atom_site_type_symbol
 _atom_site_label
 _atom_site_symmetry_multiplicity
 _atom_site_fract_x
 _atom_site_fract_y
 _atom_site_fract_z
 _atom_site_occupancy
  Cs  Cs0  1  0.508313  0.468185  0.250000  1
  Cs  Cs1  1  0.008313  0.031815  0.750000  1
  Cs  Cs2  1  0.991687  0.968185  0.250000  1
  Cs  Cs3  1  0.491687  0.531815  0.750000  1
  Pb  Pb4  1  0.500000  0.000000  0.500000  1
  Pb  Pb5  1  0.000000  0.500000  0.000000  1
  Pb  Pb6  1  0.000000  0.500000  0.500000  1
  Pb  Pb7  1  0.500000  0.000000  0.000000  1
  Br  Br8  1  0.548245  0.993708  0.750000  1
  Br  Br9  1  0.048245  0.506292  0.250000  1
  Br  Br10  1  0.794808  0.205386  0.025688  1
  Br  Br11  1  0.205192  0.794614  0.974312  1
  Br  Br12  1  0.294808  0.294614  0.974312  1
  Br  Br13  1  0.705192  0.705386  0.025688  1
  Br  Br14  1  0.294808  0.294614  0.525688  1
  Br  Br15  1  0.705192  0.705386  0.474312  1
  Br  Br16  1  0.205192  0.794614  0.525688  1
  Br  Br17  1  0.794808  0.205386  0.474312  1
  Br  Br18  1  0.951755  0.493708  0.750000  1
  Br  Br19  1  0.451755  0.006292  0.250000  1
