# generated using pymatgen
data_La11V4O26
_symmetry_space_group_name_H-M   'P 1'
_cell_length_a   7.11665573
_cell_length_b   10.29017655
_cell_length_c   10.36712903
_cell_angle_alpha   77.29430171
_cell_angle_beta   71.41691957
_cell_angle_gamma   69.79231634
_symmetry_Int_Tables_number   1
_chemical_formula_structural   La11V4O26
_chemical_formula_sum   'La11 V4 O26'
_cell_volume   670.15346915
_cell_formula_units_Z   1
loop_
 _symmetry_equiv_pos_site_id
 _symmetry_equiv_pos_as_xyz
  1  'x, y, z'
loop_
 _atom_site_type_symbol
 _atom_site_label
 _atom_site_symmetry_multiplicity
 _atom_site_fract_x
 _atom_site_fract_y
 _atom_site_fract_z
 _atom_site_occupancy
  La  La0  1  0.177482  0.638710  0.660954  1
  La  La1  1  0.278685  0.985099  0.405053  1
  La  La2  1  0.822518  0.361290  0.339046  1
  La  La3  1  0.721315  0.014901  0.594947  1
  La  La4  1  0.123557  0.970044  0.807844  1
  La  La5  1  0.876443  0.029956  0.192156  1
  La  La6  1  0.018960  0.331173  0.953341  1
  La  La7  1  0.981040  0.668827  0.046659  1
  La  La8  1  0.590365  0.657169  0.842915  1
  La  La9  1  0.409635  0.342831  0.157085  1
  La  La10  1  0.500000  0.000000  0.000000  1
  V  V11  1  0.599590  0.317380  0.805113  1
  V  V12  1  0.400410  0.682620  0.194887  1
  V  V13  1  0.723440  0.728221  0.457608  1
  V  V14  1  0.276560  0.271779  0.542392  1
  O  O15  1  0.863164  0.631372  0.323782  1
  O  O16  1  0.136836  0.368628  0.676218  1
  O  O17  1  0.395471  0.263673  0.937360  1
  O  O18  1  0.604529  0.736327  0.062640  1
  O  O19  1  0.324288  0.605721  0.086856  1
  O  O20  1  0.675712  0.394279  0.913144  1
  O  O21  1  0.175086  0.315543  0.399106  1
  O  O22  1  0.824914  0.684457  0.600894  1
  O  O23  1  0.230744  0.848603  0.247951  1
  O  O24  1  0.769256  0.151397  0.752049  1
  O  O25  1  0.534728  0.266662  0.498314  1
  O  O26  1  0.465272  0.733338  0.501686  1
  O  O27  1  0.763398  0.273512  0.167464  1
  O  O28  1  0.236602  0.726488  0.832536  1
  O  O29  1  0.516504  0.461454  0.690806  1
  O  O30  1  0.136453  0.081574  0.989129  1
  O  O31  1  0.863547  0.918426  0.010871  1
  O  O32  1  0.301194  0.092147  0.594562  1
  O  O33  1  0.698806  0.907853  0.405438  1
  O  O34  1  0.049129  0.892497  0.615995  1
  O  O35  1  0.483496  0.538546  0.309194  1
  O  O36  1  0.054506  0.420112  0.132574  1
  O  O37  1  0.945494  0.579888  0.867426  1
  O  O38  1  0.516284  0.906293  0.801205  1
  O  O39  1  0.483716  0.093707  0.198795  1
  O  O40  1  0.950871  0.107503  0.384005  1
