# generated using pymatgen
data_SrV2(PO5)2
_symmetry_space_group_name_H-M   'P 1'
_cell_length_a   10.09306602
_cell_length_b   8.90573080
_cell_length_c   7.04206890
_cell_angle_alpha   77.55386099
_cell_angle_beta   59.49952553
_cell_angle_gamma   42.94661348
_symmetry_Int_Tables_number   1
_chemical_formula_structural   SrV2(PO5)2
_chemical_formula_sum   'Sr2 V4 P4 O20'
_cell_volume   358.22691918
_cell_formula_units_Z   2
loop_
 _symmetry_equiv_pos_site_id
 _symmetry_equiv_pos_as_xyz
  1  'x, y, z'
loop_
 _atom_site_type_symbol
 _atom_site_label
 _atom_site_symmetry_multiplicity
 _atom_site_fract_x
 _atom_site_fract_y
 _atom_site_fract_z
 _atom_site_occupancy
  Sr  Sr0  1  0.003106  0.996894  0.996894  1
  Sr  Sr1  1  0.253106  0.246894  0.246894  1
  V  V2  1  0.650799  0.088741  0.621973  1
  V  V3  1  0.628027  0.611513  0.599201  1
  V  V4  1  0.638487  0.621973  0.088741  1
  V  V5  1  0.161259  0.599201  0.611513  1
  P  P6  1  0.798111  0.783096  0.201295  1
  P  P7  1  0.048705  0.032502  0.451889  1
  P  P8  1  0.217498  0.201295  0.783096  1
  P  P9  1  0.466904  0.451889  0.032502  1
  O  O10  1  0.284194  0.913400  0.238887  1
  O  O11  1  0.183484  0.350533  0.610578  1
  O  O12  1  0.698990  0.994987  0.327921  1
  O  O13  1  0.674957  0.654050  0.826543  1
  O  O14  1  0.625084  0.844263  0.164239  1
  O  O15  1  0.899467  0.066516  0.394594  1
  O  O16  1  0.595950  0.575043  0.405550  1
  O  O17  1  0.336600  0.965806  0.686482  1
  O  O18  1  0.563518  0.238887  0.913400  1
  O  O19  1  0.855406  0.610578  0.350533  1
  O  O20  1  0.844450  0.826543  0.654050  1
  O  O21  1  0.366413  0.164239  0.844263  1
  O  O22  1  0.085761  0.883587  0.624916  1
  O  O23  1  0.405737  0.624916  0.883587  1
  O  O24  1  0.423457  0.405550  0.575043  1
  O  O25  1  0.639422  0.394594  0.066516  1
  O  O26  1  0.255013  0.551010  0.271899  1
  O  O27  1  0.011113  0.686482  0.965806  1
  O  O28  1  0.978101  0.327921  0.994987  1
  O  O29  1  0.922079  0.271899  0.551010  1
