# generated using pymatgen
data_Fe2PO5
_symmetry_space_group_name_H-M   'P 1'
_cell_length_a   5.43632819
_cell_length_b   5.43632819
_cell_length_c   7.36001454
_cell_angle_alpha   68.56301214
_cell_angle_beta   111.43698786
_cell_angle_gamma   89.94164396
_symmetry_Int_Tables_number   1
_chemical_formula_structural   Fe2PO5
_chemical_formula_sum   'Fe4 P2 O10'
_cell_volume   186.17321748
_cell_formula_units_Z   2
loop_
 _symmetry_equiv_pos_site_id
 _symmetry_equiv_pos_as_xyz
  1  'x, y, z'
loop_
 _atom_site_type_symbol
 _atom_site_label
 _atom_site_symmetry_multiplicity
 _atom_site_fract_x
 _atom_site_fract_y
 _atom_site_fract_z
 _atom_site_occupancy
  Fe  Fe0  1  1.000000  0.500000  0.500000  1
  Fe  Fe1  1  0.500000  1.000000  0.000000  1
  Fe  Fe2  1  0.000000  0.000000  0.000000  1
  Fe  Fe3  1  0.000000  0.000000  0.500000  1
  P  P4  1  0.627711  0.627711  0.750000  1
  P  P5  1  0.372289  0.372289  0.250000  1
  O  O6  1  0.678983  0.303718  0.375505  1
  O  O7  1  0.303718  0.678983  0.124494  1
  O  O8  1  0.696282  0.321017  0.875506  1
  O  O9  1  0.109973  0.109973  0.750000  1
  O  O10  1  0.213976  0.293544  0.394856  1
  O  O11  1  0.706456  0.786024  0.894856  1
  O  O12  1  0.786024  0.706456  0.605144  1
  O  O13  1  0.293544  0.213976  0.105144  1
  O  O14  1  0.321017  0.696282  0.624494  1
  O  O15  1  0.890027  0.890027  0.250000  1
