# generated using pymatgen
data_BaCeC2O6F
_symmetry_space_group_name_H-M   'P 1'
_cell_length_a   13.22308317
_cell_length_b   13.22308317
_cell_length_c   13.22308317
_cell_angle_alpha   22.37446822
_cell_angle_beta   22.37446822
_cell_angle_gamma   22.37446822
_symmetry_Int_Tables_number   1
_chemical_formula_structural   BaCeC2O6F
_chemical_formula_sum   'Ba2 Ce2 C4 O12 F2'
_cell_volume   293.82004217
_cell_formula_units_Z   2
loop_
 _symmetry_equiv_pos_site_id
 _symmetry_equiv_pos_as_xyz
  1  'x, y, z'
loop_
 _atom_site_type_symbol
 _atom_site_label
 _atom_site_symmetry_multiplicity
 _atom_site_fract_x
 _atom_site_fract_y
 _atom_site_fract_z
 _atom_site_occupancy
  Ba  Ba0  1  0.000000  0.000000  0.000000  1
  Ba  Ba1  1  0.500000  0.500000  0.500000  1
  Ce  Ce2  1  0.755144  0.755144  0.755144  1
  Ce  Ce3  1  0.244856  0.244856  0.244856  1
  C  C4  1  0.892515  0.892515  0.892515  1
  C  C5  1  0.107485  0.107485  0.107485  1
  C  C6  1  0.626280  0.626280  0.626280  1
  C  C7  1  0.373720  0.373720  0.373720  1
  O  O8  1  0.184746  0.747692  0.747692  1
  O  O9  1  0.747692  0.184746  0.747692  1
  O  O10  1  0.747692  0.747692  0.184746  1
  O  O11  1  0.252308  0.252308  0.815254  1
  O  O12  1  0.815254  0.252308  0.252308  1
  O  O13  1  0.252308  0.815254  0.252308  1
  O  O14  1  0.918991  0.481092  0.481092  1
  O  O15  1  0.481092  0.918991  0.481092  1
  O  O16  1  0.481092  0.481092  0.918991  1
  O  O17  1  0.518908  0.518908  0.081009  1
  O  O18  1  0.081009  0.518908  0.518908  1
  O  O19  1  0.518908  0.081009  0.518908  1
  F  F20  1  0.815408  0.815408  0.815408  1
  F  F21  1  0.184592  0.184592  0.184592  1
