# generated using pymatgen
data_TiO2
_symmetry_space_group_name_H-M   'P 1'
_cell_length_a   6.16788897
_cell_length_b   3.90730131
_cell_length_c   11.40840805
_cell_angle_alpha   90.00000000
_cell_angle_beta   92.76791225
_cell_angle_gamma   90.00000000
_symmetry_Int_Tables_number   1
_chemical_formula_structural   TiO2
_chemical_formula_sum   'Ti4 O8'
_cell_volume   274.61959711
_cell_formula_units_Z   4
loop_
 _symmetry_equiv_pos_site_id
 _symmetry_equiv_pos_as_xyz
  1  'x, y, z'
loop_
 _atom_site_type_symbol
 _atom_site_label
 _atom_site_symmetry_multiplicity
 _atom_site_fract_x
 _atom_site_fract_y
 _atom_site_fract_z
 _atom_site_occupancy
  Ti  Ti0  1  0.039315  0.250000  0.745010  1
  Ti  Ti1  1  0.452863  0.750000  0.099588  1
  Ti  Ti2  1  0.547137  0.250000  0.900412  1
  Ti  Ti3  1  0.960685  0.750000  0.254990  1
  O  O4  1  0.464336  0.250000  0.064370  1
  O  O5  1  0.951886  0.250000  0.607513  1
  O  O6  1  0.535664  0.750000  0.935630  1
  O  O7  1  0.048114  0.750000  0.392487  1
  O  O8  1  0.338002  0.250000  0.783639  1
  O  O9  1  0.171065  0.750000  0.145369  1
  O  O10  1  0.661998  0.750000  0.216361  1
  O  O11  1  0.828935  0.250000  0.854631  1
