# generated using pymatgen
data_BaPb2IF5
_symmetry_space_group_name_H-M   'P 1'
_cell_length_a   6.13021150
_cell_length_b   6.13021150
_cell_length_c   10.12016233
_cell_angle_alpha   90.00000000
_cell_angle_beta   90.00000000
_cell_angle_gamma   90.00000000
_symmetry_Int_Tables_number   1
_chemical_formula_structural   BaPb2IF5
_chemical_formula_sum   'Ba2 Pb4 I2 F10'
_cell_volume   380.31056979
_cell_formula_units_Z   2
loop_
 _symmetry_equiv_pos_site_id
 _symmetry_equiv_pos_as_xyz
  1  'x, y, z'
loop_
 _atom_site_type_symbol
 _atom_site_label
 _atom_site_symmetry_multiplicity
 _atom_site_fract_x
 _atom_site_fract_y
 _atom_site_fract_z
 _atom_site_occupancy
  Ba  Ba0  1  0.500000  0.500000  0.000000  1
  Ba  Ba1  1  0.000000  0.000000  0.000000  1
  Pb  Pb2  1  0.500000  0.000000  0.693553  1
  Pb  Pb3  1  0.000000  0.500000  0.735634  1
  Pb  Pb4  1  0.500000  0.000000  0.264366  1
  Pb  Pb5  1  0.000000  0.500000  0.306447  1
  I  I6  1  0.500000  0.500000  0.500000  1
  I  I7  1  0.000000  0.000000  0.500000  1
  F  F8  1  0.500000  0.000000  0.035374  1
  F  F9  1  0.763979  0.263979  0.180162  1
  F  F10  1  0.263979  0.236021  0.819838  1
  F  F11  1  0.763979  0.736021  0.180162  1
  F  F12  1  0.736021  0.763979  0.819838  1
  F  F13  1  0.236021  0.263979  0.180162  1
  F  F14  1  0.000000  0.500000  0.964626  1
  F  F15  1  0.736021  0.236021  0.819838  1
  F  F16  1  0.263979  0.763979  0.819838  1
  F  F17  1  0.236021  0.736021  0.180162  1
