# generated using pymatgen
data_LiH3CO3
_symmetry_space_group_name_H-M   'P 1'
_cell_length_a   4.85877245
_cell_length_b   6.61532681
_cell_length_c   10.05621639
_cell_angle_alpha   90.00000000
_cell_angle_beta   90.00000000
_cell_angle_gamma   90.00000000
_symmetry_Int_Tables_number   1
_chemical_formula_structural   LiH3CO3
_chemical_formula_sum   'Li4 H12 C4 O12'
_cell_volume   323.23060440
_cell_formula_units_Z   4
loop_
 _symmetry_equiv_pos_site_id
 _symmetry_equiv_pos_as_xyz
  1  'x, y, z'
loop_
 _atom_site_type_symbol
 _atom_site_label
 _atom_site_symmetry_multiplicity
 _atom_site_fract_x
 _atom_site_fract_y
 _atom_site_fract_z
 _atom_site_occupancy
  Li  Li0  1  0.729829  0.380871  0.451474  1
  Li  Li1  1  0.229829  0.880871  0.048526  1
  Li  Li2  1  0.229829  0.619129  0.548526  1
  Li  Li3  1  0.729829  0.119129  0.951474  1
  H  H4  1  0.342510  0.523853  0.977367  1
  H  H5  1  0.842510  0.023853  0.522633  1
  H  H6  1  0.123943  0.894377  0.369709  1
  H  H7  1  0.342510  0.976147  0.477367  1
  H  H8  1  0.124638  0.338586  0.214820  1
  H  H9  1  0.623943  0.105623  0.630291  1
  H  H10  1  0.624638  0.838586  0.285180  1
  H  H11  1  0.123943  0.605623  0.869709  1
  H  H12  1  0.842510  0.476147  0.022633  1
  H  H13  1  0.624638  0.661414  0.785180  1
  H  H14  1  0.623943  0.394377  0.130291  1
  H  H15  1  0.124638  0.161414  0.714820  1
  C  C16  1  0.746888  0.613146  0.697502  1
  C  C17  1  0.246888  0.386854  0.302498  1
  C  C18  1  0.746888  0.886854  0.197502  1
  C  C19  1  0.246888  0.113146  0.802498  1
  O  O20  1  0.617932  0.577565  0.590439  1
  O  O21  1  0.617932  0.922435  0.090439  1
  O  O22  1  0.005935  0.599278  0.712019  1
  O  O23  1  0.173525  0.606302  0.966872  1
  O  O24  1  0.673525  0.106302  0.533128  1
  O  O25  1  0.117932  0.422435  0.409561  1
  O  O26  1  0.673525  0.393698  0.033128  1
  O  O27  1  0.173525  0.893698  0.466872  1
  O  O28  1  0.505935  0.099278  0.787981  1
  O  O29  1  0.005935  0.900722  0.212019  1
  O  O30  1  0.505935  0.400722  0.287981  1
  O  O31  1  0.117932  0.077565  0.909561  1
