# generated using pymatgen
data_K2MgB12(H2O3)10
_symmetry_space_group_name_H-M   'P 1'
_cell_length_a   7.61653039
_cell_length_b   7.87690511
_cell_length_c   10.93971176
_cell_angle_alpha   108.55214825
_cell_angle_beta   94.56274242
_cell_angle_gamma   91.82987173
_symmetry_Int_Tables_number   1
_chemical_formula_structural   K2MgB12(H2O3)10
_chemical_formula_sum   'K2 Mg1 B12 H20 O30'
_cell_volume   619.10752704
_cell_formula_units_Z   1
loop_
 _symmetry_equiv_pos_site_id
 _symmetry_equiv_pos_as_xyz
  1  'x, y, z'
loop_
 _atom_site_type_symbol
 _atom_site_label
 _atom_site_symmetry_multiplicity
 _atom_site_fract_x
 _atom_site_fract_y
 _atom_site_fract_z
 _atom_site_occupancy
  K  K0  1  0.736860  0.366615  0.402125  1
  K  K1  1  0.263140  0.633385  0.597875  1
  Mg  Mg2  1  0.000000  0.000000  0.000000  1
  B  B3  1  0.357554  0.153918  0.443771  1
  B  B4  1  0.642446  0.846082  0.556229  1
  B  B5  1  0.459499  0.758942  0.044104  1
  B  B6  1  0.540501  0.241058  0.955896  1
  B  B7  1  0.332555  0.015326  0.205209  1
  B  B8  1  0.667445  0.984674  0.794791  1
  B  B9  1  0.166792  0.699542  0.115599  1
  B  B10  1  0.833208  0.300458  0.884401  1
  B  B11  1  0.114949  0.567833  0.292164  1
  B  B12  1  0.885051  0.432167  0.707836  1
  B  B13  1  0.129876  0.895199  0.353257  1
  B  B14  1  0.870124  0.104801  0.646743  1
  H  H15  1  0.396472  0.307623  0.632308  1
  H  H16  1  0.603528  0.692377  0.367692  1
  H  H17  1  0.302486  0.970111  0.870741  1
  H  H18  1  0.697514  0.029889  0.129259  1
  H  H19  1  0.121147  0.051509  0.598097  1
  H  H20  1  0.878853  0.948491  0.401903  1
  H  H21  1  0.283947  0.465765  0.859299  1
  H  H22  1  0.716053  0.534235  0.140701  1
  H  H23  1  0.020718  0.358027  0.039151  1
  H  H24  1  0.979282  0.641973  0.960849  1
  H  H25  1  0.130579  0.976768  0.782006  1
  H  H26  1  0.869421  0.023232  0.217994  1
  H  H27  1  0.192978  0.284872  0.761637  1
  H  H28  1  0.807022  0.715128  0.238363  1
  H  H29  1  0.284912  0.187635  0.103340  1
  H  H30  1  0.715088  0.812365  0.896660  1
  H  H31  1  0.124938  0.304855  0.263534  1
  H  H32  1  0.875062  0.695145  0.736466  1
  H  H33  1  0.386989  0.429833  0.056874  1
  H  H34  1  0.613011  0.570167  0.943126  1
  O  O35  1  0.210048  0.114354  0.141949  1
  O  O36  1  0.789952  0.885646  0.858051  1
  O  O37  1  0.419353  0.133820  0.325797  1
  O  O38  1  0.580647  0.866180  0.674203  1
  O  O39  1  0.224561  0.041502  0.458725  1
  O  O40  1  0.775439  0.958498  0.541275  1
  O  O41  1  0.101242  0.417655  0.331311  1
  O  O42  1  0.898758  0.582345  0.668689  1
  O  O43  1  0.110857  0.553071  0.162398  1
  O  O44  1  0.889143  0.446929  0.837602  1
  O  O45  1  0.133665  0.730588  0.387461  1
  O  O46  1  0.866335  0.269412  0.612539  1
  O  O47  1  0.029404  0.747875  0.033722  1
  O  O48  1  0.970596  0.252125  0.966278  1
  O  O49  1  0.562647  0.705987  0.453673  1
  O  O50  1  0.437353  0.294013  0.546327  1
  O  O51  1  0.822600  0.075435  0.149527  1
  O  O52  1  0.177400  0.924565  0.850473  1
  O  O53  1  0.466648  0.935110  0.118024  1
  O  O54  1  0.533352  0.064890  0.881976  1
  O  O55  1  0.406415  0.299953  0.034880  1
  O  O56  1  0.593585  0.700047  0.965120  1
  O  O57  1  0.221586  0.866838  0.229103  1
  O  O58  1  0.778414  0.133162  0.770897  1
  O  O59  1  0.721819  0.614026  0.230660  1
  O  O60  1  0.278181  0.385974  0.769340  1
  O  O61  1  0.324356  0.638097  0.043864  1
  O  O62  1  0.675644  0.361903  0.956136  1
  O  O63  1  0.054584  0.065601  0.675025  1
  O  O64  1  0.945416  0.934399  0.324975  1
