# generated using pymatgen
data_Li2V(PO3)5
_symmetry_space_group_name_H-M   'P 1'
_cell_length_a   5.17931309
_cell_length_b   13.46223768
_cell_length_c   8.84052859
_cell_angle_alpha   90.00000000
_cell_angle_beta   101.77092779
_cell_angle_gamma   90.00000000
_symmetry_Int_Tables_number   1
_chemical_formula_structural   Li2V(PO3)5
_chemical_formula_sum   'Li4 V2 P10 O30'
_cell_volume   603.44471742
_cell_formula_units_Z   2
loop_
 _symmetry_equiv_pos_site_id
 _symmetry_equiv_pos_as_xyz
  1  'x, y, z'
loop_
 _atom_site_type_symbol
 _atom_site_label
 _atom_site_symmetry_multiplicity
 _atom_site_fract_x
 _atom_site_fract_y
 _atom_site_fract_z
 _atom_site_occupancy
  Li  Li0  1  0.939447  0.115803  0.902141  1
  Li  Li1  1  0.060553  0.615803  0.097859  1
  Li  Li2  1  0.060553  0.884197  0.097859  1
  Li  Li3  1  0.939447  0.384197  0.902141  1
  V  V4  1  0.500000  0.000000  0.500000  1
  V  V5  1  0.500000  0.500000  0.500000  1
  P  P6  1  0.999929  0.140860  0.484285  1
  P  P7  1  0.544075  0.750000  0.013711  1
  P  P8  1  0.658940  0.423059  0.184453  1
  P  P9  1  0.455925  0.250000  0.986289  1
  P  P10  1  0.999929  0.359140  0.484285  1
  P  P11  1  0.000071  0.859140  0.515715  1
  P  P12  1  0.341060  0.923059  0.815547  1
  P  P13  1  0.000071  0.640860  0.515715  1
  P  P14  1  0.658940  0.076941  0.184453  1
  P  P15  1  0.341060  0.576941  0.815547  1
  O  O16  1  0.490126  0.509913  0.725119  1
  O  O17  1  0.509874  0.490087  0.274881  1
  O  O18  1  0.139687  0.854734  0.693870  1
  O  O19  1  0.490126  0.990087  0.725119  1
  O  O20  1  0.707370  0.627075  0.503875  1
  O  O21  1  0.191516  0.531735  0.925631  1
  O  O22  1  0.139687  0.645266  0.693870  1
  O  O23  1  0.292630  0.127075  0.496125  1
  O  O24  1  0.192965  0.250000  0.877946  1
  O  O25  1  0.808484  0.468265  0.074369  1
  O  O26  1  0.287430  0.750000  0.066537  1
  O  O27  1  0.707370  0.872925  0.503875  1
  O  O28  1  0.856409  0.426706  0.575419  1
  O  O29  1  0.052055  0.750000  0.459265  1
  O  O30  1  0.712570  0.250000  0.933463  1
  O  O31  1  0.807035  0.750000  0.122054  1
  O  O32  1  0.553825  0.842919  0.895528  1
  O  O33  1  0.947945  0.250000  0.540735  1
  O  O34  1  0.143591  0.573294  0.424581  1
  O  O35  1  0.143591  0.926706  0.424581  1
  O  O36  1  0.808484  0.031735  0.074369  1
  O  O37  1  0.191516  0.968265  0.925631  1
  O  O38  1  0.292630  0.372925  0.496125  1
  O  O39  1  0.860313  0.354734  0.306130  1
  O  O40  1  0.446175  0.157081  0.104472  1
  O  O41  1  0.553825  0.657081  0.895528  1
  O  O42  1  0.509874  0.009913  0.274881  1
  O  O43  1  0.856409  0.073294  0.575419  1
  O  O44  1  0.446175  0.342919  0.104472  1
  O  O45  1  0.860313  0.145266  0.306130  1
