# generated using pymatgen
data_Na2Pd(NO2)4
_symmetry_space_group_name_H-M   'P 1'
_cell_length_a   4.69923213
_cell_length_b   11.39365065
_cell_length_c   15.66385349
_cell_angle_alpha   90.00000000
_cell_angle_beta   90.00000000
_cell_angle_gamma   90.00000000
_symmetry_Int_Tables_number   1
_chemical_formula_structural   Na2Pd(NO2)4
_chemical_formula_sum   'Na8 Pd4 N16 O32'
_cell_volume   838.66478955
_cell_formula_units_Z   4
loop_
 _symmetry_equiv_pos_site_id
 _symmetry_equiv_pos_as_xyz
  1  'x, y, z'
loop_
 _atom_site_type_symbol
 _atom_site_label
 _atom_site_symmetry_multiplicity
 _atom_site_fract_x
 _atom_site_fract_y
 _atom_site_fract_z
 _atom_site_occupancy
  Na  Na0  1  0.764305  0.748262  0.834086  1
  Na  Na1  1  0.735695  0.748262  0.334086  1
  Na  Na2  1  0.235695  0.248262  0.165914  1
  Na  Na3  1  0.282705  0.399424  0.914406  1
  Na  Na4  1  0.782705  0.899424  0.585594  1
  Na  Na5  1  0.717295  0.899424  0.085594  1
  Na  Na6  1  0.264305  0.248262  0.665914  1
  Na  Na7  1  0.217295  0.399424  0.414406  1
  Pd  Pd8  1  0.000746  0.573152  0.124177  1
  Pd  Pd9  1  0.499254  0.573152  0.624177  1
  Pd  Pd10  1  0.999254  0.073152  0.875823  1
  Pd  Pd11  1  0.500746  0.073152  0.375823  1
  N  N12  1  0.089664  0.515240  0.245444  1
  N  N13  1  0.418791  0.132324  0.497307  1
  N  N14  1  0.081209  0.132324  0.997307  1
  N  N15  1  0.777507  0.434036  0.603079  1
  N  N16  1  0.581209  0.632324  0.502693  1
  N  N17  1  0.589664  0.015240  0.254556  1
  N  N18  1  0.227329  0.713681  0.646288  1
  N  N19  1  0.918791  0.632324  0.002693  1
  N  N20  1  0.277507  0.934036  0.896921  1
  N  N21  1  0.727329  0.213681  0.853712  1
  N  N22  1  0.272671  0.713681  0.146288  1
  N  N23  1  0.222493  0.934036  0.396921  1
  N  N24  1  0.772671  0.213681  0.353712  1
  N  N25  1  0.722493  0.434036  0.103079  1
  N  N26  1  0.410336  0.515240  0.745444  1
  N  N27  1  0.910336  0.015240  0.754556  1
  O  O28  1  0.995417  0.196047  0.311970  1
  O  O29  1  0.995867  0.070393  0.690520  1
  O  O30  1  0.221205  0.224878  0.007886  1
  O  O31  1  0.009354  0.951792  0.442846  1
  O  O32  1  0.254163  0.836611  0.360595  1
  O  O33  1  0.500844  0.076122  0.561172  1
  O  O34  1  0.754163  0.336611  0.139405  1
  O  O35  1  0.004133  0.570393  0.309480  1
  O  O36  1  0.723902  0.313268  0.384772  1
  O  O37  1  0.740348  0.925671  0.244243  1
  O  O38  1  0.490646  0.951792  0.942846  1
  O  O39  1  0.745837  0.336611  0.639405  1
  O  O40  1  0.509354  0.451792  0.057154  1
  O  O41  1  0.990646  0.451792  0.557154  1
  O  O42  1  0.276098  0.813268  0.615228  1
  O  O43  1  0.776098  0.313268  0.884772  1
  O  O44  1  0.504133  0.070393  0.190520  1
  O  O45  1  0.259652  0.425671  0.755757  1
  O  O46  1  0.778795  0.724878  0.992114  1
  O  O47  1  0.721205  0.724878  0.492114  1
  O  O48  1  0.240348  0.425671  0.255757  1
  O  O49  1  0.245837  0.836611  0.860595  1
  O  O50  1  0.278795  0.224878  0.507886  1
  O  O51  1  0.495867  0.570393  0.809480  1
  O  O52  1  0.223902  0.813268  0.115228  1
  O  O53  1  0.004583  0.696047  0.688030  1
  O  O54  1  0.759652  0.925671  0.744243  1
  O  O55  1  0.495417  0.696047  0.188030  1
  O  O56  1  0.499156  0.576122  0.438828  1
  O  O57  1  0.999156  0.076122  0.061172  1
  O  O58  1  0.504583  0.196047  0.811970  1
  O  O59  1  0.000844  0.576122  0.938828  1
