# generated using pymatgen
data_Ho3Ge5
_symmetry_space_group_name_H-M   'P 1'
_cell_length_a   11.05498374
_cell_length_b   9.11465649
_cell_length_c   7.46483776
_cell_angle_alpha   82.99819358
_cell_angle_beta   54.91848523
_cell_angle_gamma   42.08332119
_symmetry_Int_Tables_number   1
_chemical_formula_structural   Ho3Ge5
_chemical_formula_sum   'Ho6 Ge10'
_cell_volume   343.03619001
_cell_formula_units_Z   2
loop_
 _symmetry_equiv_pos_site_id
 _symmetry_equiv_pos_as_xyz
  1  'x, y, z'
loop_
 _atom_site_type_symbol
 _atom_site_label
 _atom_site_symmetry_multiplicity
 _atom_site_fract_x
 _atom_site_fract_y
 _atom_site_fract_z
 _atom_site_occupancy
  Ho  Ho0  1  0.999031  0.000969  0.999031  1
  Ho  Ho1  1  0.249031  0.250969  0.249031  1
  Ho  Ho2  1  0.585478  0.577417  0.897144  1
  Ho  Ho3  1  0.897144  0.939961  0.585478  1
  Ho  Ho4  1  0.310039  0.352856  0.672583  1
  Ho  Ho5  1  0.672583  0.664522  0.310039  1
  Ge  Ge6  1  0.546511  0.453489  0.546511  1
  Ge  Ge7  1  0.796511  0.703489  0.796511  1
  Ge  Ge8  1  0.218917  0.912461  0.470453  1
  Ge  Ge9  1  0.470453  0.398169  0.218917  1
  Ge  Ge10  1  0.851831  0.779547  0.337539  1
  Ge  Ge11  1  0.337539  0.031083  0.851831  1
  Ge  Ge12  1  0.994097  0.179375  0.328573  1
  Ge  Ge13  1  0.328573  0.497955  0.994097  1
  Ge  Ge14  1  0.752045  0.921427  0.070625  1
  Ge  Ge15  1  0.070625  0.255903  0.752045  1
