# generated using pymatgen
data_Na9Sn4
_symmetry_space_group_name_H-M   'P 1'
_cell_length_a   5.45294089
_cell_length_b   5.45294089
_cell_length_c   29.30185361
_cell_angle_alpha   90.00000000
_cell_angle_beta   90.00000000
_cell_angle_gamma   120.00000000
_symmetry_Int_Tables_number   1
_chemical_formula_structural   Na9Sn4
_chemical_formula_sum   'Na18 Sn8'
_cell_volume   754.54875290
_cell_formula_units_Z   2
loop_
 _symmetry_equiv_pos_site_id
 _symmetry_equiv_pos_as_xyz
  1  'x, y, z'
loop_
 _atom_site_type_symbol
 _atom_site_label
 _atom_site_symmetry_multiplicity
 _atom_site_fract_x
 _atom_site_fract_y
 _atom_site_fract_z
 _atom_site_occupancy
  Na  Na0  1  0.333333  0.666667  0.750000  1
  Na  Na1  1  0.666667  0.333333  0.250000  1
  Na  Na2  1  0.666667  0.333333  0.591705  1
  Na  Na3  1  0.333333  0.666667  0.408295  1
  Na  Na4  1  0.333333  0.666667  0.091705  1
  Na  Na5  1  0.666667  0.333333  0.908295  1
  Na  Na6  1  0.000000  0.000000  0.823700  1
  Na  Na7  1  0.000000  0.000000  0.176300  1
  Na  Na8  1  0.000000  0.000000  0.323700  1
  Na  Na9  1  0.000000  0.000000  0.676300  1
  Na  Na10  1  0.666667  0.333333  0.364495  1
  Na  Na11  1  0.333333  0.666667  0.635505  1
  Na  Na12  1  0.333333  0.666667  0.864495  1
  Na  Na13  1  0.666667  0.333333  0.135505  1
  Na  Na14  1  0.666667  0.333333  0.479778  1
  Na  Na15  1  0.333333  0.666667  0.520222  1
  Na  Na16  1  0.333333  0.666667  0.979778  1
  Na  Na17  1  0.666667  0.333333  0.020222  1
  Sn  Sn18  1  0.666667  0.333333  0.798589  1
  Sn  Sn19  1  0.333333  0.666667  0.201411  1
  Sn  Sn20  1  0.333333  0.666667  0.298589  1
  Sn  Sn21  1  0.666667  0.333333  0.701411  1
  Sn  Sn22  1  0.000000  0.000000  0.948980  1
  Sn  Sn23  1  0.000000  0.000000  0.051020  1
  Sn  Sn24  1  0.000000  0.000000  0.448980  1
  Sn  Sn25  1  0.000000  0.000000  0.551020  1
