# generated using pymatgen
data_MgNi3B2
_symmetry_space_group_name_H-M   'P 1'
_cell_length_a   4.88017124
_cell_length_b   4.88017124
_cell_length_c   8.74669301
_cell_angle_alpha   90.00000000
_cell_angle_beta   90.00000000
_cell_angle_gamma   120.00000000
_symmetry_Int_Tables_number   1
_chemical_formula_structural   MgNi3B2
_chemical_formula_sum   'Mg3 Ni9 B6'
_cell_volume   180.40336700
_cell_formula_units_Z   3
loop_
 _symmetry_equiv_pos_site_id
 _symmetry_equiv_pos_as_xyz
  1  'x, y, z'
loop_
 _atom_site_type_symbol
 _atom_site_label
 _atom_site_symmetry_multiplicity
 _atom_site_fract_x
 _atom_site_fract_y
 _atom_site_fract_z
 _atom_site_occupancy
  Mg  Mg0  1  0.000000  0.000000  0.666667  1
  Mg  Mg1  1  0.000000  0.000000  0.000000  1
  Mg  Mg2  1  0.000000  0.000000  0.333333  1
  Ni  Ni3  1  0.500000  0.000000  0.791343  1
  Ni  Ni4  1  0.500000  0.500000  0.875324  1
  Ni  Ni5  1  0.500000  0.500000  0.458010  1
  Ni  Ni6  1  0.000000  0.500000  0.833333  1
  Ni  Ni7  1  0.000000  0.500000  0.124676  1
  Ni  Ni8  1  0.500000  0.500000  0.166667  1
  Ni  Ni9  1  0.500000  0.000000  0.208657  1
  Ni  Ni10  1  0.000000  0.500000  0.541990  1
  Ni  Ni11  1  0.500000  0.000000  0.500000  1
  B  B12  1  0.611594  0.223187  0.000000  1
  B  B13  1  0.776813  0.388406  0.333333  1
  B  B14  1  0.223187  0.611594  0.333333  1
  B  B15  1  0.611594  0.388406  0.666667  1
  B  B16  1  0.388406  0.611594  0.666667  1
  B  B17  1  0.388406  0.776813  0.000000  1
