# generated using pymatgen
data_Na4Ti5O12
_symmetry_space_group_name_H-M   'P 1'
_cell_length_a   5.37207227
_cell_length_b   5.37207227
_cell_length_c   9.65302954
_cell_angle_alpha   90.00000000
_cell_angle_beta   90.00000000
_cell_angle_gamma   120.00000000
_symmetry_Int_Tables_number   1
_chemical_formula_structural   Na4Ti5O12
_chemical_formula_sum   'Na4 Ti5 O12'
_cell_volume   241.25590916
_cell_formula_units_Z   1
loop_
 _symmetry_equiv_pos_site_id
 _symmetry_equiv_pos_as_xyz
  1  'x, y, z'
loop_
 _atom_site_type_symbol
 _atom_site_label
 _atom_site_symmetry_multiplicity
 _atom_site_fract_x
 _atom_site_fract_y
 _atom_site_fract_z
 _atom_site_occupancy
  Na  Na0  1  0.666667  0.333333  0.900298  1
  Na  Na1  1  0.333333  0.666667  0.099702  1
  Na  Na2  1  0.000000  0.000000  0.311691  1
  Na  Na3  1  0.000000  0.000000  0.688309  1
  Ti  Ti4  1  0.333333  0.666667  0.472982  1
  Ti  Ti5  1  0.000000  0.000000  0.000000  1
  Ti  Ti6  1  0.333333  0.666667  0.783410  1
  Ti  Ti7  1  0.666667  0.333333  0.527018  1
  Ti  Ti8  1  0.666667  0.333333  0.216590  1
  O  O9  1  0.429545  0.015801  0.379689  1
  O  O10  1  0.586256  0.570455  0.379689  1
  O  O11  1  0.984199  0.413744  0.379689  1
  O  O12  1  0.767657  0.100304  0.122237  1
  O  O13  1  0.899696  0.667353  0.122237  1
  O  O14  1  0.015801  0.586256  0.620311  1
  O  O15  1  0.667353  0.767657  0.877763  1
  O  O16  1  0.100304  0.332647  0.877763  1
  O  O17  1  0.570455  0.984199  0.620311  1
  O  O18  1  0.332647  0.232343  0.122237  1
  O  O19  1  0.413744  0.429545  0.620311  1
  O  O20  1  0.232343  0.899696  0.877763  1
