# generated using pymatgen
data_Zn3BPO7
_symmetry_space_group_name_H-M   'P 1'
_cell_length_a   8.14329067
_cell_length_b   8.14329067
_cell_length_c   4.96153772
_cell_angle_alpha   72.44941581
_cell_angle_beta   107.55058419
_cell_angle_gamma   74.50481373
_symmetry_Int_Tables_number   1
_chemical_formula_structural   Zn3BPO7
_chemical_formula_sum   'Zn6 B2 P2 O14'
_cell_volume   274.91573684
_cell_formula_units_Z   2
loop_
 _symmetry_equiv_pos_site_id
 _symmetry_equiv_pos_as_xyz
  1  'x, y, z'
loop_
 _atom_site_type_symbol
 _atom_site_label
 _atom_site_symmetry_multiplicity
 _atom_site_fract_x
 _atom_site_fract_y
 _atom_site_fract_z
 _atom_site_occupancy
  Zn  Zn0  1  0.352256  0.150224  0.230033  1
  Zn  Zn1  1  0.849776  0.647744  0.230033  1
  Zn  Zn2  1  0.796765  0.932540  0.536167  1
  Zn  Zn3  1  0.299953  0.481612  0.536206  1
  Zn  Zn4  1  0.518388  0.700047  0.536206  1
  Zn  Zn5  1  0.067460  0.203235  0.536167  1
  B  B6  1  0.483294  0.944077  0.899171  1
  B  B7  1  0.055923  0.516706  0.899171  1
  P  P8  1  0.060820  0.939180  0.141218  1
  P  P9  1  0.606224  0.393776  0.233186  1
  O  O10  1  0.337311  0.099688  0.853148  1
  O  O11  1  0.802678  0.396912  0.271923  1
  O  O12  1  0.604528  0.809894  0.198916  1
  O  O13  1  0.108810  0.089052  0.239685  1
  O  O14  1  0.190106  0.395472  0.198916  1
  O  O15  1  0.075360  0.485422  0.647021  1
  O  O16  1  0.603088  0.197322  0.271923  1
  O  O17  1  0.981094  0.018906  0.779411  1
  O  O18  1  0.240606  0.759394  0.280408  1
  O  O19  1  0.461568  0.538432  0.899438  1
  O  O20  1  0.900312  0.662689  0.853148  1
  O  O21  1  0.910948  0.891190  0.239685  1
  O  O22  1  0.555293  0.444707  0.483796  1
  O  O23  1  0.514578  0.924640  0.647021  1
