# generated using pymatgen
data_Zn3As2(HO)16
_symmetry_space_group_name_H-M   'P 1'
_cell_length_a   8.74754248
_cell_length_b   8.74754248
_cell_length_c   4.96334986
_cell_angle_alpha   83.54755789
_cell_angle_beta   96.45244211
_cell_angle_gamma   81.37471093
_symmetry_Int_Tables_number   1
_chemical_formula_structural   Zn3As2(HO)16
_chemical_formula_sum   'Zn3 As2 H16 O16'
_cell_volume   369.87683397
_cell_formula_units_Z   1
loop_
 _symmetry_equiv_pos_site_id
 _symmetry_equiv_pos_as_xyz
  1  'x, y, z'
loop_
 _atom_site_type_symbol
 _atom_site_label
 _atom_site_symmetry_multiplicity
 _atom_site_fract_x
 _atom_site_fract_y
 _atom_site_fract_z
 _atom_site_occupancy
  Zn  Zn0  1  0.000000  0.000000  0.000000  1
  Zn  Zn1  1  0.378239  0.378239  0.000000  1
  Zn  Zn2  1  0.621761  0.621761  0.000000  1
  As  As3  1  0.686203  0.313797  0.632608  1
  As  As4  1  0.313797  0.686203  0.367392  1
  H  H5  1  0.994035  0.795533  0.624098  1
  H  H6  1  0.795533  0.994035  0.375902  1
  H  H7  1  0.005965  0.204467  0.375902  1
  H  H8  1  0.204467  0.005965  0.624098  1
  H  H9  1  0.185046  0.517169  0.673831  1
  H  H10  1  0.517169  0.185046  0.326169  1
  H  H11  1  0.814954  0.482831  0.326169  1
  H  H12  1  0.482831  0.814954  0.673831  1
  H  H13  1  0.113106  0.498996  0.069977  1
  H  H14  1  0.498996  0.113106  0.930023  1
  H  H15  1  0.886894  0.501004  0.930023  1
  H  H16  1  0.501004  0.886894  0.069977  1
  H  H17  1  0.084268  0.275786  0.110433  1
  H  H18  1  0.275786  0.084268  0.889567  1
  H  H19  1  0.915732  0.724214  0.889567  1
  H  H20  1  0.724214  0.915732  0.110433  1
  O  O21  1  0.835286  0.164714  0.666466  1
  O  O22  1  0.164714  0.835286  0.333534  1
  O  O23  1  0.609365  0.390635  0.903987  1
  O  O24  1  0.390635  0.609365  0.096013  1
  O  O25  1  0.734785  0.484436  0.463333  1
  O  O26  1  0.484436  0.734785  0.536667  1
  O  O27  1  0.265215  0.515564  0.536667  1
  O  O28  1  0.515564  0.265215  0.463333  1
  O  O29  1  0.181700  0.047637  0.792893  1
  O  O30  1  0.047637  0.181700  0.207107  1
  O  O31  1  0.818300  0.952363  0.207107  1
  O  O32  1  0.952363  0.818300  0.792893  1
  O  O33  1  0.854116  0.577366  0.049483  1
  O  O34  1  0.577366  0.854116  0.950517  1
  O  O35  1  0.145884  0.422634  0.950517  1
  O  O36  1  0.422634  0.145884  0.049483  1
