# generated using pymatgen
data_SrV2(P2O7)2
_symmetry_space_group_name_H-M   'P 1'
_cell_length_a   4.89042447
_cell_length_b   7.19238106
_cell_length_c   8.06725009
_cell_angle_alpha   89.47740688
_cell_angle_beta   92.85619589
_cell_angle_gamma   106.00817130
_symmetry_Int_Tables_number   1
_chemical_formula_structural   SrV2(P2O7)2
_chemical_formula_sum   'Sr1 V2 P4 O14'
_cell_volume   272.41045158
_cell_formula_units_Z   1
loop_
 _symmetry_equiv_pos_site_id
 _symmetry_equiv_pos_as_xyz
  1  'x, y, z'
loop_
 _atom_site_type_symbol
 _atom_site_label
 _atom_site_symmetry_multiplicity
 _atom_site_fract_x
 _atom_site_fract_y
 _atom_site_fract_z
 _atom_site_occupancy
  Sr  Sr0  1  0.000000  0.000000  0.000000  1
  V  V1  1  0.500000  0.500000  0.000000  1
  V  V2  1  0.000000  0.000000  0.500000  1
  P  P3  1  0.982442  0.387523  0.248690  1
  P  P4  1  0.017558  0.612477  0.751310  1
  P  P5  1  0.383837  0.777102  0.292864  1
  P  P6  1  0.616163  0.222898  0.707136  1
  O  O7  1  0.079967  0.788753  0.642024  1
  O  O8  1  0.920033  0.211247  0.357976  1
  O  O9  1  0.283819  0.549743  0.797585  1
  O  O10  1  0.716181  0.450257  0.202415  1
  O  O11  1  0.131782  0.346223  0.092558  1
  O  O12  1  0.868218  0.653777  0.907442  1
  O  O13  1  0.206723  0.561203  0.346819  1
  O  O14  1  0.516537  0.234459  0.886006  1
  O  O15  1  0.483463  0.765541  0.113994  1
  O  O16  1  0.821134  0.093512  0.710697  1
  O  O17  1  0.178866  0.906488  0.289303  1
  O  O18  1  0.379243  0.168202  0.574239  1
  O  O19  1  0.620757  0.831798  0.425761  1
  O  O20  1  0.793277  0.438797  0.653181  1
