# generated using pymatgen
data_V4As3
_symmetry_space_group_name_H-M   'P 1'
_cell_length_a   7.05459186
_cell_length_b   7.05459186
_cell_length_c   18.02025194
_cell_angle_alpha   90.00000000
_cell_angle_beta   90.00000000
_cell_angle_gamma   152.15963277
_symmetry_Int_Tables_number   1
_chemical_formula_structural   V4As3
_chemical_formula_sum   'V16 As12'
_cell_volume   418.82306490
_cell_formula_units_Z   4
loop_
 _symmetry_equiv_pos_site_id
 _symmetry_equiv_pos_as_xyz
  1  'x, y, z'
loop_
 _atom_site_type_symbol
 _atom_site_label
 _atom_site_symmetry_multiplicity
 _atom_site_fract_x
 _atom_site_fract_y
 _atom_site_fract_z
 _atom_site_occupancy
  V  V0  1  0.000000  0.000000  0.000000  1
  V  V1  1  0.000000  0.000000  0.500000  1
  V  V2  1  0.058413  0.941587  0.750000  1
  V  V3  1  0.941587  0.058413  0.250000  1
  V  V4  1  0.733490  0.266510  0.163224  1
  V  V5  1  0.266510  0.733490  0.836776  1
  V  V6  1  0.266510  0.733490  0.663224  1
  V  V7  1  0.733490  0.266510  0.336776  1
  V  V8  1  0.534769  0.465231  0.116572  1
  V  V9  1  0.465231  0.534769  0.883428  1
  V  V10  1  0.465231  0.534769  0.616572  1
  V  V11  1  0.534769  0.465231  0.383428  1
  V  V12  1  0.663526  0.336474  0.972041  1
  V  V13  1  0.336474  0.663526  0.027959  1
  V  V14  1  0.336474  0.663526  0.472041  1
  V  V15  1  0.663526  0.336474  0.527959  1
  As  As16  1  0.418619  0.581381  0.750000  1
  As  As17  1  0.581381  0.418619  0.250000  1
  As  As18  1  0.697040  0.302960  0.750000  1
  As  As19  1  0.302960  0.697040  0.250000  1
  As  As20  1  0.901938  0.098062  0.117632  1
  As  As21  1  0.098062  0.901938  0.882368  1
  As  As22  1  0.098062  0.901938  0.617632  1
  As  As23  1  0.901938  0.098062  0.382368  1
  As  As24  1  0.839965  0.160035  0.924327  1
  As  As25  1  0.160035  0.839965  0.075673  1
  As  As26  1  0.160035  0.839965  0.424327  1
  As  As27  1  0.839965  0.160035  0.575673  1
