# generated using pymatgen
data_Ba2Eu3Mn2(CuO6)2
_symmetry_space_group_name_H-M   'P 1'
_cell_length_a   18.28695189
_cell_length_b   18.28695189
_cell_length_c   18.28695189
_cell_angle_alpha   167.74147117
_cell_angle_beta   167.74147117
_cell_angle_gamma   17.36956851
_symmetry_Int_Tables_number   1
_chemical_formula_structural   Ba2Eu3Mn2(CuO6)2
_chemical_formula_sum   'Ba2 Eu3 Mn2 Cu2 O12'
_cell_volume   275.67014299
_cell_formula_units_Z   1
loop_
 _symmetry_equiv_pos_site_id
 _symmetry_equiv_pos_as_xyz
  1  'x, y, z'
loop_
 _atom_site_type_symbol
 _atom_site_label
 _atom_site_symmetry_multiplicity
 _atom_site_fract_x
 _atom_site_fract_y
 _atom_site_fract_z
 _atom_site_occupancy
  Ba  Ba0  1  0.604797  0.604797  0.000000  1
  Ba  Ba1  1  0.395203  0.395203  0.000000  1
  Eu  Eu2  1  0.500000  0.500000  0.000000  1
  Eu  Eu3  1  0.713094  0.713094  0.000000  1
  Eu  Eu4  1  0.286906  0.286906  0.000000  1
  Mn  Mn5  1  0.165487  0.165487  0.000000  1
  Mn  Mn6  1  0.834513  0.834513  0.000000  1
  Cu  Cu7  1  0.951661  0.951661  0.000000  1
  Cu  Cu8  1  0.048339  0.048339  0.000000  1
  O  O9  1  0.329640  0.829640  0.500000  1
  O  O10  1  0.223009  0.223009  0.000000  1
  O  O11  1  0.542194  0.042194  0.500000  1
  O  O12  1  0.886356  0.886356  0.000000  1
  O  O13  1  0.170360  0.670360  0.500000  1
  O  O14  1  0.829640  0.329640  0.500000  1
  O  O15  1  0.957806  0.457806  0.500000  1
  O  O16  1  0.042194  0.542194  0.500000  1
  O  O17  1  0.776991  0.776991  0.000000  1
  O  O18  1  0.457806  0.957806  0.500000  1
  O  O19  1  0.113644  0.113644  0.000000  1
  O  O20  1  0.670360  0.170360  0.500000  1
