# generated using pymatgen
data_Ni(BO2)2
_symmetry_space_group_name_H-M   'P 1'
_cell_length_a   5.44066969
_cell_length_b   5.44066969
_cell_length_c   4.45686140
_cell_angle_alpha   74.45213948
_cell_angle_beta   105.54786052
_cell_angle_gamma   118.25296107
_symmetry_Int_Tables_number   1
_chemical_formula_structural   Ni(BO2)2
_chemical_formula_sum   'Ni2 B4 O8'
_cell_volume   110.39787227
_cell_formula_units_Z   2
loop_
 _symmetry_equiv_pos_site_id
 _symmetry_equiv_pos_as_xyz
  1  'x, y, z'
loop_
 _atom_site_type_symbol
 _atom_site_label
 _atom_site_symmetry_multiplicity
 _atom_site_fract_x
 _atom_site_fract_y
 _atom_site_fract_z
 _atom_site_occupancy
  Ni  Ni0  1  0.345905  0.345905  0.250000  1
  Ni  Ni1  1  0.654095  0.654095  0.750000  1
  B  B2  1  0.292802  0.922299  0.872426  1
  B  B3  1  0.922299  0.292802  0.627574  1
  B  B4  1  0.707198  0.077701  0.127574  1
  B  B5  1  0.077701  0.707198  0.372426  1
  O  O6  1  0.494201  0.205383  0.980339  1
  O  O7  1  0.505799  0.794617  0.019661  1
  O  O8  1  0.772982  0.047778  0.469225  1
  O  O9  1  0.205383  0.494201  0.519661  1
  O  O10  1  0.047778  0.772982  0.030775  1
  O  O11  1  0.952222  0.227018  0.969225  1
  O  O12  1  0.794617  0.505799  0.480339  1
  O  O13  1  0.227018  0.952222  0.530775  1
