# generated using pymatgen
data_CaTa2O6
_symmetry_space_group_name_H-M   'P 1'
_cell_length_a   7.85686810
_cell_length_b   7.85686810
_cell_length_c   7.85686810
_cell_angle_alpha   90.00000000
_cell_angle_beta   90.00000000
_cell_angle_gamma   90.00000000
_symmetry_Int_Tables_number   1
_chemical_formula_structural   CaTa2O6
_chemical_formula_sum   'Ca4 Ta8 O24'
_cell_volume   485.00742467
_cell_formula_units_Z   4
loop_
 _symmetry_equiv_pos_site_id
 _symmetry_equiv_pos_as_xyz
  1  'x, y, z'
loop_
 _atom_site_type_symbol
 _atom_site_label
 _atom_site_symmetry_multiplicity
 _atom_site_fract_x
 _atom_site_fract_y
 _atom_site_fract_z
 _atom_site_occupancy
  Ca  Ca0  1  0.500000  0.000000  0.000000  1
  Ca  Ca1  1  0.500000  0.500000  0.500000  1
  Ca  Ca2  1  0.000000  0.500000  0.000000  1
  Ca  Ca3  1  0.000000  0.000000  0.500000  1
  Ta  Ta4  1  0.750665  0.249335  0.750665  1
  Ta  Ta5  1  0.249335  0.249335  0.249335  1
  Ta  Ta6  1  0.750665  0.750665  0.750665  1
  Ta  Ta7  1  0.750665  0.750665  0.249335  1
  Ta  Ta8  1  0.249335  0.249335  0.750665  1
  Ta  Ta9  1  0.750665  0.249335  0.249335  1
  Ta  Ta10  1  0.249335  0.750665  0.249335  1
  Ta  Ta11  1  0.249335  0.750665  0.750665  1
  O  O12  1  0.282634  0.788664  0.000000  1
  O  O13  1  0.772988  0.276312  0.500000  1
  O  O14  1  0.000000  0.282634  0.788664  1
  O  O15  1  0.717366  0.788664  0.000000  1
  O  O16  1  0.227012  0.276312  0.500000  1
  O  O17  1  0.788664  0.000000  0.282634  1
  O  O18  1  0.500000  0.227012  0.723688  1
  O  O19  1  0.500000  0.772988  0.723688  1
  O  O20  1  0.276312  0.500000  0.227012  1
  O  O21  1  0.282634  0.211336  0.000000  1
  O  O22  1  0.717366  0.211336  0.000000  1
  O  O23  1  0.788664  0.000000  0.717366  1
  O  O24  1  0.211336  0.000000  0.282634  1
  O  O25  1  0.227012  0.723688  0.500000  1
  O  O26  1  0.500000  0.227012  0.276312  1
  O  O27  1  0.723688  0.500000  0.227012  1
  O  O28  1  0.000000  0.717366  0.788664  1
  O  O29  1  0.500000  0.772988  0.276312  1
  O  O30  1  0.000000  0.282634  0.211336  1
  O  O31  1  0.772988  0.723688  0.500000  1
  O  O32  1  0.276312  0.500000  0.772988  1
  O  O33  1  0.000000  0.717366  0.211336  1
  O  O34  1  0.211336  0.000000  0.717366  1
  O  O35  1  0.723688  0.500000  0.772988  1
