# generated using pymatgen
data_TiSe
_symmetry_space_group_name_H-M   'P 1'
_cell_length_a   3.48093181
_cell_length_b   6.25941263
_cell_length_c   6.49595060
_cell_angle_alpha   90.00000000
_cell_angle_beta   90.00000000
_cell_angle_gamma   90.00000000
_symmetry_Int_Tables_number   1
_chemical_formula_structural   TiSe
_chemical_formula_sum   'Ti4 Se4'
_cell_volume   141.53759477
_cell_formula_units_Z   4
loop_
 _symmetry_equiv_pos_site_id
 _symmetry_equiv_pos_as_xyz
  1  'x, y, z'
loop_
 _atom_site_type_symbol
 _atom_site_label
 _atom_site_symmetry_multiplicity
 _atom_site_fract_x
 _atom_site_fract_y
 _atom_site_fract_z
 _atom_site_occupancy
  Ti  Ti0  1  0.250000  0.693881  0.506633  1
  Ti  Ti1  1  0.250000  0.806119  0.006633  1
  Ti  Ti2  1  0.750000  0.306119  0.493367  1
  Ti  Ti3  1  0.750000  0.193881  0.993367  1
  Se  Se4  1  0.750000  0.920410  0.283549  1
  Se  Se5  1  0.250000  0.079590  0.716451  1
  Se  Se6  1  0.250000  0.420410  0.216451  1
  Se  Se7  1  0.750000  0.579590  0.783549  1
