# generated using pymatgen
data_RbVBr3
_symmetry_space_group_name_H-M   'P 1'
_cell_length_a   13.08459342
_cell_length_b   13.08459342
_cell_length_c   6.55272758
_cell_angle_alpha   90.00000000
_cell_angle_beta   90.00000000
_cell_angle_gamma   120.00000000
_symmetry_Int_Tables_number   1
_chemical_formula_structural   RbVBr3
_chemical_formula_sum   'Rb6 V6 Br18'
_cell_volume   971.56801651
_cell_formula_units_Z   6
loop_
 _symmetry_equiv_pos_site_id
 _symmetry_equiv_pos_as_xyz
  1  'x, y, z'
loop_
 _atom_site_type_symbol
 _atom_site_label
 _atom_site_symmetry_multiplicity
 _atom_site_fract_x
 _atom_site_fract_y
 _atom_site_fract_z
 _atom_site_occupancy
  Rb  Rb0  1  0.000000  0.331123  0.750000  1
  Rb  Rb1  1  0.331123  0.331123  0.250000  1
  Rb  Rb2  1  0.668877  0.668877  0.750000  1
  Rb  Rb3  1  0.000000  0.668877  0.250000  1
  Rb  Rb4  1  0.331123  0.000000  0.750000  1
  Rb  Rb5  1  0.668877  0.000000  0.250000  1
  V  V6  1  0.333333  0.666667  0.526858  1
  V  V7  1  0.666667  0.333333  0.473142  1
  V  V8  1  0.000000  0.000000  0.000000  1
  V  V9  1  0.000000  0.000000  0.500000  1
  V  V10  1  0.666667  0.333333  0.973142  1
  V  V11  1  0.333333  0.666667  0.026858  1
  Br  Br12  1  0.826166  0.491710  0.723105  1
  Br  Br13  1  0.334456  0.508290  0.776895  1
  Br  Br14  1  0.173834  0.665544  0.776895  1
  Br  Br15  1  0.826166  0.334456  0.223105  1
  Br  Br16  1  0.173834  0.508290  0.276895  1
  Br  Br17  1  0.158919  0.000000  0.250000  1
  Br  Br18  1  0.334456  0.826166  0.276895  1
  Br  Br19  1  0.491710  0.826166  0.776895  1
  Br  Br20  1  0.665544  0.173834  0.723105  1
  Br  Br21  1  0.665544  0.491710  0.223105  1
  Br  Br22  1  0.000000  0.158919  0.250000  1
  Br  Br23  1  0.158919  0.158919  0.750000  1
  Br  Br24  1  0.841081  0.000000  0.750000  1
  Br  Br25  1  0.000000  0.841081  0.750000  1
  Br  Br26  1  0.841081  0.841081  0.250000  1
  Br  Br27  1  0.508290  0.173834  0.223105  1
  Br  Br28  1  0.491710  0.665544  0.276895  1
  Br  Br29  1  0.508290  0.334456  0.723105  1
