# generated using pymatgen
data_K3AgO2
_symmetry_space_group_name_H-M   'P 1'
_cell_length_a   12.51215864
_cell_length_b   12.54168234
_cell_length_c   13.92162461
_cell_angle_alpha   90.00000000
_cell_angle_beta   90.00000000
_cell_angle_gamma   90.00000000
_symmetry_Int_Tables_number   1
_chemical_formula_structural   K3AgO2
_chemical_formula_sum   'K48 Ag16 O32'
_cell_volume   2184.63032470
_cell_formula_units_Z   16
loop_
 _symmetry_equiv_pos_site_id
 _symmetry_equiv_pos_as_xyz
  1  'x, y, z'
loop_
 _atom_site_type_symbol
 _atom_site_label
 _atom_site_symmetry_multiplicity
 _atom_site_fract_x
 _atom_site_fract_y
 _atom_site_fract_z
 _atom_site_occupancy
  K  K0  1  0.487007  0.501389  0.929791  1
  K  K1  1  0.987007  0.998611  0.070209  1
  K  K2  1  0.694207  0.696228  0.863816  1
  K  K3  1  0.499144  0.211235  0.272771  1
  K  K4  1  0.500856  0.711235  0.227229  1
  K  K5  1  0.280849  0.479578  0.507557  1
  K  K6  1  0.219151  0.520422  0.007557  1
  K  K7  1  0.194207  0.803772  0.136184  1
  K  K8  1  0.780849  0.020422  0.492443  1
  K  K9  1  0.294629  0.299204  0.851372  1
  K  K10  1  0.549380  0.247365  0.755838  1
  K  K11  1  0.265038  0.461849  0.244706  1
  K  K12  1  0.524882  0.277027  0.502448  1
  K  K13  1  0.975118  0.722973  0.002448  1
  K  K14  1  0.012993  0.498611  0.429791  1
  K  K15  1  0.024882  0.222973  0.497552  1
  K  K16  1  0.986269  0.794707  0.494781  1
  K  K17  1  0.734962  0.961849  0.255294  1
  K  K18  1  0.758303  0.539608  0.263352  1
  K  K19  1  0.305793  0.196228  0.636184  1
  K  K20  1  0.258303  0.960392  0.736648  1
  K  K21  1  0.765038  0.038151  0.755294  1
  K  K22  1  0.205371  0.700796  0.351372  1
  K  K23  1  0.065716  0.076995  0.867743  1
  K  K24  1  0.512993  0.001389  0.570209  1
  K  K25  1  0.486269  0.705293  0.505219  1
  K  K26  1  0.934284  0.576995  0.632257  1
  K  K27  1  0.790137  0.488251  0.010171  1
  K  K28  1  0.709863  0.511749  0.510171  1
  K  K29  1  0.950620  0.752635  0.255838  1
  K  K30  1  0.999144  0.288765  0.727229  1
  K  K31  1  0.475118  0.777027  0.997552  1
  K  K32  1  0.049380  0.252635  0.244162  1
  K  K33  1  0.450620  0.747365  0.744162  1
  K  K34  1  0.794629  0.200796  0.148628  1
  K  K35  1  0.241697  0.039608  0.236648  1
  K  K36  1  0.513731  0.205293  0.994781  1
  K  K37  1  0.290137  0.011749  0.989829  1
  K  K38  1  0.719151  0.979578  0.992443  1
  K  K39  1  0.234962  0.538151  0.744706  1
  K  K40  1  0.805793  0.303772  0.363816  1
  K  K41  1  0.741697  0.460392  0.763352  1
  K  K42  1  0.013731  0.294707  0.005219  1
  K  K43  1  0.434284  0.923005  0.367743  1
  K  K44  1  0.209863  0.988251  0.489829  1
  K  K45  1  0.705371  0.799204  0.648628  1
  K  K46  1  0.000856  0.788765  0.772771  1
  K  K47  1  0.565716  0.423005  0.132257  1
  Ag  Ag48  1  0.000602  0.010283  0.647169  1
  Ag  Ag49  1  0.997793  0.004742  0.328782  1
  Ag  Ag50  1  0.499398  0.989717  0.147169  1
  Ag  Ag51  1  0.271447  0.235784  0.403275  1
  Ag  Ag52  1  0.228553  0.764216  0.903275  1
  Ag  Ag53  1  0.497793  0.495258  0.671218  1
  Ag  Ag54  1  0.771447  0.264216  0.596725  1
  Ag  Ag55  1  0.765849  0.243556  0.917073  1
  Ag  Ag56  1  0.002207  0.504742  0.171218  1
  Ag  Ag57  1  0.999398  0.510283  0.852831  1
  Ag  Ag58  1  0.502207  0.995258  0.828782  1
  Ag  Ag59  1  0.734151  0.756444  0.417073  1
  Ag  Ag60  1  0.728553  0.735784  0.096725  1
  Ag  Ag61  1  0.500602  0.489717  0.352831  1
  Ag  Ag62  1  0.234151  0.743556  0.582927  1
  Ag  Ag63  1  0.265849  0.256444  0.082927  1
  O  O64  1  0.879374  0.127459  0.936982  1
  O  O65  1  0.380577  0.879382  0.162534  1
  O  O66  1  0.343828  0.649957  0.889215  1
  O  O67  1  0.851891  0.641467  0.413253  1
  O  O68  1  0.119423  0.120618  0.662534  1
  O  O69  1  0.116109  0.397487  0.859491  1
  O  O70  1  0.120626  0.627459  0.563018  1
  O  O71  1  0.114001  0.888502  0.327681  1
  O  O72  1  0.620626  0.872541  0.436982  1
  O  O73  1  0.148109  0.141467  0.086747  1
  O  O74  1  0.656172  0.149957  0.610785  1
  O  O75  1  0.116166  0.881255  0.929588  1
  O  O76  1  0.648109  0.358533  0.913253  1
  O  O77  1  0.843828  0.850043  0.110785  1
  O  O78  1  0.156172  0.350043  0.389215  1
  O  O79  1  0.351891  0.858533  0.586747  1
  O  O80  1  0.383427  0.379071  0.673775  1
  O  O81  1  0.880577  0.620618  0.837466  1
  O  O82  1  0.616109  0.102513  0.140509  1
  O  O83  1  0.116573  0.620929  0.173775  1
  O  O84  1  0.379374  0.372541  0.063018  1
  O  O85  1  0.383891  0.602513  0.359491  1
  O  O86  1  0.614001  0.611498  0.672319  1
  O  O87  1  0.885999  0.388502  0.172319  1
  O  O88  1  0.616166  0.618745  0.070412  1
  O  O89  1  0.883834  0.381255  0.570412  1
  O  O90  1  0.619423  0.379382  0.337466  1
  O  O91  1  0.385999  0.111498  0.827681  1
  O  O92  1  0.616573  0.879071  0.826225  1
  O  O93  1  0.383834  0.118745  0.429588  1
  O  O94  1  0.883891  0.897487  0.640509  1
  O  O95  1  0.883427  0.120929  0.326225  1
