# generated using pymatgen
data_Ni2Hg2OF6
_symmetry_space_group_name_H-M   'P 1'
_cell_length_a   7.43571067
_cell_length_b   7.43571067
_cell_length_c   7.43571067
_cell_angle_alpha   60.00000000
_cell_angle_beta   60.00000000
_cell_angle_gamma   60.00000000
_symmetry_Int_Tables_number   1
_chemical_formula_structural   Ni2Hg2OF6
_chemical_formula_sum   'Ni4 Hg4 O2 F12'
_cell_volume   290.70496618
_cell_formula_units_Z   2
loop_
 _symmetry_equiv_pos_site_id
 _symmetry_equiv_pos_as_xyz
  1  'x, y, z'
loop_
 _atom_site_type_symbol
 _atom_site_label
 _atom_site_symmetry_multiplicity
 _atom_site_fract_x
 _atom_site_fract_y
 _atom_site_fract_z
 _atom_site_occupancy
  Ni  Ni0  1  0.625000  0.125000  0.625000  1
  Ni  Ni1  1  0.625000  0.625000  0.625000  1
  Ni  Ni2  1  0.625000  0.625000  0.125000  1
  Ni  Ni3  1  0.125000  0.625000  0.625000  1
  Hg  Hg4  1  0.125000  0.625000  0.125000  1
  Hg  Hg5  1  0.125000  0.125000  0.125000  1
  Hg  Hg6  1  0.125000  0.125000  0.625000  1
  Hg  Hg7  1  0.625000  0.125000  0.125000  1
  O  O8  1  0.250000  0.250000  0.250000  1
  O  O9  1  0.000000  1.000000  1.000000  1
  F  F10  1  0.302074  0.697926  0.697926  1
  F  F11  1  0.947926  0.552074  0.947926  1
  F  F12  1  0.552074  0.947926  0.552074  1
  F  F13  1  0.552074  0.947926  0.947926  1
  F  F14  1  0.552074  0.552074  0.947926  1
  F  F15  1  0.947926  0.947926  0.552074  1
  F  F16  1  0.697926  0.697926  0.302074  1
  F  F17  1  0.302074  0.697926  0.302074  1
  F  F18  1  0.697926  0.302074  0.697926  1
  F  F19  1  0.302074  0.302074  0.697926  1
  F  F20  1  0.947926  0.552074  0.552074  1
  F  F21  1  0.697926  0.302074  0.302074  1
