# generated using pymatgen
data_Tb2Al4NiGe2
_symmetry_space_group_name_H-M   'P 1'
_cell_length_a   10.16489082
_cell_length_b   10.16489082
_cell_length_c   10.16489082
_cell_angle_alpha   156.43891352
_cell_angle_beta   156.43891352
_cell_angle_gamma   33.56399344
_symmetry_Int_Tables_number   1
_chemical_formula_structural   Tb2Al4NiGe2
_chemical_formula_sum   'Tb2 Al4 Ni1 Ge2'
_cell_volume   167.65750259
_cell_formula_units_Z   1
loop_
 _symmetry_equiv_pos_site_id
 _symmetry_equiv_pos_as_xyz
  1  'x, y, z'
loop_
 _atom_site_type_symbol
 _atom_site_label
 _atom_site_symmetry_multiplicity
 _atom_site_fract_x
 _atom_site_fract_y
 _atom_site_fract_z
 _atom_site_occupancy
  Tb  Tb0  1  0.814019  0.814019  0.000000  1
  Tb  Tb1  1  0.185981  0.185981  0.000000  1
  Al  Al2  1  0.432695  0.932695  0.500000  1
  Al  Al3  1  0.932695  0.432695  0.500000  1
  Al  Al4  1  0.067305  0.567305  0.500000  1
  Al  Al5  1  0.567305  0.067305  0.500000  1
  Ni  Ni6  1  0.000000  0.000000  0.000000  1
  Ge  Ge7  1  0.662274  0.662274  0.000000  1
  Ge  Ge8  1  0.337726  0.337726  0.000000  1
