# generated using pymatgen
data_TiO2
_symmetry_space_group_name_H-M   'P 1'
_cell_length_a   6.43536812
_cell_length_b   6.43536812
_cell_length_c   6.61621258
_cell_angle_alpha   73.81781570
_cell_angle_beta   106.18218430
_cell_angle_gamma   145.96371167
_symmetry_Int_Tables_number   1
_chemical_formula_structural   TiO2
_chemical_formula_sum   'Ti4 O8'
_cell_volume   146.70631565
_cell_formula_units_Z   4
loop_
 _symmetry_equiv_pos_site_id
 _symmetry_equiv_pos_as_xyz
  1  'x, y, z'
loop_
 _atom_site_type_symbol
 _atom_site_label
 _atom_site_symmetry_multiplicity
 _atom_site_fract_x
 _atom_site_fract_y
 _atom_site_fract_z
 _atom_site_occupancy
  Ti  Ti0  1  0.195286  0.804714  0.283762  1
  Ti  Ti1  1  0.900071  0.099929  0.289602  1
  Ti  Ti2  1  0.804714  0.195286  0.716238  1
  Ti  Ti3  1  0.099929  0.900071  0.710398  1
  O  O4  1  0.941648  0.058352  0.630021  1
  O  O5  1  0.361932  0.638068  0.293397  1
  O  O6  1  0.867189  0.132811  0.995291  1
  O  O7  1  0.058352  0.941648  0.369979  1
  O  O8  1  0.263489  0.736511  0.652500  1
  O  O9  1  0.132811  0.867189  0.004709  1
  O  O10  1  0.736511  0.263489  0.347500  1
  O  O11  1  0.638068  0.361932  0.706603  1
