# generated using pymatgen
data_Na2Gd2B2O7
_symmetry_space_group_name_H-M   'P 1'
_cell_length_a   10.43595481
_cell_length_b   6.37159622
_cell_length_c   10.75874370
_cell_angle_alpha   90.00000000
_cell_angle_beta   117.89697957
_cell_angle_gamma   90.00000000
_symmetry_Int_Tables_number   1
_chemical_formula_structural   Na2Gd2B2O7
_chemical_formula_sum   'Na8 Gd8 B8 O28'
_cell_volume   632.25347683
_cell_formula_units_Z   4
loop_
 _symmetry_equiv_pos_site_id
 _symmetry_equiv_pos_as_xyz
  1  'x, y, z'
loop_
 _atom_site_type_symbol
 _atom_site_label
 _atom_site_symmetry_multiplicity
 _atom_site_fract_x
 _atom_site_fract_y
 _atom_site_fract_z
 _atom_site_occupancy
  Na  Na0  1  0.240759  0.441948  0.476602  1
  Na  Na1  1  0.259241  0.941948  0.523398  1
  Na  Na2  1  0.452000  0.775717  0.389915  1
  Na  Na3  1  0.740759  0.058052  0.476602  1
  Na  Na4  1  0.048000  0.275717  0.610085  1
  Na  Na5  1  0.952000  0.724283  0.389915  1
  Na  Na6  1  0.548000  0.224283  0.610085  1
  Na  Na7  1  0.759241  0.558052  0.523398  1
  Gd  Gd8  1  0.318388  0.957476  0.016792  1
  Gd  Gd9  1  0.588178  0.418996  0.184861  1
  Gd  Gd10  1  0.818388  0.542524  0.016792  1
  Gd  Gd11  1  0.911822  0.918996  0.815139  1
  Gd  Gd12  1  0.681612  0.042524  0.983208  1
  Gd  Gd13  1  0.181612  0.457476  0.983208  1
  Gd  Gd14  1  0.411822  0.581004  0.815139  1
  Gd  Gd15  1  0.088178  0.081004  0.184861  1
  B  B16  1  0.421994  0.246360  0.317200  1
  B  B17  1  0.349814  0.151735  0.790461  1
  B  B18  1  0.650186  0.848265  0.209539  1
  B  B19  1  0.921994  0.253640  0.317200  1
  B  B20  1  0.849814  0.348265  0.790461  1
  B  B21  1  0.150186  0.651735  0.209539  1
  B  B22  1  0.578006  0.753640  0.682800  1
  B  B23  1  0.078006  0.746360  0.682800  1
  O  O24  1  0.598124  0.378070  0.975216  1
  O  O25  1  0.631573  0.736392  0.830447  1
  O  O26  1  0.088418  0.459201  0.150502  1
  O  O27  1  0.269550  0.254822  0.846645  1
  O  O28  1  0.840725  0.353642  0.370091  1
  O  O29  1  0.659275  0.853642  0.629909  1
  O  O30  1  0.901876  0.878070  0.024784  1
  O  O31  1  0.942073  0.829951  0.600717  1
  O  O32  1  0.868427  0.236392  0.169553  1
  O  O33  1  0.230450  0.754822  0.153355  1
  O  O34  1  0.633851  0.756342  0.316063  1
  O  O35  1  0.098124  0.121930  0.975216  1
  O  O36  1  0.401876  0.621930  0.024784  1
  O  O37  1  0.769550  0.245178  0.846645  1
  O  O38  1  0.159275  0.646358  0.629909  1
  O  O39  1  0.133851  0.743658  0.316063  1
  O  O40  1  0.131573  0.763608  0.830447  1
  O  O41  1  0.911582  0.540799  0.849498  1
  O  O42  1  0.366149  0.243658  0.683937  1
  O  O43  1  0.057927  0.170049  0.399283  1
  O  O44  1  0.411582  0.959201  0.849498  1
  O  O45  1  0.866149  0.256342  0.683937  1
  O  O46  1  0.588418  0.040799  0.150502  1
  O  O47  1  0.557927  0.329951  0.399283  1
  O  O48  1  0.442073  0.670049  0.600717  1
  O  O49  1  0.730450  0.745178  0.153355  1
  O  O50  1  0.340725  0.146358  0.370091  1
  O  O51  1  0.368427  0.263608  0.169553  1
