# generated using pymatgen
data_B2H12C3(NO)6
_symmetry_space_group_name_H-M   'P 1'
_cell_length_a   3.82169384
_cell_length_b   20.01524507
_cell_length_c   14.11796746
_cell_angle_alpha   90.00000000
_cell_angle_beta   90.35114123
_cell_angle_gamma   90.00000000
_symmetry_Int_Tables_number   1
_chemical_formula_structural   B2H12C3(NO)6
_chemical_formula_sum   'B8 H48 C12 N24 O24'
_cell_volume   1079.89324642
_cell_formula_units_Z   4
loop_
 _symmetry_equiv_pos_site_id
 _symmetry_equiv_pos_as_xyz
  1  'x, y, z'
loop_
 _atom_site_type_symbol
 _atom_site_label
 _atom_site_symmetry_multiplicity
 _atom_site_fract_x
 _atom_site_fract_y
 _atom_site_fract_z
 _atom_site_occupancy
  B  B0  1  0.446391  0.632331  0.832559  1
  B  B1  1  0.341130  0.989869  0.862001  1
  B  B2  1  0.553609  0.132331  0.667441  1
  B  B3  1  0.658870  0.010131  0.137999  1
  B  B4  1  0.446391  0.867669  0.332559  1
  B  B5  1  0.341130  0.510131  0.362001  1
  B  B6  1  0.553609  0.367669  0.167441  1
  B  B7  1  0.658870  0.489869  0.637999  1
  H  H8  1  0.570934  0.079885  0.844009  1
  H  H9  1  0.739008  0.794735  0.982348  1
  H  H10  1  0.205397  0.475125  0.895918  1
  H  H11  1  0.137409  0.940839  0.745731  1
  H  H12  1  0.429066  0.920115  0.155991  1
  H  H13  1  0.862796  0.657584  0.580319  1
  H  H14  1  0.814686  0.353578  0.636790  1
  H  H15  1  0.794603  0.975125  0.604082  1
  H  H16  1  0.429066  0.579885  0.655991  1
  H  H17  1  0.300092  0.066833  0.502848  1
  H  H18  1  0.570934  0.420115  0.344009  1
  H  H19  1  0.352484  0.459750  0.185915  1
  H  H20  1  0.862591  0.059161  0.254269  1
  H  H21  1  0.209693  0.681031  0.723715  1
  H  H22  1  0.209693  0.818969  0.223715  1
  H  H23  1  0.739008  0.705265  0.482348  1
  H  H24  1  0.699908  0.566833  0.997152  1
  H  H25  1  0.346684  0.944773  0.989728  1
  H  H26  1  0.814686  0.146422  0.136790  1
  H  H27  1  0.352484  0.040250  0.685915  1
  H  H28  1  0.451988  0.318361  0.045028  1
  H  H29  1  0.260992  0.205265  0.017652  1
  H  H30  1  0.451988  0.181639  0.545028  1
  H  H31  1  0.346684  0.555227  0.489728  1
  H  H32  1  0.137409  0.559161  0.245731  1
  H  H33  1  0.653316  0.444773  0.510272  1
  H  H34  1  0.790307  0.318969  0.276285  1
  H  H35  1  0.653316  0.055227  0.010272  1
  H  H36  1  0.771702  0.234923  0.145697  1
  H  H37  1  0.300092  0.433167  0.002848  1
  H  H38  1  0.794603  0.524875  0.104082  1
  H  H39  1  0.771702  0.265077  0.645697  1
  H  H40  1  0.205397  0.024875  0.395918  1
  H  H41  1  0.260992  0.294735  0.517652  1
  H  H42  1  0.548012  0.818361  0.454972  1
  H  H43  1  0.862591  0.440839  0.754269  1
  H  H44  1  0.647516  0.959750  0.314085  1
  H  H45  1  0.228298  0.765077  0.854303  1
  H  H46  1  0.862796  0.842416  0.080319  1
  H  H47  1  0.647516  0.540250  0.814085  1
  H  H48  1  0.548012  0.681639  0.954972  1
  H  H49  1  0.228298  0.734923  0.354303  1
  H  H50  1  0.185314  0.853578  0.863210  1
  H  H51  1  0.185314  0.646422  0.363210  1
  H  H52  1  0.699908  0.933167  0.497152  1
  H  H53  1  0.137204  0.157584  0.919681  1
  H  H54  1  0.137204  0.342416  0.419681  1
  H  H55  1  0.790307  0.181031  0.776285  1
  C  C56  1  0.965149  0.187532  0.263202  1
  C  C57  1  0.034851  0.812468  0.736798  1
  C  C58  1  0.870564  0.759471  0.600494  1
  C  C59  1  0.160740  0.126825  0.390660  1
  C  C60  1  0.129436  0.259471  0.899506  1
  C  C61  1  0.965149  0.312468  0.763202  1
  C  C62  1  0.839260  0.626825  0.109340  1
  C  C63  1  0.870564  0.740529  0.100494  1
  C  C64  1  0.839260  0.873175  0.609340  1
  C  C65  1  0.034851  0.687532  0.236798  1
  C  C66  1  0.160740  0.373175  0.890660  1
  C  C67  1  0.129436  0.240529  0.399506  1
  N  N68  1  0.772192  0.817139  0.558786  1
  N  N69  1  0.772899  0.568077  0.067146  1
  N  N70  1  0.859762  0.309875  0.672685  1
  N  N71  1  0.227101  0.068077  0.432854  1
  N  N72  1  0.005436  0.754059  0.688597  1
  N  N73  1  0.227808  0.182861  0.441214  1
  N  N74  1  0.033725  0.126697  0.301168  1
  N  N75  1  0.140238  0.809875  0.827315  1
  N  N76  1  0.831985  0.797122  0.049536  1
  N  N77  1  0.994564  0.245941  0.311403  1
  N  N78  1  0.168015  0.297122  0.450464  1
  N  N79  1  0.772899  0.931923  0.567146  1
  N  N80  1  0.772192  0.682861  0.058786  1
  N  N81  1  0.140238  0.690125  0.327315  1
  N  N82  1  0.831985  0.702878  0.549536  1
  N  N83  1  0.859762  0.190125  0.172685  1
  N  N84  1  0.227101  0.431923  0.932854  1
  N  N85  1  0.033725  0.373303  0.801168  1
  N  N86  1  0.994564  0.254059  0.811403  1
  N  N87  1  0.005436  0.745941  0.188597  1
  N  N88  1  0.168015  0.202878  0.950464  1
  N  N89  1  0.227808  0.317139  0.941214  1
  N  N90  1  0.966275  0.873303  0.698832  1
  N  N91  1  0.966275  0.626697  0.198832  1
  O  O92  1  0.418933  0.813781  0.392034  1
  O  O93  1  0.405379  0.073612  0.634958  1
  O  O94  1  0.254631  0.515434  0.267732  1
  O  O95  1  0.733348  0.438317  0.576898  1
  O  O96  1  0.594621  0.926388  0.365042  1
  O  O97  1  0.745369  0.484566  0.732268  1
  O  O98  1  0.733348  0.061683  0.076898  1
  O  O99  1  0.497029  0.952481  0.105007  1
  O  O100  1  0.323459  0.863460  0.240203  1
  O  O101  1  0.594621  0.573612  0.865042  1
  O  O102  1  0.581067  0.313781  0.107966  1
  O  O103  1  0.502971  0.047519  0.894993  1
  O  O104  1  0.323459  0.636540  0.740203  1
  O  O105  1  0.418933  0.686219  0.892034  1
  O  O106  1  0.676541  0.136540  0.759797  1
  O  O107  1  0.405379  0.426388  0.134958  1
  O  O108  1  0.497029  0.547519  0.605007  1
  O  O109  1  0.676541  0.363460  0.259797  1
  O  O110  1  0.266652  0.938317  0.923102  1
  O  O111  1  0.254631  0.984566  0.767732  1
  O  O112  1  0.266652  0.561683  0.423102  1
  O  O113  1  0.745369  0.015434  0.232268  1
  O  O114  1  0.502971  0.452481  0.394993  1
  O  O115  1  0.581067  0.186219  0.607966  1
