# generated using pymatgen
data_Sc11Nb3O24
_symmetry_space_group_name_H-M   'P 1'
_cell_length_a   6.13825393
_cell_length_b   6.16848238
_cell_length_c   23.82119526
_cell_angle_alpha   92.98267810
_cell_angle_beta   92.89380454
_cell_angle_gamma   99.26060560
_symmetry_Int_Tables_number   1
_chemical_formula_structural   Sc11Nb3O24
_chemical_formula_sum   'Sc22 Nb6 O48'
_cell_volume   887.41077999
_cell_formula_units_Z   2
loop_
 _symmetry_equiv_pos_site_id
 _symmetry_equiv_pos_as_xyz
  1  'x, y, z'
loop_
 _atom_site_type_symbol
 _atom_site_label
 _atom_site_symmetry_multiplicity
 _atom_site_fract_x
 _atom_site_fract_y
 _atom_site_fract_z
 _atom_site_occupancy
  Sc  Sc0  1  0.761184  0.578382  0.902733  1
  Sc  Sc1  1  0.502476  0.326216  0.652423  1
  Sc  Sc2  1  0.463866  0.176022  0.784371  1
  Sc  Sc3  1  0.287800  0.808124  0.674197  1
  Sc  Sc4  1  0.256448  0.064952  0.401493  1
  Sc  Sc5  1  0.209932  0.917356  0.535150  1
  Sc  Sc6  1  0.025512  0.561175  0.416780  1
  Sc  Sc7  1  0.008395  0.827598  0.151279  1
  Sc  Sc8  1  0.992599  0.992761  0.002469  1
  Sc  Sc9  1  0.262710  0.581513  0.965379  1
  Sc  Sc10  1  0.960681  0.677072  0.283800  1
  Sc  Sc11  1  0.223511  0.683742  0.830704  1
  Sc  Sc12  1  0.788627  0.311561  0.173613  1
  Sc  Sc13  1  0.037940  0.321722  0.715088  1
  Sc  Sc14  1  0.717503  0.428828  0.033549  1
  Sc  Sc15  1  0.989588  0.170672  0.847758  1
  Sc  Sc16  1  0.969967  0.439509  0.580103  1
  Sc  Sc17  1  0.796373  0.077271  0.462693  1
  Sc  Sc18  1  0.723816  0.189829  0.330451  1
  Sc  Sc19  1  0.538641  0.822867  0.214145  1
  Sc  Sc20  1  0.495490  0.678292  0.346704  1
  Sc  Sc21  1  0.474286  0.943494  0.079399  1
  Nb  Nb22  1  0.755708  0.750465  0.752152  1
  Nb  Nb23  1  0.533183  0.060974  0.923152  1
  Nb  Nb24  1  0.494792  0.485819  0.499221  1
  Nb  Nb25  1  0.256958  0.250838  0.252463  1
  Nb  Nb26  1  0.737436  0.915472  0.596744  1
  Nb  Nb27  1  0.241616  0.411325  0.096883  1
  O  O28  1  0.843108  0.016367  0.920093  1
  O  O29  1  0.899237  0.655661  0.984602  1
  O  O30  1  0.635858  0.783166  0.670104  1
  O  O31  1  0.671431  0.267416  0.856022  1
  O  O32  1  0.639238  0.426652  0.735626  1
  O  O33  1  0.384148  0.536261  0.424196  1
  O  O34  1  0.454471  0.821255  0.770884  1
  O  O35  1  0.428670  0.011868  0.604657  1
  O  O36  1  0.518589  0.364680  0.952519  1
  O  O37  1  0.383318  0.174903  0.490158  1
  O  O38  1  0.134895  0.283763  0.169539  1
  O  O39  1  0.477708  0.722474  0.896079  1
  O  O40  1  0.215659  0.575753  0.527833  1
  O  O41  1  0.176874  0.769835  0.353663  1
  O  O42  1  0.285602  0.123162  0.704427  1
  O  O43  1  0.143495  0.926479  0.234375  1
  O  O44  1  0.282160  0.034655  0.858558  1
  O  O45  1  0.223575  0.468035  0.645952  1
  O  O46  1  0.956172  0.321472  0.269575  1
  O  O47  1  0.213764  0.372397  0.794053  1
  O  O48  1  0.930362  0.516530  0.104029  1
  O  O49  1  0.037852  0.871120  0.455725  1
  O  O50  1  0.292417  0.928708  0.972166  1
  O  O51  1  0.012399  0.789129  0.606693  1
  O  O52  1  0.982442  0.219559  0.395677  1
  O  O53  1  0.685614  0.085219  0.017771  1
  O  O54  1  0.957638  0.118798  0.546871  1
  O  O55  1  0.073776  0.472936  0.893652  1
  O  O56  1  0.786526  0.626755  0.203975  1
  O  O57  1  0.037630  0.675018  0.726099  1
  O  O58  1  0.773374  0.531008  0.352978  1
  O  O59  1  0.727727  0.971139  0.143709  1
  O  O60  1  0.855911  0.076587  0.762671  1
  O  O61  1  0.712566  0.877941  0.293946  1
  O  O62  1  0.818854  0.207276  0.642779  1
  O  O63  1  0.792264  0.426658  0.478108  1
  O  O64  1  0.520296  0.295844  0.106710  1
  O  O65  1  0.879706  0.734045  0.829137  1
  O  O66  1  0.615146  0.835889  0.517844  1
  O  O67  1  0.460811  0.624245  0.044355  1
  O  O68  1  0.575774  0.982664  0.396141  1
  O  O69  1  0.539309  0.176112  0.225529  1
  O  O70  1  0.634523  0.498172  0.580923  1
  O  O71  1  0.361790  0.575087  0.261392  1
  O  O72  1  0.324506  0.704213  0.142353  1
  O  O73  1  0.373140  0.231293  0.329220  1
  O  O74  1  0.115708  0.336405  0.019423  1
  O  O75  1  0.146930  0.001545  0.082312  1
