# generated using pymatgen
data_As2Pb4S6ICl
_symmetry_space_group_name_H-M   'P 1'
_cell_length_a   6.79900492
_cell_length_b   9.71726590
_cell_length_c   11.77591459
_cell_angle_alpha   90.00000000
_cell_angle_beta   90.00000000
_cell_angle_gamma   90.00000000
_symmetry_Int_Tables_number   1
_chemical_formula_structural   As2Pb4S6ICl
_chemical_formula_sum   'As4 Pb8 S12 I2 Cl2'
_cell_volume   778.00804765
_cell_formula_units_Z   2
loop_
 _symmetry_equiv_pos_site_id
 _symmetry_equiv_pos_as_xyz
  1  'x, y, z'
loop_
 _atom_site_type_symbol
 _atom_site_label
 _atom_site_symmetry_multiplicity
 _atom_site_fract_x
 _atom_site_fract_y
 _atom_site_fract_z
 _atom_site_occupancy
  As  As0  1  0.500000  0.949281  0.830832  1
  As  As1  1  0.000000  0.449281  0.169168  1
  As  As2  1  0.500000  0.524044  0.330817  1
  As  As3  1  0.000000  0.024044  0.669183  1
  Pb  Pb4  1  0.500000  0.283333  0.628301  1
  Pb  Pb5  1  0.000000  0.688511  0.872044  1
  Pb  Pb6  1  0.500000  0.767247  0.570718  1
  Pb  Pb7  1  0.000000  0.220188  0.917164  1
  Pb  Pb8  1  0.000000  0.783333  0.371699  1
  Pb  Pb9  1  0.500000  0.720188  0.082836  1
  Pb  Pb10  1  0.000000  0.267247  0.429282  1
  Pb  Pb11  1  0.500000  0.188511  0.127956  1
  S  S12  1  0.751146  0.403363  0.044916  1
  S  S13  1  0.246721  0.073800  0.543999  1
  S  S14  1  0.253279  0.573800  0.456001  1
  S  S15  1  0.746721  0.573800  0.456001  1
  S  S16  1  0.000000  0.681865  0.149145  1
  S  S17  1  0.748854  0.903363  0.955084  1
  S  S18  1  0.248854  0.403363  0.044916  1
  S  S19  1  0.251146  0.903363  0.955084  1
  S  S20  1  0.500000  0.181865  0.850855  1
  S  S21  1  0.500000  0.292622  0.351737  1
  S  S22  1  0.753279  0.073800  0.543999  1
  S  S23  1  0.000000  0.792622  0.648263  1
  I  I24  1  0.000000  0.085181  0.208858  1
  I  I25  1  0.500000  0.585181  0.791142  1
  Cl  Cl26  1  0.500000  0.871712  0.283292  1
  Cl  Cl27  1  0.000000  0.371712  0.716708  1
