# generated using pymatgen
data_Ca2YAs(WO6)2
_symmetry_space_group_name_H-M   'P 1'
_cell_length_a   17.67691245
_cell_length_b   17.67691245
_cell_length_c   17.67691245
_cell_angle_alpha   163.05470585
_cell_angle_beta   163.05470585
_cell_angle_gamma   24.05326345
_symmetry_Int_Tables_number   1
_chemical_formula_structural   Ca2YAs(WO6)2
_chemical_formula_sum   'Ca4 Y2 As2 W4 O24'
_cell_volume   469.10030933
_cell_formula_units_Z   2
loop_
 _symmetry_equiv_pos_site_id
 _symmetry_equiv_pos_as_xyz
  1  'x, y, z'
loop_
 _atom_site_type_symbol
 _atom_site_label
 _atom_site_symmetry_multiplicity
 _atom_site_fract_x
 _atom_site_fract_y
 _atom_site_fract_z
 _atom_site_occupancy
  Ca  Ca0  1  0.086335  0.586335  0.500000  1
  Ca  Ca1  1  0.336335  0.336335  0.000000  1
  Ca  Ca2  1  0.663665  0.663665  0.000000  1
  Ca  Ca3  1  0.413665  0.913665  0.500000  1
  Y  Y4  1  0.000000  0.000000  0.000000  1
  Y  Y5  1  0.750000  0.250000  0.500000  1
  As  As6  1  0.250000  0.750000  0.500000  1
  As  As7  1  0.500000  0.500000  0.000000  1
  W  W8  1  0.925298  0.425298  0.500000  1
  W  W9  1  0.824702  0.824702  0.000000  1
  W  W10  1  0.574702  0.074702  0.500000  1
  W  W11  1  0.175298  0.175298  0.000000  1
  O  O12  1  0.073159  0.584065  0.102963  1
  O  O13  1  0.334065  0.731102  0.010906  1
  O  O14  1  0.720196  0.323159  0.989094  1
  O  O15  1  0.481102  0.970196  0.897037  1
  O  O16  1  0.676841  0.665935  0.397037  1
  O  O17  1  0.415935  0.518898  0.489094  1
  O  O18  1  0.029804  0.926841  0.510906  1
  O  O19  1  0.268898  0.279804  0.602963  1
  O  O20  1  0.971164  0.089819  0.453543  1
  O  O21  1  0.839819  0.886277  0.618655  1
  O  O22  1  0.267622  0.221164  0.381345  1
  O  O23  1  0.636277  0.517622  0.546457  1
  O  O24  1  0.133945  0.260156  0.608070  1
  O  O25  1  0.010156  0.902086  0.626211  1
  O  O26  1  0.275875  0.383945  0.373789  1
  O  O27  1  0.652086  0.525875  0.391930  1
  O  O28  1  0.616055  0.989844  0.891930  1
  O  O29  1  0.739844  0.347914  0.873789  1
  O  O30  1  0.474125  0.866055  0.126211  1
  O  O31  1  0.097914  0.724125  0.108070  1
  O  O32  1  0.113723  0.732378  0.953543  1
  O  O33  1  0.482378  0.028836  0.118655  1
  O  O34  1  0.910181  0.363723  0.881345  1
  O  O35  1  0.778836  0.160181  0.046457  1
