# generated using pymatgen
data_V2CdO6
_symmetry_space_group_name_H-M   'P 1'
_cell_length_a   5.11523561
_cell_length_b   5.11523561
_cell_length_c   7.08481306
_cell_angle_alpha   69.04528005
_cell_angle_beta   110.95471995
_cell_angle_gamma   138.62832990
_symmetry_Int_Tables_number   1
_chemical_formula_structural   V2CdO6
_chemical_formula_sum   'V2 Cd1 O6'
_cell_volume   113.21843930
_cell_formula_units_Z   1
loop_
 _symmetry_equiv_pos_site_id
 _symmetry_equiv_pos_as_xyz
  1  'x, y, z'
loop_
 _atom_site_type_symbol
 _atom_site_label
 _atom_site_symmetry_multiplicity
 _atom_site_fract_x
 _atom_site_fract_y
 _atom_site_fract_z
 _atom_site_occupancy
  V  V0  1  0.186752  0.813248  0.637571  1
  V  V1  1  0.813248  0.186752  0.362429  1
  Cd  Cd2  1  0.000000  0.000000  0.000000  1
  O  O3  1  0.030149  0.969851  0.697780  1
  O  O4  1  0.969851  0.030149  0.302220  1
  O  O5  1  0.334842  0.665158  0.870236  1
  O  O6  1  0.665158  0.334842  0.129764  1
  O  O7  1  0.303629  0.696371  0.435694  1
  O  O8  1  0.696371  0.303629  0.564306  1
