# generated using pymatgen
data_Ba11Bi10
_symmetry_space_group_name_H-M   'P 1'
_cell_length_a   13.73820946
_cell_length_b   13.73820946
_cell_length_c   13.73820946
_cell_angle_alpha   121.25057900
_cell_angle_beta   121.25057900
_cell_angle_gamma   87.84724663
_symmetry_Int_Tables_number   1
_chemical_formula_structural   Ba11Bi10
_chemical_formula_sum   'Ba22 Bi20'
_cell_volume   1797.44147775
_cell_formula_units_Z   2
loop_
 _symmetry_equiv_pos_site_id
 _symmetry_equiv_pos_as_xyz
  1  'x, y, z'
loop_
 _atom_site_type_symbol
 _atom_site_label
 _atom_site_symmetry_multiplicity
 _atom_site_fract_x
 _atom_site_fract_y
 _atom_site_fract_z
 _atom_site_occupancy
  Ba  Ba0  1  0.191273  0.441483  0.250210  1
  Ba  Ba1  1  0.441483  0.191273  0.250210  1
  Ba  Ba2  1  0.941063  0.191273  0.749790  1
  Ba  Ba3  1  0.808727  0.058937  0.250210  1
  Ba  Ba4  1  0.808727  0.558517  0.749790  1
  Ba  Ba5  1  0.058937  0.808727  0.250210  1
  Ba  Ba6  1  0.558517  0.808727  0.749790  1
  Ba  Ba7  1  0.191273  0.941063  0.749790  1
  Ba  Ba8  1  0.346216  0.346216  0.000000  1
  Ba  Ba9  1  0.653784  0.653784  0.000000  1
  Ba  Ba10  1  0.272274  0.604439  0.667835  1
  Ba  Ba11  1  0.604439  0.936604  0.332165  1
  Ba  Ba12  1  0.604439  0.272274  0.667835  1
  Ba  Ba13  1  0.727726  0.395561  0.332165  1
  Ba  Ba14  1  0.063396  0.395561  0.667835  1
  Ba  Ba15  1  0.395561  0.063396  0.667835  1
  Ba  Ba16  1  0.395561  0.727726  0.332165  1
  Ba  Ba17  1  0.936604  0.604439  0.332165  1
  Ba  Ba18  1  0.167912  0.167912  0.335825  1
  Ba  Ba19  1  0.167912  0.832088  0.000000  1
  Ba  Ba20  1  0.832088  0.167912  0.000000  1
  Ba  Ba21  1  0.832088  0.832088  0.664175  1
  Bi  Bi22  1  0.250000  0.750000  0.500000  1
  Bi  Bi23  1  0.750000  0.250000  0.500000  1
  Bi  Bi24  1  0.118907  0.118907  0.000000  1
  Bi  Bi25  1  0.881093  0.881093  0.000000  1
  Bi  Bi26  1  0.531460  0.531460  0.420861  1
  Bi  Bi27  1  0.531460  0.110599  0.000000  1
  Bi  Bi28  1  0.110599  0.531460  0.000000  1
  Bi  Bi29  1  0.468540  0.889401  0.000000  1
  Bi  Bi30  1  0.889401  0.468540  1.000000  1
  Bi  Bi31  1  0.889401  0.889401  0.420861  1
  Bi  Bi32  1  0.468540  0.468540  0.579139  1
  Bi  Bi33  1  0.110599  0.110599  0.579139  1
  Bi  Bi34  1  0.000000  0.357272  0.357272  1
  Bi  Bi35  1  0.357272  0.000000  0.357272  1
  Bi  Bi36  1  0.642728  0.000000  0.642728  1
  Bi  Bi37  1  0.000000  0.642728  0.642728  1
  Bi  Bi38  1  0.620103  0.620103  0.240205  1
  Bi  Bi39  1  0.620103  0.379897  0.000000  1
  Bi  Bi40  1  0.379897  0.620103  0.000000  1
  Bi  Bi41  1  0.379897  0.379897  0.759795  1
