# generated using pymatgen
data_ZnTeMoO6
_symmetry_space_group_name_H-M   'P 1'
_cell_length_a   5.10137888
_cell_length_b   5.35242241
_cell_length_c   9.20584397
_cell_angle_alpha   90.00000000
_cell_angle_beta   90.00000000
_cell_angle_gamma   90.00000000
_symmetry_Int_Tables_number   1
_chemical_formula_structural   ZnTeMoO6
_chemical_formula_sum   'Zn2 Te2 Mo2 O12'
_cell_volume   251.36312673
_cell_formula_units_Z   2
loop_
 _symmetry_equiv_pos_site_id
 _symmetry_equiv_pos_as_xyz
  1  'x, y, z'
loop_
 _atom_site_type_symbol
 _atom_site_label
 _atom_site_symmetry_multiplicity
 _atom_site_fract_x
 _atom_site_fract_y
 _atom_site_fract_z
 _atom_site_occupancy
  Zn  Zn0  1  0.500000  0.500000  0.524929  1
  Zn  Zn1  1  0.000000  0.000000  0.475071  1
  Te  Te2  1  0.000000  0.500000  0.259981  1
  Te  Te3  1  0.500000  0.000000  0.740019  1
  Mo  Mo4  1  0.000000  0.500000  0.806981  1
  Mo  Mo5  1  0.500000  0.000000  0.193019  1
  O  O6  1  0.220560  0.326008  0.396860  1
  O  O7  1  0.779440  0.673992  0.396860  1
  O  O8  1  0.737190  0.679376  0.705863  1
  O  O9  1  0.279440  0.826008  0.603140  1
  O  O10  1  0.656902  0.787573  0.079829  1
  O  O11  1  0.843098  0.287573  0.920171  1
  O  O12  1  0.262810  0.320624  0.705863  1
  O  O13  1  0.720560  0.173992  0.603140  1
  O  O14  1  0.237190  0.820624  0.294137  1
  O  O15  1  0.762810  0.179376  0.294137  1
  O  O16  1  0.156902  0.712427  0.920171  1
  O  O17  1  0.343098  0.212427  0.079829  1
