# generated using pymatgen
data_Rb2CdSiO4
_symmetry_space_group_name_H-M   'P 1'
_cell_length_a   8.06843961
_cell_length_b   8.06843961
_cell_length_c   16.93679531
_cell_angle_alpha   90.00000000
_cell_angle_beta   90.00000000
_cell_angle_gamma   92.36526707
_symmetry_Int_Tables_number   1
_chemical_formula_structural   Rb2CdSiO4
_chemical_formula_sum   'Rb16 Cd8 Si8 O32'
_cell_volume   1101.64123072
_cell_formula_units_Z   8
loop_
 _symmetry_equiv_pos_site_id
 _symmetry_equiv_pos_as_xyz
  1  'x, y, z'
loop_
 _atom_site_type_symbol
 _atom_site_label
 _atom_site_symmetry_multiplicity
 _atom_site_fract_x
 _atom_site_fract_y
 _atom_site_fract_z
 _atom_site_occupancy
  Rb  Rb0  1  0.756000  0.257569  0.859440  1
  Rb  Rb1  1  0.957705  0.957705  0.000000  1
  Rb  Rb2  1  0.248354  0.257820  0.890578  1
  Rb  Rb3  1  0.052310  0.548089  0.738007  1
  Rb  Rb4  1  0.257820  0.248354  0.109422  1
  Rb  Rb5  1  0.751646  0.742180  0.390578  1
  Rb  Rb6  1  0.446412  0.446412  0.500000  1
  Rb  Rb7  1  0.244000  0.742431  0.359440  1
  Rb  Rb8  1  0.257569  0.756000  0.140560  1
  Rb  Rb9  1  0.451911  0.947690  0.761993  1
  Rb  Rb10  1  0.947690  0.451911  0.238007  1
  Rb  Rb11  1  0.553588  0.553588  0.000000  1
  Rb  Rb12  1  0.742431  0.244000  0.640560  1
  Rb  Rb13  1  0.548089  0.052310  0.261993  1
  Rb  Rb14  1  0.742180  0.751646  0.609422  1
  Rb  Rb15  1  0.042295  0.042295  0.500000  1
  Cd  Cd16  1  0.228154  0.731125  0.906125  1
  Cd  Cd17  1  0.771846  0.268875  0.406125  1
  Cd  Cd18  1  0.731125  0.228154  0.093875  1
  Cd  Cd19  1  0.268875  0.771846  0.593875  1
  Cd  Cd20  1  0.771330  0.752496  0.843448  1
  Cd  Cd21  1  0.247504  0.228670  0.656552  1
  Cd  Cd22  1  0.228670  0.247504  0.343448  1
  Cd  Cd23  1  0.752496  0.771330  0.156552  1
  Si  Si24  1  0.516927  0.987152  0.995406  1
  Si  Si25  1  0.987152  0.516927  0.004594  1
  Si  Si26  1  0.482390  0.517610  0.750000  1
  Si  Si27  1  0.010406  0.989594  0.750000  1
  Si  Si28  1  0.483073  0.012848  0.495406  1
  Si  Si29  1  0.012848  0.483073  0.504594  1
  Si  Si30  1  0.989594  0.010406  0.250000  1
  Si  Si31  1  0.517610  0.482390  0.250000  1
  O  O32  1  0.313497  0.447580  0.258645  1
  O  O33  1  0.048613  0.193321  0.751287  1
  O  O34  1  0.415994  0.611439  0.669698  1
  O  O35  1  0.552420  0.686503  0.241355  1
  O  O36  1  0.073113  0.411625  0.416973  1
  O  O37  1  0.540113  0.193095  0.995128  1
  O  O38  1  0.918373  0.098204  0.331153  1
  O  O39  1  0.686503  0.552420  0.758645  1
  O  O40  1  0.611439  0.415994  0.330302  1
  O  O41  1  0.683652  0.063667  0.487746  1
  O  O42  1  0.806905  0.459887  0.504872  1
  O  O43  1  0.622276  0.907831  0.922026  1
  O  O44  1  0.377724  0.092169  0.422026  1
  O  O45  1  0.907831  0.622276  0.077974  1
  O  O46  1  0.459887  0.806905  0.495128  1
  O  O47  1  0.081627  0.901796  0.831153  1
  O  O48  1  0.098204  0.918373  0.668847  1
  O  O49  1  0.901796  0.081627  0.168847  1
  O  O50  1  0.806679  0.951387  0.748713  1
  O  O51  1  0.926887  0.588375  0.916973  1
  O  O52  1  0.092169  0.377724  0.577974  1
  O  O53  1  0.193095  0.540113  0.004872  1
  O  O54  1  0.447580  0.313497  0.741355  1
  O  O55  1  0.388561  0.584006  0.830302  1
  O  O56  1  0.588375  0.926887  0.083027  1
  O  O57  1  0.316348  0.936333  0.987746  1
  O  O58  1  0.193321  0.048613  0.248713  1
  O  O59  1  0.411625  0.073113  0.583027  1
  O  O60  1  0.584006  0.388561  0.169698  1
  O  O61  1  0.951387  0.806679  0.251287  1
  O  O62  1  0.063667  0.683652  0.512254  1
  O  O63  1  0.936333  0.316348  0.012254  1
