# generated using pymatgen
data_Ce2Ga12Pd
_symmetry_space_group_name_H-M   'P 1'
_cell_length_a   6.12417856
_cell_length_b   6.12417856
_cell_length_c   15.66401779
_cell_angle_alpha   90.00000000
_cell_angle_beta   90.00000000
_cell_angle_gamma   90.00000000
_symmetry_Int_Tables_number   1
_chemical_formula_structural   Ce2Ga12Pd
_chemical_formula_sum   'Ce4 Ga24 Pd2'
_cell_volume   587.48780660
_cell_formula_units_Z   2
loop_
 _symmetry_equiv_pos_site_id
 _symmetry_equiv_pos_as_xyz
  1  'x, y, z'
loop_
 _atom_site_type_symbol
 _atom_site_label
 _atom_site_symmetry_multiplicity
 _atom_site_fract_x
 _atom_site_fract_y
 _atom_site_fract_z
 _atom_site_occupancy
  Ce  Ce0  1  0.000000  0.500000  0.245715  1
  Ce  Ce1  1  0.500000  0.000000  0.245715  1
  Ce  Ce2  1  0.000000  0.500000  0.754285  1
  Ce  Ce3  1  0.500000  0.000000  0.754285  1
  Ga  Ga4  1  0.000000  0.000000  0.340887  1
  Ga  Ga5  1  0.249796  0.250204  0.910834  1
  Ga  Ga6  1  0.323601  0.176399  0.572030  1
  Ga  Ga7  1  0.249796  0.749796  0.089166  1
  Ga  Ga8  1  0.676399  0.823601  0.572030  1
  Ga  Ga9  1  0.000000  0.000000  0.814709  1
  Ga  Ga10  1  0.323601  0.823601  0.427970  1
  Ga  Ga11  1  0.000000  0.000000  0.185291  1
  Ga  Ga12  1  0.500000  0.500000  0.340887  1
  Ga  Ga13  1  0.250204  0.249796  0.089166  1
  Ga  Ga14  1  0.749796  0.750204  0.089166  1
  Ga  Ga15  1  0.000000  0.000000  0.659113  1
  Ga  Ga16  1  0.823601  0.676399  0.427970  1
  Ga  Ga17  1  0.823601  0.323601  0.572030  1
  Ga  Ga18  1  0.500000  0.500000  0.185291  1
  Ga  Ga19  1  0.250204  0.750204  0.910834  1
  Ga  Ga20  1  0.500000  0.500000  0.659113  1
  Ga  Ga21  1  0.750204  0.749796  0.910834  1
  Ga  Ga22  1  0.676399  0.176399  0.427970  1
  Ga  Ga23  1  0.176399  0.323601  0.427970  1
  Ga  Ga24  1  0.500000  0.500000  0.814709  1
  Ga  Ga25  1  0.749796  0.249796  0.910834  1
  Ga  Ga26  1  0.750204  0.250204  0.089166  1
  Ga  Ga27  1  0.176399  0.676399  0.572030  1
  Pd  Pd28  1  0.000000  0.500000  0.000000  1
  Pd  Pd29  1  0.500000  0.000000  0.000000  1
