# generated using pymatgen
data_NbS3
_symmetry_space_group_name_H-M   'P 1'
_cell_length_a   5.03627388
_cell_length_b   6.81471483
_cell_length_c   9.60749225
_cell_angle_alpha   89.95955197
_cell_angle_beta   83.17268227
_cell_angle_gamma   89.98668522
_symmetry_Int_Tables_number   1
_chemical_formula_structural   NbS3
_chemical_formula_sum   'Nb4 S12'
_cell_volume   327.39826859
_cell_formula_units_Z   4
loop_
 _symmetry_equiv_pos_site_id
 _symmetry_equiv_pos_as_xyz
  1  'x, y, z'
loop_
 _atom_site_type_symbol
 _atom_site_label
 _atom_site_symmetry_multiplicity
 _atom_site_fract_x
 _atom_site_fract_y
 _atom_site_fract_z
 _atom_site_occupancy
  Nb  Nb0  1  0.718063  0.850702  0.640935  1
  Nb  Nb1  1  0.715633  0.401963  0.649477  1
  Nb  Nb2  1  0.281937  0.149298  0.359065  1
  Nb  Nb3  1  0.284367  0.598037  0.350523  1
  S  S4  1  0.528110  0.368268  0.174077  1
  S  S5  1  0.759285  0.133909  0.458537  1
  S  S6  1  0.764039  0.614686  0.439779  1
  S  S7  1  0.235961  0.385314  0.560221  1
  S  S8  1  0.871603  0.631226  0.829603  1
  S  S9  1  0.240715  0.866091  0.541463  1
  S  S10  1  0.519301  0.877386  0.199031  1
  S  S11  1  0.480699  0.122614  0.800969  1
  S  S12  1  0.471890  0.631732  0.825923  1
  S  S13  1  0.128397  0.368774  0.170397  1
  S  S14  1  0.119077  0.877148  0.198165  1
  S  S15  1  0.880923  0.122852  0.801835  1
