# generated using pymatgen
data_Sr2Co2O5
_symmetry_space_group_name_H-M   'P 1'
_cell_length_a   9.01834287
_cell_length_b   9.01834287
_cell_length_c   9.01834287
_cell_angle_alpha   144.90523951
_cell_angle_beta   144.28683392
_cell_angle_gamma   50.93868376
_symmetry_Int_Tables_number   1
_chemical_formula_structural   Sr2Co2O5
_chemical_formula_sum   'Sr4 Co4 O10'
_cell_volume   244.87293259
_cell_formula_units_Z   2
loop_
 _symmetry_equiv_pos_site_id
 _symmetry_equiv_pos_as_xyz
  1  'x, y, z'
loop_
 _atom_site_type_symbol
 _atom_site_label
 _atom_site_symmetry_multiplicity
 _atom_site_fract_x
 _atom_site_fract_y
 _atom_site_fract_z
 _atom_site_occupancy
  Sr  Sr0  1  0.602271  0.602744  0.983462  1
  Sr  Sr1  1  0.397729  0.381191  0.000473  1
  Sr  Sr2  1  0.119282  0.102744  0.000473  1
  Sr  Sr3  1  0.880718  0.881191  0.983462  1
  Co  Co4  1  0.500000  0.989908  0.489908  1
  Co  Co5  1  0.000000  0.489908  0.489908  1
  Co  Co6  1  0.813501  0.273240  0.586742  1
  Co  Co7  1  0.186499  0.773240  0.459739  1
  O  O8  1  0.245449  0.738044  0.990526  1
  O  O9  1  0.754551  0.745078  0.492595  1
  O  O10  1  0.247518  0.238044  0.492595  1
  O  O11  1  0.752482  0.245078  0.990526  1
  O  O12  1  0.613616  0.121546  0.447115  1
  O  O13  1  0.386384  0.833499  0.507930  1
  O  O14  1  0.174430  0.621546  0.507930  1
  O  O15  1  0.825570  0.333499  0.447115  1
  O  O16  1  0.869035  0.625786  0.994821  1
  O  O17  1  0.130965  0.125786  0.756751  1
