# generated using pymatgen
data_K2LiAlF6
_symmetry_space_group_name_H-M   'P 1'
_cell_length_a   5.69419470
_cell_length_b   5.69419470
_cell_length_c   13.93136361
_cell_angle_alpha   90.00000000
_cell_angle_beta   90.00000000
_cell_angle_gamma   120.00000000
_symmetry_Int_Tables_number   1
_chemical_formula_structural   K2LiAlF6
_chemical_formula_sum   'K6 Li3 Al3 F18'
_cell_volume   391.19102678
_cell_formula_units_Z   3
loop_
 _symmetry_equiv_pos_site_id
 _symmetry_equiv_pos_as_xyz
  1  'x, y, z'
loop_
 _atom_site_type_symbol
 _atom_site_label
 _atom_site_symmetry_multiplicity
 _atom_site_fract_x
 _atom_site_fract_y
 _atom_site_fract_z
 _atom_site_occupancy
  K  K0  1  0.666667  0.333333  0.411180  1
  K  K1  1  0.000000  0.000000  0.747679  1
  K  K2  1  0.666667  0.333333  0.106443  1
  K  K3  1  0.000000  0.000000  0.252321  1
  K  K4  1  0.333333  0.666667  0.588820  1
  K  K5  1  0.333333  0.666667  0.893557  1
  Li  Li6  1  0.666667  0.333333  0.856777  1
  Li  Li7  1  0.333333  0.666667  0.143223  1
  Li  Li8  1  0.000000  0.000000  0.500000  1
  Al  Al9  1  0.333333  0.666667  0.338663  1
  Al  Al10  1  0.666667  0.333333  0.661337  1
  Al  Al11  1  0.000000  0.000000  0.000000  1
  F  F12  1  0.306383  0.153192  0.924166  1
  F  F13  1  0.481143  0.518857  0.257887  1
  F  F14  1  0.518857  0.481143  0.742113  1
  F  F15  1  0.693617  0.846808  0.075834  1
  F  F16  1  0.179644  0.359289  0.412906  1
  F  F17  1  0.153192  0.306383  0.075834  1
  F  F18  1  0.820356  0.179644  0.587094  1
  F  F19  1  0.179644  0.820356  0.412906  1
  F  F20  1  0.846808  0.693617  0.924166  1
  F  F21  1  0.481143  0.962286  0.257887  1
  F  F22  1  0.518857  0.037714  0.742113  1
  F  F23  1  0.037714  0.518857  0.257887  1
  F  F24  1  0.962286  0.481143  0.742113  1
  F  F25  1  0.846808  0.153192  0.924166  1
  F  F26  1  0.359289  0.179644  0.587094  1
  F  F27  1  0.640711  0.820356  0.412906  1
  F  F28  1  0.820356  0.640711  0.587094  1
  F  F29  1  0.153192  0.846808  0.075834  1
