# generated using pymatgen
data_NaNp3F13
_symmetry_space_group_name_H-M   'P 1'
_cell_length_a   8.16508827
_cell_length_b   8.16508827
_cell_length_c   16.43658954
_cell_angle_alpha   90.00000000
_cell_angle_beta   90.00000000
_cell_angle_gamma   120.00000000
_symmetry_Int_Tables_number   1
_chemical_formula_structural   NaNp3F13
_chemical_formula_sum   'Na4 Np12 F52'
_cell_volume   948.99540482
_cell_formula_units_Z   4
loop_
 _symmetry_equiv_pos_site_id
 _symmetry_equiv_pos_as_xyz
  1  'x, y, z'
loop_
 _atom_site_type_symbol
 _atom_site_label
 _atom_site_symmetry_multiplicity
 _atom_site_fract_x
 _atom_site_fract_y
 _atom_site_fract_z
 _atom_site_occupancy
  Na  Na0  1  0.666667  0.333333  0.124356  1
  Na  Na1  1  0.333333  0.666667  0.624356  1
  Na  Na2  1  0.333333  0.666667  0.875644  1
  Na  Na3  1  0.666667  0.333333  0.375644  1
  Np  Np4  1  0.833817  0.667633  0.886895  1
  Np  Np5  1  0.166183  0.833817  0.113105  1
  Np  Np6  1  0.667633  0.833817  0.113105  1
  Np  Np7  1  0.332367  0.166183  0.886895  1
  Np  Np8  1  0.833817  0.166183  0.886895  1
  Np  Np9  1  0.166183  0.332367  0.113105  1
  Np  Np10  1  0.833817  0.166183  0.613105  1
  Np  Np11  1  0.166183  0.332367  0.386895  1
  Np  Np12  1  0.332367  0.166183  0.613105  1
  Np  Np13  1  0.166183  0.833817  0.386895  1
  Np  Np14  1  0.667633  0.833817  0.386895  1
  Np  Np15  1  0.833817  0.667633  0.613105  1
  F  F16  1  0.325771  0.325771  0.000000  1
  F  F17  1  0.000000  0.674229  0.000000  1
  F  F18  1  0.000000  0.674229  0.500000  1
  F  F19  1  0.919062  0.459531  0.658807  1
  F  F20  1  0.333333  0.666667  0.750000  1
  F  F21  1  0.919062  0.459531  0.841193  1
  F  F22  1  0.325771  0.000000  0.000000  1
  F  F23  1  0.857862  0.142138  0.750000  1
  F  F24  1  0.080938  0.540469  0.341193  1
  F  F25  1  0.333333  0.666667  0.048894  1
  F  F26  1  0.674229  0.674229  0.500000  1
  F  F27  1  0.715724  0.857862  0.250000  1
  F  F28  1  0.284276  0.142138  0.750000  1
  F  F29  1  0.156986  0.843014  0.859816  1
  F  F30  1  0.666667  0.333333  0.951106  1
  F  F31  1  0.142138  0.284276  0.250000  1
  F  F32  1  0.000000  0.325771  0.000000  1
  F  F33  1  0.686028  0.843014  0.859816  1
  F  F34  1  0.142138  0.857862  0.250000  1
  F  F35  1  0.156986  0.843014  0.640184  1
  F  F36  1  0.000000  0.000000  0.077462  1
  F  F37  1  0.843014  0.156986  0.359816  1
  F  F38  1  0.843014  0.156986  0.140184  1
  F  F39  1  0.333333  0.666667  0.451106  1
  F  F40  1  0.540469  0.459531  0.658807  1
  F  F41  1  0.459531  0.919062  0.341193  1
  F  F42  1  0.459531  0.540469  0.341193  1
  F  F43  1  0.843014  0.686028  0.140184  1
  F  F44  1  0.540469  0.459531  0.841193  1
  F  F45  1  0.000000  0.000000  0.422538  1
  F  F46  1  0.313972  0.156986  0.140184  1
  F  F47  1  0.000000  0.000000  0.922538  1
  F  F48  1  0.459531  0.540469  0.158807  1
  F  F49  1  0.325771  0.325771  0.500000  1
  F  F50  1  0.000000  0.000000  0.577462  1
  F  F51  1  0.080938  0.540469  0.158807  1
  F  F52  1  0.156986  0.313972  0.859816  1
  F  F53  1  0.674229  0.000000  0.000000  1
  F  F54  1  0.666667  0.333333  0.548894  1
  F  F55  1  0.156986  0.313972  0.640184  1
  F  F56  1  0.540469  0.080938  0.658807  1
  F  F57  1  0.674229  0.000000  0.500000  1
  F  F58  1  0.686028  0.843014  0.640184  1
  F  F59  1  0.540469  0.080938  0.841193  1
  F  F60  1  0.325771  0.000000  0.500000  1
  F  F61  1  0.674229  0.674229  0.000000  1
  F  F62  1  0.000000  0.325771  0.500000  1
  F  F63  1  0.843014  0.686028  0.359816  1
  F  F64  1  0.666667  0.333333  0.250000  1
  F  F65  1  0.313972  0.156986  0.359816  1
  F  F66  1  0.857862  0.715724  0.750000  1
  F  F67  1  0.459531  0.919062  0.158807  1
