# generated using pymatgen
data_GaHg2SbCl4
_symmetry_space_group_name_H-M   'P 1'
_cell_length_a   8.98561744
_cell_length_b   12.50337960
_cell_length_c   18.22280174
_cell_angle_alpha   90.00000000
_cell_angle_beta   90.00000000
_cell_angle_gamma   90.00000000
_symmetry_Int_Tables_number   1
_chemical_formula_structural   GaHg2SbCl4
_chemical_formula_sum   'Ga8 Hg16 Sb8 Cl32'
_cell_volume   2047.34245027
_cell_formula_units_Z   8
loop_
 _symmetry_equiv_pos_site_id
 _symmetry_equiv_pos_as_xyz
  1  'x, y, z'
loop_
 _atom_site_type_symbol
 _atom_site_label
 _atom_site_symmetry_multiplicity
 _atom_site_fract_x
 _atom_site_fract_y
 _atom_site_fract_z
 _atom_site_occupancy
  Ga  Ga0  1  0.584509  0.891534  0.374048  1
  Ga  Ga1  1  0.415491  0.891534  0.874048  1
  Ga  Ga2  1  0.084509  0.608466  0.374048  1
  Ga  Ga3  1  0.915491  0.608466  0.874048  1
  Ga  Ga4  1  0.415491  0.108466  0.625952  1
  Ga  Ga5  1  0.915491  0.391534  0.625952  1
  Ga  Ga6  1  0.084509  0.391534  0.125952  1
  Ga  Ga7  1  0.584509  0.108466  0.125952  1
  Hg  Hg8  1  0.823395  0.262397  0.377571  1
  Hg  Hg9  1  0.036496  0.000000  0.250000  1
  Hg  Hg10  1  0.176605  0.737603  0.622429  1
  Hg  Hg11  1  0.676605  0.762397  0.622429  1
  Hg  Hg12  1  0.676605  0.237603  0.877571  1
  Hg  Hg13  1  0.176605  0.262397  0.877571  1
  Hg  Hg14  1  0.323395  0.762397  0.122429  1
  Hg  Hg15  1  0.463504  0.500000  0.750000  1
  Hg  Hg16  1  0.500000  0.500000  0.500000  1
  Hg  Hg17  1  0.536496  0.500000  0.250000  1
  Hg  Hg18  1  0.963504  0.000000  0.750000  1
  Hg  Hg19  1  0.323395  0.237603  0.377571  1
  Hg  Hg20  1  0.000000  0.000000  0.000000  1
  Hg  Hg21  1  0.823395  0.737603  0.122429  1
  Hg  Hg22  1  0.000000  0.000000  0.500000  1
  Hg  Hg23  1  0.500000  0.500000  0.000000  1
  Sb  Sb24  1  0.439400  0.378118  0.876151  1
  Sb  Sb25  1  0.939400  0.878118  0.623849  1
  Sb  Sb26  1  0.060600  0.878118  0.123849  1
  Sb  Sb27  1  0.560600  0.378118  0.376151  1
  Sb  Sb28  1  0.060600  0.121882  0.376151  1
  Sb  Sb29  1  0.939400  0.121882  0.876151  1
  Sb  Sb30  1  0.439400  0.621882  0.623849  1
  Sb  Sb31  1  0.560600  0.621882  0.123849  1
  Cl  Cl32  1  0.359554  0.919017  0.333326  1
  Cl  Cl33  1  0.089955  0.252737  0.050802  1
  Cl  Cl34  1  0.740483  0.141413  0.217061  1
  Cl  Cl35  1  0.259517  0.141413  0.717061  1
  Cl  Cl36  1  0.359554  0.080983  0.166674  1
  Cl  Cl37  1  0.910045  0.747263  0.949198  1
  Cl  Cl38  1  0.640446  0.919017  0.833326  1
  Cl  Cl39  1  0.240483  0.641413  0.282939  1
  Cl  Cl40  1  0.140446  0.580983  0.833326  1
  Cl  Cl41  1  0.859554  0.580983  0.333326  1
  Cl  Cl42  1  0.410045  0.752737  0.949198  1
  Cl  Cl43  1  0.740483  0.858587  0.282939  1
  Cl  Cl44  1  0.589955  0.752737  0.449198  1
  Cl  Cl45  1  0.859554  0.419017  0.166674  1
  Cl  Cl46  1  0.589955  0.247263  0.050802  1
  Cl  Cl47  1  0.089955  0.747263  0.449198  1
  Cl  Cl48  1  0.339956  0.035242  0.934845  1
  Cl  Cl49  1  0.660044  0.964758  0.065155  1
  Cl  Cl50  1  0.839956  0.464758  0.934845  1
  Cl  Cl51  1  0.160044  0.535242  0.065155  1
  Cl  Cl52  1  0.339956  0.964758  0.565155  1
  Cl  Cl53  1  0.140446  0.419017  0.666674  1
  Cl  Cl54  1  0.410045  0.247263  0.550802  1
  Cl  Cl55  1  0.640446  0.080983  0.666674  1
  Cl  Cl56  1  0.839956  0.535242  0.565155  1
  Cl  Cl57  1  0.759517  0.358587  0.717061  1
  Cl  Cl58  1  0.660044  0.035242  0.434845  1
  Cl  Cl59  1  0.910045  0.252737  0.550802  1
  Cl  Cl60  1  0.160044  0.464758  0.434845  1
  Cl  Cl61  1  0.759517  0.641413  0.782939  1
  Cl  Cl62  1  0.259517  0.858587  0.782939  1
  Cl  Cl63  1  0.240483  0.358587  0.217061  1
