# generated using pymatgen
data_BaCa4(CuN2)2
_symmetry_space_group_name_H-M   'P 1'
_cell_length_a   8.28299164
_cell_length_b   8.28299164
_cell_length_c   12.51500487
_cell_angle_alpha   90.00000000
_cell_angle_beta   90.00000000
_cell_angle_gamma   90.00000000
_symmetry_Int_Tables_number   1
_chemical_formula_structural   BaCa4(CuN2)2
_chemical_formula_sum   'Ba4 Ca16 Cu8 N16'
_cell_volume   858.62883473
_cell_formula_units_Z   4
loop_
 _symmetry_equiv_pos_site_id
 _symmetry_equiv_pos_as_xyz
  1  'x, y, z'
loop_
 _atom_site_type_symbol
 _atom_site_label
 _atom_site_symmetry_multiplicity
 _atom_site_fract_x
 _atom_site_fract_y
 _atom_site_fract_z
 _atom_site_occupancy
  Ba  Ba0  1  0.500000  0.000000  0.655498  1
  Ba  Ba1  1  0.000000  0.500000  0.844502  1
  Ba  Ba2  1  0.500000  0.000000  0.155498  1
  Ba  Ba3  1  0.000000  0.500000  0.344502  1
  Ca  Ca4  1  0.166841  0.880978  0.412701  1
  Ca  Ca5  1  0.880978  0.833159  0.587299  1
  Ca  Ca6  1  0.333159  0.619022  0.587299  1
  Ca  Ca7  1  0.833159  0.119022  0.412701  1
  Ca  Ca8  1  0.166841  0.119022  0.912701  1
  Ca  Ca9  1  0.333159  0.380978  0.087299  1
  Ca  Ca10  1  0.380978  0.666841  0.912701  1
  Ca  Ca11  1  0.833159  0.880978  0.912701  1
  Ca  Ca12  1  0.880978  0.166841  0.087299  1
  Ca  Ca13  1  0.619022  0.333159  0.912701  1
  Ca  Ca14  1  0.619022  0.666841  0.412701  1
  Ca  Ca15  1  0.666841  0.380978  0.587299  1
  Ca  Ca16  1  0.119022  0.166841  0.587299  1
  Ca  Ca17  1  0.380978  0.333159  0.412701  1
  Ca  Ca18  1  0.666841  0.619022  0.087299  1
  Ca  Ca19  1  0.119022  0.833159  0.087299  1
  Cu  Cu20  1  0.153036  0.153036  0.250000  1
  Cu  Cu21  1  0.653036  0.346964  0.250000  1
  Cu  Cu22  1  0.153036  0.846964  0.750000  1
  Cu  Cu23  1  0.846964  0.846964  0.250000  1
  Cu  Cu24  1  0.846964  0.153036  0.750000  1
  Cu  Cu25  1  0.653036  0.653036  0.750000  1
  Cu  Cu26  1  0.346964  0.653036  0.250000  1
  Cu  Cu27  1  0.346964  0.346964  0.750000  1
  N  N28  1  0.874403  0.180520  0.896909  1
  N  N29  1  0.319480  0.374403  0.896909  1
  N  N30  1  0.625597  0.680520  0.603091  1
  N  N31  1  0.180520  0.125597  0.103091  1
  N  N32  1  0.319480  0.625597  0.396909  1
  N  N33  1  0.180520  0.874403  0.603091  1
  N  N34  1  0.680520  0.625597  0.896909  1
  N  N35  1  0.819480  0.125597  0.603091  1
  N  N36  1  0.819480  0.874403  0.103091  1
  N  N37  1  0.125597  0.180520  0.396909  1
  N  N38  1  0.874403  0.819480  0.396909  1
  N  N39  1  0.680520  0.374403  0.396909  1
  N  N40  1  0.625597  0.319480  0.103091  1
  N  N41  1  0.125597  0.819480  0.896909  1
  N  N42  1  0.374403  0.319480  0.603091  1
  N  N43  1  0.374403  0.680520  0.103091  1
