# generated using pymatgen
data_Ge3Pb5O11
_symmetry_space_group_name_H-M   'P 1'
_cell_length_a   10.41003166
_cell_length_b   10.41003166
_cell_length_c   10.86378817
_cell_angle_alpha   90.00000000
_cell_angle_beta   90.00000000
_cell_angle_gamma   120.00000000
_symmetry_Int_Tables_number   1
_chemical_formula_structural   Ge3Pb5O11
_chemical_formula_sum   'Ge9 Pb15 O33'
_cell_volume   1019.56758968
_cell_formula_units_Z   3
loop_
 _symmetry_equiv_pos_site_id
 _symmetry_equiv_pos_as_xyz
  1  'x, y, z'
loop_
 _atom_site_type_symbol
 _atom_site_label
 _atom_site_symmetry_multiplicity
 _atom_site_fract_x
 _atom_site_fract_y
 _atom_site_fract_z
 _atom_site_occupancy
  Ge  Ge0  1  0.984820  0.376211  0.152126  1
  Ge  Ge1  1  0.623789  0.608609  0.847874  1
  Ge  Ge2  1  0.382177  0.389467  0.500000  1
  Ge  Ge3  1  0.391391  0.015180  0.152126  1
  Ge  Ge4  1  0.391391  0.015180  0.847874  1
  Ge  Ge5  1  0.623789  0.608609  0.152126  1
  Ge  Ge6  1  0.984820  0.376211  0.847874  1
  Ge  Ge7  1  0.610533  0.992710  0.500000  1
  Ge  Ge8  1  0.007290  0.617823  0.500000  1
  Pb  Pb9  1  0.256161  0.996040  0.500000  1
  Pb  Pb10  1  0.333333  0.666667  0.675743  1
  Pb  Pb11  1  0.734504  0.000536  0.183667  1
  Pb  Pb12  1  0.266032  0.265496  0.816333  1
  Pb  Pb13  1  0.666667  0.333333  0.338649  1
  Pb  Pb14  1  0.666667  0.333333  0.661351  1
  Pb  Pb15  1  0.739879  0.743839  0.500000  1
  Pb  Pb16  1  0.003960  0.260121  0.500000  1
  Pb  Pb17  1  0.333333  0.666667  0.324257  1
  Pb  Pb18  1  0.266032  0.265496  0.183667  1
  Pb  Pb19  1  0.734504  0.000536  0.816333  1
  Pb  Pb20  1  0.333333  0.666667  0.000000  1
  Pb  Pb21  1  0.666667  0.333333  0.000000  1
  Pb  Pb22  1  0.999464  0.733968  0.816333  1
  Pb  Pb23  1  0.999464  0.733968  0.183667  1
  O  O24  1  0.888730  0.478365  0.838038  1
  O  O25  1  0.481077  0.291353  0.500000  1
  O  O26  1  0.318509  0.087153  0.738455  1
  O  O27  1  0.309223  0.822088  0.163863  1
  O  O28  1  0.084544  0.743931  0.625404  1
  O  O29  1  0.912847  0.231356  0.261545  1
  O  O30  1  0.768644  0.681491  0.261545  1
  O  O31  1  0.177912  0.487135  0.163863  1
  O  O32  1  0.589635  0.111270  0.161962  1
  O  O33  1  0.512865  0.690777  0.163863  1
  O  O34  1  0.768644  0.681491  0.738455  1
  O  O35  1  0.318509  0.087153  0.261545  1
  O  O36  1  0.177912  0.487135  0.836137  1
  O  O37  1  0.713517  0.644633  0.000000  1
  O  O38  1  0.512865  0.690777  0.836137  1
  O  O39  1  0.521635  0.410365  0.838038  1
  O  O40  1  0.256069  0.340612  0.625404  1
  O  O41  1  0.659388  0.915456  0.374596  1
  O  O42  1  0.256069  0.340612  0.374596  1
  O  O43  1  0.496773  0.585479  0.500000  1
  O  O44  1  0.912847  0.231356  0.738455  1
  O  O45  1  0.589635  0.111270  0.838038  1
  O  O46  1  0.931116  0.286483  0.000000  1
  O  O47  1  0.414521  0.911294  0.500000  1
  O  O48  1  0.708647  0.189724  0.500000  1
  O  O49  1  0.088706  0.503227  0.500000  1
  O  O50  1  0.084544  0.743931  0.374596  1
  O  O51  1  0.521635  0.410365  0.161962  1
  O  O52  1  0.888730  0.478365  0.161962  1
  O  O53  1  0.659388  0.915456  0.625404  1
  O  O54  1  0.309223  0.822088  0.836137  1
  O  O55  1  0.355367  0.068884  0.000000  1
  O  O56  1  0.810276  0.518923  0.500000  1
