# generated using pymatgen
data_Ga2Pt
_symmetry_space_group_name_H-M   'P 1'
_cell_length_a   12.70596075
_cell_length_b   12.70596075
_cell_length_c   12.70596075
_cell_angle_alpha   140.23751994
_cell_angle_beta   140.23751994
_cell_angle_gamma   57.49283553
_symmetry_Int_Tables_number   1
_chemical_formula_structural   Ga2Pt
_chemical_formula_sum   'Ga32 Pt16'
_cell_volume   831.96021358
_cell_formula_units_Z   16
loop_
 _symmetry_equiv_pos_site_id
 _symmetry_equiv_pos_as_xyz
  1  'x, y, z'
loop_
 _atom_site_type_symbol
 _atom_site_label
 _atom_site_symmetry_multiplicity
 _atom_site_fract_x
 _atom_site_fract_y
 _atom_site_fract_z
 _atom_site_occupancy
  Ga  Ga0  1  0.165494  0.978765  0.269863  1
  Ga  Ga1  1  0.541098  0.771235  0.686729  1
  Ga  Ga2  1  0.394907  0.208690  0.729419  1
  Ga  Ga3  1  0.645631  0.415494  0.686729  1
  Ga  Ga4  1  0.355093  0.041310  0.770581  1
  Ga  Ga5  1  0.208902  0.478765  0.813271  1
  Ga  Ga6  1  0.791310  0.520729  0.186216  1
  Ga  Ga7  1  0.979271  0.708690  0.813784  1
  Ga  Ga8  1  0.479271  0.665487  0.270581  1
  Ga  Ga9  1  0.145631  0.458902  0.230137  1
  Ga  Ga10  1  0.728765  0.958902  0.313271  1
  Ga  Ga11  1  0.855093  0.084513  0.313784  1
  Ga  Ga12  1  0.770729  0.541310  0.686216  1
  Ga  Ga13  1  0.958690  0.729271  0.313784  1
  Ga  Ga14  1  0.708902  0.895631  0.730137  1
  Ga  Ga15  1  0.270729  0.584513  0.229419  1
  Ga  Ga16  1  0.415487  0.644907  0.686216  1
  Ga  Ga17  1  0.021235  0.291098  0.186729  1
  Ga  Ga18  1  0.291310  0.105093  0.270581  1
  Ga  Ga19  1  0.521235  0.334506  0.730137  1
  Ga  Ga20  1  0.894907  0.165487  0.186216  1
  Ga  Ga21  1  0.084506  0.854369  0.313271  1
  Ga  Ga22  1  0.104369  0.834506  0.813271  1
  Ga  Ga23  1  0.604369  0.791098  0.269863  1
  Ga  Ga24  1  0.041098  0.354369  0.769863  1
  Ga  Ga25  1  0.834513  0.020729  0.729419  1
  Ga  Ga26  1  0.458690  0.144907  0.229419  1
  Ga  Ga27  1  0.665494  0.395631  0.186729  1
  Ga  Ga28  1  0.228765  0.915494  0.769863  1
  Ga  Ga29  1  0.584506  0.271235  0.230137  1
  Ga  Ga30  1  0.334513  0.605093  0.813784  1
  Ga  Ga31  1  0.915487  0.229271  0.770581  1
  Pt  Pt32  1  0.140060  0.140060  0.000000  1
  Pt  Pt33  1  0.359940  0.359940  0.000000  1
  Pt  Pt34  1  0.801621  0.698379  0.500000  1
  Pt  Pt35  1  0.198379  0.301621  0.500000  1
  Pt  Pt36  1  0.051621  0.051621  0.603242  1
  Pt  Pt37  1  0.890060  0.390060  0.500000  1
  Pt  Pt38  1  0.390060  0.890060  0.500000  1
  Pt  Pt39  1  0.609940  0.109940  0.500000  1
  Pt  Pt40  1  0.640060  0.640060  0.000000  1
  Pt  Pt41  1  0.948379  0.551621  1.000000  1
  Pt  Pt42  1  0.698379  0.198379  0.896758  1
  Pt  Pt43  1  0.859940  0.859940  0.000000  1
  Pt  Pt44  1  0.448379  0.448379  0.396758  1
  Pt  Pt45  1  0.551621  0.948379  0.000000  1
  Pt  Pt46  1  0.109940  0.609940  0.500000  1
  Pt  Pt47  1  0.301621  0.801621  0.103242  1
