# generated using pymatgen
data_Mg3Ir
_symmetry_space_group_name_H-M   'P 1'
_cell_length_a   7.92563551
_cell_length_b   7.92563551
_cell_length_c   8.25584672
_cell_angle_alpha   90.00000000
_cell_angle_beta   90.00000000
_cell_angle_gamma   120.00000000
_symmetry_Int_Tables_number   1
_chemical_formula_structural   Mg3Ir
_chemical_formula_sum   'Mg18 Ir6'
_cell_volume   449.11798261
_cell_formula_units_Z   6
loop_
 _symmetry_equiv_pos_site_id
 _symmetry_equiv_pos_as_xyz
  1  'x, y, z'
loop_
 _atom_site_type_symbol
 _atom_site_label
 _atom_site_symmetry_multiplicity
 _atom_site_fract_x
 _atom_site_fract_y
 _atom_site_fract_z
 _atom_site_occupancy
  Mg  Mg0  1  0.371171  0.000000  0.912060  1
  Mg  Mg1  1  0.333333  0.666667  0.696404  1
  Mg  Mg2  1  0.000000  0.000000  0.805300  1
  Mg  Mg3  1  0.000000  0.371171  0.912060  1
  Mg  Mg4  1  0.666667  0.333333  0.196404  1
  Mg  Mg5  1  0.713929  0.000000  0.071344  1
  Mg  Mg6  1  0.628829  0.628829  0.912060  1
  Mg  Mg7  1  0.333333  0.666667  0.196404  1
  Mg  Mg8  1  0.371171  0.371171  0.412060  1
  Mg  Mg9  1  0.286071  0.000000  0.571344  1
  Mg  Mg10  1  0.628829  0.000000  0.412060  1
  Mg  Mg11  1  0.286071  0.286071  0.071344  1
  Mg  Mg12  1  0.000000  0.713929  0.071344  1
  Mg  Mg13  1  0.000000  0.286071  0.571344  1
  Mg  Mg14  1  0.713929  0.713929  0.571344  1
  Mg  Mg15  1  0.000000  0.628829  0.412060  1
  Mg  Mg16  1  0.000000  0.000000  0.305300  1
  Mg  Mg17  1  0.666667  0.333333  0.696404  1
  Ir  Ir18  1  0.328370  0.328370  0.741527  1
  Ir  Ir19  1  0.671630  0.671630  0.241527  1
  Ir  Ir20  1  0.328370  0.000000  0.241527  1
  Ir  Ir21  1  0.671630  0.000000  0.741527  1
  Ir  Ir22  1  0.000000  0.671630  0.741527  1
  Ir  Ir23  1  0.000000  0.328370  0.241527  1
