# generated using pymatgen
data_SrSi
_symmetry_space_group_name_H-M   'P 1'
_cell_length_a   11.35666575
_cell_length_b   11.35666575
_cell_length_c   11.35666575
_cell_angle_alpha   155.50172858
_cell_angle_beta   110.37746285
_cell_angle_gamma   75.03807340
_symmetry_Int_Tables_number   1
_chemical_formula_structural   SrSi
_chemical_formula_sum   'Sr10 Si10'
_cell_volume   562.83227018
_cell_formula_units_Z   10
loop_
 _symmetry_equiv_pos_site_id
 _symmetry_equiv_pos_as_xyz
  1  'x, y, z'
loop_
 _atom_site_type_symbol
 _atom_site_label
 _atom_site_symmetry_multiplicity
 _atom_site_fract_x
 _atom_site_fract_y
 _atom_site_fract_z
 _atom_site_occupancy
  Sr  Sr0  1  0.022556  0.188298  0.834258  1
  Sr  Sr1  1  0.645961  0.811702  0.834258  1
  Sr  Sr2  1  0.977444  0.811702  0.165742  1
  Sr  Sr3  1  0.708650  0.000000  0.708650  1
  Sr  Sr4  1  0.354039  0.188298  0.165742  1
  Sr  Sr5  1  0.000000  0.000000  0.000000  1
  Sr  Sr6  1  0.668953  0.168953  0.500000  1
  Sr  Sr7  1  0.291350  0.000000  0.291350  1
  Sr  Sr8  1  0.500000  0.500000  0.000000  1
  Sr  Sr9  1  0.331047  0.831047  0.500000  1
  Si  Si10  1  0.808827  0.628901  0.179926  1
  Si  Si11  1  0.086868  0.431927  0.654941  1
  Si  Si12  1  0.776985  0.431927  0.345059  1
  Si  Si13  1  0.858009  0.358009  0.500000  1
  Si  Si14  1  0.551026  0.371099  0.179926  1
  Si  Si15  1  0.223015  0.568073  0.654941  1
  Si  Si16  1  0.448974  0.628901  0.820074  1
  Si  Si17  1  0.191173  0.371099  0.820074  1
  Si  Si18  1  0.141991  0.641991  0.500000  1
  Si  Si19  1  0.913132  0.568073  0.345059  1
