# generated using pymatgen
data_Cr2(PO4)3
_symmetry_space_group_name_H-M   'P 1'
_cell_length_a   8.79415989
_cell_length_b   8.79415989
_cell_length_c   8.79415989
_cell_angle_alpha   57.12694546
_cell_angle_beta   57.12694546
_cell_angle_gamma   57.12694546
_symmetry_Int_Tables_number   1
_chemical_formula_structural   Cr2(PO4)3
_chemical_formula_sum   'Cr4 P6 O24'
_cell_volume   449.07614512
_cell_formula_units_Z   2
loop_
 _symmetry_equiv_pos_site_id
 _symmetry_equiv_pos_as_xyz
  1  'x, y, z'
loop_
 _atom_site_type_symbol
 _atom_site_label
 _atom_site_symmetry_multiplicity
 _atom_site_fract_x
 _atom_site_fract_y
 _atom_site_fract_z
 _atom_site_occupancy
  Cr  Cr0  1  0.141371  0.141371  0.141371  1
  Cr  Cr1  1  0.355697  0.355697  0.355697  1
  Cr  Cr2  1  0.644303  0.644303  0.644303  1
  Cr  Cr3  1  0.858629  0.858629  0.858629  1
  P  P4  1  0.969393  0.248082  0.534169  1
  P  P5  1  0.534169  0.969393  0.248082  1
  P  P6  1  0.465831  0.030607  0.751918  1
  P  P7  1  0.030607  0.751918  0.465831  1
  P  P8  1  0.248082  0.534169  0.969393  1
  P  P9  1  0.751918  0.465831  0.030607  1
  O  O10  1  0.731721  0.903696  0.096358  1
  O  O11  1  0.234450  0.513292  0.161587  1
  O  O12  1  0.513292  0.161587  0.234450  1
  O  O13  1  0.161587  0.234450  0.513292  1
  O  O14  1  0.765550  0.486708  0.838413  1
  O  O15  1  0.486708  0.838413  0.765550  1
  O  O16  1  0.838413  0.765550  0.486708  1
  O  O17  1  0.450129  0.525691  0.812365  1
  O  O18  1  0.096358  0.731721  0.903696  1
  O  O19  1  0.202788  0.373412  0.995899  1
  O  O20  1  0.903696  0.096358  0.731721  1
  O  O21  1  0.812365  0.450129  0.525691  1
  O  O22  1  0.525691  0.812365  0.450129  1
  O  O23  1  0.626588  0.004101  0.797212  1
  O  O24  1  0.903642  0.268279  0.096304  1
  O  O25  1  0.004101  0.797212  0.626588  1
  O  O26  1  0.995899  0.202788  0.373412  1
  O  O27  1  0.549871  0.474309  0.187635  1
  O  O28  1  0.373412  0.995899  0.202788  1
  O  O29  1  0.474309  0.187635  0.549871  1
  O  O30  1  0.187635  0.549871  0.474309  1
  O  O31  1  0.096304  0.903642  0.268279  1
  O  O32  1  0.797212  0.626588  0.004101  1
  O  O33  1  0.268279  0.096304  0.903642  1
