# generated using pymatgen
data_BrN(OF2)2
_symmetry_space_group_name_H-M   'P 1'
_cell_length_a   5.90705731
_cell_length_b   5.92798166
_cell_length_c   14.22465258
_cell_angle_alpha   90.00000000
_cell_angle_beta   90.00000000
_cell_angle_gamma   90.00000000
_symmetry_Int_Tables_number   1
_chemical_formula_structural   BrN(OF2)2
_chemical_formula_sum   'Br4 N4 O8 F16'
_cell_volume   498.10362666
_cell_formula_units_Z   4
loop_
 _symmetry_equiv_pos_site_id
 _symmetry_equiv_pos_as_xyz
  1  'x, y, z'
loop_
 _atom_site_type_symbol
 _atom_site_label
 _atom_site_symmetry_multiplicity
 _atom_site_fract_x
 _atom_site_fract_y
 _atom_site_fract_z
 _atom_site_occupancy
  Br  Br0  1  0.750000  0.332131  0.353617  1
  Br  Br1  1  0.250000  0.167869  0.853617  1
  Br  Br2  1  0.750000  0.832131  0.146383  1
  Br  Br3  1  0.250000  0.667869  0.646383  1
  N  N4  1  0.750000  0.559978  0.849496  1
  N  N5  1  0.750000  0.059978  0.650504  1
  N  N6  1  0.250000  0.940022  0.349496  1
  N  N7  1  0.250000  0.440022  0.150504  1
  O  O8  1  0.750000  0.546855  0.422006  1
  O  O9  1  0.250000  0.273290  0.115361  1
  O  O10  1  0.750000  0.726710  0.884639  1
  O  O11  1  0.250000  0.953145  0.922006  1
  O  O12  1  0.250000  0.773290  0.384639  1
  O  O13  1  0.750000  0.226710  0.615361  1
  O  O14  1  0.750000  0.046855  0.077994  1
  O  O15  1  0.250000  0.453145  0.577994  1
  F  F16  1  0.517340  0.459476  0.269282  1
  F  F17  1  0.976882  0.168102  0.423500  1
  F  F18  1  0.476882  0.831898  0.576500  1
  F  F19  1  0.523118  0.668102  0.076500  1
  F  F20  1  0.476882  0.331898  0.923500  1
  F  F21  1  0.982660  0.459476  0.269282  1
  F  F22  1  0.017340  0.540524  0.730718  1
  F  F23  1  0.517340  0.959476  0.230718  1
  F  F24  1  0.976882  0.668102  0.076500  1
  F  F25  1  0.982660  0.959476  0.230718  1
  F  F26  1  0.017340  0.040524  0.769282  1
  F  F27  1  0.023118  0.831898  0.576500  1
  F  F28  1  0.023118  0.331898  0.923500  1
  F  F29  1  0.523118  0.168102  0.423500  1
  F  F30  1  0.482660  0.540524  0.730718  1
  F  F31  1  0.482660  0.040524  0.769282  1
