# generated using pymatgen
data_Ba4Na2CaTi3Si4(SO13)2
_symmetry_space_group_name_H-M   'P 1'
_cell_length_a   5.49723436
_cell_length_b   7.21002451
_cell_length_c   15.00263054
_cell_angle_alpha   98.82547303
_cell_angle_beta   94.76206629
_cell_angle_gamma   89.97888961
_symmetry_Int_Tables_number   1
_chemical_formula_structural   Ba4Na2CaTi3Si4(SO13)2
_chemical_formula_sum   'Ba4 Na2 Ca1 Ti3 Si4 S2 O26'
_cell_volume   585.51736018
_cell_formula_units_Z   1
loop_
 _symmetry_equiv_pos_site_id
 _symmetry_equiv_pos_as_xyz
  1  'x, y, z'
loop_
 _atom_site_type_symbol
 _atom_site_label
 _atom_site_symmetry_multiplicity
 _atom_site_fract_x
 _atom_site_fract_y
 _atom_site_fract_z
 _atom_site_occupancy
  Ba  Ba0  1  0.416179  0.169468  0.617473  1
  Ba  Ba1  1  0.932294  0.706787  0.704955  1
  Ba  Ba2  1  0.002606  0.994401  0.018150  1
  Ba  Ba3  1  0.482479  0.457452  0.930402  1
  Na  Na4  1  0.709112  0.578522  0.318152  1
  Na  Na5  1  0.208217  0.315742  0.318086  1
  Ca  Ca6  1  0.210605  0.857425  0.317630  1
  Ti  Ti7  1  0.391082  0.644048  0.519268  1
  Ti  Ti8  1  0.710249  0.095316  0.318299  1
  Ti  Ti9  1  0.026790  0.520378  0.116318  1
  Si  Si10  1  0.531292  0.804346  0.126613  1
  Si  Si11  1  0.887308  0.358320  0.508241  1
  Si  Si12  1  0.531298  0.240441  0.129394  1
  Si  Si13  1  0.887465  0.923059  0.507355  1
  S  S14  1  0.950076  0.283228  0.793447  1
  S  S15  1  0.461404  0.881311  0.841305  1
  O  O16  1  0.900309  0.153719  0.549091  1
  O  O17  1  0.936710  0.083555  0.753609  1
  O  O18  1  0.468425  0.081652  0.880003  1
  O  O19  1  0.143865  0.467302  0.553949  1
  O  O20  1  0.048808  0.562321  0.230656  1
  O  O21  1  0.763820  0.695424  0.078901  1
  O  O22  1  0.275175  0.321504  0.084451  1
  O  O23  1  0.144472  0.843162  0.553020  1
  O  O24  1  0.655992  0.841534  0.553955  1
  O  O25  1  0.869962  0.323717  0.399100  1
  O  O26  1  0.974034  0.309932  0.894960  1
  O  O27  1  0.722989  0.380784  0.763210  1
  O  O28  1  0.763807  0.321778  0.083268  1
  O  O29  1  0.247694  0.786018  0.872451  1
  O  O30  1  0.452639  0.093995  0.390325  1
  O  O31  1  0.873449  0.889420  0.398610  1
  O  O32  1  0.690357  0.787761  0.872579  1
  O  O33  1  0.438248  0.852355  0.739782  1
  O  O34  1  0.368325  0.612374  0.404910  1
  O  O35  1  0.549326  0.273016  0.238451  1
  O  O36  1  0.273290  0.696481  0.080150  1
  O  O37  1  0.967717  0.049975  0.246095  1
  O  O38  1  0.545936  0.837307  0.235423  1
  O  O39  1  0.165371  0.376342  0.762345  1
  O  O40  1  0.653073  0.466872  0.554783  1
  O  O41  1  0.518550  0.010354  0.086730  1
