# generated using pymatgen
data_CsSb2F7
_symmetry_space_group_name_H-M   'P 1'
_cell_length_a   10.98849547
_cell_length_b   10.98849547
_cell_length_c   6.32322726
_cell_angle_alpha   86.22926293
_cell_angle_beta   93.77073707
_cell_angle_gamma   145.07796439
_symmetry_Int_Tables_number   1
_chemical_formula_structural   CsSb2F7
_chemical_formula_sum   'Cs2 Sb4 F14'
_cell_volume   436.04049746
_cell_formula_units_Z   2
loop_
 _symmetry_equiv_pos_site_id
 _symmetry_equiv_pos_as_xyz
  1  'x, y, z'
loop_
 _atom_site_type_symbol
 _atom_site_label
 _atom_site_symmetry_multiplicity
 _atom_site_fract_x
 _atom_site_fract_y
 _atom_site_fract_z
 _atom_site_occupancy
  Cs  Cs0  1  0.731688  0.731688  0.750000  1
  Cs  Cs1  1  0.268312  0.268312  0.250000  1
  Sb  Sb2  1  0.907597  0.586682  0.287981  1
  Sb  Sb3  1  0.413318  0.092403  0.787981  1
  Sb  Sb4  1  0.092403  0.413318  0.712019  1
  Sb  Sb5  1  0.586682  0.907597  0.212019  1
  F  F6  1  0.769564  0.024411  0.970031  1
  F  F7  1  0.328058  0.634952  0.067250  1
  F  F8  1  0.230436  0.975589  0.029969  1
  F  F9  1  0.227658  0.360241  0.793108  1
  F  F10  1  0.772342  0.639759  0.206892  1
  F  F11  1  0.634952  0.328058  0.432750  1
  F  F12  1  0.024411  0.769564  0.529969  1
  F  F13  1  0.360241  0.227658  0.706892  1
  F  F14  1  0.365048  0.671942  0.567250  1
  F  F15  1  1.000000  0.500000  0.500000  1
  F  F16  1  0.639759  0.772342  0.293108  1
  F  F17  1  0.975589  0.230436  0.470031  1
  F  F18  1  0.500000  0.000000  0.000000  1
  F  F19  1  0.671942  0.365048  0.932750  1
