# generated using pymatgen
data_Bi5IO7
_symmetry_space_group_name_H-M   'P 1'
_cell_length_a   9.70577965
_cell_length_b   9.70577965
_cell_length_c   13.49334174
_cell_angle_alpha   73.87958902
_cell_angle_beta   106.12041098
_cell_angle_gamma   154.62064716
_symmetry_Int_Tables_number   1
_chemical_formula_structural   Bi5IO7
_chemical_formula_sum   'Bi10 I2 O14'
_cell_volume   522.27531749
_cell_formula_units_Z   2
loop_
 _symmetry_equiv_pos_site_id
 _symmetry_equiv_pos_as_xyz
  1  'x, y, z'
loop_
 _atom_site_type_symbol
 _atom_site_label
 _atom_site_symmetry_multiplicity
 _atom_site_fract_x
 _atom_site_fract_y
 _atom_site_fract_z
 _atom_site_occupancy
  Bi  Bi0  1  0.794843  0.205157  0.630252  1
  Bi  Bi1  1  0.205157  0.794843  0.369748  1
  Bi  Bi2  1  0.394962  0.605038  0.870203  1
  Bi  Bi3  1  0.605038  0.394962  0.129797  1
  Bi  Bi4  1  0.468801  0.531199  0.634967  1
  Bi  Bi5  1  0.531199  0.468801  0.365033  1
  Bi  Bi6  1  0.122825  0.877175  0.589252  1
  Bi  Bi7  1  0.877175  0.122825  0.410748  1
  Bi  Bi8  1  0.739148  0.260852  0.864789  1
  Bi  Bi9  1  0.260852  0.739148  0.135211  1
  I  I10  1  0.928924  0.071076  0.128773  1
  I  I11  1  0.071076  0.928924  0.871227  1
  O  O12  1  0.150436  0.849564  0.168242  1
  O  O13  1  0.849564  0.150436  0.831758  1
  O  O14  1  0.626510  0.373490  0.298872  1
  O  O15  1  0.373490  0.626510  0.701128  1
  O  O16  1  0.284363  0.715637  0.884834  1
  O  O17  1  0.715637  0.284363  0.115166  1
  O  O18  1  0.929579  0.070421  0.586992  1
  O  O19  1  0.070421  0.929579  0.413008  1
  O  O20  1  0.227787  0.772213  0.558921  1
  O  O21  1  0.772213  0.227787  0.441079  1
  O  O22  1  0.301630  0.698370  0.297928  1
  O  O23  1  0.698370  0.301630  0.702072  1
  O  O24  1  0.415191  0.584809  0.471393  1
  O  O25  1  0.584809  0.415191  0.528607  1
