# generated using pymatgen
data_CsNdHgSe3
_symmetry_space_group_name_H-M   'P 1'
_cell_length_a   8.47573653
_cell_length_b   8.47573653
_cell_length_c   11.41265541
_cell_angle_alpha   90.00000000
_cell_angle_beta   90.00000000
_cell_angle_gamma   149.84600844
_symmetry_Int_Tables_number   1
_chemical_formula_structural   CsNdHgSe3
_chemical_formula_sum   'Cs2 Nd2 Hg2 Se6'
_cell_volume   411.83861195
_cell_formula_units_Z   2
loop_
 _symmetry_equiv_pos_site_id
 _symmetry_equiv_pos_as_xyz
  1  'x, y, z'
loop_
 _atom_site_type_symbol
 _atom_site_label
 _atom_site_symmetry_multiplicity
 _atom_site_fract_x
 _atom_site_fract_y
 _atom_site_fract_z
 _atom_site_occupancy
  Cs  Cs0  1  0.743643  0.256357  0.250000  1
  Cs  Cs1  1  0.256357  0.743643  0.750000  1
  Nd  Nd2  1  0.000000  0.000000  0.000000  1
  Nd  Nd3  1  0.000000  0.000000  0.500000  1
  Hg  Hg4  1  0.543931  0.456069  0.750000  1
  Hg  Hg5  1  0.456069  0.543931  0.250000  1
  Se  Se6  1  0.378645  0.621355  0.452921  1
  Se  Se7  1  0.061265  0.938735  0.250000  1
  Se  Se8  1  0.938735  0.061265  0.750000  1
  Se  Se9  1  0.621355  0.378645  0.547079  1
  Se  Se10  1  0.378645  0.621355  0.047079  1
  Se  Se11  1  0.621355  0.378645  0.952921  1
