# generated using pymatgen
data_ReI3
_symmetry_space_group_name_H-M   'P 1'
_cell_length_a   9.42453686
_cell_length_b   11.45528693
_cell_length_c   9.87676279
_cell_angle_alpha   90.00000000
_cell_angle_beta   111.06447948
_cell_angle_gamma   90.00000000
_symmetry_Int_Tables_number   1
_chemical_formula_structural   ReI3
_chemical_formula_sum   'Re6 I18'
_cell_volume   995.04889622
_cell_formula_units_Z   6
loop_
 _symmetry_equiv_pos_site_id
 _symmetry_equiv_pos_as_xyz
  1  'x, y, z'
loop_
 _atom_site_type_symbol
 _atom_site_label
 _atom_site_symmetry_multiplicity
 _atom_site_fract_x
 _atom_site_fract_y
 _atom_site_fract_z
 _atom_site_occupancy
  Re  Re0  1  0.171114  0.750000  0.354299  1
  Re  Re1  1  0.163813  0.859761  0.137064  1
  Re  Re2  1  0.836187  0.359761  0.862936  1
  Re  Re3  1  0.836187  0.140239  0.862936  1
  Re  Re4  1  0.163813  0.640239  0.137064  1
  Re  Re5  1  0.828886  0.250000  0.645701  1
  I  I6  1  0.545722  0.408544  0.807852  1
  I  I7  1  0.144415  0.410827  0.983035  1
  I  I8  1  0.093446  0.250000  0.612038  1
  I  I9  1  0.171780  0.991298  0.375199  1
  I  I10  1  0.553314  0.250000  0.457258  1
  I  I11  1  0.855585  0.589173  0.016965  1
  I  I12  1  0.144255  0.750000  0.881946  1
  I  I13  1  0.828220  0.008702  0.624801  1
  I  I14  1  0.855745  0.250000  0.118054  1
  I  I15  1  0.446686  0.750000  0.542742  1
  I  I16  1  0.828220  0.491298  0.624801  1
  I  I17  1  0.454278  0.591456  0.192148  1
  I  I18  1  0.545722  0.091456  0.807852  1
  I  I19  1  0.144415  0.089173  0.983035  1
  I  I20  1  0.855585  0.910827  0.016965  1
  I  I21  1  0.171780  0.508702  0.375199  1
  I  I22  1  0.454278  0.908544  0.192148  1
  I  I23  1  0.906554  0.750000  0.387962  1
