# generated using pymatgen
data_ThTl
_symmetry_space_group_name_H-M   'P 1'
_cell_length_a   6.58365035
_cell_length_b   10.02366918
_cell_length_c   10.95824624
_cell_angle_alpha   90.00000000
_cell_angle_beta   90.00000000
_cell_angle_gamma   90.00000000
_symmetry_Int_Tables_number   1
_chemical_formula_structural   ThTl
_chemical_formula_sum   'Th12 Tl12'
_cell_volume   723.16023612
_cell_formula_units_Z   12
loop_
 _symmetry_equiv_pos_site_id
 _symmetry_equiv_pos_as_xyz
  1  'x, y, z'
loop_
 _atom_site_type_symbol
 _atom_site_label
 _atom_site_symmetry_multiplicity
 _atom_site_fract_x
 _atom_site_fract_y
 _atom_site_fract_z
 _atom_site_occupancy
  Th  Th0  1  0.000000  0.750000  0.609341  1
  Th  Th1  1  0.500000  0.250000  0.390659  1
  Th  Th2  1  0.000000  0.250000  0.390659  1
  Th  Th3  1  0.500000  0.750000  0.609341  1
  Th  Th4  1  0.750000  0.630697  0.314996  1
  Th  Th5  1  0.250000  0.369303  0.685004  1
  Th  Th6  1  0.750000  0.130697  0.685004  1
  Th  Th7  1  0.250000  0.869303  0.314996  1
  Th  Th8  1  0.750000  0.535499  0.885239  1
  Th  Th9  1  0.250000  0.464501  0.114761  1
  Th  Th10  1  0.750000  0.035499  0.114761  1
  Th  Th11  1  0.250000  0.964501  0.885239  1
  Tl  Tl12  1  0.000000  0.750000  0.077554  1
  Tl  Tl13  1  0.500000  0.250000  0.922446  1
  Tl  Tl14  1  0.000000  0.250000  0.922446  1
  Tl  Tl15  1  0.500000  0.750000  0.077554  1
  Tl  Tl16  1  0.750000  0.949400  0.406685  1
  Tl  Tl17  1  0.250000  0.050600  0.593315  1
  Tl  Tl18  1  0.750000  0.449400  0.593315  1
  Tl  Tl19  1  0.250000  0.550600  0.406685  1
  Tl  Tl20  1  0.750000  0.872307  0.851377  1
  Tl  Tl21  1  0.250000  0.127693  0.148623  1
  Tl  Tl22  1  0.750000  0.372307  0.148623  1
  Tl  Tl23  1  0.250000  0.627693  0.851377  1
