# generated using pymatgen
data_K3P5RuSe10
_symmetry_space_group_name_H-M   'P 1'
_cell_length_a   11.37741535
_cell_length_b   7.42463746
_cell_length_c   12.68372639
_cell_angle_alpha   90.00000000
_cell_angle_beta   93.08430309
_cell_angle_gamma   90.00000000
_symmetry_Int_Tables_number   1
_chemical_formula_structural   K3P5RuSe10
_chemical_formula_sum   'K6 P10 Ru2 Se20'
_cell_volume   1069.88272714
_cell_formula_units_Z   2
loop_
 _symmetry_equiv_pos_site_id
 _symmetry_equiv_pos_as_xyz
  1  'x, y, z'
loop_
 _atom_site_type_symbol
 _atom_site_label
 _atom_site_symmetry_multiplicity
 _atom_site_fract_x
 _atom_site_fract_y
 _atom_site_fract_z
 _atom_site_occupancy
  K  K0  1  0.987091  0.250000  0.392186  1
  K  K1  1  0.012909  0.750000  0.607814  1
  K  K2  1  0.098153  0.250000  0.931129  1
  K  K3  1  0.472700  0.250000  0.387775  1
  K  K4  1  0.901847  0.750000  0.068871  1
  K  K5  1  0.527300  0.750000  0.612225  1
  P  P6  1  0.276088  0.750000  0.408644  1
  P  P7  1  0.476128  0.520116  0.083676  1
  P  P8  1  0.523872  0.479884  0.916324  1
  P  P9  1  0.864045  0.250000  0.726104  1
  P  P10  1  0.723912  0.250000  0.591356  1
  P  P11  1  0.135955  0.750000  0.273896  1
  P  P12  1  0.722668  0.250000  0.057691  1
  P  P13  1  0.476128  0.979884  0.083676  1
  P  P14  1  0.523872  0.020116  0.916324  1
  P  P15  1  0.277332  0.750000  0.942309  1
  Ru  Ru16  1  0.649907  0.250000  0.885018  1
  Ru  Ru17  1  0.350093  0.750000  0.114982  1
  Se  Se18  1  0.906073  0.250000  0.118732  1
  Se  Se19  1  0.962273  0.750000  0.333069  1
  Se  Se20  1  0.379011  0.250000  0.120939  1
  Se  Se21  1  0.257774  0.995481  0.499622  1
  Se  Se22  1  0.813359  0.475865  0.831282  1
  Se  Se23  1  0.659119  0.490135  0.161577  1
  Se  Se24  1  0.659119  0.009865  0.161577  1
  Se  Se25  1  0.257774  0.504519  0.499622  1
  Se  Se26  1  0.037727  0.250000  0.666931  1
  Se  Se27  1  0.340881  0.509865  0.838423  1
  Se  Se28  1  0.620989  0.750000  0.879061  1
  Se  Se29  1  0.186641  0.524135  0.168718  1
  Se  Se30  1  0.561731  0.250000  0.687795  1
  Se  Se31  1  0.186641  0.975865  0.168718  1
  Se  Se32  1  0.742226  0.495481  0.500378  1
  Se  Se33  1  0.340881  0.990135  0.838423  1
  Se  Se34  1  0.093927  0.750000  0.881268  1
  Se  Se35  1  0.813359  0.024135  0.831282  1
  Se  Se36  1  0.742226  0.004519  0.500378  1
  Se  Se37  1  0.438269  0.750000  0.312205  1
