# generated using pymatgen
data_Na2Li8U11(WO22)2
_symmetry_space_group_name_H-M   'P 1'
_cell_length_a   6.99560299
_cell_length_b   11.32338928
_cell_length_c   12.29864290
_cell_angle_alpha   99.02098008
_cell_angle_beta   106.27398851
_cell_angle_gamma   90.08317543
_symmetry_Int_Tables_number   1
_chemical_formula_structural   Na2Li8U11(WO22)2
_chemical_formula_sum   'Na2 Li8 U11 W2 O44'
_cell_volume   922.56273814
_cell_formula_units_Z   1
loop_
 _symmetry_equiv_pos_site_id
 _symmetry_equiv_pos_as_xyz
  1  'x, y, z'
loop_
 _atom_site_type_symbol
 _atom_site_label
 _atom_site_symmetry_multiplicity
 _atom_site_fract_x
 _atom_site_fract_y
 _atom_site_fract_z
 _atom_site_occupancy
  Na  Na0  1  0.994699  0.695719  0.005644  1
  Na  Na1  1  0.005301  0.304281  0.994355  1
  Li  Li2  1  0.519978  0.139017  0.985857  1
  Li  Li3  1  0.795172  0.265463  0.490083  1
  Li  Li4  1  0.818259  0.570563  0.500943  1
  Li  Li5  1  0.268235  0.119859  0.484577  1
  Li  Li6  1  0.181741  0.429437  0.499057  1
  Li  Li7  1  0.204828  0.734537  0.509917  1
  Li  Li8  1  0.480022  0.860983  0.014143  1
  Li  Li9  1  0.731765  0.880141  0.515423  1
  U  U10  1  0.292592  0.231275  0.266850  1
  U  U11  1  0.222684  0.642282  0.759043  1
  U  U12  1  0.696118  0.141738  0.722737  1
  U  U13  1  0.303882  0.858262  0.277263  1
  U  U14  1  0.197886  0.955125  0.726640  1
  U  U15  1  0.777316  0.357718  0.240957  1
  U  U16  1  0.214349  0.279350  0.747703  1
  U  U17  1  0.785651  0.720650  0.252297  1
  U  U18  1  0.500000  0.500000  0.000000  1
  U  U19  1  0.707408  0.768725  0.733150  1
  U  U20  1  0.802114  0.044875  0.273360  1
  W  W21  1  0.282618  0.544174  0.273665  1
  W  W22  1  0.717382  0.455826  0.726335  1
  O  O23  1  0.352607  0.688973  0.919359  1
  O  O24  1  0.640048  0.012045  0.120573  1
  O  O25  1  0.711985  0.527794  0.173932  1
  O  O26  1  0.659949  0.723487  0.094569  1
  O  O27  1  0.647393  0.311027  0.080641  1
  O  O28  1  0.262536  0.192004  0.111034  1
  O  O29  1  0.298133  0.052005  0.308288  1
  O  O30  1  0.737464  0.807996  0.888966  1
  O  O31  1  0.954117  0.196674  0.229978  1
  O  O32  1  0.475611  0.667680  0.276497  1
  O  O33  1  0.306198  0.283985  0.421414  1
  O  O34  1  0.701867  0.947995  0.691712  1
  O  O35  1  0.643811  0.891261  0.319666  1
  O  O36  1  0.693802  0.716015  0.578586  1
  O  O37  1  0.359952  0.987955  0.879427  1
  O  O38  1  0.472218  0.420382  0.273158  1
  O  O39  1  0.915321  0.588758  0.786221  1
  O  O40  1  0.088046  0.658641  0.216853  1
  O  O41  1  0.037855  0.910626  0.576181  1
  O  O42  1  0.712910  0.491928  0.934985  1
  O  O43  1  0.896600  0.417987  0.397818  1
  O  O44  1  0.045883  0.803326  0.770022  1
  O  O45  1  0.661505  0.147942  0.567327  1
  O  O46  1  0.094222  0.302529  0.596349  1
  O  O47  1  0.030149  0.119220  0.749556  1
  O  O48  1  0.285343  0.566767  0.420543  1
  O  O49  1  0.084679  0.411242  0.213779  1
  O  O50  1  0.728769  0.153658  0.880097  1
  O  O51  1  0.969851  0.880780  0.250444  1
  O  O52  1  0.905778  0.697471  0.403651  1
  O  O53  1  0.962145  0.089374  0.423819  1
  O  O54  1  0.271231  0.846342  0.119903  1
  O  O55  1  0.340051  0.276513  0.905431  1
  O  O56  1  0.103400  0.582013  0.602182  1
  O  O57  1  0.911954  0.341359  0.783147  1
  O  O58  1  0.714657  0.433233  0.579457  1
  O  O59  1  0.288015  0.472206  0.826068  1
  O  O60  1  0.356189  0.108739  0.680334  1
  O  O61  1  0.338495  0.852058  0.432673  1
  O  O62  1  0.287090  0.508072  0.065015  1
  O  O63  1  0.634513  0.210735  0.305097  1
  O  O64  1  0.527782  0.579618  0.726842  1
  O  O65  1  0.365487  0.789265  0.694903  1
  O  O66  1  0.524389  0.332320  0.723503  1
