# generated using pymatgen
data_Ni(NO3)2
_symmetry_space_group_name_H-M   'P 1'
_cell_length_a   7.52740079
_cell_length_b   7.52740079
_cell_length_c   7.52740079
_cell_angle_alpha   90.00000000
_cell_angle_beta   90.00000000
_cell_angle_gamma   90.00000000
_symmetry_Int_Tables_number   1
_chemical_formula_structural   Ni(NO3)2
_chemical_formula_sum   'Ni4 N8 O24'
_cell_volume   426.51579696
_cell_formula_units_Z   4
loop_
 _symmetry_equiv_pos_site_id
 _symmetry_equiv_pos_as_xyz
  1  'x, y, z'
loop_
 _atom_site_type_symbol
 _atom_site_label
 _atom_site_symmetry_multiplicity
 _atom_site_fract_x
 _atom_site_fract_y
 _atom_site_fract_z
 _atom_site_occupancy
  Ni  Ni0  1  0.000000  0.000000  0.000000  1
  Ni  Ni1  1  0.500000  0.000000  0.500000  1
  Ni  Ni2  1  0.500000  0.500000  0.000000  1
  Ni  Ni3  1  0.000000  0.500000  0.500000  1
  N  N4  1  0.324319  0.324319  0.324319  1
  N  N5  1  0.175681  0.675681  0.824319  1
  N  N6  1  0.824319  0.175681  0.675681  1
  N  N7  1  0.675681  0.824319  0.175681  1
  N  N8  1  0.675681  0.675681  0.675681  1
  N  N9  1  0.824319  0.324319  0.175681  1
  N  N10  1  0.175681  0.824319  0.324319  1
  N  N11  1  0.324319  0.175681  0.824319  1
  O  O12  1  0.206838  0.321152  0.444116  1
  O  O13  1  0.444116  0.206838  0.321152  1
  O  O14  1  0.321152  0.444116  0.206838  1
  O  O15  1  0.178848  0.555884  0.706838  1
  O  O16  1  0.944116  0.293162  0.678848  1
  O  O17  1  0.678848  0.944116  0.293162  1
  O  O18  1  0.055884  0.793162  0.821152  1
  O  O19  1  0.555884  0.706838  0.178848  1
  O  O20  1  0.821152  0.055884  0.793162  1
  O  O21  1  0.706838  0.178848  0.555884  1
  O  O22  1  0.793162  0.821152  0.055884  1
  O  O23  1  0.293162  0.678848  0.944116  1
  O  O24  1  0.793162  0.678848  0.555884  1
  O  O25  1  0.555884  0.793162  0.678848  1
  O  O26  1  0.678848  0.555884  0.793162  1
  O  O27  1  0.821152  0.444116  0.293162  1
  O  O28  1  0.055884  0.706838  0.321152  1
  O  O29  1  0.321152  0.055884  0.706838  1
  O  O30  1  0.944116  0.206838  0.178848  1
  O  O31  1  0.444116  0.293162  0.821152  1
  O  O32  1  0.178848  0.944116  0.206838  1
  O  O33  1  0.293162  0.821152  0.444116  1
  O  O34  1  0.206838  0.178848  0.944116  1
  O  O35  1  0.706838  0.321152  0.055884  1
