# generated using pymatgen
data_Li3Nd3(WO6)2
_symmetry_space_group_name_H-M   'P 1'
_cell_length_a   10.94571395
_cell_length_b   10.94571395
_cell_length_c   10.94571395
_cell_angle_alpha   109.47122063
_cell_angle_beta   109.47122063
_cell_angle_gamma   109.47122063
_symmetry_Int_Tables_number   1
_chemical_formula_structural   Li3Nd3(WO6)2
_chemical_formula_sum   'Li12 Nd12 W8 O48'
_cell_volume   1009.50945768
_cell_formula_units_Z   4
loop_
 _symmetry_equiv_pos_site_id
 _symmetry_equiv_pos_as_xyz
  1  'x, y, z'
loop_
 _atom_site_type_symbol
 _atom_site_label
 _atom_site_symmetry_multiplicity
 _atom_site_fract_x
 _atom_site_fract_y
 _atom_site_fract_z
 _atom_site_occupancy
  Li  Li0  1  0.125000  0.750000  0.875000  1
  Li  Li1  1  0.875000  0.125000  0.750000  1
  Li  Li2  1  0.625000  0.750000  0.375000  1
  Li  Li3  1  0.375000  0.625000  0.750000  1
  Li  Li4  1  0.250000  0.625000  0.375000  1
  Li  Li5  1  0.625000  0.375000  0.250000  1
  Li  Li6  1  0.250000  0.125000  0.875000  1
  Li  Li7  1  0.375000  0.250000  0.625000  1
  Li  Li8  1  0.875000  0.250000  0.125000  1
  Li  Li9  1  0.125000  0.875000  0.250000  1
  Li  Li10  1  0.750000  0.375000  0.625000  1
  Li  Li11  1  0.750000  0.875000  0.125000  1
  Nd  Nd12  1  0.375000  0.125000  0.250000  1
  Nd  Nd13  1  0.875000  0.625000  0.250000  1
  Nd  Nd14  1  0.750000  0.625000  0.875000  1
  Nd  Nd15  1  0.375000  0.750000  0.125000  1
  Nd  Nd16  1  0.125000  0.375000  0.750000  1
  Nd  Nd17  1  0.250000  0.375000  0.125000  1
  Nd  Nd18  1  0.250000  0.875000  0.625000  1
  Nd  Nd19  1  0.125000  0.250000  0.375000  1
  Nd  Nd20  1  0.625000  0.875000  0.750000  1
  Nd  Nd21  1  0.750000  0.125000  0.375000  1
  Nd  Nd22  1  0.625000  0.250000  0.875000  1
  Nd  Nd23  1  0.875000  0.750000  0.625000  1
  W  W24  1  0.000000  0.000000  0.500000  1
  W  W25  1  0.500000  0.000000  0.500000  1
  W  W26  1  0.500000  0.500000  0.500000  1
  W  W27  1  0.000000  0.000000  0.000000  1
  W  W28  1  0.000000  0.500000  0.000000  1
  W  W29  1  0.500000  0.000000  0.000000  1
  W  W30  1  1.000000  0.500000  0.500000  1
  W  W31  1  0.500000  0.500000  0.000000  1
  O  O32  1  0.304548  0.476199  0.384536  1
  O  O33  1  0.384536  0.304548  0.476199  1
  O  O34  1  0.579988  0.171650  0.195452  1
  O  O35  1  0.408338  0.079988  0.884536  1
  O  O36  1  0.476199  0.384536  0.304548  1
  O  O37  1  0.023801  0.328350  0.908338  1
  O  O38  1  0.091662  0.615464  0.420012  1
  O  O39  1  0.171650  0.476199  0.591662  1
  O  O40  1  0.079988  0.695452  0.671650  1
  O  O41  1  0.523801  0.408338  0.828350  1
  O  O42  1  0.615464  0.695452  0.523801  1
  O  O43  1  0.195452  0.115464  0.023801  1
  O  O44  1  0.695452  0.671650  0.079988  1
  O  O45  1  0.195452  0.579988  0.171650  1
  O  O46  1  0.328350  0.908338  0.023801  1
  O  O47  1  0.115464  0.591662  0.920012  1
  O  O48  1  0.171650  0.195452  0.579988  1
  O  O49  1  0.023801  0.195452  0.115464  1
  O  O50  1  0.328350  0.920012  0.304548  1
  O  O51  1  0.884536  0.976199  0.804548  1
  O  O52  1  0.476199  0.591662  0.171650  1
  O  O53  1  0.671650  0.091662  0.976199  1
  O  O54  1  0.420012  0.091662  0.615464  1
  O  O55  1  0.804548  0.420012  0.828350  1
  O  O56  1  0.579988  0.908338  0.384536  1
  O  O57  1  0.591662  0.171650  0.476199  1
  O  O58  1  0.920012  0.115464  0.591662  1
  O  O59  1  0.384536  0.579988  0.908338  1
  O  O60  1  0.976199  0.804548  0.884536  1
  O  O61  1  0.615464  0.420012  0.091662  1
  O  O62  1  0.091662  0.976199  0.671650  1
  O  O63  1  0.976199  0.671650  0.091662  1
  O  O64  1  0.695452  0.523801  0.615464  1
  O  O65  1  0.115464  0.023801  0.195452  1
  O  O66  1  0.671650  0.079988  0.695452  1
  O  O67  1  0.304548  0.328350  0.920012  1
  O  O68  1  0.420012  0.828350  0.804548  1
  O  O69  1  0.591662  0.920012  0.115464  1
  O  O70  1  0.523801  0.615464  0.695452  1
  O  O71  1  0.920012  0.304548  0.328350  1
  O  O72  1  0.884536  0.408338  0.079988  1
  O  O73  1  0.828350  0.523801  0.408338  1
  O  O74  1  0.079988  0.884536  0.408338  1
  O  O75  1  0.804548  0.884536  0.976199  1
  O  O76  1  0.908338  0.023801  0.328350  1
  O  O77  1  0.908338  0.384536  0.579988  1
  O  O78  1  0.828350  0.804548  0.420012  1
  O  O79  1  0.408338  0.828350  0.523801  1
