# generated using pymatgen
data_FePO4
_symmetry_space_group_name_H-M   'P 1'
_cell_length_a   8.92097261
_cell_length_b   9.35021120
_cell_length_c   9.78831440
_cell_angle_alpha   90.00000000
_cell_angle_beta   90.00000000
_cell_angle_gamma   90.00000000
_symmetry_Int_Tables_number   1
_chemical_formula_structural   FePO4
_chemical_formula_sum   'Fe8 P8 O32'
_cell_volume   816.47245383
_cell_formula_units_Z   8
loop_
 _symmetry_equiv_pos_site_id
 _symmetry_equiv_pos_as_xyz
  1  'x, y, z'
loop_
 _atom_site_type_symbol
 _atom_site_label
 _atom_site_symmetry_multiplicity
 _atom_site_fract_x
 _atom_site_fract_y
 _atom_site_fract_z
 _atom_site_occupancy
  Fe  Fe0  1  0.064131  0.214233  0.603520  1
  Fe  Fe1  1  0.435869  0.785767  0.103520  1
  Fe  Fe2  1  0.435869  0.714233  0.603520  1
  Fe  Fe3  1  0.564131  0.214233  0.896480  1
  Fe  Fe4  1  0.064131  0.285767  0.103520  1
  Fe  Fe5  1  0.564131  0.285767  0.396480  1
  Fe  Fe6  1  0.935869  0.785767  0.396480  1
  Fe  Fe7  1  0.935869  0.714233  0.896480  1
  P  P8  1  0.619743  0.620259  0.328144  1
  P  P9  1  0.380257  0.120259  0.171856  1
  P  P10  1  0.119743  0.879741  0.671856  1
  P  P11  1  0.380257  0.379741  0.671856  1
  P  P12  1  0.619743  0.879741  0.828144  1
  P  P13  1  0.880257  0.379741  0.828144  1
  P  P14  1  0.880257  0.120259  0.328144  1
  P  P15  1  0.119743  0.620259  0.171856  1
  O  O16  1  0.601500  0.695781  0.188533  1
  O  O17  1  0.886177  0.543097  0.805555  1
  O  O18  1  0.510170  0.168010  0.077074  1
  O  O19  1  0.489830  0.668010  0.422926  1
  O  O20  1  0.113823  0.043097  0.694445  1
  O  O21  1  0.510170  0.331990  0.577074  1
  O  O22  1  0.989830  0.831990  0.577074  1
  O  O23  1  0.271981  0.659366  0.107260  1
  O  O24  1  0.898500  0.195781  0.188533  1
  O  O25  1  0.010170  0.331990  0.922926  1
  O  O26  1  0.728019  0.159366  0.392740  1
  O  O27  1  0.101500  0.695781  0.311467  1
  O  O28  1  0.398500  0.195781  0.311467  1
  O  O29  1  0.601500  0.804219  0.688533  1
  O  O30  1  0.489830  0.831990  0.922926  1
  O  O31  1  0.228019  0.159366  0.107260  1
  O  O32  1  0.113823  0.456903  0.194445  1
  O  O33  1  0.228019  0.340634  0.607260  1
  O  O34  1  0.010170  0.168010  0.422926  1
  O  O35  1  0.728019  0.340634  0.892740  1
  O  O36  1  0.271981  0.840634  0.607260  1
  O  O37  1  0.386177  0.956903  0.194445  1
  O  O38  1  0.898500  0.304219  0.688533  1
  O  O39  1  0.886177  0.956903  0.305555  1
  O  O40  1  0.771981  0.840634  0.892740  1
  O  O41  1  0.771981  0.659366  0.392740  1
  O  O42  1  0.989830  0.668010  0.077074  1
  O  O43  1  0.613823  0.043097  0.805555  1
  O  O44  1  0.613823  0.456903  0.305555  1
  O  O45  1  0.398500  0.304219  0.811467  1
  O  O46  1  0.386177  0.543097  0.694445  1
  O  O47  1  0.101500  0.804219  0.811467  1
