# generated using pymatgen
data_Y8Co5
_symmetry_space_group_name_H-M   'P 1'
_cell_length_a   7.04000791
_cell_length_b   7.18487261
_cell_length_c   24.13915560
_cell_angle_alpha   90.00000000
_cell_angle_beta   102.26306212
_cell_angle_gamma   90.00000000
_symmetry_Int_Tables_number   1
_chemical_formula_structural   Y8Co5
_chemical_formula_sum   'Y32 Co20'
_cell_volume   1193.13632306
_cell_formula_units_Z   4
loop_
 _symmetry_equiv_pos_site_id
 _symmetry_equiv_pos_as_xyz
  1  'x, y, z'
loop_
 _atom_site_type_symbol
 _atom_site_label
 _atom_site_symmetry_multiplicity
 _atom_site_fract_x
 _atom_site_fract_y
 _atom_site_fract_z
 _atom_site_occupancy
  Y  Y0  1  0.355592  0.682845  0.462855  1
  Y  Y1  1  0.644408  0.182845  0.037145  1
  Y  Y2  1  0.644408  0.317155  0.537145  1
  Y  Y3  1  0.355592  0.817155  0.962855  1
  Y  Y4  1  0.469575  0.666708  0.322720  1
  Y  Y5  1  0.530425  0.166708  0.177280  1
  Y  Y6  1  0.530425  0.333292  0.677280  1
  Y  Y7  1  0.469575  0.833292  0.822720  1
  Y  Y8  1  0.311803  0.315725  0.797610  1
  Y  Y9  1  0.688197  0.815725  0.702390  1
  Y  Y10  1  0.688197  0.684275  0.202390  1
  Y  Y11  1  0.311803  0.184275  0.297610  1
  Y  Y12  1  0.213506  0.335151  0.941292  1
  Y  Y13  1  0.786494  0.835151  0.558708  1
  Y  Y14  1  0.786494  0.664849  0.058708  1
  Y  Y15  1  0.213506  0.164849  0.441292  1
  Y  Y16  1  0.999168  0.686440  0.834556  1
  Y  Y17  1  0.000832  0.186440  0.665444  1
  Y  Y18  1  0.000832  0.313560  0.165444  1
  Y  Y19  1  0.999168  0.813560  0.334556  1
  Y  Y20  1  0.182082  0.687812  0.696272  1
  Y  Y21  1  0.817918  0.187812  0.803728  1
  Y  Y22  1  0.817918  0.312188  0.303728  1
  Y  Y23  1  0.182082  0.812188  0.196272  1
  Y  Y24  1  0.684385  0.459674  0.915106  1
  Y  Y25  1  0.315615  0.959674  0.584894  1
  Y  Y26  1  0.315615  0.540326  0.084894  1
  Y  Y27  1  0.684385  0.040326  0.415106  1
  Y  Y28  1  0.140626  0.477813  0.564579  1
  Y  Y29  1  0.859374  0.977813  0.935421  1
  Y  Y30  1  0.859374  0.522187  0.435421  1
  Y  Y31  1  0.140626  0.022187  0.064579  1
  Co  Co32  1  0.025960  0.646114  0.983210  1
  Co  Co33  1  0.974040  0.146114  0.516790  1
  Co  Co34  1  0.974040  0.353886  0.016790  1
  Co  Co35  1  0.025960  0.853886  0.483210  1
  Co  Co36  1  0.832736  0.532806  0.632137  1
  Co  Co37  1  0.167264  0.032806  0.867863  1
  Co  Co38  1  0.167264  0.467194  0.367863  1
  Co  Co39  1  0.832736  0.967194  0.132137  1
  Co  Co40  1  0.639817  0.530843  0.782261  1
  Co  Co41  1  0.360183  0.030843  0.717739  1
  Co  Co42  1  0.360183  0.469157  0.217739  1
  Co  Co43  1  0.639817  0.969157  0.282261  1
  Co  Co44  1  0.094526  0.527549  0.265430  1
  Co  Co45  1  0.905474  0.027549  0.234570  1
  Co  Co46  1  0.905474  0.472451  0.734570  1
  Co  Co47  1  0.094526  0.972451  0.765430  1
  Co  Co48  1  0.490544  0.382185  0.404341  1
  Co  Co49  1  0.509456  0.882185  0.095659  1
  Co  Co50  1  0.509456  0.617815  0.595659  1
  Co  Co51  1  0.490544  0.117815  0.904341  1
