# generated using pymatgen
data_V2Ni2O7
_symmetry_space_group_name_H-M   'P 1'
_cell_length_a   6.63180979
_cell_length_b   8.42605492
_cell_length_c   9.51050264
_cell_angle_alpha   90.00000000
_cell_angle_beta   100.09314644
_cell_angle_gamma   90.00000000
_symmetry_Int_Tables_number   1
_chemical_formula_structural   V2Ni2O7
_chemical_formula_sum   'V8 Ni8 O28'
_cell_volume   523.22223495
_cell_formula_units_Z   4
loop_
 _symmetry_equiv_pos_site_id
 _symmetry_equiv_pos_as_xyz
  1  'x, y, z'
loop_
 _atom_site_type_symbol
 _atom_site_label
 _atom_site_symmetry_multiplicity
 _atom_site_fract_x
 _atom_site_fract_y
 _atom_site_fract_z
 _atom_site_occupancy
  V  V0  1  0.804969  0.519365  0.688101  1
  V  V1  1  0.195031  0.019365  0.811899  1
  V  V2  1  0.195031  0.480635  0.311899  1
  V  V3  1  0.804969  0.980635  0.188101  1
  V  V4  1  0.637490  0.259730  0.968722  1
  V  V5  1  0.362510  0.759730  0.531278  1
  V  V6  1  0.362510  0.740270  0.031278  1
  V  V7  1  0.637490  0.240270  0.468722  1
  Ni  Ni8  1  0.697062  0.887176  0.821435  1
  Ni  Ni9  1  0.302938  0.387176  0.678565  1
  Ni  Ni10  1  0.302938  0.112824  0.178565  1
  Ni  Ni11  1  0.697062  0.612824  0.321435  1
  Ni  Ni12  1  0.853705  0.621124  0.037432  1
  Ni  Ni13  1  0.146295  0.121124  0.462568  1
  Ni  Ni14  1  0.146295  0.378876  0.962568  1
  Ni  Ni15  1  0.853705  0.878876  0.537432  1
  O  O16  1  0.146490  0.880296  0.494685  1
  O  O17  1  0.853510  0.380296  0.005315  1
  O  O18  1  0.853510  0.119704  0.505315  1
  O  O19  1  0.146490  0.619704  0.994685  1
  O  O20  1  0.970599  0.582718  0.252236  1
  O  O21  1  0.029401  0.082718  0.247764  1
  O  O22  1  0.029401  0.417282  0.747764  1
  O  O23  1  0.970599  0.917282  0.752236  1
  O  O24  1  0.320784  0.876017  0.151084  1
  O  O25  1  0.679216  0.376017  0.348916  1
  O  O26  1  0.679216  0.123983  0.848916  1
  O  O27  1  0.320784  0.623983  0.651084  1
  O  O28  1  0.745159  0.857139  0.320278  1
  O  O29  1  0.254841  0.357139  0.179722  1
  O  O30  1  0.254841  0.142861  0.679722  1
  O  O31  1  0.745159  0.642861  0.820278  1
  O  O32  1  0.395806  0.868498  0.875418  1
  O  O33  1  0.604194  0.368498  0.624582  1
  O  O34  1  0.604194  0.131502  0.124582  1
  O  O35  1  0.395806  0.631502  0.375418  1
  O  O36  1  0.573958  0.873827  0.606252  1
  O  O37  1  0.426042  0.373827  0.893748  1
  O  O38  1  0.426042  0.126173  0.393748  1
  O  O39  1  0.573958  0.626173  0.106252  1
  O  O40  1  0.829389  0.631939  0.540747  1
  O  O41  1  0.170611  0.131939  0.959253  1
  O  O42  1  0.170611  0.368061  0.459253  1
  O  O43  1  0.829389  0.868061  0.040747  1
