# generated using pymatgen
data_Hg3ClO
_symmetry_space_group_name_H-M   'P 1'
_cell_length_a   10.93778730
_cell_length_b   10.93778730
_cell_length_c   17.41277212
_cell_angle_alpha   71.24644973
_cell_angle_beta   108.75355027
_cell_angle_gamma   129.97142516
_symmetry_Int_Tables_number   1
_chemical_formula_structural   Hg3ClO
_chemical_formula_sum   'Hg36 Cl12 O12'
_cell_volume   1492.62813700
_cell_formula_units_Z   12
loop_
 _symmetry_equiv_pos_site_id
 _symmetry_equiv_pos_as_xyz
  1  'x, y, z'
loop_
 _atom_site_type_symbol
 _atom_site_label
 _atom_site_symmetry_multiplicity
 _atom_site_fract_x
 _atom_site_fract_y
 _atom_site_fract_z
 _atom_site_occupancy
  Hg  Hg0  1  0.814585  0.490164  0.343050  1
  Hg  Hg1  1  0.250126  0.714320  0.388845  1
  Hg  Hg2  1  0.391550  0.372213  0.178557  1
  Hg  Hg3  1  0.041804  0.903504  0.797931  1
  Hg  Hg4  1  0.361110  0.552519  0.964540  1
  Hg  Hg5  1  0.053116  0.710759  0.179381  1
  Hg  Hg6  1  0.206693  0.534540  0.134376  1
  Hg  Hg7  1  0.710759  0.053116  0.320619  1
  Hg  Hg8  1  0.124800  0.156091  0.490098  1
  Hg  Hg9  1  0.638890  0.447481  0.035460  1
  Hg  Hg10  1  0.749874  0.285680  0.611155  1
  Hg  Hg11  1  0.490164  0.814585  0.156950  1
  Hg  Hg12  1  0.285680  0.749874  0.888845  1
  Hg  Hg13  1  0.903504  0.041804  0.702069  1
  Hg  Hg14  1  0.156091  0.124800  0.009902  1
  Hg  Hg15  1  0.875200  0.843909  0.509902  1
  Hg  Hg16  1  0.289241  0.946884  0.679381  1
  Hg  Hg17  1  0.949755  0.280234  0.973425  1
  Hg  Hg18  1  0.958196  0.096496  0.202069  1
  Hg  Hg19  1  0.447481  0.638890  0.464540  1
  Hg  Hg20  1  0.280234  0.949755  0.526575  1
  Hg  Hg21  1  0.552519  0.361110  0.535460  1
  Hg  Hg22  1  0.050245  0.719766  0.026575  1
  Hg  Hg23  1  0.793307  0.465460  0.865624  1
  Hg  Hg24  1  0.096496  0.958196  0.297931  1
  Hg  Hg25  1  0.627787  0.608450  0.678557  1
  Hg  Hg26  1  0.843909  0.875200  0.990098  1
  Hg  Hg27  1  0.372213  0.391550  0.321443  1
  Hg  Hg28  1  0.714320  0.250126  0.111155  1
  Hg  Hg29  1  0.465460  0.793307  0.634376  1
  Hg  Hg30  1  0.185415  0.509836  0.656950  1
  Hg  Hg31  1  0.946884  0.289241  0.820619  1
  Hg  Hg32  1  0.719766  0.050245  0.473425  1
  Hg  Hg33  1  0.534540  0.206693  0.365624  1
  Hg  Hg34  1  0.509836  0.185415  0.843050  1
  Hg  Hg35  1  0.608450  0.627787  0.821443  1
  Cl  Cl36  1  0.959656  0.661134  0.484539  1
  Cl  Cl37  1  0.618437  0.942701  0.781913  1
  Cl  Cl38  1  0.040344  0.338866  0.515461  1
  Cl  Cl39  1  0.648327  0.729774  0.344992  1
  Cl  Cl40  1  0.729774  0.648327  0.155008  1
  Cl  Cl41  1  0.057299  0.381563  0.281913  1
  Cl  Cl42  1  0.351673  0.270226  0.655008  1
  Cl  Cl43  1  0.338866  0.040344  0.984539  1
  Cl  Cl44  1  0.381563  0.057299  0.218087  1
  Cl  Cl45  1  0.661134  0.959656  0.015461  1
  Cl  Cl46  1  0.270226  0.351673  0.844992  1
  Cl  Cl47  1  0.942701  0.618437  0.718087  1
  O  O48  1  0.293937  0.954171  0.804145  1
  O  O49  1  0.642795  0.629579  0.552673  1
  O  O50  1  0.954171  0.293937  0.695855  1
  O  O51  1  0.357205  0.370421  0.447327  1
  O  O52  1  0.370421  0.357205  0.052673  1
  O  O53  1  0.706063  0.045829  0.195855  1
  O  O54  1  0.692903  0.014438  0.597396  1
  O  O55  1  0.014438  0.692903  0.902604  1
  O  O56  1  0.045829  0.706063  0.304145  1
  O  O57  1  0.985562  0.307097  0.097396  1
  O  O58  1  0.307097  0.985562  0.402604  1
  O  O59  1  0.629579  0.642795  0.947327  1
