# generated using pymatgen
data_NaTi2Ga5O12
_symmetry_space_group_name_H-M   'P 1'
_cell_length_a   3.02744604
_cell_length_b   9.46364396
_cell_length_c   15.93639253
_cell_angle_alpha   90.00000000
_cell_angle_beta   90.00000000
_cell_angle_gamma   90.00000000
_symmetry_Int_Tables_number   1
_chemical_formula_structural   NaTi2Ga5O12
_chemical_formula_sum   'Na2 Ti4 Ga10 O24'
_cell_volume   456.58834617
_cell_formula_units_Z   2
loop_
 _symmetry_equiv_pos_site_id
 _symmetry_equiv_pos_as_xyz
  1  'x, y, z'
loop_
 _atom_site_type_symbol
 _atom_site_label
 _atom_site_symmetry_multiplicity
 _atom_site_fract_x
 _atom_site_fract_y
 _atom_site_fract_z
 _atom_site_occupancy
  Na  Na0  1  0.500000  0.500000  0.000000  1
  Na  Na1  1  0.500000  0.000000  0.500000  1
  Ti  Ti2  1  0.500000  0.728658  0.357182  1
  Ti  Ti3  1  0.500000  0.271342  0.642818  1
  Ti  Ti4  1  0.500000  0.771342  0.857182  1
  Ti  Ti5  1  0.500000  0.228658  0.142818  1
  Ga  Ga6  1  0.000000  0.000000  0.000000  1
  Ga  Ga7  1  0.000000  0.491404  0.800437  1
  Ga  Ga8  1  0.000000  0.008596  0.300437  1
  Ga  Ga9  1  0.000000  0.508596  0.199563  1
  Ga  Ga10  1  0.500000  0.194521  0.852889  1
  Ga  Ga11  1  0.500000  0.805479  0.147111  1
  Ga  Ga12  1  0.000000  0.991404  0.699563  1
  Ga  Ga13  1  0.500000  0.694521  0.647111  1
  Ga  Ga14  1  0.500000  0.305479  0.352889  1
  Ga  Ga15  1  0.000000  0.500000  0.500000  1
  O  O16  1  0.500000  0.393556  0.553570  1
  O  O17  1  0.000000  0.138235  0.908232  1
  O  O18  1  0.500000  0.107989  0.356241  1
  O  O19  1  0.000000  0.359131  0.703581  1
  O  O20  1  0.500000  0.392011  0.856241  1
  O  O21  1  0.500000  0.607989  0.143759  1
  O  O22  1  0.500000  0.106444  0.053570  1
  O  O23  1  0.000000  0.861765  0.091768  1
  O  O24  1  0.000000  0.638235  0.591768  1
  O  O25  1  0.000000  0.859131  0.796419  1
  O  O26  1  0.000000  0.140869  0.203581  1
  O  O27  1  0.000000  0.143835  0.604749  1
  O  O28  1  0.500000  0.613331  0.754956  1
  O  O29  1  0.000000  0.856165  0.395251  1
  O  O30  1  0.000000  0.640869  0.296419  1
  O  O31  1  0.000000  0.643835  0.895251  1
  O  O32  1  0.500000  0.893556  0.946430  1
  O  O33  1  0.500000  0.113331  0.745044  1
  O  O34  1  0.500000  0.606444  0.446430  1
  O  O35  1  0.500000  0.886669  0.254956  1
  O  O36  1  0.000000  0.361765  0.408232  1
  O  O37  1  0.500000  0.386669  0.245044  1
  O  O38  1  0.000000  0.356165  0.104749  1
  O  O39  1  0.500000  0.892011  0.643759  1
