# generated using pymatgen
data_Pr2W2O9
_symmetry_space_group_name_H-M   'P 1'
_cell_length_a   7.81906916
_cell_length_b   10.06510575
_cell_length_c   9.40062480
_cell_angle_alpha   90.00000000
_cell_angle_beta   107.61220652
_cell_angle_gamma   90.00000000
_symmetry_Int_Tables_number   1
_chemical_formula_structural   Pr2W2O9
_chemical_formula_sum   'Pr8 W8 O36'
_cell_volume   705.14841896
_cell_formula_units_Z   4
loop_
 _symmetry_equiv_pos_site_id
 _symmetry_equiv_pos_as_xyz
  1  'x, y, z'
loop_
 _atom_site_type_symbol
 _atom_site_label
 _atom_site_symmetry_multiplicity
 _atom_site_fract_x
 _atom_site_fract_y
 _atom_site_fract_z
 _atom_site_occupancy
  Pr  Pr0  1  0.226920  0.053924  0.651272  1
  Pr  Pr1  1  0.773080  0.553924  0.848728  1
  Pr  Pr2  1  0.773080  0.946076  0.348728  1
  Pr  Pr3  1  0.226920  0.446076  0.151272  1
  Pr  Pr4  1  0.285948  0.449039  0.575568  1
  Pr  Pr5  1  0.714052  0.949039  0.924432  1
  Pr  Pr6  1  0.714052  0.550961  0.424432  1
  Pr  Pr7  1  0.285948  0.050961  0.075568  1
  W  W8  1  0.072347  0.748537  0.738981  1
  W  W9  1  0.927653  0.248537  0.761019  1
  W  W10  1  0.927653  0.251463  0.261019  1
  W  W11  1  0.072347  0.751463  0.238981  1
  W  W12  1  0.420565  0.768460  0.533275  1
  W  W13  1  0.579435  0.268460  0.966725  1
  W  W14  1  0.579435  0.231540  0.466725  1
  W  W15  1  0.420565  0.731540  0.033275  1
  O  O16  1  0.899719  0.781705  0.837568  1
  O  O17  1  0.100281  0.281705  0.662432  1
  O  O18  1  0.100281  0.218295  0.162432  1
  O  O19  1  0.899719  0.718295  0.337568  1
  O  O20  1  0.945269  0.592579  0.654463  1
  O  O21  1  0.054731  0.092579  0.845537  1
  O  O22  1  0.054731  0.407421  0.345537  1
  O  O23  1  0.945269  0.907421  0.154463  1
  O  O24  1  0.994012  0.880419  0.597571  1
  O  O25  1  0.005988  0.380419  0.902429  1
  O  O26  1  0.005988  0.119581  0.402429  1
  O  O27  1  0.994012  0.619581  0.097571  1
  O  O28  1  0.225406  0.623211  0.917751  1
  O  O29  1  0.774594  0.123211  0.582249  1
  O  O30  1  0.774594  0.376789  0.082249  1
  O  O31  1  0.225406  0.876789  0.417751  1
  O  O32  1  0.255998  0.813852  0.139646  1
  O  O33  1  0.744002  0.313852  0.360354  1
  O  O34  1  0.744002  0.186148  0.860354  1
  O  O35  1  0.255998  0.686148  0.639646  1
  O  O36  1  0.498512  0.599208  0.174296  1
  O  O37  1  0.501488  0.099208  0.325704  1
  O  O38  1  0.501488  0.400792  0.825704  1
  O  O39  1  0.498512  0.900792  0.674296  1
  O  O40  1  0.588547  0.790960  0.429808  1
  O  O41  1  0.411453  0.290960  0.070192  1
  O  O42  1  0.411453  0.209040  0.570192  1
  O  O43  1  0.588547  0.709040  0.929808  1
  O  O44  1  0.553297  0.604408  0.608788  1
  O  O45  1  0.446703  0.104408  0.891212  1
  O  O46  1  0.446703  0.395592  0.391212  1
  O  O47  1  0.553297  0.895592  0.108788  1
  O  O48  1  0.264541  0.634765  0.362395  1
  O  O49  1  0.735459  0.134765  0.137605  1
  O  O50  1  0.735459  0.365235  0.637605  1
  O  O51  1  0.264541  0.865235  0.862395  1
