# generated using pymatgen
data_Y(IO3)3
_symmetry_space_group_name_H-M   'P 1'
_cell_length_a   7.21740249
_cell_length_b   8.63082663
_cell_length_c   13.56806982
_cell_angle_alpha   90.00000000
_cell_angle_beta   100.19484467
_cell_angle_gamma   90.00000000
_symmetry_Int_Tables_number   1
_chemical_formula_structural   Y(IO3)3
_chemical_formula_sum   'Y4 I12 O36'
_cell_volume   831.84007626
_cell_formula_units_Z   4
loop_
 _symmetry_equiv_pos_site_id
 _symmetry_equiv_pos_as_xyz
  1  'x, y, z'
loop_
 _atom_site_type_symbol
 _atom_site_label
 _atom_site_symmetry_multiplicity
 _atom_site_fract_x
 _atom_site_fract_y
 _atom_site_fract_z
 _atom_site_occupancy
  Y  Y0  1  0.171019  0.245442  0.146249  1
  Y  Y1  1  0.828981  0.745442  0.353751  1
  Y  Y2  1  0.171019  0.254558  0.646249  1
  Y  Y3  1  0.828981  0.754558  0.853751  1
  I  I4  1  0.333082  0.543828  0.855764  1
  I  I5  1  0.733229  0.521141  0.610041  1
  I  I6  1  0.733229  0.978859  0.110041  1
  I  I7  1  0.666918  0.043828  0.644236  1
  I  I8  1  0.266771  0.021141  0.889959  1
  I  I9  1  0.164399  0.794805  0.609361  1
  I  I10  1  0.835601  0.294805  0.890639  1
  I  I11  1  0.666918  0.456172  0.144236  1
  I  I12  1  0.266771  0.478859  0.389959  1
  I  I13  1  0.333082  0.956172  0.355764  1
  I  I14  1  0.164399  0.705195  0.109361  1
  I  I15  1  0.835601  0.205195  0.390639  1
  O  O16  1  0.661854  0.533084  0.269691  1
  O  O17  1  0.677682  0.580433  0.479599  1
  O  O18  1  0.149321  0.691809  0.822454  1
  O  O19  1  0.361960  0.834990  0.545476  1
  O  O20  1  0.149321  0.808191  0.322454  1
  O  O21  1  0.531544  0.673924  0.860535  1
  O  O22  1  0.844302  0.026320  0.318633  1
  O  O23  1  0.338146  0.466916  0.730309  1
  O  O24  1  0.322318  0.419567  0.520401  1
  O  O25  1  0.155698  0.526320  0.181367  1
  O  O26  1  0.677682  0.919567  0.979599  1
  O  O27  1  0.964733  0.832445  0.509097  1
  O  O28  1  0.225281  0.291353  0.323751  1
  O  O29  1  0.019979  0.970437  0.887630  1
  O  O30  1  0.661854  0.966916  0.769691  1
  O  O31  1  0.980021  0.029563  0.112370  1
  O  O32  1  0.322318  0.080433  0.020401  1
  O  O33  1  0.531544  0.826076  0.360535  1
  O  O34  1  0.774719  0.791353  0.176249  1
  O  O35  1  0.019979  0.529563  0.387630  1
  O  O36  1  0.850679  0.191809  0.677546  1
  O  O37  1  0.155698  0.973680  0.681367  1
  O  O38  1  0.850679  0.308191  0.177546  1
  O  O39  1  0.035267  0.332445  0.990903  1
  O  O40  1  0.980021  0.470437  0.612370  1
  O  O41  1  0.774719  0.708647  0.676249  1
  O  O42  1  0.338146  0.033084  0.230309  1
  O  O43  1  0.844302  0.473680  0.818633  1
  O  O44  1  0.964733  0.667555  0.009097  1
  O  O45  1  0.468456  0.326076  0.139465  1
  O  O46  1  0.361960  0.665010  0.045476  1
  O  O47  1  0.468456  0.173924  0.639465  1
  O  O48  1  0.035267  0.167555  0.490903  1
  O  O49  1  0.638040  0.334990  0.954524  1
  O  O50  1  0.225281  0.208647  0.823751  1
  O  O51  1  0.638040  0.165010  0.454524  1
