# generated using pymatgen
data_LaH4C4NO8
_symmetry_space_group_name_H-M   'P 1'
_cell_length_a   5.88515371
_cell_length_b   15.95645564
_cell_length_c   8.89035232
_cell_angle_alpha   90.00000000
_cell_angle_beta   92.09279397
_cell_angle_gamma   90.00000000
_symmetry_Int_Tables_number   1
_chemical_formula_structural   LaH4C4NO8
_chemical_formula_sum   'La4 H16 C16 N4 O32'
_cell_volume   834.30229589
_cell_formula_units_Z   4
loop_
 _symmetry_equiv_pos_site_id
 _symmetry_equiv_pos_as_xyz
  1  'x, y, z'
loop_
 _atom_site_type_symbol
 _atom_site_label
 _atom_site_symmetry_multiplicity
 _atom_site_fract_x
 _atom_site_fract_y
 _atom_site_fract_z
 _atom_site_occupancy
  La  La0  1  0.924308  0.599621  0.178636  1
  La  La1  1  0.924308  0.900379  0.678636  1
  La  La2  1  0.075692  0.400379  0.821364  1
  La  La3  1  0.075692  0.099621  0.321364  1
  H  H4  1  0.682939  0.091028  0.826256  1
  H  H5  1  0.550510  0.888866  0.075922  1
  H  H6  1  0.453442  0.363222  0.238804  1
  H  H7  1  0.449490  0.111134  0.924078  1
  H  H8  1  0.379313  0.691115  0.634698  1
  H  H9  1  0.317061  0.591028  0.673744  1
  H  H10  1  0.317061  0.908972  0.173744  1
  H  H11  1  0.379313  0.808885  0.134698  1
  H  H12  1  0.682939  0.408972  0.326256  1
  H  H13  1  0.453442  0.136778  0.738804  1
  H  H14  1  0.546558  0.636778  0.761196  1
  H  H15  1  0.449490  0.388866  0.424078  1
  H  H16  1  0.546558  0.863222  0.261196  1
  H  H17  1  0.620687  0.308885  0.365302  1
  H  H18  1  0.550510  0.611134  0.575922  1
  H  H19  1  0.620687  0.191115  0.865302  1
  C  C20  1  0.095203  0.474916  0.461338  1
  C  C21  1  0.836871  0.727068  0.877864  1
  C  C22  1  0.836871  0.772932  0.377864  1
  C  C23  1  0.904797  0.974916  0.038662  1
  C  C24  1  0.163129  0.272932  0.122136  1
  C  C25  1  0.419280  0.971704  0.544529  1
  C  C26  1  0.580720  0.471704  0.955471  1
  C  C27  1  0.940639  0.237325  0.047228  1
  C  C28  1  0.059361  0.737325  0.452772  1
  C  C29  1  0.580720  0.028296  0.455471  1
  C  C30  1  0.904797  0.525084  0.538662  1
  C  C31  1  0.163129  0.227068  0.622136  1
  C  C32  1  0.940639  0.262675  0.547228  1
  C  C33  1  0.095203  0.025084  0.961338  1
  C  C34  1  0.059361  0.762675  0.952772  1
  C  C35  1  0.419280  0.528296  0.044529  1
  N  N36  1  0.552178  0.367268  0.338129  1
  N  N37  1  0.447822  0.867268  0.161871  1
  N  N38  1  0.447822  0.632732  0.661871  1
  N  N39  1  0.552178  0.132732  0.838129  1
  O  O40  1  0.757576  0.659422  0.930271  1
  O  O41  1  0.500420  0.432671  0.842749  1
  O  O42  1  0.910948  0.974284  0.181383  1
  O  O43  1  0.242424  0.340578  0.069729  1
  O  O44  1  0.144247  0.724191  0.066547  1
  O  O45  1  0.757576  0.840578  0.430271  1
  O  O46  1  0.138981  0.828449  0.895079  1
  O  O47  1  0.212526  0.969701  0.495709  1
  O  O48  1  0.759042  0.561559  0.452790  1
  O  O49  1  0.250880  0.267915  0.731298  1
  O  O50  1  0.855753  0.275809  0.933453  1
  O  O51  1  0.499580  0.932671  0.657251  1
  O  O52  1  0.759042  0.938441  0.952790  1
  O  O53  1  0.089052  0.474284  0.318617  1
  O  O54  1  0.242424  0.159422  0.569729  1
  O  O55  1  0.787474  0.030299  0.504291  1
  O  O56  1  0.500420  0.067329  0.342749  1
  O  O57  1  0.910948  0.525716  0.681383  1
  O  O58  1  0.144247  0.775809  0.566547  1
  O  O59  1  0.861019  0.328449  0.604921  1
  O  O60  1  0.749120  0.732085  0.268702  1
  O  O61  1  0.089052  0.025716  0.818617  1
  O  O62  1  0.240958  0.061559  0.047210  1
  O  O63  1  0.787474  0.469701  0.004291  1
  O  O64  1  0.240958  0.438441  0.547210  1
  O  O65  1  0.855753  0.224191  0.433453  1
  O  O66  1  0.138981  0.671551  0.395079  1
  O  O67  1  0.499580  0.567329  0.157251  1
  O  O68  1  0.212526  0.530299  0.995709  1
  O  O69  1  0.250880  0.232085  0.231298  1
  O  O70  1  0.749120  0.767915  0.768702  1
  O  O71  1  0.861019  0.171551  0.104921  1
