# generated using pymatgen
data_ThRh2
_symmetry_space_group_name_H-M   'P 1'
_cell_length_a   4.75265873
_cell_length_b   4.75265873
_cell_length_c   5.96275533
_cell_angle_alpha   90.00000000
_cell_angle_beta   90.00000000
_cell_angle_gamma   120.00000000
_symmetry_Int_Tables_number   1
_chemical_formula_structural   ThRh2
_chemical_formula_sum   'Th2 Rh4'
_cell_volume   116.64090532
_cell_formula_units_Z   2
loop_
 _symmetry_equiv_pos_site_id
 _symmetry_equiv_pos_as_xyz
  1  'x, y, z'
loop_
 _atom_site_type_symbol
 _atom_site_label
 _atom_site_symmetry_multiplicity
 _atom_site_fract_x
 _atom_site_fract_y
 _atom_site_fract_z
 _atom_site_occupancy
  Th  Th0  1  0.666667  0.333333  0.750000  1
  Th  Th1  1  0.333333  0.666667  0.250000  1
  Rh  Rh2  1  0.333333  0.666667  0.750000  1
  Rh  Rh3  1  0.000000  0.000000  0.000000  1
  Rh  Rh4  1  0.000000  0.000000  0.500000  1
  Rh  Rh5  1  0.666667  0.333333  0.250000  1
