# generated using pymatgen
data_Ho2Mo2C3
_symmetry_space_group_name_H-M   'P 1'
_cell_length_a   6.08534767
_cell_length_b   6.08534767
_cell_length_c   5.71005654
_cell_angle_alpha   68.71993807
_cell_angle_beta   111.28006193
_cell_angle_gamma   148.15116058
_symmetry_Int_Tables_number   1
_chemical_formula_structural   Ho2Mo2C3
_chemical_formula_sum   'Ho2 Mo2 C3'
_cell_volume   103.32716358
_cell_formula_units_Z   1
loop_
 _symmetry_equiv_pos_site_id
 _symmetry_equiv_pos_as_xyz
  1  'x, y, z'
loop_
 _atom_site_type_symbol
 _atom_site_label
 _atom_site_symmetry_multiplicity
 _atom_site_fract_x
 _atom_site_fract_y
 _atom_site_fract_z
 _atom_site_occupancy
  Ho  Ho0  1  0.389711  0.610289  0.174233  1
  Ho  Ho1  1  0.610289  0.389711  0.825767  1
  Mo  Mo2  1  0.157026  0.842974  0.326087  1
  Mo  Mo3  1  0.842974  0.157026  0.673913  1
  C  C4  1  0.751958  0.248042  0.265536  1
  C  C5  1  0.248042  0.751958  0.734464  1
  C  C6  1  0.000000  0.000000  0.000000  1
