# generated using pymatgen
data_Nd(CoB)4
_symmetry_space_group_name_H-M   'P 1'
_cell_length_a   7.08032168
_cell_length_b   7.08032168
_cell_length_c   3.80271488
_cell_angle_alpha   90.00000000
_cell_angle_beta   90.00000000
_cell_angle_gamma   90.00000000
_symmetry_Int_Tables_number   1
_chemical_formula_structural   Nd(CoB)4
_chemical_formula_sum   'Nd2 Co8 B8'
_cell_volume   190.63372888
_cell_formula_units_Z   2
loop_
 _symmetry_equiv_pos_site_id
 _symmetry_equiv_pos_as_xyz
  1  'x, y, z'
loop_
 _atom_site_type_symbol
 _atom_site_label
 _atom_site_symmetry_multiplicity
 _atom_site_fract_x
 _atom_site_fract_y
 _atom_site_fract_z
 _atom_site_occupancy
  Nd  Nd0  1  0.000000  0.000000  0.000000  1
  Nd  Nd1  1  0.500000  0.500000  0.500000  1
  Co  Co2  1  0.356885  0.884892  0.394290  1
  Co  Co3  1  0.615108  0.856885  0.894290  1
  Co  Co4  1  0.643115  0.115108  0.394290  1
  Co  Co5  1  0.143115  0.615108  0.105710  1
  Co  Co6  1  0.884892  0.643115  0.605710  1
  Co  Co7  1  0.856885  0.384892  0.105710  1
  Co  Co8  1  0.384892  0.143115  0.894290  1
  Co  Co9  1  0.115108  0.356885  0.605710  1
  B  B10  1  0.838440  0.294880  0.603405  1
  B  B11  1  0.161560  0.705120  0.603405  1
  B  B12  1  0.794880  0.661560  0.103405  1
  B  B13  1  0.338440  0.794880  0.896595  1
  B  B14  1  0.661560  0.205120  0.896595  1
  B  B15  1  0.294880  0.161560  0.396595  1
  B  B16  1  0.705120  0.838440  0.396595  1
  B  B17  1  0.205120  0.338440  0.103405  1
