# generated using pymatgen
data_Ba2TaBiO6
_symmetry_space_group_name_H-M   'P 1'
_cell_length_a   6.10526127
_cell_length_b   6.10526127
_cell_length_c   6.16693844
_cell_angle_alpha   59.99140973
_cell_angle_beta   120.00859027
_cell_angle_gamma   119.98461788
_symmetry_Int_Tables_number   1
_chemical_formula_structural   Ba2TaBiO6
_chemical_formula_sum   'Ba2 Ta1 Bi1 O6'
_cell_volume   162.53884499
_cell_formula_units_Z   1
loop_
 _symmetry_equiv_pos_site_id
 _symmetry_equiv_pos_as_xyz
  1  'x, y, z'
loop_
 _atom_site_type_symbol
 _atom_site_label
 _atom_site_symmetry_multiplicity
 _atom_site_fract_x
 _atom_site_fract_y
 _atom_site_fract_z
 _atom_site_occupancy
  Ba  Ba0  1  0.249071  0.750929  0.744936  1
  Ba  Ba1  1  0.750929  0.249071  0.255064  1
  Ta  Ta2  1  0.500000  0.500000  0.500000  1
  Bi  Bi3  1  0.000000  0.000000  0.000000  1
  O  O4  1  0.234779  0.300576  0.694730  1
  O  O5  1  0.765221  0.699424  0.305270  1
  O  O6  1  0.699424  0.765221  0.694730  1
  O  O7  1  0.270864  0.729136  0.210609  1
  O  O8  1  0.300576  0.234779  0.305270  1
  O  O9  1  0.729136  0.270864  0.789391  1
