# generated using pymatgen
data_RbNaTiO3
_symmetry_space_group_name_H-M   'P 1'
_cell_length_a   6.33650381
_cell_length_b   6.33650381
_cell_length_c   5.58627164
_cell_angle_alpha   88.74027789
_cell_angle_beta   91.25972211
_cell_angle_gamma   56.02892158
_symmetry_Int_Tables_number   1
_chemical_formula_structural   RbNaTiO3
_chemical_formula_sum   'Rb2 Na2 Ti2 O6'
_cell_volume   185.80919482
_cell_formula_units_Z   2
loop_
 _symmetry_equiv_pos_site_id
 _symmetry_equiv_pos_as_xyz
  1  'x, y, z'
loop_
 _atom_site_type_symbol
 _atom_site_label
 _atom_site_symmetry_multiplicity
 _atom_site_fract_x
 _atom_site_fract_y
 _atom_site_fract_z
 _atom_site_occupancy
  Rb  Rb0  1  0.732543  0.732543  0.250000  1
  Rb  Rb1  1  0.267457  0.267457  0.750000  1
  Na  Na2  1  0.424514  0.424514  0.250000  1
  Na  Na3  1  0.575486  0.575486  0.750000  1
  Ti  Ti4  1  0.948351  0.948351  0.750000  1
  Ti  Ti5  1  0.051649  0.051649  0.250000  1
  O  O6  1  0.777383  0.204840  0.002114  1
  O  O7  1  0.204840  0.777383  0.497886  1
  O  O8  1  0.789635  0.789635  0.750000  1
  O  O9  1  0.222617  0.795160  0.997886  1
  O  O10  1  0.795160  0.222617  0.502114  1
  O  O11  1  0.210365  0.210365  0.250000  1
