# generated using pymatgen
data_LiCrP2O7
_symmetry_space_group_name_H-M   'P 1'
_cell_length_a   8.11010056
_cell_length_b   8.11010056
_cell_length_c   8.87891905
_cell_angle_alpha   70.38960136
_cell_angle_beta   109.61039864
_cell_angle_gamma   143.91550778
_symmetry_Int_Tables_number   1
_chemical_formula_structural   LiCrP2O7
_chemical_formula_sum   'Li2 Cr2 P4 O14'
_cell_volume   321.82226503
_cell_formula_units_Z   2
loop_
 _symmetry_equiv_pos_site_id
 _symmetry_equiv_pos_as_xyz
  1  'x, y, z'
loop_
 _atom_site_type_symbol
 _atom_site_label
 _atom_site_symmetry_multiplicity
 _atom_site_fract_x
 _atom_site_fract_y
 _atom_site_fract_z
 _atom_site_occupancy
  Li  Li0  1  0.472058  0.873483  0.953095  1
  Li  Li1  1  0.126517  0.527942  0.453095  1
  Cr  Cr2  1  0.493121  0.488355  0.503244  1
  Cr  Cr3  1  0.511645  0.506879  0.003244  1
  P  P4  1  0.240059  0.038106  0.306050  1
  P  P5  1  0.767587  0.963688  0.691163  1
  P  P6  1  0.036312  0.232413  0.191163  1
  P  P7  1  0.961894  0.759941  0.806050  1
  O  O8  1  0.796674  0.597886  0.659542  1
  O  O9  1  0.027742  0.025278  0.746394  1
  O  O10  1  0.119592  0.766181  0.367418  1
  O  O11  1  0.757824  0.572807  0.937462  1
  O  O12  1  0.552905  0.736747  0.568460  1
  O  O13  1  0.974722  0.972258  0.246394  1
  O  O14  1  0.179992  0.380655  0.343801  1
  O  O15  1  0.890979  0.235785  0.619495  1
  O  O16  1  0.619345  0.820008  0.843801  1
  O  O17  1  0.427193  0.242176  0.437462  1
  O  O18  1  0.764215  0.109021  0.119495  1
  O  O19  1  0.402114  0.203326  0.159542  1
  O  O20  1  0.263253  0.447095  0.068460  1
  O  O21  1  0.233819  0.880408  0.867418  1
