# generated using pymatgen
data_Na3NbOF6
_symmetry_space_group_name_H-M   'P 1'
_cell_length_a   5.74480245
_cell_length_b   5.85500149
_cell_length_c   17.19606035
_cell_angle_alpha   90.00000000
_cell_angle_beta   90.00000000
_cell_angle_gamma   90.00000000
_symmetry_Int_Tables_number   1
_chemical_formula_structural   Na3NbOF6
_chemical_formula_sum   'Na12 Nb4 O4 F24'
_cell_volume   578.40370937
_cell_formula_units_Z   4
loop_
 _symmetry_equiv_pos_site_id
 _symmetry_equiv_pos_as_xyz
  1  'x, y, z'
loop_
 _atom_site_type_symbol
 _atom_site_label
 _atom_site_symmetry_multiplicity
 _atom_site_fract_x
 _atom_site_fract_y
 _atom_site_fract_z
 _atom_site_occupancy
  Na  Na0  1  0.762846  0.485267  0.624792  1
  Na  Na1  1  0.763844  0.967903  0.242825  1
  Na  Na2  1  0.782094  0.991847  0.504271  1
  Na  Na3  1  0.737154  0.514733  0.124792  1
  Na  Na4  1  0.717906  0.008153  0.004271  1
  Na  Na5  1  0.237154  0.985267  0.875208  1
  Na  Na6  1  0.282094  0.508153  0.495729  1
  Na  Na7  1  0.236156  0.467903  0.257175  1
  Na  Na8  1  0.736156  0.032097  0.742825  1
  Na  Na9  1  0.217906  0.491847  0.995729  1
  Na  Na10  1  0.262846  0.014733  0.375208  1
  Na  Na11  1  0.263844  0.532097  0.757175  1
  Nb  Nb12  1  0.747134  0.490272  0.375149  1
  Nb  Nb13  1  0.752866  0.509728  0.875149  1
  Nb  Nb14  1  0.252866  0.990272  0.124851  1
  Nb  Nb15  1  0.247134  0.009728  0.624851  1
  O  O16  1  0.986390  0.839005  0.111752  1
  O  O17  1  0.486390  0.660995  0.888248  1
  O  O18  1  0.013610  0.339005  0.388248  1
  O  O19  1  0.513610  0.160995  0.611752  1
  F  F20  1  0.580857  0.161374  0.134145  1
  F  F21  1  0.655580  0.422506  0.761697  1
  F  F22  1  0.919352  0.729477  0.800351  1
  F  F23  1  0.874180  0.819749  0.376595  1
  F  F24  1  0.270974  0.103794  0.010963  1
  F  F25  1  0.080857  0.338626  0.865855  1
  F  F26  1  0.344420  0.922506  0.738303  1
  F  F27  1  0.080648  0.229477  0.699649  1
  F  F28  1  0.155580  0.077494  0.238303  1
  F  F29  1  0.919143  0.838626  0.634145  1
  F  F30  1  0.729026  0.603794  0.489037  1
  F  F31  1  0.946167  0.745295  0.939579  1
  F  F32  1  0.844420  0.577494  0.261697  1
  F  F33  1  0.419143  0.661374  0.365855  1
  F  F34  1  0.770974  0.396206  0.989037  1
  F  F35  1  0.053833  0.245295  0.560421  1
  F  F36  1  0.580648  0.270523  0.300351  1
  F  F37  1  0.446167  0.754705  0.060421  1
  F  F38  1  0.125820  0.319749  0.123405  1
  F  F39  1  0.553833  0.254705  0.439579  1
  F  F40  1  0.374180  0.680251  0.623405  1
  F  F41  1  0.419352  0.770523  0.199649  1
  F  F42  1  0.625820  0.180251  0.876595  1
  F  F43  1  0.229026  0.896206  0.510963  1
