# generated using pymatgen
data_Ba6Eu(ClF6)2
_symmetry_space_group_name_H-M   'P 1'
_cell_length_a   10.68737310
_cell_length_b   10.68737310
_cell_length_c   4.21618655
_cell_angle_alpha   90.00000000
_cell_angle_beta   90.00000000
_cell_angle_gamma   120.00000000
_symmetry_Int_Tables_number   1
_chemical_formula_structural   Ba6Eu(ClF6)2
_chemical_formula_sum   'Ba6 Eu1 Cl2 F12'
_cell_volume   417.05409704
_cell_formula_units_Z   1
loop_
 _symmetry_equiv_pos_site_id
 _symmetry_equiv_pos_as_xyz
  1  'x, y, z'
loop_
 _atom_site_type_symbol
 _atom_site_label
 _atom_site_symmetry_multiplicity
 _atom_site_fract_x
 _atom_site_fract_y
 _atom_site_fract_z
 _atom_site_occupancy
  Ba  Ba0  1  0.108757  0.406695  0.000000  1
  Ba  Ba1  1  0.297939  0.891243  0.000000  1
  Ba  Ba2  1  0.593305  0.702061  0.000000  1
  Ba  Ba3  1  0.714973  0.111497  0.500000  1
  Ba  Ba4  1  0.888503  0.603475  0.500000  1
  Ba  Ba5  1  0.396525  0.285027  0.500000  1
  Eu  Eu6  1  0.000000  0.000000  0.000000  1
  Cl  Cl7  1  0.333333  0.666667  0.500000  1
  Cl  Cl8  1  0.666667  0.333333  0.000000  1
  F  F9  1  0.884400  0.145155  0.000000  1
  F  F10  1  0.095366  0.886963  0.500000  1
  F  F11  1  0.791597  0.904634  0.500000  1
  F  F12  1  0.062729  0.631848  0.000000  1
  F  F13  1  0.368152  0.430881  0.000000  1
  F  F14  1  0.614208  0.563013  0.500000  1
  F  F15  1  0.569119  0.937271  0.000000  1
  F  F16  1  0.436987  0.051195  0.500000  1
  F  F17  1  0.260755  0.115600  0.000000  1
  F  F18  1  0.948805  0.385792  0.500000  1
  F  F19  1  0.113037  0.208403  0.500000  1
  F  F20  1  0.854845  0.739245  0.000000  1
