# generated using pymatgen
data_Rb2Sn2Hg3S8
_symmetry_space_group_name_H-M   'P 1'
_cell_length_a   10.33559508
_cell_length_b   6.74129634
_cell_length_c   13.81850797
_cell_angle_alpha   90.00000000
_cell_angle_beta   97.66645754
_cell_angle_gamma   90.00000000
_symmetry_Int_Tables_number   1
_chemical_formula_structural   Rb2Sn2Hg3S8
_chemical_formula_sum   'Rb4 Sn4 Hg6 S16'
_cell_volume   954.20272003
_cell_formula_units_Z   2
loop_
 _symmetry_equiv_pos_site_id
 _symmetry_equiv_pos_as_xyz
  1  'x, y, z'
loop_
 _atom_site_type_symbol
 _atom_site_label
 _atom_site_symmetry_multiplicity
 _atom_site_fract_x
 _atom_site_fract_y
 _atom_site_fract_z
 _atom_site_occupancy
  Rb  Rb0  1  0.277977  0.840264  0.691893  1
  Rb  Rb1  1  0.722023  0.340264  0.808107  1
  Rb  Rb2  1  0.277977  0.659736  0.191893  1
  Rb  Rb3  1  0.722023  0.159736  0.308107  1
  Sn  Sn4  1  0.785103  0.683084  0.075550  1
  Sn  Sn5  1  0.214897  0.316916  0.924450  1
  Sn  Sn6  1  0.214897  0.183084  0.424450  1
  Sn  Sn7  1  0.785103  0.816916  0.575550  1
  Hg  Hg8  1  0.002090  0.296072  0.620340  1
  Hg  Hg9  1  0.002090  0.203928  0.120340  1
  Hg  Hg10  1  0.997910  0.703928  0.379660  1
  Hg  Hg11  1  0.500000  0.500000  0.500000  1
  Hg  Hg12  1  0.997910  0.796072  0.879660  1
  Hg  Hg13  1  0.500000  0.000000  0.000000  1
  S  S14  1  0.775357  0.323241  0.074753  1
  S  S15  1  0.418771  0.205048  0.865748  1
  S  S16  1  0.233793  0.195936  0.091408  1
  S  S17  1  0.775357  0.176759  0.574753  1
  S  S18  1  0.581229  0.794952  0.134252  1
  S  S19  1  0.224643  0.823241  0.425247  1
  S  S20  1  0.581229  0.705048  0.634252  1
  S  S21  1  0.766207  0.804064  0.908592  1
  S  S22  1  0.031592  0.318939  0.322644  1
  S  S23  1  0.418771  0.294952  0.365748  1
  S  S24  1  0.233793  0.304064  0.591408  1
  S  S25  1  0.968408  0.681061  0.677356  1
  S  S26  1  0.224643  0.676759  0.925247  1
  S  S27  1  0.766207  0.695936  0.408592  1
  S  S28  1  0.031592  0.181061  0.822644  1
  S  S29  1  0.968408  0.818939  0.177356  1
