# generated using pymatgen
data_BaFeCuF7
_symmetry_space_group_name_H-M   'P 1'
_cell_length_a   7.44609002
_cell_length_b   7.44609002
_cell_length_c   5.73360107
_cell_angle_alpha   69.43182189
_cell_angle_beta   110.56817811
_cell_angle_gamma   93.60506402
_symmetry_Int_Tables_number   1
_chemical_formula_structural   BaFeCuF7
_chemical_formula_sum   'Ba2 Fe2 Cu2 F14'
_cell_volume   277.99284920
_cell_formula_units_Z   2
loop_
 _symmetry_equiv_pos_site_id
 _symmetry_equiv_pos_as_xyz
  1  'x, y, z'
loop_
 _atom_site_type_symbol
 _atom_site_label
 _atom_site_symmetry_multiplicity
 _atom_site_fract_x
 _atom_site_fract_y
 _atom_site_fract_z
 _atom_site_occupancy
  Ba  Ba0  1  0.674785  0.687989  0.258702  1
  Ba  Ba1  1  0.312011  0.325215  0.758702  1
  Fe  Fe2  1  0.919171  0.300722  0.119449  1
  Fe  Fe3  1  0.699278  0.080829  0.619449  1
  Cu  Cu4  1  0.086450  0.717356  0.886346  1
  Cu  Cu5  1  0.282644  0.913550  0.386346  1
  F  F6  1  0.483756  0.969372  0.738077  1
  F  F7  1  0.186079  0.181285  0.277675  1
  F  F8  1  0.584909  0.329557  0.521400  1
  F  F9  1  0.198495  0.942513  0.010732  1
  F  F10  1  0.326227  0.585286  0.991893  1
  F  F11  1  0.030628  0.516244  0.238077  1
  F  F12  1  0.670443  0.415091  0.021400  1
  F  F13  1  0.822887  0.084217  0.994570  1
  F  F14  1  0.414714  0.673773  0.491893  1
  F  F15  1  0.563339  0.042201  0.287755  1
  F  F16  1  0.057488  0.801505  0.510732  1
  F  F17  1  0.957799  0.436661  0.787755  1
  F  F18  1  0.915783  0.177113  0.494570  1
  F  F19  1  0.818715  0.813921  0.777675  1
