# generated using pymatgen
data_OsO2F3
_symmetry_space_group_name_H-M   'P 1'
_cell_length_a   5.69334603
_cell_length_b   5.23781446
_cell_length_c   12.65461588
_cell_angle_alpha   90.00000000
_cell_angle_beta   100.96603447
_cell_angle_gamma   90.00000000
_symmetry_Int_Tables_number   1
_chemical_formula_structural   OsO2F3
_chemical_formula_sum   'Os4 O8 F12'
_cell_volume   370.47866143
_cell_formula_units_Z   4
loop_
 _symmetry_equiv_pos_site_id
 _symmetry_equiv_pos_as_xyz
  1  'x, y, z'
loop_
 _atom_site_type_symbol
 _atom_site_label
 _atom_site_symmetry_multiplicity
 _atom_site_fract_x
 _atom_site_fract_y
 _atom_site_fract_z
 _atom_site_occupancy
  Os  Os0  1  0.819981  0.484006  0.951081  1
  Os  Os1  1  0.183184  0.033741  0.663304  1
  Os  Os2  1  0.183184  0.966259  0.163304  1
  Os  Os3  1  0.819981  0.515994  0.451081  1
  O  O4  1  0.597513  0.399150  0.507044  1
  O  O5  1  0.243065  0.861828  0.780142  1
  O  O6  1  0.369050  0.097429  0.086346  1
  O  O7  1  0.313899  0.677700  0.199423  1
  O  O8  1  0.369050  0.902571  0.586346  1
  O  O9  1  0.313899  0.322300  0.699423  1
  O  O10  1  0.597513  0.600850  0.007044  1
  O  O11  1  0.243065  0.138172  0.280142  1
  F  F12  1  0.671526  0.181336  0.889421  1
  F  F13  1  0.025107  0.203485  0.502633  1
  F  F14  1  0.746814  0.638063  0.813645  1
  F  F15  1  0.951541  0.292098  0.090383  1
  F  F16  1  0.025107  0.796515  0.002633  1
  F  F17  1  0.866034  0.127892  0.674340  1
  F  F18  1  0.671526  0.818664  0.389421  1
  F  F19  1  0.111657  0.373055  0.916100  1
  F  F20  1  0.951541  0.707902  0.590383  1
  F  F21  1  0.866034  0.872108  0.174340  1
  F  F22  1  0.746814  0.361937  0.313645  1
  F  F23  1  0.111657  0.626945  0.416100  1
