# generated using pymatgen
data_Tb2Co2I
_symmetry_space_group_name_H-M   'P 1'
_cell_length_a   3.95273101
_cell_length_b   3.95273101
_cell_length_c   17.04424408
_cell_angle_alpha   90.00000000
_cell_angle_beta   90.00000000
_cell_angle_gamma   120.00000000
_symmetry_Int_Tables_number   1
_chemical_formula_structural   Tb2Co2I
_chemical_formula_sum   'Tb4 Co4 I2'
_cell_volume   230.62314945
_cell_formula_units_Z   2
loop_
 _symmetry_equiv_pos_site_id
 _symmetry_equiv_pos_as_xyz
  1  'x, y, z'
loop_
 _atom_site_type_symbol
 _atom_site_label
 _atom_site_symmetry_multiplicity
 _atom_site_fract_x
 _atom_site_fract_y
 _atom_site_fract_z
 _atom_site_occupancy
  Tb  Tb0  1  0.000000  0.000000  0.103538  1
  Tb  Tb1  1  0.000000  0.000000  0.603538  1
  Tb  Tb2  1  0.000000  0.000000  0.396462  1
  Tb  Tb3  1  0.000000  0.000000  0.896462  1
  Co  Co4  1  0.666667  0.333333  0.998449  1
  Co  Co5  1  0.333333  0.666667  0.001551  1
  Co  Co6  1  0.666667  0.333333  0.501551  1
  Co  Co7  1  0.333333  0.666667  0.498449  1
  I  I8  1  0.666667  0.333333  0.250000  1
  I  I9  1  0.333333  0.666667  0.750000  1
