# generated using pymatgen
data_Ce2ZnNi2
_symmetry_space_group_name_H-M   'P 1'
_cell_length_a   5.24455299
_cell_length_b   5.24455299
_cell_length_c   5.24455299
_cell_angle_alpha   130.38204181
_cell_angle_beta   117.35246843
_cell_angle_gamma   83.83775191
_symmetry_Int_Tables_number   1
_chemical_formula_structural   Ce2ZnNi2
_chemical_formula_sum   'Ce2 Zn1 Ni2'
_cell_volume   93.65674367
_cell_formula_units_Z   1
loop_
 _symmetry_equiv_pos_site_id
 _symmetry_equiv_pos_as_xyz
  1  'x, y, z'
loop_
 _atom_site_type_symbol
 _atom_site_label
 _atom_site_symmetry_multiplicity
 _atom_site_fract_x
 _atom_site_fract_y
 _atom_site_fract_z
 _atom_site_occupancy
  Ce  Ce0  1  0.298692  0.798692  0.500000  1
  Ce  Ce1  1  0.701308  0.201308  0.500000  1
  Zn  Zn2  1  0.000000  0.000000  0.000000  1
  Ni  Ni3  1  0.733727  0.500000  0.233727  1
  Ni  Ni4  1  0.266273  0.500000  0.766273  1
