# generated using pymatgen
data_KSbO3
_symmetry_space_group_name_H-M   'P 1'
_cell_length_a   6.97041294
_cell_length_b   6.97041294
_cell_length_c   6.97041294
_cell_angle_alpha   46.25064676
_cell_angle_beta   46.25064676
_cell_angle_gamma   46.25064676
_symmetry_Int_Tables_number   1
_chemical_formula_structural   KSbO3
_chemical_formula_sum   'K2 Sb2 O6'
_cell_volume   161.28229871
_cell_formula_units_Z   2
loop_
 _symmetry_equiv_pos_site_id
 _symmetry_equiv_pos_as_xyz
  1  'x, y, z'
loop_
 _atom_site_type_symbol
 _atom_site_label
 _atom_site_symmetry_multiplicity
 _atom_site_fract_x
 _atom_site_fract_y
 _atom_site_fract_z
 _atom_site_occupancy
  K  K0  1  0.638916  0.638916  0.638916  1
  K  K1  1  0.361084  0.361084  0.361084  1
  Sb  Sb2  1  0.835757  0.835757  0.835757  1
  Sb  Sb3  1  0.164243  0.164243  0.164243  1
  O  O4  1  0.835544  0.034928  0.442648  1
  O  O5  1  0.442648  0.835544  0.034928  1
  O  O6  1  0.034928  0.442648  0.835544  1
  O  O7  1  0.164456  0.965072  0.557352  1
  O  O8  1  0.557352  0.164456  0.965072  1
  O  O9  1  0.965072  0.557352  0.164456  1
