# generated using pymatgen
data_KVF4
_symmetry_space_group_name_H-M   'P 1'
_cell_length_a   7.74828614
_cell_length_b   7.90528127
_cell_length_c   12.61779467
_cell_angle_alpha   90.00000000
_cell_angle_beta   90.00000000
_cell_angle_gamma   90.00000000
_symmetry_Int_Tables_number   1
_chemical_formula_structural   KVF4
_chemical_formula_sum   'K8 V8 F32'
_cell_volume   772.86997026
_cell_formula_units_Z   8
loop_
 _symmetry_equiv_pos_site_id
 _symmetry_equiv_pos_as_xyz
  1  'x, y, z'
loop_
 _atom_site_type_symbol
 _atom_site_label
 _atom_site_symmetry_multiplicity
 _atom_site_fract_x
 _atom_site_fract_y
 _atom_site_fract_z
 _atom_site_occupancy
  K  K0  1  0.250000  0.624223  0.515685  1
  K  K1  1  0.750000  0.375777  0.484315  1
  K  K2  1  0.750000  0.124223  0.984315  1
  K  K3  1  0.250000  0.875777  0.015685  1
  K  K4  1  0.250000  0.125227  0.527860  1
  K  K5  1  0.750000  0.874773  0.472140  1
  K  K6  1  0.750000  0.625227  0.972140  1
  K  K7  1  0.250000  0.374773  0.027860  1
  V  V8  1  0.500545  0.625431  0.248546  1
  V  V9  1  0.000545  0.374569  0.751454  1
  V  V10  1  0.499455  0.125431  0.251454  1
  V  V11  1  0.999455  0.874569  0.748546  1
  V  V12  1  0.499455  0.374569  0.751454  1
  V  V13  1  0.999455  0.625431  0.248546  1
  V  V14  1  0.500545  0.874569  0.748546  1
  V  V15  1  0.000545  0.125431  0.251454  1
  F  F16  1  0.450359  0.375501  0.248390  1
  F  F17  1  0.950359  0.624499  0.751610  1
  F  F18  1  0.549641  0.875501  0.251610  1
  F  F19  1  0.049641  0.124499  0.748390  1
  F  F20  1  0.549641  0.624499  0.751610  1
  F  F21  1  0.049641  0.375501  0.248390  1
  F  F22  1  0.450359  0.124499  0.748390  1
  F  F23  1  0.950359  0.875501  0.251610  1
  F  F24  1  0.250000  0.421783  0.783682  1
  F  F25  1  0.750000  0.578217  0.216318  1
  F  F26  1  0.750000  0.921783  0.716318  1
  F  F27  1  0.250000  0.078217  0.283682  1
  F  F28  1  0.750000  0.327717  0.719788  1
  F  F29  1  0.250000  0.672283  0.280212  1
  F  F30  1  0.250000  0.827717  0.780212  1
  F  F31  1  0.750000  0.172283  0.219788  1
  F  F32  1  0.045068  0.117268  0.101336  1
  F  F33  1  0.545068  0.882732  0.898664  1
  F  F34  1  0.954932  0.617268  0.398664  1
  F  F35  1  0.454932  0.382732  0.601336  1
  F  F36  1  0.954932  0.882732  0.898664  1
  F  F37  1  0.454932  0.117268  0.101336  1
  F  F38  1  0.045068  0.382732  0.601336  1
  F  F39  1  0.545068  0.617268  0.398664  1
  F  F40  1  0.957072  0.133013  0.401837  1
  F  F41  1  0.457072  0.866987  0.598163  1
  F  F42  1  0.042928  0.633013  0.098163  1
  F  F43  1  0.542928  0.366987  0.901837  1
  F  F44  1  0.042928  0.866987  0.598163  1
  F  F45  1  0.542928  0.133013  0.401837  1
  F  F46  1  0.957072  0.366987  0.901837  1
  F  F47  1  0.457072  0.633013  0.098163  1
