# generated using pymatgen
data_Na2SeO3
_symmetry_space_group_name_H-M   'P 1'
_cell_length_a   7.02167780
_cell_length_b   10.12492069
_cell_length_c   8.60185225
_cell_angle_alpha   90.00000000
_cell_angle_beta   144.76663856
_cell_angle_gamma   90.00000000
_symmetry_Int_Tables_number   1
_chemical_formula_structural   Na2SeO3
_chemical_formula_sum   'Na8 Se4 O12'
_cell_volume   352.80203293
_cell_formula_units_Z   4
loop_
 _symmetry_equiv_pos_site_id
 _symmetry_equiv_pos_as_xyz
  1  'x, y, z'
loop_
 _atom_site_type_symbol
 _atom_site_label
 _atom_site_symmetry_multiplicity
 _atom_site_fract_x
 _atom_site_fract_y
 _atom_site_fract_z
 _atom_site_occupancy
  Na  Na0  1  0.589865  0.413950  0.737889  1
  Na  Na1  1  0.336059  0.243244  0.243217  1
  Na  Na2  1  0.836059  0.256756  0.243217  1
  Na  Na3  1  0.663941  0.756756  0.756783  1
  Na  Na4  1  0.410135  0.586050  0.262111  1
  Na  Na5  1  0.089865  0.086050  0.737889  1
  Na  Na6  1  0.910135  0.913950  0.262111  1
  Na  Na7  1  0.163941  0.743244  0.756783  1
  Se  Se8  1  0.407214  0.914159  0.216783  1
  Se  Se9  1  0.092786  0.414159  0.783217  1
  Se  Se10  1  0.592786  0.085841  0.783217  1
  Se  Se11  1  0.907214  0.585841  0.216783  1
  O  O12  1  0.536783  0.600660  0.871160  1
  O  O13  1  0.963217  0.100660  0.128840  1
  O  O14  1  0.463217  0.399340  0.128840  1
  O  O15  1  0.036783  0.899340  0.871160  1
  O  O16  1  0.133851  0.711552  0.279555  1
  O  O17  1  0.366149  0.211552  0.720445  1
  O  O18  1  0.866149  0.288448  0.720445  1
  O  O19  1  0.633851  0.788448  0.279555  1
  O  O20  1  0.075505  0.443744  0.246424  1
  O  O21  1  0.575505  0.056256  0.246424  1
  O  O22  1  0.924495  0.556256  0.753576  1
  O  O23  1  0.424495  0.943744  0.753576  1
