# generated using pymatgen
data_HoSi2Ni
_symmetry_space_group_name_H-M   'P 1'
_cell_length_a   8.45904593
_cell_length_b   8.45904593
_cell_length_c   3.94246215
_cell_angle_alpha   90.00000000
_cell_angle_beta   90.00000000
_cell_angle_gamma   152.92547764
_symmetry_Int_Tables_number   1
_chemical_formula_structural   HoSi2Ni
_chemical_formula_sum   'Ho2 Si4 Ni2'
_cell_volume   128.39966869
_cell_formula_units_Z   2
loop_
 _symmetry_equiv_pos_site_id
 _symmetry_equiv_pos_as_xyz
  1  'x, y, z'
loop_
 _atom_site_type_symbol
 _atom_site_label
 _atom_site_symmetry_multiplicity
 _atom_site_fract_x
 _atom_site_fract_y
 _atom_site_fract_z
 _atom_site_occupancy
  Ho  Ho0  1  0.105664  0.894336  0.250000  1
  Ho  Ho1  1  0.894336  0.105664  0.750000  1
  Si  Si2  1  0.749319  0.250681  0.250000  1
  Si  Si3  1  0.250681  0.749319  0.750000  1
  Si  Si4  1  0.539855  0.460145  0.750000  1
  Si  Si5  1  0.460145  0.539855  0.250000  1
  Ni  Ni6  1  0.676736  0.323264  0.750000  1
  Ni  Ni7  1  0.323264  0.676736  0.250000  1
