# generated using pymatgen
data_Na4Cu(AsO4)2
_symmetry_space_group_name_H-M   'P 1'
_cell_length_a   4.94748776
_cell_length_b   5.97841588
_cell_length_c   7.05717390
_cell_angle_alpha   98.39967268
_cell_angle_beta   90.91169399
_cell_angle_gamma   105.97274647
_symmetry_Int_Tables_number   1
_chemical_formula_structural   Na4Cu(AsO4)2
_chemical_formula_sum   'Na4 Cu1 As2 O8'
_cell_volume   198.18082847
_cell_formula_units_Z   1
loop_
 _symmetry_equiv_pos_site_id
 _symmetry_equiv_pos_as_xyz
  1  'x, y, z'
loop_
 _atom_site_type_symbol
 _atom_site_label
 _atom_site_symmetry_multiplicity
 _atom_site_fract_x
 _atom_site_fract_y
 _atom_site_fract_z
 _atom_site_occupancy
  Na  Na0  1  0.288237  0.574493  0.168224  1
  Na  Na1  1  0.711763  0.425507  0.831776  1
  Na  Na2  1  0.161448  0.261176  0.574942  1
  Na  Na3  1  0.838552  0.738824  0.425058  1
  Cu  Cu4  1  0.000000  0.000000  0.000000  1
  As  As5  1  0.398102  0.803847  0.735160  1
  As  As6  1  0.601898  0.196153  0.264840  1
  O  O7  1  0.687159  0.275822  0.505714  1
  O  O8  1  0.236001  0.144795  0.238731  1
  O  O9  1  0.234750  0.568686  0.845284  1
  O  O10  1  0.763999  0.855205  0.761269  1
  O  O11  1  0.765250  0.431314  0.154716  1
  O  O12  1  0.683632  0.938428  0.168884  1
  O  O13  1  0.316368  0.061572  0.831116  1
  O  O14  1  0.312841  0.724178  0.494286  1
