# generated using pymatgen
data_K3V(SO)2
_symmetry_space_group_name_H-M   'P 1'
_cell_length_a   10.70643608
_cell_length_b   7.39834137
_cell_length_c   11.82921219
_cell_angle_alpha   90.00000000
_cell_angle_beta   121.82740931
_cell_angle_gamma   90.00000000
_symmetry_Int_Tables_number   1
_chemical_formula_structural   K3V(SO)2
_chemical_formula_sum   'K12 V4 S8 O8'
_cell_volume   796.10495570
_cell_formula_units_Z   4
loop_
 _symmetry_equiv_pos_site_id
 _symmetry_equiv_pos_as_xyz
  1  'x, y, z'
loop_
 _atom_site_type_symbol
 _atom_site_label
 _atom_site_symmetry_multiplicity
 _atom_site_fract_x
 _atom_site_fract_y
 _atom_site_fract_z
 _atom_site_occupancy
  K  K0  1  0.063344  0.741059  0.117549  1
  K  K1  1  0.515752  0.864465  0.839720  1
  K  K2  1  0.936656  0.258941  0.882451  1
  K  K3  1  0.063344  0.758941  0.617549  1
  K  K4  1  0.484248  0.135535  0.160280  1
  K  K5  1  0.768991  0.724660  0.206497  1
  K  K6  1  0.484248  0.364465  0.660280  1
  K  K7  1  0.231009  0.224660  0.293503  1
  K  K8  1  0.231009  0.275340  0.793503  1
  K  K9  1  0.768991  0.775340  0.706497  1
  K  K10  1  0.936656  0.241059  0.382451  1
  K  K11  1  0.515752  0.635535  0.339720  1
  V  V12  1  0.306653  0.699063  0.971692  1
  V  V13  1  0.306653  0.800937  0.471692  1
  V  V14  1  0.693347  0.300937  0.028308  1
  V  V15  1  0.693347  0.199063  0.528308  1
  S  S16  1  0.249610  0.465396  0.056894  1
  S  S17  1  0.139359  0.580680  0.408932  1
  S  S18  1  0.750390  0.965396  0.443106  1
  S  S19  1  0.750390  0.534604  0.943106  1
  S  S20  1  0.249610  0.034604  0.556894  1
  S  S21  1  0.860641  0.080680  0.091068  1
  S  S22  1  0.860641  0.419320  0.591068  1
  S  S23  1  0.139359  0.919320  0.908932  1
  O  O24  1  0.524568  0.284242  0.414625  1
  O  O25  1  0.304925  0.629738  0.833793  1
  O  O26  1  0.475432  0.784242  0.085375  1
  O  O27  1  0.524568  0.215758  0.914625  1
  O  O28  1  0.304925  0.870262  0.333793  1
  O  O29  1  0.475432  0.715758  0.585375  1
  O  O30  1  0.695075  0.129738  0.666207  1
  O  O31  1  0.695075  0.370262  0.166207  1
