# generated using pymatgen
data_TiH8C4NO10
_symmetry_space_group_name_H-M   'P 1'
_cell_length_a   8.97904939
_cell_length_b   8.97904939
_cell_length_c   11.03027189
_cell_angle_alpha   90.00000000
_cell_angle_beta   90.00000000
_cell_angle_gamma   120.00000000
_symmetry_Int_Tables_number   1
_chemical_formula_structural   TiH8C4NO10
_chemical_formula_sum   'Ti3 H24 C12 N3 O30'
_cell_volume   770.15399032
_cell_formula_units_Z   3
loop_
 _symmetry_equiv_pos_site_id
 _symmetry_equiv_pos_as_xyz
  1  'x, y, z'
loop_
 _atom_site_type_symbol
 _atom_site_label
 _atom_site_symmetry_multiplicity
 _atom_site_fract_x
 _atom_site_fract_y
 _atom_site_fract_z
 _atom_site_occupancy
  Ti  Ti0  1  0.500000  0.000000  0.000000  1
  Ti  Ti1  1  0.000000  0.500000  0.666667  1
  Ti  Ti2  1  0.500000  0.500000  0.333333  1
  H  H3  1  0.025062  0.104460  0.278919  1
  H  H4  1  0.101430  0.742435  0.154386  1
  H  H5  1  0.920602  0.895540  0.721081  1
  H  H6  1  0.742435  0.101430  0.512281  1
  H  H7  1  0.104460  0.079398  0.945586  1
  H  H8  1  0.257565  0.898570  0.512281  1
  H  H9  1  0.025062  0.920602  0.054414  1
  H  H10  1  0.898570  0.641006  0.178948  1
  H  H11  1  0.079398  0.974938  0.612253  1
  H  H12  1  0.920602  0.025062  0.612253  1
  H  H13  1  0.079398  0.104460  0.721081  1
  H  H14  1  0.895540  0.974938  0.387747  1
  H  H15  1  0.101430  0.358994  0.178948  1
  H  H16  1  0.358994  0.101430  0.487719  1
  H  H17  1  0.641006  0.742435  0.845614  1
  H  H18  1  0.895540  0.920602  0.945586  1
  H  H19  1  0.257565  0.358994  0.821052  1
  H  H20  1  0.104460  0.025062  0.387747  1
  H  H21  1  0.974938  0.895540  0.278919  1
  H  H22  1  0.974938  0.079398  0.054414  1
  H  H23  1  0.742435  0.641006  0.821052  1
  H  H24  1  0.358994  0.257565  0.845614  1
  H  H25  1  0.641006  0.898570  0.487719  1
  H  H26  1  0.898570  0.257565  0.154386  1
  C  C27  1  0.377348  0.688674  0.166667  1
  C  C28  1  0.688674  0.311326  0.833333  1
  C  C29  1  0.214907  0.429814  0.500000  1
  C  C30  1  0.311326  0.688674  0.833333  1
  C  C31  1  0.785093  0.214907  0.833333  1
  C  C32  1  0.688674  0.377348  0.500000  1
  C  C33  1  0.311326  0.622652  0.500000  1
  C  C34  1  0.785093  0.570186  0.500000  1
  C  C35  1  0.570186  0.785093  0.166667  1
  C  C36  1  0.214907  0.785093  0.833333  1
  C  C37  1  0.622652  0.311326  0.166667  1
  C  C38  1  0.429814  0.214907  0.166667  1
  N  N39  1  0.000000  0.000000  0.666667  1
  N  N40  1  0.000000  0.000000  0.333333  1
  N  N41  1  0.000000  0.000000  0.000000  1
  O  O42  1  0.722262  0.078029  0.896002  1
  O  O43  1  0.921971  0.277738  0.770665  1
  O  O44  1  0.693399  0.452922  0.224549  1
  O  O45  1  0.000000  0.244149  0.166667  1
  O  O46  1  0.644233  0.722262  0.229335  1
  O  O47  1  0.759522  0.306601  0.557882  1
  O  O48  1  0.306601  0.547078  0.224549  1
  O  O49  1  0.355767  0.277738  0.229335  1
  O  O50  1  0.547078  0.240478  0.891216  1
  O  O51  1  0.722262  0.644233  0.437331  1
  O  O52  1  0.644233  0.921971  0.103998  1
  O  O53  1  0.244149  0.244149  0.833333  1
  O  O54  1  0.240478  0.693399  0.557882  1
  O  O55  1  0.240478  0.547078  0.775451  1
  O  O56  1  0.452922  0.759522  0.891216  1
  O  O57  1  0.355767  0.078029  0.103998  1
  O  O58  1  0.078029  0.355767  0.562669  1
  O  O59  1  0.547078  0.306601  0.442118  1
  O  O60  1  0.078029  0.722262  0.770665  1
  O  O61  1  0.759522  0.452922  0.775451  1
  O  O62  1  0.306601  0.759522  0.108784  1
  O  O63  1  0.693399  0.240478  0.108784  1
  O  O64  1  0.244149  0.000000  0.500000  1
  O  O65  1  0.277738  0.921971  0.896002  1
  O  O66  1  0.921971  0.644233  0.562669  1
  O  O67  1  0.000000  0.755851  0.166667  1
  O  O68  1  0.277738  0.355767  0.437331  1
  O  O69  1  0.755851  0.755851  0.833333  1
  O  O70  1  0.755851  0.000000  0.500000  1
  O  O71  1  0.452922  0.693399  0.442118  1
