# generated using pymatgen
data_FeH8C4(S2N3)2
_symmetry_space_group_name_H-M   'P 1'
_cell_length_a   3.94080591
_cell_length_b   7.74239893
_cell_length_c   10.27554574
_cell_angle_alpha   93.46976998
_cell_angle_beta   98.71065185
_cell_angle_gamma   101.86561727
_symmetry_Int_Tables_number   1
_chemical_formula_structural   FeH8C4(S2N3)2
_chemical_formula_sum   'Fe1 H8 C4 S4 N6'
_cell_volume   301.91749169
_cell_formula_units_Z   1
loop_
 _symmetry_equiv_pos_site_id
 _symmetry_equiv_pos_as_xyz
  1  'x, y, z'
loop_
 _atom_site_type_symbol
 _atom_site_label
 _atom_site_symmetry_multiplicity
 _atom_site_fract_x
 _atom_site_fract_y
 _atom_site_fract_z
 _atom_site_occupancy
  Fe  Fe0  1  0.000000  0.000000  0.000000  1
  H  H1  1  0.332581  0.483483  0.703063  1
  H  H2  1  0.667419  0.516517  0.296937  1
  H  H3  1  0.392623  0.523362  0.874576  1
  H  H4  1  0.607377  0.476638  0.125424  1
  H  H5  1  0.456773  0.216994  0.609319  1
  H  H6  1  0.543227  0.783006  0.390681  1
  H  H7  1  0.602854  0.069649  0.717946  1
  H  H8  1  0.397146  0.930351  0.282054  1
  C  C9  1  0.064685  0.184611  0.287896  1
  C  C10  1  0.935315  0.815389  0.712104  1
  C  C11  1  0.498455  0.288037  0.808739  1
  C  C12  1  0.501545  0.711963  0.191261  1
  S  S13  1  0.022011  0.295042  0.420617  1
  S  S14  1  0.977989  0.704958  0.579383  1
  S  S15  1  0.586798  0.223613  0.966942  1
  S  S16  1  0.413202  0.776387  0.033058  1
  N  N17  1  0.092243  0.102536  0.189392  1
  N  N18  1  0.907757  0.897464  0.810608  1
  N  N19  1  0.395397  0.440184  0.793662  1
  N  N20  1  0.604603  0.559816  0.206338  1
  N  N21  1  0.528927  0.186558  0.703608  1
  N  N22  1  0.471073  0.813442  0.296392  1
