# generated using pymatgen
data_LiFe(PO3)3
_symmetry_space_group_name_H-M   'P 1'
_cell_length_a   8.53617425
_cell_length_b   8.63891494
_cell_length_c   8.85460536
_cell_angle_alpha   90.00000000
_cell_angle_beta   90.00000000
_cell_angle_gamma   90.00000000
_symmetry_Int_Tables_number   1
_chemical_formula_structural   LiFe(PO3)3
_chemical_formula_sum   'Li4 Fe4 P12 O36'
_cell_volume   652.96767121
_cell_formula_units_Z   4
loop_
 _symmetry_equiv_pos_site_id
 _symmetry_equiv_pos_as_xyz
  1  'x, y, z'
loop_
 _atom_site_type_symbol
 _atom_site_label
 _atom_site_symmetry_multiplicity
 _atom_site_fract_x
 _atom_site_fract_y
 _atom_site_fract_z
 _atom_site_occupancy
  Li  Li0  1  0.153386  0.865403  0.385702  1
  Li  Li1  1  0.346614  0.134597  0.885702  1
  Li  Li2  1  0.653386  0.634597  0.614298  1
  Li  Li3  1  0.846614  0.365403  0.114298  1
  Fe  Fe4  1  0.128373  0.142858  0.159272  1
  Fe  Fe5  1  0.371627  0.857142  0.659272  1
  Fe  Fe6  1  0.628373  0.357142  0.840728  1
  Fe  Fe7  1  0.871627  0.642858  0.340728  1
  P  P8  1  0.028042  0.678085  0.682443  1
  P  P9  1  0.188766  0.521958  0.190663  1
  P  P10  1  0.200258  0.191173  0.561822  1
  P  P11  1  0.299742  0.808827  0.061822  1
  P  P12  1  0.311234  0.478042  0.690663  1
  P  P13  1  0.471958  0.321915  0.182443  1
  P  P14  1  0.528042  0.821915  0.317557  1
  P  P15  1  0.688766  0.978042  0.809337  1
  P  P16  1  0.700258  0.308827  0.438178  1
  P  P17  1  0.799742  0.691173  0.938178  1
  P  P18  1  0.811234  0.021958  0.309337  1
  P  P19  1  0.971958  0.178085  0.817557  1
  O  O20  1  0.040386  0.225423  0.654726  1
  O  O21  1  0.091803  0.387461  0.136252  1
  O  O22  1  0.103758  0.123335  0.916355  1
  O  O23  1  0.123775  0.617728  0.318564  1
  O  O24  1  0.129201  0.806167  0.621632  1
  O  O25  1  0.138581  0.535807  0.736140  1
  O  O26  1  0.158036  0.138503  0.406382  1
  O  O27  1  0.191747  0.908018  0.155997  1
  O  O28  1  0.227862  0.635716  0.049940  1
  O  O29  1  0.272138  0.364284  0.549940  1
  O  O30  1  0.308253  0.091982  0.655997  1
  O  O31  1  0.341964  0.861497  0.906382  1
  O  O32  1  0.361419  0.464193  0.236140  1
  O  O33  1  0.370799  0.193833  0.121632  1
  O  O34  1  0.376225  0.382272  0.818564  1
  O  O35  1  0.396242  0.876665  0.416355  1
  O  O36  1  0.408197  0.612539  0.636252  1
  O  O37  1  0.459614  0.774577  0.154726  1
  O  O38  1  0.540386  0.274577  0.345274  1
  O  O39  1  0.591803  0.112539  0.863748  1
  O  O40  1  0.603758  0.376665  0.083645  1
  O  O41  1  0.623775  0.882272  0.681436  1
  O  O42  1  0.629201  0.693833  0.378368  1
  O  O43  1  0.638581  0.964193  0.263860  1
  O  O44  1  0.658036  0.361497  0.593618  1
  O  O45  1  0.691747  0.591982  0.844003  1
  O  O46  1  0.727862  0.864284  0.950060  1
  O  O47  1  0.772138  0.135716  0.450060  1
  O  O48  1  0.808253  0.408018  0.344003  1
  O  O49  1  0.841964  0.638503  0.093618  1
  O  O50  1  0.861419  0.035807  0.763860  1
  O  O51  1  0.870799  0.306167  0.878368  1
  O  O52  1  0.876225  0.117728  0.181436  1
  O  O53  1  0.896242  0.623335  0.583645  1
  O  O54  1  0.908197  0.887461  0.363748  1
  O  O55  1  0.959614  0.725423  0.845274  1
