# generated using pymatgen
data_Pr7BP2O17
_symmetry_space_group_name_H-M   'P 1'
_cell_length_a   6.98309521
_cell_length_b   17.93867610
_cell_length_c   13.55920001
_cell_angle_alpha   90.00000000
_cell_angle_beta   113.30597274
_cell_angle_gamma   90.00000000
_symmetry_Int_Tables_number   1
_chemical_formula_structural   Pr7BP2O17
_chemical_formula_sum   'Pr28 B4 P8 O68'
_cell_volume   1559.93580254
_cell_formula_units_Z   4
loop_
 _symmetry_equiv_pos_site_id
 _symmetry_equiv_pos_as_xyz
  1  'x, y, z'
loop_
 _atom_site_type_symbol
 _atom_site_label
 _atom_site_symmetry_multiplicity
 _atom_site_fract_x
 _atom_site_fract_y
 _atom_site_fract_z
 _atom_site_occupancy
  Pr  Pr0  1  0.296749  0.274604  0.820840  1
  Pr  Pr1  1  0.703251  0.774604  0.679160  1
  Pr  Pr2  1  0.299324  0.481743  0.788485  1
  Pr  Pr3  1  0.215650  0.776743  0.403438  1
  Pr  Pr4  1  0.806783  0.105530  0.302302  1
  Pr  Pr5  1  0.193217  0.605530  0.197698  1
  Pr  Pr6  1  0.720847  0.866672  0.429934  1
  Pr  Pr7  1  0.215650  0.723257  0.903438  1
  Pr  Pr8  1  0.703251  0.725396  0.179160  1
  Pr  Pr9  1  0.193217  0.894470  0.697698  1
  Pr  Pr10  1  0.279153  0.366672  0.070066  1
  Pr  Pr11  1  0.720847  0.633328  0.929934  1
  Pr  Pr12  1  0.783693  0.445530  0.509626  1
  Pr  Pr13  1  0.216307  0.554470  0.490374  1
  Pr  Pr14  1  0.700676  0.981743  0.711515  1
  Pr  Pr15  1  0.313087  0.154353  0.072736  1
  Pr  Pr16  1  0.313087  0.345647  0.572736  1
  Pr  Pr17  1  0.296749  0.225396  0.320840  1
  Pr  Pr18  1  0.783693  0.054470  0.009626  1
  Pr  Pr19  1  0.784350  0.276743  0.096562  1
  Pr  Pr20  1  0.216307  0.945530  0.990374  1
  Pr  Pr21  1  0.686913  0.845647  0.927264  1
  Pr  Pr22  1  0.299324  0.018257  0.288485  1
  Pr  Pr23  1  0.686913  0.654353  0.427264  1
  Pr  Pr24  1  0.784350  0.223257  0.596562  1
  Pr  Pr25  1  0.700676  0.518257  0.211515  1
  Pr  Pr26  1  0.279153  0.133328  0.570066  1
  Pr  Pr27  1  0.806783  0.394470  0.802302  1
  B  B28  1  0.749531  0.068173  0.500426  1
  B  B29  1  0.749531  0.431827  0.000426  1
  B  B30  1  0.250469  0.931827  0.499574  1
  B  B31  1  0.250469  0.568173  0.999574  1
  P  P32  1  0.214493  0.698870  0.663144  1
  P  P33  1  0.785507  0.198870  0.836856  1
  P  P34  1  0.279490  0.438609  0.316914  1
  P  P35  1  0.720510  0.938610  0.183086  1
  P  P36  1  0.720510  0.561391  0.683086  1
  P  P37  1  0.214493  0.801130  0.163144  1
  P  P38  1  0.785507  0.301130  0.336856  1
  P  P39  1  0.279490  0.061391  0.816914  1
  O  O40  1  0.692538  0.014223  0.420380  1
  O  O41  1  0.867416  0.754806  0.874414  1
  O  O42  1  0.864511  0.542208  0.403411  1
  O  O43  1  0.867416  0.745194  0.374414  1
  O  O44  1  0.924173  0.243241  0.307764  1
  O  O45  1  0.922817  0.364420  0.406829  1
  O  O46  1  0.820263  0.890488  0.625138  1
  O  O47  1  0.592641  0.766999  0.491300  1
  O  O48  1  0.901912  0.379504  0.001048  1
  O  O49  1  0.903857  0.503903  0.723064  1
  O  O50  1  0.075827  0.743241  0.192236  1
  O  O51  1  0.624343  0.171194  0.727354  1
  O  O52  1  0.307462  0.514223  0.079620  1
  O  O53  1  0.132584  0.254806  0.625586  1
  O  O54  1  0.924173  0.256759  0.807764  1
  O  O55  1  0.077183  0.864420  0.093171  1
  O  O56  1  0.549434  0.867587  0.741033  1
  O  O57  1  0.660325  0.080609  0.573259  1
  O  O58  1  0.307462  0.985777  0.579620  1
  O  O59  1  0.327780  0.737234  0.598620  1
  O  O60  1  0.450566  0.132413  0.258967  1
  O  O61  1  0.903857  0.996097  0.223064  1
  O  O62  1  0.901912  0.120496  0.501048  1
  O  O63  1  0.672220  0.262766  0.401380  1
  O  O64  1  0.864511  0.957792  0.903411  1
  O  O65  1  0.179737  0.390488  0.874862  1
  O  O66  1  0.702139  0.144766  0.119469  1
  O  O67  1  0.702139  0.355234  0.619469  1
  O  O68  1  0.672220  0.237234  0.901380  1
  O  O69  1  0.660325  0.419391  0.073259  1
  O  O70  1  0.212628  0.136847  0.761753  1
  O  O71  1  0.692538  0.485777  0.920380  1
  O  O72  1  0.098088  0.879504  0.498952  1
  O  O73  1  0.533452  0.528407  0.702402  1
  O  O74  1  0.922817  0.135580  0.906829  1
  O  O75  1  0.096143  0.003903  0.776936  1
  O  O76  1  0.787372  0.863153  0.238247  1
  O  O77  1  0.466548  0.471593  0.297598  1
  O  O78  1  0.466548  0.028407  0.797598  1
  O  O79  1  0.450566  0.367587  0.758967  1
  O  O80  1  0.533452  0.971593  0.202402  1
  O  O81  1  0.787372  0.636847  0.738247  1
  O  O82  1  0.355712  0.434623  0.442171  1
  O  O83  1  0.297861  0.644766  0.380531  1
  O  O84  1  0.339675  0.580609  0.926741  1
  O  O85  1  0.624343  0.328806  0.227354  1
  O  O86  1  0.297861  0.855234  0.880531  1
  O  O87  1  0.592641  0.733001  0.991300  1
  O  O88  1  0.339675  0.919391  0.426741  1
  O  O89  1  0.644288  0.934623  0.057829  1
  O  O90  1  0.075827  0.756759  0.692236  1
  O  O91  1  0.098088  0.620496  0.998952  1
  O  O92  1  0.096143  0.496097  0.276936  1
  O  O93  1  0.355712  0.065377  0.942171  1
  O  O94  1  0.327780  0.762766  0.098620  1
  O  O95  1  0.375657  0.671194  0.772646  1
  O  O96  1  0.179737  0.109512  0.374862  1
  O  O97  1  0.820263  0.609512  0.125138  1
  O  O98  1  0.077183  0.635580  0.593171  1
  O  O99  1  0.407359  0.233001  0.508700  1
  O  O100  1  0.549434  0.632413  0.241033  1
  O  O101  1  0.135489  0.042208  0.096589  1
  O  O102  1  0.407359  0.266999  0.008700  1
  O  O103  1  0.135489  0.457792  0.596589  1
  O  O104  1  0.132584  0.245194  0.125586  1
  O  O105  1  0.375657  0.828806  0.272646  1
  O  O106  1  0.212628  0.363153  0.261753  1
  O  O107  1  0.644288  0.565377  0.557829  1
