# generated using pymatgen
data_Li4TbF8
_symmetry_space_group_name_H-M   'P 1'
_cell_length_a   5.83209598
_cell_length_b   9.91203334
_cell_length_c   10.07472167
_cell_angle_alpha   90.00000000
_cell_angle_beta   90.00000000
_cell_angle_gamma   90.00000000
_symmetry_Int_Tables_number   1
_chemical_formula_structural   Li4TbF8
_chemical_formula_sum   'Li16 Tb4 F32'
_cell_volume   582.39880301
_cell_formula_units_Z   4
loop_
 _symmetry_equiv_pos_site_id
 _symmetry_equiv_pos_as_xyz
  1  'x, y, z'
loop_
 _atom_site_type_symbol
 _atom_site_label
 _atom_site_symmetry_multiplicity
 _atom_site_fract_x
 _atom_site_fract_y
 _atom_site_fract_z
 _atom_site_occupancy
  Li  Li0  1  0.883329  0.939059  0.368446  1
  Li  Li1  1  0.383329  0.060941  0.131554  1
  Li  Li2  1  0.616671  0.560941  0.868446  1
  Li  Li3  1  0.116671  0.439059  0.631554  1
  Li  Li4  1  0.116671  0.060941  0.631554  1
  Li  Li5  1  0.616671  0.939059  0.868446  1
  Li  Li6  1  0.383329  0.439059  0.131554  1
  Li  Li7  1  0.883329  0.560941  0.368446  1
  Li  Li8  1  0.371777  0.921447  0.398052  1
  Li  Li9  1  0.871777  0.078553  0.101948  1
  Li  Li10  1  0.128223  0.578553  0.898052  1
  Li  Li11  1  0.628223  0.421447  0.601948  1
  Li  Li12  1  0.628223  0.078553  0.601948  1
  Li  Li13  1  0.128223  0.921447  0.898052  1
  Li  Li14  1  0.871777  0.421447  0.101948  1
  Li  Li15  1  0.371777  0.578553  0.398052  1
  Tb  Tb16  1  0.634182  0.750000  0.135292  1
  Tb  Tb17  1  0.134182  0.250000  0.364708  1
  Tb  Tb18  1  0.865818  0.750000  0.635292  1
  Tb  Tb19  1  0.365818  0.250000  0.864708  1
  F  F20  1  0.859545  0.889195  0.012529  1
  F  F21  1  0.359545  0.110805  0.487471  1
  F  F22  1  0.640455  0.610805  0.512529  1
  F  F23  1  0.140455  0.389195  0.987471  1
  F  F24  1  0.140455  0.110805  0.987471  1
  F  F25  1  0.640455  0.889195  0.512529  1
  F  F26  1  0.359545  0.389195  0.487471  1
  F  F27  1  0.859545  0.610805  0.012529  1
  F  F28  1  0.388213  0.884719  0.018541  1
  F  F29  1  0.888213  0.115281  0.481459  1
  F  F30  1  0.111787  0.615281  0.518541  1
  F  F31  1  0.611787  0.384719  0.981459  1
  F  F32  1  0.611787  0.115281  0.981459  1
  F  F33  1  0.111787  0.884719  0.518541  1
  F  F34  1  0.888213  0.384719  0.481459  1
  F  F35  1  0.388213  0.615281  0.018541  1
  F  F36  1  0.633682  0.531418  0.233382  1
  F  F37  1  0.133682  0.468582  0.266618  1
  F  F38  1  0.866318  0.968582  0.733382  1
  F  F39  1  0.366318  0.031418  0.766618  1
  F  F40  1  0.366318  0.468582  0.766618  1
  F  F41  1  0.866318  0.531418  0.733382  1
  F  F42  1  0.133682  0.031418  0.266618  1
  F  F43  1  0.633682  0.968582  0.233382  1
  F  F44  1  0.889533  0.750000  0.301349  1
  F  F45  1  0.389533  0.250000  0.198651  1
  F  F46  1  0.610467  0.750000  0.801349  1
  F  F47  1  0.110467  0.250000  0.698651  1
  F  F48  1  0.375676  0.750000  0.301270  1
  F  F49  1  0.875676  0.250000  0.198730  1
  F  F50  1  0.124324  0.750000  0.801270  1
  F  F51  1  0.624324  0.250000  0.698730  1
