# generated using pymatgen
data_RbFeO2
_symmetry_space_group_name_H-M   'P 1'
_cell_length_a   5.82768123
_cell_length_b   11.72609895
_cell_length_c   16.68361380
_cell_angle_alpha   90.00000000
_cell_angle_beta   90.00000000
_cell_angle_gamma   90.00000000
_symmetry_Int_Tables_number   1
_chemical_formula_structural   RbFeO2
_chemical_formula_sum   'Rb16 Fe16 O32'
_cell_volume   1140.09087794
_cell_formula_units_Z   16
loop_
 _symmetry_equiv_pos_site_id
 _symmetry_equiv_pos_as_xyz
  1  'x, y, z'
loop_
 _atom_site_type_symbol
 _atom_site_label
 _atom_site_symmetry_multiplicity
 _atom_site_fract_x
 _atom_site_fract_y
 _atom_site_fract_z
 _atom_site_occupancy
  Rb  Rb0  1  0.800347  0.239402  0.814649  1
  Rb  Rb1  1  0.300347  0.260598  0.185351  1
  Rb  Rb2  1  0.748206  0.510837  0.438005  1
  Rb  Rb3  1  0.251794  0.010837  0.061995  1
  Rb  Rb4  1  0.748206  0.989163  0.938005  1
  Rb  Rb5  1  0.248206  0.510837  0.061995  1
  Rb  Rb6  1  0.300347  0.239402  0.685351  1
  Rb  Rb7  1  0.699653  0.739402  0.814649  1
  Rb  Rb8  1  0.751794  0.010837  0.438005  1
  Rb  Rb9  1  0.699653  0.760598  0.314649  1
  Rb  Rb10  1  0.248206  0.989163  0.561995  1
  Rb  Rb11  1  0.199653  0.739402  0.685351  1
  Rb  Rb12  1  0.199653  0.760598  0.185351  1
  Rb  Rb13  1  0.800347  0.260598  0.314649  1
  Rb  Rb14  1  0.251794  0.489163  0.561995  1
  Rb  Rb15  1  0.751794  0.489163  0.938005  1
  Fe  Fe16  1  0.714733  0.739042  0.563631  1
  Fe  Fe17  1  0.714733  0.760958  0.063631  1
  Fe  Fe18  1  0.785267  0.260958  0.063631  1
  Fe  Fe19  1  0.254591  0.494433  0.811265  1
  Fe  Fe20  1  0.745409  0.505567  0.188735  1
  Fe  Fe21  1  0.745409  0.994433  0.688735  1
  Fe  Fe22  1  0.785267  0.239042  0.563631  1
  Fe  Fe23  1  0.285267  0.239042  0.936369  1
  Fe  Fe24  1  0.245409  0.994433  0.811265  1
  Fe  Fe25  1  0.285267  0.260958  0.436369  1
  Fe  Fe26  1  0.254591  0.005567  0.311265  1
  Fe  Fe27  1  0.214733  0.760958  0.436369  1
  Fe  Fe28  1  0.245409  0.505567  0.311265  1
  Fe  Fe29  1  0.754591  0.494433  0.688735  1
  Fe  Fe30  1  0.214733  0.739042  0.936369  1
  Fe  Fe31  1  0.754591  0.005567  0.188735  1
  O  O32  1  0.306541  0.157648  0.348405  1
  O  O33  1  0.557612  0.020460  0.780951  1
  O  O34  1  0.193459  0.657648  0.348405  1
  O  O35  1  0.332071  0.902446  0.395906  1
  O  O36  1  0.417772  0.710480  0.518944  1
  O  O37  1  0.167929  0.097554  0.895906  1
  O  O38  1  0.082228  0.210480  0.518944  1
  O  O39  1  0.442388  0.979540  0.219049  1
  O  O40  1  0.193459  0.842352  0.848405  1
  O  O41  1  0.417772  0.789520  0.018944  1
  O  O42  1  0.442388  0.520460  0.719049  1
  O  O43  1  0.693459  0.657648  0.151595  1
  O  O44  1  0.667929  0.097554  0.604094  1
  O  O45  1  0.057612  0.479540  0.219049  1
  O  O46  1  0.082228  0.289520  0.018944  1
  O  O47  1  0.332071  0.597554  0.895906  1
  O  O48  1  0.667929  0.402446  0.104094  1
  O  O49  1  0.942388  0.520460  0.780951  1
  O  O50  1  0.917772  0.789520  0.481056  1
  O  O51  1  0.557612  0.479540  0.280951  1
  O  O52  1  0.917772  0.710480  0.981056  1
  O  O53  1  0.942388  0.979540  0.280951  1
  O  O54  1  0.832071  0.902446  0.104094  1
  O  O55  1  0.167929  0.402446  0.395906  1
  O  O56  1  0.806541  0.157648  0.151595  1
  O  O57  1  0.806541  0.342352  0.651595  1
  O  O58  1  0.832071  0.597554  0.604094  1
  O  O59  1  0.693459  0.842352  0.651595  1
  O  O60  1  0.582228  0.210480  0.981056  1
  O  O61  1  0.306541  0.342352  0.848405  1
  O  O62  1  0.582228  0.289520  0.481056  1
  O  O63  1  0.057612  0.020460  0.719049  1
