# generated using pymatgen
data_RbLiMoO4
_symmetry_space_group_name_H-M   'P 1'
_cell_length_a   5.75533753
_cell_length_b   5.75533753
_cell_length_c   10.23333595
_cell_angle_alpha   72.17069635
_cell_angle_beta   107.82930365
_cell_angle_gamma   119.48257566
_symmetry_Int_Tables_number   1
_chemical_formula_structural   RbLiMoO4
_chemical_formula_sum   'Rb2 Li2 Mo2 O8'
_cell_volume   275.91293932
_cell_formula_units_Z   2
loop_
 _symmetry_equiv_pos_site_id
 _symmetry_equiv_pos_as_xyz
  1  'x, y, z'
loop_
 _atom_site_type_symbol
 _atom_site_label
 _atom_site_symmetry_multiplicity
 _atom_site_fract_x
 _atom_site_fract_y
 _atom_site_fract_z
 _atom_site_occupancy
  Rb  Rb0  1  0.471042  0.976277  0.497711  1
  Rb  Rb1  1  0.023723  0.528958  0.997711  1
  Li  Li2  1  0.367679  0.116753  0.127597  1
  Li  Li3  1  0.883247  0.632321  0.627597  1
  Mo  Mo4  1  0.248673  0.247685  0.751888  1
  Mo  Mo5  1  0.752315  0.751327  0.251888  1
  O  O6  1  0.502714  0.416151  0.222933  1
  O  O7  1  0.225154  0.202772  0.929837  1
  O  O8  1  0.070596  0.817619  0.218457  1
  O  O9  1  0.182381  0.929404  0.718457  1
  O  O10  1  0.797228  0.774846  0.429837  1
  O  O11  1  0.004354  0.362755  0.636578  1
  O  O12  1  0.637245  0.995646  0.136578  1
  O  O13  1  0.583849  0.497286  0.722933  1
