# generated using pymatgen
data_Cs2Te
_symmetry_space_group_name_H-M   'P 1'
_cell_length_a   5.91653978
_cell_length_b   9.52704483
_cell_length_c   11.62128462
_cell_angle_alpha   90.00000000
_cell_angle_beta   90.00000000
_cell_angle_gamma   90.00000000
_symmetry_Int_Tables_number   1
_chemical_formula_structural   Cs2Te
_chemical_formula_sum   'Cs8 Te4'
_cell_volume   655.05857393
_cell_formula_units_Z   4
loop_
 _symmetry_equiv_pos_site_id
 _symmetry_equiv_pos_as_xyz
  1  'x, y, z'
loop_
 _atom_site_type_symbol
 _atom_site_label
 _atom_site_symmetry_multiplicity
 _atom_site_fract_x
 _atom_site_fract_y
 _atom_site_fract_z
 _atom_site_occupancy
  Cs  Cs0  1  0.750000  0.477106  0.325313  1
  Cs  Cs1  1  0.250000  0.022894  0.825313  1
  Cs  Cs2  1  0.750000  0.849629  0.573055  1
  Cs  Cs3  1  0.250000  0.150371  0.426945  1
  Cs  Cs4  1  0.250000  0.522894  0.674687  1
  Cs  Cs5  1  0.250000  0.650371  0.073055  1
  Cs  Cs6  1  0.750000  0.349629  0.926945  1
  Cs  Cs7  1  0.750000  0.977106  0.174687  1
  Te  Te8  1  0.250000  0.246593  0.111826  1
  Te  Te9  1  0.750000  0.253407  0.611826  1
  Te  Te10  1  0.250000  0.746593  0.388174  1
  Te  Te11  1  0.750000  0.753407  0.888174  1
