# generated using pymatgen
data_KNaMnO2
_symmetry_space_group_name_H-M   'P 1'
_cell_length_a   6.83738375
_cell_length_b   6.83738375
_cell_length_c   7.09587745
_cell_angle_alpha   90.00000000
_cell_angle_beta   90.00000000
_cell_angle_gamma   91.34138835
_symmetry_Int_Tables_number   1
_chemical_formula_structural   KNaMnO2
_chemical_formula_sum   'K4 Na4 Mn4 O8'
_cell_volume   331.64006134
_cell_formula_units_Z   4
loop_
 _symmetry_equiv_pos_site_id
 _symmetry_equiv_pos_as_xyz
  1  'x, y, z'
loop_
 _atom_site_type_symbol
 _atom_site_label
 _atom_site_symmetry_multiplicity
 _atom_site_fract_x
 _atom_site_fract_y
 _atom_site_fract_z
 _atom_site_occupancy
  K  K0  1  0.500000  0.000000  0.500000  1
  K  K1  1  0.000000  0.500000  0.000000  1
  K  K2  1  0.000000  0.000000  0.250000  1
  K  K3  1  0.000000  0.000000  0.750000  1
  Na  Na4  1  0.649687  0.649687  0.250000  1
  Na  Na5  1  0.350313  0.350313  0.250000  1
  Na  Na6  1  0.649687  0.649687  0.750000  1
  Na  Na7  1  0.350313  0.350313  0.750000  1
  Mn  Mn8  1  0.372576  0.836783  0.000000  1
  Mn  Mn9  1  0.836783  0.372576  0.500000  1
  Mn  Mn10  1  0.627424  0.163217  0.000000  1
  Mn  Mn11  1  0.163217  0.627424  0.500000  1
  O  O12  1  0.696263  0.303737  0.750000  1
  O  O13  1  0.691808  0.864324  0.000000  1
  O  O14  1  0.696263  0.303737  0.250000  1
  O  O15  1  0.303737  0.696263  0.250000  1
  O  O16  1  0.308192  0.135676  0.000000  1
  O  O17  1  0.864324  0.691808  0.500000  1
  O  O18  1  0.135676  0.308192  0.500000  1
  O  O19  1  0.303737  0.696263  0.750000  1
