# generated using pymatgen
data_Sr(BiPd)2
_symmetry_space_group_name_H-M   'P 1'
_cell_length_a   4.95659729
_cell_length_b   4.84886289
_cell_length_c   10.94894671
_cell_angle_alpha   90.00000000
_cell_angle_beta   92.19390242
_cell_angle_gamma   90.00000000
_symmetry_Int_Tables_number   1
_chemical_formula_structural   Sr(BiPd)2
_chemical_formula_sum   'Sr2 Bi4 Pd4'
_cell_volume   262.95257304
_cell_formula_units_Z   2
loop_
 _symmetry_equiv_pos_site_id
 _symmetry_equiv_pos_as_xyz
  1  'x, y, z'
loop_
 _atom_site_type_symbol
 _atom_site_label
 _atom_site_symmetry_multiplicity
 _atom_site_fract_x
 _atom_site_fract_y
 _atom_site_fract_z
 _atom_site_occupancy
  Sr  Sr0  1  0.740230  0.250000  0.236678  1
  Sr  Sr1  1  0.259770  0.750000  0.763322  1
  Bi  Bi2  1  0.791086  0.250000  0.880471  1
  Bi  Bi3  1  0.208914  0.750000  0.119529  1
  Bi  Bi4  1  0.749936  0.750000  0.498391  1
  Bi  Bi5  1  0.250064  0.250000  0.501609  1
  Pd  Pd6  1  0.758196  0.250000  0.630393  1
  Pd  Pd7  1  0.241804  0.750000  0.369607  1
  Pd  Pd8  1  0.309287  0.250000  0.999967  1
  Pd  Pd9  1  0.690713  0.750000  0.000033  1
