# generated using pymatgen
data_Tb2Zn17
_symmetry_space_group_name_H-M   'P 1'
_cell_length_a   6.80270788
_cell_length_b   6.80270788
_cell_length_c   6.80270788
_cell_angle_alpha   82.55451169
_cell_angle_beta   82.55451169
_cell_angle_gamma   82.55451169
_symmetry_Int_Tables_number   1
_chemical_formula_structural   Tb2Zn17
_chemical_formula_sum   'Tb2 Zn17'
_cell_volume   307.47821122
_cell_formula_units_Z   1
loop_
 _symmetry_equiv_pos_site_id
 _symmetry_equiv_pos_as_xyz
  1  'x, y, z'
loop_
 _atom_site_type_symbol
 _atom_site_label
 _atom_site_symmetry_multiplicity
 _atom_site_fract_x
 _atom_site_fract_y
 _atom_site_fract_z
 _atom_site_occupancy
  Tb  Tb0  1  0.665143  0.665143  0.665143  1
  Tb  Tb1  1  0.334857  0.334857  0.334857  1
  Zn  Zn2  1  0.648318  0.648318  0.161595  1
  Zn  Zn3  1  0.296834  0.703166  0.000000  1
  Zn  Zn4  1  1.000000  0.296834  0.703166  1
  Zn  Zn5  1  0.296834  1.000000  0.703166  1
  Zn  Zn6  1  0.703166  0.296834  0.000000  1
  Zn  Zn7  1  0.838405  0.351682  0.351682  1
  Zn  Zn8  1  0.100096  0.100096  0.100096  1
  Zn  Zn9  1  0.703166  0.000000  0.296834  1
  Zn  Zn10  1  0.500000  0.000000  0.000000  1
  Zn  Zn11  1  0.351682  0.838405  0.351682  1
  Zn  Zn12  1  0.351682  0.351682  0.838405  1
  Zn  Zn13  1  0.899904  0.899904  0.899904  1
  Zn  Zn14  1  0.648318  0.161595  0.648318  1
  Zn  Zn15  1  0.161595  0.648318  0.648318  1
  Zn  Zn16  1  1.000000  0.703166  0.296834  1
  Zn  Zn17  1  0.000000  0.000000  0.500000  1
  Zn  Zn18  1  0.000000  0.500000  0.000000  1
