# generated using pymatgen
data_LiReO4
_symmetry_space_group_name_H-M   'P 1'
_cell_length_a   7.04896293
_cell_length_b   8.61973454
_cell_length_c   9.87723826
_cell_angle_alpha   97.32880201
_cell_angle_beta   106.37528897
_cell_angle_gamma   101.57591120
_symmetry_Int_Tables_number   1
_chemical_formula_structural   LiReO4
_chemical_formula_sum   'Li6 Re6 O24'
_cell_volume   553.15600957
_cell_formula_units_Z   6
loop_
 _symmetry_equiv_pos_site_id
 _symmetry_equiv_pos_as_xyz
  1  'x, y, z'
loop_
 _atom_site_type_symbol
 _atom_site_label
 _atom_site_symmetry_multiplicity
 _atom_site_fract_x
 _atom_site_fract_y
 _atom_site_fract_z
 _atom_site_occupancy
  Li  Li0  1  0.532549  0.613675  0.783801  1
  Li  Li1  1  0.467451  0.386325  0.216199  1
  Li  Li2  1  0.038075  0.193695  0.989713  1
  Li  Li3  1  0.961925  0.806305  0.010287  1
  Li  Li4  1  0.248775  0.803744  0.588527  1
  Li  Li5  1  0.751225  0.196256  0.411473  1
  Re  Re6  1  0.796556  0.902841  0.659333  1
  Re  Re7  1  0.203444  0.097159  0.340667  1
  Re  Re8  1  0.992997  0.504226  0.744282  1
  Re  Re9  1  0.007003  0.495774  0.255718  1
  Re  Re10  1  0.479458  0.206760  0.877129  1
  Re  Re11  1  0.520542  0.793240  0.122871  1
  O  O12  1  0.933209  0.798416  0.573768  1
  O  O13  1  0.066791  0.201584  0.426232  1
  O  O14  1  0.140337  0.372861  0.181255  1
  O  O15  1  0.859663  0.627139  0.818745  1
  O  O16  1  0.730616  0.196277  0.955555  1
  O  O17  1  0.269384  0.803723  0.044445  1
  O  O18  1  0.955218  0.639086  0.150323  1
  O  O19  1  0.044782  0.360914  0.849677  1
  O  O20  1  0.251585  0.937381  0.425133  1
  O  O21  1  0.748415  0.062619  0.574867  1
  O  O22  1  0.774363  0.378886  0.261151  1
  O  O23  1  0.225637  0.621114  0.738849  1
  O  O24  1  0.941501  0.978551  0.841472  1
  O  O25  1  0.058499  0.021449  0.158528  1
  O  O26  1  0.516780  0.626409  0.207899  1
  O  O27  1  0.483220  0.373591  0.792101  1
  O  O28  1  0.653374  0.970813  0.249164  1
  O  O29  1  0.346626  0.029187  0.750836  1
  O  O30  1  0.159293  0.595353  0.428269  1
  O  O31  1  0.840707  0.404647  0.571731  1
  O  O32  1  0.366152  0.231005  0.014258  1
  O  O33  1  0.633848  0.768995  0.985742  1
  O  O34  1  0.560327  0.774740  0.647041  1
  O  O35  1  0.439673  0.225260  0.352959  1
