# generated using pymatgen
data_Zr3O
_symmetry_space_group_name_H-M   'P 1'
_cell_length_a   10.98066087
_cell_length_b   10.98066087
_cell_length_c   10.98066087
_cell_angle_alpha   29.91017423
_cell_angle_beta   29.91017423
_cell_angle_gamma   29.91017423
_symmetry_Int_Tables_number   1
_chemical_formula_structural   Zr3O
_chemical_formula_sum   'Zr12 O4'
_cell_volume   291.56249534
_cell_formula_units_Z   4
loop_
 _symmetry_equiv_pos_site_id
 _symmetry_equiv_pos_as_xyz
  1  'x, y, z'
loop_
 _atom_site_type_symbol
 _atom_site_label
 _atom_site_symmetry_multiplicity
 _atom_site_fract_x
 _atom_site_fract_y
 _atom_site_fract_z
 _atom_site_occupancy
  Zr  Zr0  1  0.161048  0.838952  0.500000  1
  Zr  Zr1  1  0.500000  0.161048  0.838952  1
  Zr  Zr2  1  0.922805  0.243163  0.584928  1
  Zr  Zr3  1  0.658920  0.341080  0.000000  1
  Zr  Zr4  1  0.341080  0.000000  0.658920  1
  Zr  Zr5  1  0.077195  0.415072  0.756837  1
  Zr  Zr6  1  1.000000  0.658920  0.341080  1
  Zr  Zr7  1  0.415072  0.756837  0.077195  1
  Zr  Zr8  1  0.584928  0.922805  0.243163  1
  Zr  Zr9  1  0.838952  0.500000  0.161048  1
  Zr  Zr10  1  0.756837  0.077195  0.415072  1
  Zr  Zr11  1  0.243163  0.584928  0.922805  1
  O  O12  1  0.708472  0.708472  0.708472  1
  O  O13  1  0.874802  0.874802  0.874802  1
  O  O14  1  0.291528  0.291528  0.291528  1
  O  O15  1  0.125198  0.125198  0.125198  1
