# generated using pymatgen
data_Li2U3(PO5)4
_symmetry_space_group_name_H-M   'P 1'
_cell_length_a   5.40920597
_cell_length_b   6.77823948
_cell_length_c   12.67930568
_cell_angle_alpha   94.82509605
_cell_angle_beta   99.13944457
_cell_angle_gamma   110.45147570
_symmetry_Int_Tables_number   1
_chemical_formula_structural   Li2U3(PO5)4
_chemical_formula_sum   'Li2 U3 P4 O20'
_cell_volume   425.12707744
_cell_formula_units_Z   1
loop_
 _symmetry_equiv_pos_site_id
 _symmetry_equiv_pos_as_xyz
  1  'x, y, z'
loop_
 _atom_site_type_symbol
 _atom_site_label
 _atom_site_symmetry_multiplicity
 _atom_site_fract_x
 _atom_site_fract_y
 _atom_site_fract_z
 _atom_site_occupancy
  Li  Li0  1  0.392125  0.926026  0.188982  1
  Li  Li1  1  0.607875  0.073974  0.811018  1
  U  U2  1  0.882119  0.842618  0.631486  1
  U  U3  1  0.117881  0.157382  0.368514  1
  U  U4  1  0.000000  0.500000  0.000000  1
  P  P5  1  0.993167  0.329262  0.643192  1
  P  P6  1  0.479180  0.572494  0.814788  1
  P  P7  1  0.520820  0.427506  0.185212  1
  P  P8  1  0.006833  0.670738  0.356808  1
  O  O9  1  0.322189  0.223787  0.213066  1
  O  O10  1  0.991376  0.189782  0.540318  1
  O  O11  1  0.941677  0.222400  0.955578  1
  O  O12  1  0.775630  0.052996  0.288363  1
  O  O13  1  0.712818  0.384715  0.117989  1
  O  O14  1  0.454748  0.245444  0.445049  1
  O  O15  1  0.375153  0.565292  0.132981  1
  O  O16  1  0.624847  0.434708  0.867019  1
  O  O17  1  0.058323  0.777600  0.044422  1
  O  O18  1  0.110412  0.492401  0.372890  1
  O  O19  1  0.846007  0.169424  0.711861  1
  O  O20  1  0.677811  0.776213  0.786934  1
  O  O21  1  0.287182  0.615285  0.882011  1
  O  O22  1  0.889588  0.507599  0.627110  1
  O  O23  1  0.307353  0.432767  0.700481  1
  O  O24  1  0.008624  0.810218  0.459682  1
  O  O25  1  0.692647  0.567233  0.299519  1
  O  O26  1  0.224370  0.947004  0.711637  1
  O  O27  1  0.545252  0.754556  0.554951  1
  O  O28  1  0.153993  0.830576  0.288139  1
