# generated using pymatgen
data_NaSiBO4
_symmetry_space_group_name_H-M   'P 1'
_cell_length_a   8.13476058
_cell_length_b   8.13476058
_cell_length_c   7.78641900
_cell_angle_alpha   90.00000000
_cell_angle_beta   90.00000000
_cell_angle_gamma   120.00000000
_symmetry_Int_Tables_number   1
_chemical_formula_structural   NaSiBO4
_chemical_formula_sum   'Na6 Si6 B6 O24'
_cell_volume   446.22916592
_cell_formula_units_Z   6
loop_
 _symmetry_equiv_pos_site_id
 _symmetry_equiv_pos_as_xyz
  1  'x, y, z'
loop_
 _atom_site_type_symbol
 _atom_site_label
 _atom_site_symmetry_multiplicity
 _atom_site_fract_x
 _atom_site_fract_y
 _atom_site_fract_z
 _atom_site_occupancy
  Na  Na0  1  0.000000  0.000000  0.231346  1
  Na  Na1  1  0.333333  0.666667  0.268500  1
  Na  Na2  1  0.666667  0.333333  0.768500  1
  Na  Na3  1  0.666667  0.333333  0.201053  1
  Na  Na4  1  0.000000  0.000000  0.731346  1
  Na  Na5  1  0.333333  0.666667  0.701053  1
  Si  Si6  1  0.682215  0.660584  0.512542  1
  Si  Si7  1  0.339416  0.021631  0.512542  1
  Si  Si8  1  0.317785  0.339416  0.012542  1
  Si  Si9  1  0.021631  0.682215  0.012542  1
  Si  Si10  1  0.978369  0.317785  0.512542  1
  Si  Si11  1  0.660584  0.978369  0.012542  1
  B  B12  1  0.017865  0.679770  0.392459  1
  B  B13  1  0.338095  0.017865  0.892459  1
  B  B14  1  0.320230  0.338095  0.392459  1
  B  B15  1  0.679770  0.661905  0.892459  1
  B  B16  1  0.982135  0.320230  0.892459  1
  B  B17  1  0.661905  0.982135  0.392459  1
  O  O18  1  0.189476  0.398612  0.892737  1
  O  O19  1  0.090895  0.723136  0.212792  1
  O  O20  1  0.139916  0.254235  0.489612  1
  O  O21  1  0.367759  0.090895  0.712792  1
  O  O22  1  0.885681  0.139916  0.989612  1
  O  O23  1  0.632241  0.909105  0.212792  1
  O  O24  1  0.398612  0.209136  0.392737  1
  O  O25  1  0.114319  0.860084  0.489612  1
  O  O26  1  0.472070  0.928609  0.466692  1
  O  O27  1  0.209136  0.810524  0.892737  1
  O  O28  1  0.071391  0.543461  0.466692  1
  O  O29  1  0.254235  0.114319  0.989612  1
  O  O30  1  0.928609  0.456539  0.966692  1
  O  O31  1  0.909105  0.276864  0.712792  1
  O  O32  1  0.276864  0.367759  0.212792  1
  O  O33  1  0.860084  0.745765  0.989612  1
  O  O34  1  0.456539  0.527930  0.466692  1
  O  O35  1  0.543461  0.472070  0.966692  1
  O  O36  1  0.810524  0.601388  0.392737  1
  O  O37  1  0.723136  0.632241  0.712792  1
  O  O38  1  0.745765  0.885681  0.489612  1
  O  O39  1  0.527930  0.071391  0.966692  1
  O  O40  1  0.601388  0.790864  0.892737  1
  O  O41  1  0.790864  0.189476  0.392737  1
