# generated using pymatgen
data_Na10(Ga2Sn)3
_symmetry_space_group_name_H-M   'P 1'
_cell_length_a   14.64147607
_cell_length_b   14.64147607
_cell_length_c   9.04263763
_cell_angle_alpha   90.00000000
_cell_angle_beta   90.00000000
_cell_angle_gamma   90.00000000
_symmetry_Int_Tables_number   1
_chemical_formula_structural   Na10(Ga2Sn)3
_chemical_formula_sum   'Na40 Ga24 Sn12'
_cell_volume   1938.49574262
_cell_formula_units_Z   4
loop_
 _symmetry_equiv_pos_site_id
 _symmetry_equiv_pos_as_xyz
  1  'x, y, z'
loop_
 _atom_site_type_symbol
 _atom_site_label
 _atom_site_symmetry_multiplicity
 _atom_site_fract_x
 _atom_site_fract_y
 _atom_site_fract_z
 _atom_site_occupancy
  Na  Na0  1  0.506693  0.776274  0.307359  1
  Na  Na1  1  0.589861  0.589861  0.500000  1
  Na  Na2  1  0.633479  0.815049  0.000000  1
  Na  Na3  1  0.184951  0.366521  0.000000  1
  Na  Na4  1  0.506693  0.776274  0.692641  1
  Na  Na5  1  0.493307  0.223726  0.692641  1
  Na  Na6  1  0.815049  0.633479  0.000000  1
  Na  Na7  1  0.264153  0.735847  0.184170  1
  Na  Na8  1  0.223726  0.493307  0.692641  1
  Na  Na9  1  0.866521  0.315049  0.500000  1
  Na  Na10  1  0.089861  0.910139  0.000000  1
  Na  Na11  1  0.735847  0.264153  0.815830  1
  Na  Na12  1  0.764153  0.764153  0.684170  1
  Na  Na13  1  0.276274  0.993307  0.807359  1
  Na  Na14  1  0.993307  0.276274  0.192641  1
  Na  Na15  1  0.133479  0.684951  0.500000  1
  Na  Na16  1  0.264153  0.735847  0.815830  1
  Na  Na17  1  0.776274  0.506693  0.692641  1
  Na  Na18  1  0.223726  0.493307  0.307359  1
  Na  Na19  1  0.006693  0.723726  0.807359  1
  Na  Na20  1  0.410139  0.410139  0.500000  1
  Na  Na21  1  0.235847  0.235847  0.315830  1
  Na  Na22  1  0.366521  0.184951  0.000000  1
  Na  Na23  1  0.500000  0.000000  0.250000  1
  Na  Na24  1  0.993307  0.276274  0.807359  1
  Na  Na25  1  0.776274  0.506693  0.307359  1
  Na  Na26  1  0.276274  0.993307  0.192641  1
  Na  Na27  1  0.723726  0.006693  0.192641  1
  Na  Na28  1  0.735847  0.264153  0.184170  1
  Na  Na29  1  0.493307  0.223726  0.307359  1
  Na  Na30  1  0.723726  0.006693  0.807359  1
  Na  Na31  1  0.684951  0.133479  0.500000  1
  Na  Na32  1  0.315049  0.866521  0.500000  1
  Na  Na33  1  0.764153  0.764153  0.315830  1
  Na  Na34  1  0.910139  0.089861  0.000000  1
  Na  Na35  1  0.500000  0.000000  0.750000  1
  Na  Na36  1  0.235847  0.235847  0.684170  1
  Na  Na37  1  0.006693  0.723726  0.192641  1
  Na  Na38  1  0.000000  0.500000  0.750000  1
  Na  Na39  1  0.000000  0.500000  0.250000  1
  Ga  Ga40  1  0.065390  0.065390  0.259586  1
  Ga  Ga41  1  0.610484  0.610484  0.150935  1
  Ga  Ga42  1  0.110484  0.889516  0.650935  1
  Ga  Ga43  1  0.434610  0.565390  0.759586  1
  Ga  Ga44  1  0.389516  0.389516  0.849065  1
  Ga  Ga45  1  0.110484  0.889516  0.349065  1
  Ga  Ga46  1  0.824731  0.958218  0.500000  1
  Ga  Ga47  1  0.041782  0.175269  0.500000  1
  Ga  Ga48  1  0.541782  0.324731  0.000000  1
  Ga  Ga49  1  0.434610  0.565390  0.240414  1
  Ga  Ga50  1  0.389516  0.389516  0.150935  1
  Ga  Ga51  1  0.889516  0.110484  0.650935  1
  Ga  Ga52  1  0.324731  0.541782  0.000000  1
  Ga  Ga53  1  0.175269  0.041782  0.500000  1
  Ga  Ga54  1  0.675269  0.458218  0.000000  1
  Ga  Ga55  1  0.934610  0.934610  0.740414  1
  Ga  Ga56  1  0.934610  0.934610  0.259586  1
  Ga  Ga57  1  0.565390  0.434610  0.759586  1
  Ga  Ga58  1  0.889516  0.110484  0.349065  1
  Ga  Ga59  1  0.458218  0.675269  0.000000  1
  Ga  Ga60  1  0.958218  0.824731  0.500000  1
  Ga  Ga61  1  0.565390  0.434610  0.240414  1
  Ga  Ga62  1  0.065390  0.065390  0.740414  1
  Ga  Ga63  1  0.610484  0.610484  0.849065  1
  Sn  Sn64  1  0.085074  0.359220  0.500000  1
  Sn  Sn65  1  0.414926  0.859220  0.000000  1
  Sn  Sn66  1  0.142095  0.142095  0.000000  1
  Sn  Sn67  1  0.359220  0.085074  0.500000  1
  Sn  Sn68  1  0.585074  0.140780  0.000000  1
  Sn  Sn69  1  0.857905  0.857905  0.000000  1
  Sn  Sn70  1  0.859220  0.414926  0.000000  1
  Sn  Sn71  1  0.914926  0.640780  0.500000  1
  Sn  Sn72  1  0.642095  0.357905  0.500000  1
  Sn  Sn73  1  0.357905  0.642095  0.500000  1
  Sn  Sn74  1  0.140780  0.585074  0.000000  1
  Sn  Sn75  1  0.640780  0.914926  0.500000  1
