# generated using pymatgen
data_Yb3B5O12
_symmetry_space_group_name_H-M   'P 1'
_cell_length_a   4.79943160
_cell_length_b   12.59407979
_cell_length_c   12.72959821
_cell_angle_alpha   90.00000000
_cell_angle_beta   90.00000000
_cell_angle_gamma   90.00000000
_symmetry_Int_Tables_number   1
_chemical_formula_structural   Yb3B5O12
_chemical_formula_sum   'Yb12 B20 O48'
_cell_volume   769.43323814
_cell_formula_units_Z   4
loop_
 _symmetry_equiv_pos_site_id
 _symmetry_equiv_pos_as_xyz
  1  'x, y, z'
loop_
 _atom_site_type_symbol
 _atom_site_label
 _atom_site_symmetry_multiplicity
 _atom_site_fract_x
 _atom_site_fract_y
 _atom_site_fract_z
 _atom_site_occupancy
  Yb  Yb0  1  0.003734  0.305050  0.638048  1
  Yb  Yb1  1  0.996266  0.694950  0.361952  1
  Yb  Yb2  1  0.003734  0.305050  0.361952  1
  Yb  Yb3  1  0.003734  0.194950  0.861952  1
  Yb  Yb4  1  0.000000  0.000000  0.361012  1
  Yb  Yb5  1  0.996266  0.805050  0.138048  1
  Yb  Yb6  1  0.000000  0.500000  0.861012  1
  Yb  Yb7  1  0.996266  0.805050  0.861952  1
  Yb  Yb8  1  0.000000  0.500000  0.138988  1
  Yb  Yb9  1  0.996266  0.694950  0.638048  1
  Yb  Yb10  1  0.003734  0.194950  0.138048  1
  Yb  Yb11  1  0.000000  0.000000  0.638988  1
  B  B12  1  0.547331  0.624313  0.500000  1
  B  B13  1  0.500000  0.500000  0.338167  1
  B  B14  1  0.452669  0.124313  0.000000  1
  B  B15  1  0.528229  0.151898  0.296926  1
  B  B16  1  0.500000  0.000000  0.838167  1
  B  B17  1  0.547331  0.875687  0.000000  1
  B  B18  1  0.528229  0.348102  0.796926  1
  B  B19  1  0.475043  0.341097  0.000000  1
  B  B20  1  0.471771  0.651898  0.796926  1
  B  B21  1  0.475043  0.158903  0.500000  1
  B  B22  1  0.500000  0.000000  0.161833  1
  B  B23  1  0.524957  0.658903  0.000000  1
  B  B24  1  0.528229  0.151898  0.703074  1
  B  B25  1  0.528229  0.348102  0.203074  1
  B  B26  1  0.452669  0.375687  0.500000  1
  B  B27  1  0.524957  0.841097  0.500000  1
  B  B28  1  0.471771  0.848102  0.296926  1
  B  B29  1  0.500000  0.500000  0.661833  1
  B  B30  1  0.471771  0.651898  0.203074  1
  B  B31  1  0.471771  0.848102  0.703074  1
  O  O32  1  0.348715  0.750000  0.250000  1
  O  O33  1  0.331811  0.429813  0.594114  1
  O  O34  1  0.668189  0.929813  0.905886  1
  O  O35  1  0.331811  0.429813  0.405886  1
  O  O36  1  0.324808  0.235968  0.000000  1
  O  O37  1  0.675622  0.433433  0.731928  1
  O  O38  1  0.324378  0.933433  0.231928  1
  O  O39  1  0.668189  0.570187  0.405886  1
  O  O40  1  0.767646  0.849987  0.703259  1
  O  O41  1  0.675192  0.764032  0.000000  1
  O  O42  1  0.744983  0.579639  0.000000  1
  O  O43  1  0.256132  0.637515  0.500000  1
  O  O44  1  0.743868  0.362485  0.500000  1
  O  O45  1  0.655064  0.145341  0.594941  1
  O  O46  1  0.675622  0.066567  0.768072  1
  O  O47  1  0.232354  0.150013  0.703259  1
  O  O48  1  0.767646  0.849987  0.296741  1
  O  O49  1  0.767646  0.650013  0.203259  1
  O  O50  1  0.655064  0.354659  0.094941  1
  O  O51  1  0.324808  0.264032  0.500000  1
  O  O52  1  0.743868  0.137515  0.000000  1
  O  O53  1  0.256132  0.862485  0.000000  1
  O  O54  1  0.344936  0.854659  0.405059  1
  O  O55  1  0.744983  0.920361  0.500000  1
  O  O56  1  0.255017  0.420361  0.000000  1
  O  O57  1  0.675192  0.735968  0.500000  1
  O  O58  1  0.344936  0.645341  0.905059  1
  O  O59  1  0.668189  0.929813  0.094114  1
  O  O60  1  0.344936  0.645341  0.094941  1
  O  O61  1  0.668189  0.570187  0.594114  1
  O  O62  1  0.651285  0.250000  0.250000  1
  O  O63  1  0.232354  0.150013  0.296741  1
  O  O64  1  0.324378  0.566567  0.731928  1
  O  O65  1  0.331811  0.070187  0.905886  1
  O  O66  1  0.232354  0.349987  0.203259  1
  O  O67  1  0.675622  0.433433  0.268072  1
  O  O68  1  0.331811  0.070187  0.094114  1
  O  O69  1  0.348715  0.750000  0.750000  1
  O  O70  1  0.324378  0.566567  0.268072  1
  O  O71  1  0.655064  0.145341  0.405059  1
  O  O72  1  0.255017  0.079639  0.500000  1
  O  O73  1  0.767646  0.650013  0.796741  1
  O  O74  1  0.232354  0.349987  0.796741  1
  O  O75  1  0.675622  0.066567  0.231928  1
  O  O76  1  0.324378  0.933433  0.768072  1
  O  O77  1  0.344936  0.854659  0.594941  1
  O  O78  1  0.651285  0.250000  0.750000  1
  O  O79  1  0.655064  0.354659  0.905059  1
