# generated using pymatgen
data_Cu3Te2(BrO3)2
_symmetry_space_group_name_H-M   'P 1'
_cell_length_a   5.73410362
_cell_length_b   5.73410362
_cell_length_c   8.36721998
_cell_angle_alpha   77.82333522
_cell_angle_beta   102.17666478
_cell_angle_gamma   113.20378424
_symmetry_Int_Tables_number   1
_chemical_formula_structural   Cu3Te2(BrO3)2
_chemical_formula_sum   'Cu3 Te2 Br2 O6'
_cell_volume   244.65642719
_cell_formula_units_Z   1
loop_
 _symmetry_equiv_pos_site_id
 _symmetry_equiv_pos_as_xyz
  1  'x, y, z'
loop_
 _atom_site_type_symbol
 _atom_site_label
 _atom_site_symmetry_multiplicity
 _atom_site_fract_x
 _atom_site_fract_y
 _atom_site_fract_z
 _atom_site_occupancy
  Cu  Cu0  1  0.910078  0.089922  0.132786  1
  Cu  Cu1  1  0.500000  0.500000  0.000000  1
  Cu  Cu2  1  0.089922  0.910078  0.867214  1
  Te  Te3  1  0.672939  0.327061  0.743925  1
  Te  Te4  1  0.327061  0.672939  0.256075  1
  Br  Br5  1  0.794693  0.205307  0.360890  1
  Br  Br6  1  0.205307  0.794693  0.639110  1
  O  O7  1  0.138510  0.861490  0.123031  1
  O  O8  1  0.776339  0.611977  0.869537  1
  O  O9  1  0.223661  0.388023  0.130463  1
  O  O10  1  0.388023  0.223661  0.869537  1
  O  O11  1  0.611977  0.776339  0.130463  1
  O  O12  1  0.861490  0.138510  0.876969  1
