# generated using pymatgen
data_Ba2Bi3
_symmetry_space_group_name_H-M   'P 1'
_cell_length_a   6.93648194
_cell_length_b   6.93648194
_cell_length_c   6.93648194
_cell_angle_alpha   137.98766116
_cell_angle_beta   111.24642535
_cell_angle_gamma   83.95090507
_symmetry_Int_Tables_number   1
_chemical_formula_structural   Ba2Bi3
_chemical_formula_sum   'Ba2 Bi3'
_cell_volume   200.87951988
_cell_formula_units_Z   1
loop_
 _symmetry_equiv_pos_site_id
 _symmetry_equiv_pos_as_xyz
  1  'x, y, z'
loop_
 _atom_site_type_symbol
 _atom_site_label
 _atom_site_symmetry_multiplicity
 _atom_site_fract_x
 _atom_site_fract_y
 _atom_site_fract_z
 _atom_site_occupancy
  Ba  Ba0  1  0.280232  0.780232  0.500000  1
  Ba  Ba1  1  0.719768  0.219768  0.500000  1
  Bi  Bi2  1  0.291744  0.500000  0.791744  1
  Bi  Bi3  1  0.000000  0.000000  0.000000  1
  Bi  Bi4  1  0.708256  0.500000  0.208256  1
