# generated using pymatgen
data_Nd10Ti12O39
_symmetry_space_group_name_H-M   'P 1'
_cell_length_a   7.27300913
_cell_length_b   10.29126862
_cell_length_c   12.53064600
_cell_angle_alpha   113.59612816
_cell_angle_beta   106.80973129
_cell_angle_gamma   88.92613695
_symmetry_Int_Tables_number   1
_chemical_formula_structural   Nd10Ti12O39
_chemical_formula_sum   'Nd10 Ti12 O39'
_cell_volume   817.70924784
_cell_formula_units_Z   1
loop_
 _symmetry_equiv_pos_site_id
 _symmetry_equiv_pos_as_xyz
  1  'x, y, z'
loop_
 _atom_site_type_symbol
 _atom_site_label
 _atom_site_symmetry_multiplicity
 _atom_site_fract_x
 _atom_site_fract_y
 _atom_site_fract_z
 _atom_site_occupancy
  Nd  Nd0  1  0.638428  0.174325  0.829392  1
  Nd  Nd1  1  0.835556  0.834577  0.680697  1
  Nd  Nd2  1  0.005333  0.492243  0.509085  1
  Nd  Nd3  1  0.347064  0.829549  0.687196  1
  Nd  Nd4  1  0.159488  0.157263  0.323832  1
  Nd  Nd5  1  0.494180  0.985785  0.493360  1
  Nd  Nd6  1  0.354746  0.830685  0.149032  1
  Nd  Nd7  1  0.667903  0.167576  0.335663  1
  Nd  Nd8  1  0.818327  0.352185  0.170971  1
  Nd  Nd9  1  0.024560  0.506674  0.979508  1
  Ti  Ti10  1  0.985360  0.999734  0.995922  1
  Ti  Ti11  1  0.495982  0.006769  0.005137  1
  Ti  Ti12  1  0.332428  0.335290  0.667502  1
  Ti  Ti13  1  0.493381  0.504487  0.500025  1
  Ti  Ti14  1  0.658259  0.660188  0.838403  1
  Ti  Ti15  1  0.824691  0.336314  0.665885  1
  Ti  Ti16  1  0.675286  0.666913  0.336352  1
  Ti  Ti17  1  0.165888  0.169623  0.840451  1
  Ti  Ti18  1  0.843488  0.829168  0.167713  1
  Ti  Ti19  1  0.002484  0.003814  0.505631  1
  Ti  Ti20  1  0.166882  0.673484  0.330406  1
  Ti  Ti21  1  0.321866  0.336007  0.166484  1
  O  O22  1  0.327020  0.256152  0.783065  1
  O  O23  1  0.776837  0.667136  0.000723  1
  O  O24  1  0.752546  0.105367  0.002022  1
  O  O25  1  0.875752  0.820995  0.871676  1
  O  O26  1  0.850626  0.521457  0.794658  1
  O  O27  1  0.710500  0.610937  0.483127  1
  O  O28  1  0.931954  0.285798  0.818248  1
  O  O29  1  0.071751  0.386400  0.652665  1
  O  O30  1  0.260594  0.947007  0.012604  1
  O  O31  1  0.086012  0.983075  0.662569  1
  O  O32  1  0.382673  0.058418  0.866295  1
  O  O33  1  0.016880  0.945501  0.131289  1
  O  O34  1  0.215778  0.130093  0.524840  1
  O  O35  1  0.176384  0.852207  0.454470  1
  O  O36  1  0.274289  0.614452  0.480592  1
  O  O37  1  0.461379  0.514100  0.784772  1
  O  O38  1  0.497689  0.815922  0.873101  1
  O  O39  1  0.585111  0.661863  0.669432  1
  O  O40  1  0.416143  0.023343  0.317640  1
  O  O41  1  0.579315  0.955887  0.676768  1
  O  O42  1  0.420579  0.731693  0.338120  1
  O  O43  1  0.579914  0.245052  0.661874  1
  O  O44  1  0.414219  0.349419  0.336599  1
  O  O45  1  0.520983  0.197276  0.138992  1
  O  O46  1  0.709972  0.385129  0.531673  1
  O  O47  1  0.551896  0.479367  0.215509  1
  O  O48  1  0.979608  0.055272  0.860239  1
  O  O49  1  0.626203  0.940117  0.128763  1
  O  O50  1  0.777511  0.857936  0.471857  1
  O  O51  1  0.813133  0.135545  0.532219  1
  O  O52  1  0.915927  0.994247  0.330418  1
  O  O53  1  0.914029  0.304597  0.335011  1
  O  O54  1  0.922049  0.591805  0.332064  1
  O  O55  1  0.078002  0.729981  0.192555  1
  O  O56  1  0.313602  0.387967  0.529483  1
  O  O57  1  0.118391  0.200485  0.141395  1
  O  O58  1  0.118377  0.472196  0.176156  1
  O  O59  1  0.250665  0.318167  0.996385  1
  O  O60  1  0.664128  0.739987  0.211482  1
