# generated using pymatgen
data_LiUBO5
_symmetry_space_group_name_H-M   'P 1'
_cell_length_a   5.90077871
_cell_length_b   10.69218318
_cell_length_c   6.87387648
_cell_angle_alpha   90.00000000
_cell_angle_beta   104.94178766
_cell_angle_gamma   90.00000000
_symmetry_Int_Tables_number   1
_chemical_formula_structural   LiUBO5
_chemical_formula_sum   'Li4 U4 B4 O20'
_cell_volume   419.02430157
_cell_formula_units_Z   4
loop_
 _symmetry_equiv_pos_site_id
 _symmetry_equiv_pos_as_xyz
  1  'x, y, z'
loop_
 _atom_site_type_symbol
 _atom_site_label
 _atom_site_symmetry_multiplicity
 _atom_site_fract_x
 _atom_site_fract_y
 _atom_site_fract_z
 _atom_site_occupancy
  Li  Li0  1  0.448315  0.270969  0.875948  1
  Li  Li1  1  0.551685  0.770969  0.624052  1
  Li  Li2  1  0.448315  0.229031  0.375948  1
  Li  Li3  1  0.551685  0.729031  0.124052  1
  U  U4  1  0.099413  0.934233  0.271116  1
  U  U5  1  0.900587  0.065767  0.728884  1
  U  U6  1  0.099413  0.565767  0.771116  1
  U  U7  1  0.900587  0.434233  0.228884  1
  B  B8  1  0.784302  0.352426  0.701536  1
  B  B9  1  0.215698  0.647574  0.298464  1
  B  B10  1  0.215698  0.852426  0.798464  1
  B  B11  1  0.784302  0.147574  0.201536  1
  O  O12  1  0.138557  0.910474  0.612610  1
  O  O13  1  0.149389  0.175547  0.786626  1
  O  O14  1  0.654776  0.256418  0.172281  1
  O  O15  1  0.850209  0.085252  0.048267  1
  O  O16  1  0.861443  0.410474  0.887390  1
  O  O17  1  0.345224  0.743582  0.827719  1
  O  O18  1  0.663344  0.949906  0.679436  1
  O  O19  1  0.850209  0.414748  0.548267  1
  O  O20  1  0.149791  0.914748  0.951733  1
  O  O21  1  0.861443  0.089526  0.387390  1
  O  O22  1  0.138557  0.589526  0.112610  1
  O  O23  1  0.149389  0.324453  0.286626  1
  O  O24  1  0.149791  0.585252  0.451733  1
  O  O25  1  0.345224  0.756418  0.327719  1
  O  O26  1  0.654776  0.243582  0.672281  1
  O  O27  1  0.850611  0.675547  0.713374  1
  O  O28  1  0.336656  0.449906  0.820564  1
  O  O29  1  0.663344  0.550094  0.179436  1
  O  O30  1  0.336656  0.050094  0.320564  1
  O  O31  1  0.850611  0.824453  0.213374  1
