# generated using pymatgen
data_Cs3PO4
_symmetry_space_group_name_H-M   'P 1'
_cell_length_a   6.53913415
_cell_length_b   9.04746685
_cell_length_c   12.44069721
_cell_angle_alpha   90.00000000
_cell_angle_beta   90.00000000
_cell_angle_gamma   90.00000000
_symmetry_Int_Tables_number   1
_chemical_formula_structural   Cs3PO4
_chemical_formula_sum   'Cs12 P4 O16'
_cell_volume   736.02398591
_cell_formula_units_Z   4
loop_
 _symmetry_equiv_pos_site_id
 _symmetry_equiv_pos_as_xyz
  1  'x, y, z'
loop_
 _atom_site_type_symbol
 _atom_site_label
 _atom_site_symmetry_multiplicity
 _atom_site_fract_x
 _atom_site_fract_y
 _atom_site_fract_z
 _atom_site_occupancy
  Cs  Cs0  1  0.356850  0.250000  0.577165  1
  Cs  Cs1  1  0.182995  0.507567  0.355434  1
  Cs  Cs2  1  0.143150  0.250000  0.077165  1
  Cs  Cs3  1  0.682995  0.007567  0.144566  1
  Cs  Cs4  1  0.856850  0.750000  0.922835  1
  Cs  Cs5  1  0.817005  0.007567  0.644566  1
  Cs  Cs6  1  0.817005  0.492433  0.644566  1
  Cs  Cs7  1  0.317005  0.992433  0.855434  1
  Cs  Cs8  1  0.643150  0.750000  0.422835  1
  Cs  Cs9  1  0.682995  0.492433  0.144566  1
  Cs  Cs10  1  0.182995  0.992433  0.355434  1
  Cs  Cs11  1  0.317005  0.507567  0.855434  1
  P  P12  1  0.730545  0.250000  0.885709  1
  P  P13  1  0.230545  0.750000  0.614291  1
  P  P14  1  0.269455  0.750000  0.114291  1
  P  P15  1  0.769455  0.250000  0.385709  1
  O  O16  1  0.633401  0.107516  0.391888  1
  O  O17  1  0.133401  0.892484  0.108112  1
  O  O18  1  0.366599  0.607516  0.608112  1
  O  O19  1  0.866599  0.392484  0.891888  1
  O  O20  1  0.893449  0.250000  0.277296  1
  O  O21  1  0.426288  0.750000  0.018186  1
  O  O22  1  0.573712  0.250000  0.981814  1
  O  O23  1  0.926288  0.250000  0.481814  1
  O  O24  1  0.866599  0.107516  0.891888  1
  O  O25  1  0.133401  0.607516  0.108112  1
  O  O26  1  0.366599  0.892484  0.608112  1
  O  O27  1  0.106551  0.750000  0.722704  1
  O  O28  1  0.633401  0.392484  0.391888  1
  O  O29  1  0.073712  0.750000  0.518186  1
  O  O30  1  0.393449  0.750000  0.222704  1
  O  O31  1  0.606551  0.250000  0.777296  1
