# generated using pymatgen
data_RbLi7(SiO4)2
_symmetry_space_group_name_H-M   'P 1'
_cell_length_a   8.50596632
_cell_length_b   8.50596632
_cell_length_c   7.82926786
_cell_angle_alpha   89.52079919
_cell_angle_beta   90.47920081
_cell_angle_gamma   135.73244094
_symmetry_Int_Tables_number   1
_chemical_formula_structural   RbLi7(SiO4)2
_chemical_formula_sum   'Rb2 Li14 Si4 O16'
_cell_volume   395.37788895
_cell_formula_units_Z   2
loop_
 _symmetry_equiv_pos_site_id
 _symmetry_equiv_pos_as_xyz
  1  'x, y, z'
loop_
 _atom_site_type_symbol
 _atom_site_label
 _atom_site_symmetry_multiplicity
 _atom_site_fract_x
 _atom_site_fract_y
 _atom_site_fract_z
 _atom_site_occupancy
  Rb  Rb0  1  0.244826  0.755174  0.469527  1
  Rb  Rb1  1  0.755174  0.244826  0.530473  1
  Li  Li2  1  0.678605  0.812733  0.368606  1
  Li  Li3  1  0.812733  0.678605  0.631394  1
  Li  Li4  1  0.187267  0.321395  0.368606  1
  Li  Li5  1  0.932263  0.067737  0.713027  1
  Li  Li6  1  0.073043  0.442631  0.870428  1
  Li  Li7  1  0.321395  0.187267  0.631394  1
  Li  Li8  1  0.067737  0.932263  0.286973  1
  Li  Li9  1  0.500000  0.500000  0.000000  1
  Li  Li10  1  0.557369  0.926957  0.870428  1
  Li  Li11  1  0.642324  0.357676  0.864562  1
  Li  Li12  1  0.442631  0.073043  0.129572  1
  Li  Li13  1  0.926957  0.557369  0.129572  1
  Li  Li14  1  0.357676  0.642324  0.135438  1
  Li  Li15  1  0.000000  1.000000  0.000000  1
  Si  Si16  1  0.429362  0.570638  0.707286  1
  Si  Si17  1  0.570638  0.429362  0.292714  1
  Si  Si18  1  0.853424  0.146576  0.140017  1
  Si  Si19  1  0.146576  0.853424  0.859983  1
  O  O20  1  0.872218  0.127782  0.931696  1
  O  O21  1  0.381301  0.184907  0.393707  1
  O  O22  1  0.947848  0.052152  0.236468  1
  O  O23  1  0.467474  0.532526  0.250149  1
  O  O24  1  0.979204  0.586339  0.806212  1
  O  O25  1  0.615956  0.384044  0.102106  1
  O  O26  1  0.052152  0.947848  0.763532  1
  O  O27  1  0.127782  0.872218  0.068304  1
  O  O28  1  0.586339  0.979204  0.193788  1
  O  O29  1  0.184907  0.381301  0.606293  1
  O  O30  1  0.384044  0.615956  0.897894  1
  O  O31  1  0.618699  0.815093  0.606293  1
  O  O32  1  0.815093  0.618699  0.393707  1
  O  O33  1  0.020796  0.413661  0.193788  1
  O  O34  1  0.413661  0.020796  0.806212  1
  O  O35  1  0.532526  0.467474  0.749851  1
