# generated using pymatgen
data_ZnS
_symmetry_space_group_name_H-M   'P 1'
_cell_length_a   12.78076172
_cell_length_b   12.78076172
_cell_length_c   12.78076172
_cell_angle_alpha   17.31869269
_cell_angle_beta   17.31869269
_cell_angle_gamma   17.31869269
_symmetry_Int_Tables_number   1
_chemical_formula_structural   ZnS
_chemical_formula_sum   'Zn4 S4'
_cell_volume   161.44042753
_cell_formula_units_Z   4
loop_
 _symmetry_equiv_pos_site_id
 _symmetry_equiv_pos_as_xyz
  1  'x, y, z'
loop_
 _atom_site_type_symbol
 _atom_site_label
 _atom_site_symmetry_multiplicity
 _atom_site_fract_x
 _atom_site_fract_y
 _atom_site_fract_z
 _atom_site_occupancy
  Zn  Zn0  1  0.583344  0.583344  0.583344  1
  Zn  Zn1  1  0.999967  0.999967  0.999967  1
  Zn  Zn2  1  0.416627  0.416627  0.416627  1
  Zn  Zn3  1  0.166678  0.166678  0.166678  1
  S  S4  1  0.354086  0.354086  0.354086  1
  S  S5  1  0.104158  0.104158  0.104158  1
  S  S6  1  0.520879  0.520879  0.520879  1
  S  S7  1  0.937494  0.937494  0.937494  1
