# generated using pymatgen
data_LaSe2
_symmetry_space_group_name_H-M   'P 1'
_cell_length_a   8.56277307
_cell_length_b   4.28006777
_cell_length_c   8.63809200
_cell_angle_alpha   90.00000000
_cell_angle_beta   90.21115610
_cell_angle_gamma   90.00000000
_symmetry_Int_Tables_number   1
_chemical_formula_structural   LaSe2
_chemical_formula_sum   'La4 Se8'
_cell_volume   316.57743532
_cell_formula_units_Z   4
loop_
 _symmetry_equiv_pos_site_id
 _symmetry_equiv_pos_as_xyz
  1  'x, y, z'
loop_
 _atom_site_type_symbol
 _atom_site_label
 _atom_site_symmetry_multiplicity
 _atom_site_fract_x
 _atom_site_fract_y
 _atom_site_fract_z
 _atom_site_occupancy
  La  La0  1  0.127767  0.220240  0.276456  1
  La  La1  1  0.627767  0.279760  0.276456  1
  La  La2  1  0.872233  0.779760  0.723544  1
  La  La3  1  0.372233  0.720240  0.723544  1
  Se  Se4  1  0.117239  0.677650  0.002371  1
  Se  Se5  1  0.382761  0.177650  0.997629  1
  Se  Se6  1  0.617239  0.822350  0.002371  1
  Se  Se7  1  0.874905  0.758623  0.365485  1
  Se  Se8  1  0.625095  0.258623  0.634515  1
  Se  Se9  1  0.882761  0.322350  0.997629  1
  Se  Se10  1  0.374905  0.741377  0.365485  1
  Se  Se11  1  0.125095  0.241377  0.634515  1
