# generated using pymatgen
data_NaV3(PO4)3
_symmetry_space_group_name_H-M   'P 1'
_cell_length_a   9.16078636
_cell_length_b   9.16078636
_cell_length_c   9.16078636
_cell_angle_alpha   137.98312453
_cell_angle_beta   108.69637943
_cell_angle_gamma   86.35921983
_symmetry_Int_Tables_number   1
_chemical_formula_structural   NaV3(PO4)3
_chemical_formula_sum   'Na2 V6 P6 O24'
_cell_volume   468.56588862
_cell_formula_units_Z   2
loop_
 _symmetry_equiv_pos_site_id
 _symmetry_equiv_pos_as_xyz
  1  'x, y, z'
loop_
 _atom_site_type_symbol
 _atom_site_label
 _atom_site_symmetry_multiplicity
 _atom_site_fract_x
 _atom_site_fract_y
 _atom_site_fract_z
 _atom_site_occupancy
  Na  Na0  1  0.250000  0.149384  0.399384  1
  Na  Na1  1  0.750000  0.850616  0.600616  1
  V  V2  1  0.613959  0.613959  0.000000  1
  V  V3  1  0.500000  0.000000  0.000000  1
  V  V4  1  0.886041  0.386041  0.500000  1
  V  V5  1  0.386041  0.386041  0.000000  1
  V  V6  1  0.113959  0.613959  0.500000  1
  V  V7  1  0.000000  0.500000  1.000000  1
  P  P8  1  0.323478  0.823478  0.500000  1
  P  P9  1  0.823478  0.823478  0.000000  1
  P  P10  1  0.750000  0.333432  0.083432  1
  P  P11  1  0.250000  0.666568  0.916568  1
  P  P12  1  0.176522  0.176522  0.000000  1
  P  P13  1  0.676522  0.176522  0.500000  1
  O  O14  1  0.853408  0.700245  0.065664  1
  O  O15  1  0.420663  0.700105  0.349812  1
  O  O16  1  0.149707  0.299895  0.220558  1
  O  O17  1  0.155465  0.702510  0.047045  1
  O  O18  1  0.646592  0.212256  0.346837  1
  O  O19  1  0.844535  0.297490  0.952955  1
  O  O20  1  0.365418  0.212256  0.065664  1
  O  O21  1  0.850293  0.700105  0.779442  1
  O  O22  1  0.649707  0.929149  0.349812  1
  O  O23  1  0.865226  0.483903  0.349129  1
  O  O24  1  0.634582  0.787744  0.934336  1
  O  O25  1  0.134582  0.700245  0.346837  1
  O  O26  1  0.865418  0.299755  0.653163  1
  O  O27  1  0.634774  0.483903  0.118677  1
  O  O28  1  0.365226  0.516097  0.881323  1
  O  O29  1  0.344535  0.891581  0.047045  1
  O  O30  1  0.146592  0.299755  0.934336  1
  O  O31  1  0.655465  0.108419  0.952955  1
  O  O32  1  0.353408  0.787744  0.653163  1
  O  O33  1  0.920663  0.070851  0.220558  1
  O  O34  1  0.079337  0.929149  0.779442  1
  O  O35  1  0.579337  0.299895  0.650188  1
  O  O36  1  0.134774  0.516097  0.650871  1
  O  O37  1  0.350293  0.070851  0.650188  1
