# generated using pymatgen
data_Dy2B4C
_symmetry_space_group_name_H-M   'P 1'
_cell_length_a   5.26314378
_cell_length_b   5.26314378
_cell_length_c   5.26314378
_cell_angle_alpha   143.69231438
_cell_angle_beta   102.86460915
_cell_angle_gamma   88.36703033
_symmetry_Int_Tables_number   1
_chemical_formula_structural   Dy2B4C
_chemical_formula_sum   'Dy2 B4 C1'
_cell_volume   81.23272423
_cell_formula_units_Z   1
loop_
 _symmetry_equiv_pos_site_id
 _symmetry_equiv_pos_as_xyz
  1  'x, y, z'
loop_
 _atom_site_type_symbol
 _atom_site_label
 _atom_site_symmetry_multiplicity
 _atom_site_fract_x
 _atom_site_fract_y
 _atom_site_fract_z
 _atom_site_occupancy
  Dy  Dy0  1  0.765647  0.265647  0.500000  1
  Dy  Dy1  1  0.234353  0.734353  0.500000  1
  B  B2  1  0.365120  0.500000  0.865120  1
  B  B3  1  0.772549  0.000000  0.772549  1
  B  B4  1  0.634880  0.500000  0.134880  1
  B  B5  1  0.227451  0.000000  0.227451  1
  C  C6  1  0.000000  0.000000  0.000000  1
