# generated using pymatgen
data_Tl2SeO4
_symmetry_space_group_name_H-M   'P 1'
_cell_length_a   6.43886969
_cell_length_b   8.09823246
_cell_length_c   10.92421607
_cell_angle_alpha   90.00000000
_cell_angle_beta   90.00000000
_cell_angle_gamma   90.00000000
_symmetry_Int_Tables_number   1
_chemical_formula_structural   Tl2SeO4
_chemical_formula_sum   'Tl8 Se4 O16'
_cell_volume   569.62646223
_cell_formula_units_Z   4
loop_
 _symmetry_equiv_pos_site_id
 _symmetry_equiv_pos_as_xyz
  1  'x, y, z'
loop_
 _atom_site_type_symbol
 _atom_site_label
 _atom_site_symmetry_multiplicity
 _atom_site_fract_x
 _atom_site_fract_y
 _atom_site_fract_z
 _atom_site_occupancy
  Tl  Tl0  1  0.475469  0.744454  0.288784  1
  Tl  Tl1  1  0.975469  0.755546  0.711216  1
  Tl  Tl2  1  0.971649  0.926444  0.081495  1
  Tl  Tl3  1  0.024531  0.255546  0.788784  1
  Tl  Tl4  1  0.528351  0.073556  0.581495  1
  Tl  Tl5  1  0.524531  0.244454  0.211216  1
  Tl  Tl6  1  0.028351  0.426444  0.418505  1
  Tl  Tl7  1  0.471649  0.573556  0.918505  1
  Se  Se8  1  0.989861  0.455044  0.083501  1
  Se  Se9  1  0.489861  0.044956  0.916499  1
  Se  Se10  1  0.010139  0.955044  0.416499  1
  Se  Se11  1  0.510139  0.544956  0.583501  1
  O  O12  1  0.427963  0.242687  0.945345  1
  O  O13  1  0.302922  0.530186  0.677311  1
  O  O14  1  0.452546  0.450710  0.449687  1
  O  O15  1  0.697078  0.030186  0.822689  1
  O  O16  1  0.214707  0.047941  0.350319  1
  O  O17  1  0.047454  0.549290  0.949687  1
  O  O18  1  0.072037  0.757313  0.445345  1
  O  O19  1  0.547454  0.950710  0.050313  1
  O  O20  1  0.197078  0.469814  0.177311  1
  O  O21  1  0.802922  0.969814  0.322689  1
  O  O22  1  0.285293  0.952059  0.850319  1
  O  O23  1  0.927963  0.257313  0.054655  1
  O  O24  1  0.714707  0.452059  0.649681  1
  O  O25  1  0.572037  0.742687  0.554655  1
  O  O26  1  0.952546  0.049290  0.550313  1
  O  O27  1  0.785293  0.547941  0.149681  1
