# generated using pymatgen
data_NdGa3(BO3)4
_symmetry_space_group_name_H-M   'P 1'
_cell_length_a   6.09527763
_cell_length_b   6.09527763
_cell_length_c   6.09527763
_cell_angle_alpha   103.84311904
_cell_angle_beta   103.84311904
_cell_angle_gamma   103.84311904
_symmetry_Int_Tables_number   1
_chemical_formula_structural   NdGa3(BO3)4
_chemical_formula_sum   'Nd1 Ga3 B4 O12'
_cell_volume   202.65610514
_cell_formula_units_Z   1
loop_
 _symmetry_equiv_pos_site_id
 _symmetry_equiv_pos_as_xyz
  1  'x, y, z'
loop_
 _atom_site_type_symbol
 _atom_site_label
 _atom_site_symmetry_multiplicity
 _atom_site_fract_x
 _atom_site_fract_y
 _atom_site_fract_z
 _atom_site_occupancy
  Nd  Nd0  1  0.000000  0.000000  0.000000  1
  Ga  Ga1  1  0.551535  0.000000  0.448465  1
  Ga  Ga2  1  0.448465  0.551535  0.000000  1
  Ga  Ga3  1  0.000000  0.448465  0.551535  1
  B  B4  1  0.944702  0.500000  0.055298  1
  B  B5  1  0.500000  0.500000  0.500000  1
  B  B6  1  0.055298  0.944702  0.500000  1
  B  B7  1  0.500000  0.055298  0.944702  1
  O  O8  1  0.028419  0.785844  0.625911  1
  O  O9  1  0.909859  0.090141  0.500000  1
  O  O10  1  0.500000  0.909859  0.090141  1
  O  O11  1  0.090141  0.500000  0.909859  1
  O  O12  1  0.971581  0.374089  0.214156  1
  O  O13  1  0.214156  0.971581  0.374089  1
  O  O14  1  0.785844  0.625911  0.028419  1
  O  O15  1  0.354823  0.500000  0.645177  1
  O  O16  1  0.645177  0.354823  0.500000  1
  O  O17  1  0.500000  0.645177  0.354823  1
  O  O18  1  0.374089  0.214156  0.971581  1
  O  O19  1  0.625911  0.028419  0.785844  1
