# generated using pymatgen
data_K2RuNCl5O
_symmetry_space_group_name_H-M   'P 1'
_cell_length_a   7.05910742
_cell_length_b   10.58472509
_cell_length_c   13.64137855
_cell_angle_alpha   90.00000000
_cell_angle_beta   90.00000000
_cell_angle_gamma   90.00000000
_symmetry_Int_Tables_number   1
_chemical_formula_structural   K2RuNCl5O
_chemical_formula_sum   'K8 Ru4 N4 Cl20 O4'
_cell_volume   1019.26622727
_cell_formula_units_Z   4
loop_
 _symmetry_equiv_pos_site_id
 _symmetry_equiv_pos_as_xyz
  1  'x, y, z'
loop_
 _atom_site_type_symbol
 _atom_site_label
 _atom_site_symmetry_multiplicity
 _atom_site_fract_x
 _atom_site_fract_y
 _atom_site_fract_z
 _atom_site_occupancy
  K  K0  1  0.645298  0.249746  0.104375  1
  K  K1  1  0.854702  0.750254  0.604375  1
  K  K2  1  0.646220  0.750189  0.102756  1
  K  K3  1  0.145298  0.250254  0.895625  1
  K  K4  1  0.353780  0.250189  0.397244  1
  K  K5  1  0.853780  0.249811  0.602756  1
  K  K6  1  0.354702  0.749746  0.395625  1
  K  K7  1  0.146220  0.749811  0.897244  1
  Ru  Ru8  1  0.328892  0.998270  0.642048  1
  Ru  Ru9  1  0.671108  0.498270  0.857952  1
  Ru  Ru10  1  0.828892  0.501730  0.357952  1
  Ru  Ru11  1  0.171108  0.001730  0.142048  1
  N  N12  1  0.988799  0.502682  0.260837  1
  N  N13  1  0.511201  0.497318  0.760837  1
  N  N14  1  0.011201  0.002682  0.239163  1
  N  N15  1  0.488799  0.997318  0.739163  1
  Cl  Cl16  1  0.910464  0.000622  0.027738  1
  Cl  Cl17  1  0.316493  0.224792  0.636544  1
  Cl  Cl18  1  0.376503  0.001160  0.003485  1
  Cl  Cl19  1  0.317670  0.771596  0.635407  1
  Cl  Cl20  1  0.682330  0.271596  0.864593  1
  Cl  Cl21  1  0.589536  0.999378  0.527738  1
  Cl  Cl22  1  0.623498  0.501160  0.496515  1
  Cl  Cl23  1  0.816493  0.275208  0.363456  1
  Cl  Cl24  1  0.551417  0.502061  0.255082  1
  Cl  Cl25  1  0.876502  0.498840  0.996515  1
  Cl  Cl26  1  0.410464  0.499378  0.972262  1
  Cl  Cl27  1  0.182330  0.228404  0.135407  1
  Cl  Cl28  1  0.448583  0.002061  0.244918  1
  Cl  Cl29  1  0.089536  0.500622  0.472262  1
  Cl  Cl30  1  0.683507  0.724792  0.863456  1
  Cl  Cl31  1  0.183507  0.775208  0.136544  1
  Cl  Cl32  1  0.948583  0.497939  0.755082  1
  Cl  Cl33  1  0.051417  0.997939  0.744918  1
  Cl  Cl34  1  0.123497  0.998840  0.503485  1
  Cl  Cl35  1  0.817670  0.728404  0.364593  1
  O  O36  1  0.895020  0.003969  0.299890  1
  O  O37  1  0.604980  0.996031  0.799890  1
  O  O38  1  0.104980  0.503969  0.200110  1
  O  O39  1  0.395020  0.496031  0.700110  1
