# generated using pymatgen
data_SbICl8
_symmetry_space_group_name_H-M   'P 1'
_cell_length_a   7.42379554
_cell_length_b   7.42379554
_cell_length_c   24.94347755
_cell_angle_alpha   90.00000000
_cell_angle_beta   90.00000000
_cell_angle_gamma   90.00000000
_symmetry_Int_Tables_number   1
_chemical_formula_structural   SbICl8
_chemical_formula_sum   'Sb4 I4 Cl32'
_cell_volume   1374.70339839
_cell_formula_units_Z   4
loop_
 _symmetry_equiv_pos_site_id
 _symmetry_equiv_pos_as_xyz
  1  'x, y, z'
loop_
 _atom_site_type_symbol
 _atom_site_label
 _atom_site_symmetry_multiplicity
 _atom_site_fract_x
 _atom_site_fract_y
 _atom_site_fract_z
 _atom_site_occupancy
  Sb  Sb0  1  0.770791  0.005317  0.501173  1
  Sb  Sb1  1  0.005317  0.229209  0.251173  1
  Sb  Sb2  1  0.229209  0.994683  0.001173  1
  Sb  Sb3  1  0.994683  0.770791  0.751173  1
  I  I4  1  0.137677  0.764850  0.372533  1
  I  I5  1  0.235150  0.137677  0.622533  1
  I  I6  1  0.862323  0.235150  0.872533  1
  I  I7  1  0.764850  0.862323  0.122533  1
  Cl  Cl8  1  0.235724  0.268850  0.315432  1
  Cl  Cl9  1  0.909952  0.937133  0.296250  1
  Cl  Cl10  1  0.610100  0.220599  0.814341  1
  Cl  Cl11  1  0.072946  0.496159  0.203512  1
  Cl  Cl12  1  0.779401  0.610100  0.064341  1
  Cl  Cl13  1  0.834644  0.740604  0.437275  1
  Cl  Cl14  1  0.090048  0.062867  0.796250  1
  Cl  Cl15  1  0.811907  0.947730  0.693836  1
  Cl  Cl16  1  0.740604  0.165356  0.187275  1
  Cl  Cl17  1  0.496159  0.927054  0.953512  1
  Cl  Cl18  1  0.414325  0.291854  0.686295  1
  Cl  Cl19  1  0.585675  0.708146  0.186295  1
  Cl  Cl20  1  0.165356  0.259396  0.937275  1
  Cl  Cl21  1  0.389900  0.779401  0.314341  1
  Cl  Cl22  1  0.947730  0.188093  0.443836  1
  Cl  Cl23  1  0.764276  0.731150  0.815432  1
  Cl  Cl24  1  0.062867  0.909952  0.546250  1
  Cl  Cl25  1  0.937133  0.090048  0.046250  1
  Cl  Cl26  1  0.217256  0.624130  0.803853  1
  Cl  Cl27  1  0.220599  0.389900  0.564341  1
  Cl  Cl28  1  0.259396  0.834644  0.687275  1
  Cl  Cl29  1  0.188093  0.052270  0.193836  1
  Cl  Cl30  1  0.624130  0.782744  0.553853  1
  Cl  Cl31  1  0.731150  0.235724  0.565432  1
  Cl  Cl32  1  0.927054  0.503841  0.703512  1
  Cl  Cl33  1  0.375870  0.217256  0.053853  1
  Cl  Cl34  1  0.291854  0.585675  0.436295  1
  Cl  Cl35  1  0.268850  0.764276  0.065432  1
  Cl  Cl36  1  0.708146  0.414325  0.936295  1
  Cl  Cl37  1  0.782744  0.375870  0.303853  1
  Cl  Cl38  1  0.503841  0.072946  0.453512  1
  Cl  Cl39  1  0.052270  0.811907  0.943836  1
