# generated using pymatgen
data_AgHg2NO5
_symmetry_space_group_name_H-M   'P 1'
_cell_length_a   6.50637101
_cell_length_b   6.79519576
_cell_length_c   13.00612886
_cell_angle_alpha   90.00000000
_cell_angle_beta   90.00000000
_cell_angle_gamma   90.00000000
_symmetry_Int_Tables_number   1
_chemical_formula_structural   AgHg2NO5
_chemical_formula_sum   'Ag4 Hg8 N4 O20'
_cell_volume   575.02781066
_cell_formula_units_Z   4
loop_
 _symmetry_equiv_pos_site_id
 _symmetry_equiv_pos_as_xyz
  1  'x, y, z'
loop_
 _atom_site_type_symbol
 _atom_site_label
 _atom_site_symmetry_multiplicity
 _atom_site_fract_x
 _atom_site_fract_y
 _atom_site_fract_z
 _atom_site_occupancy
  Ag  Ag0  1  0.758348  0.750000  0.653053  1
  Ag  Ag1  1  0.741652  0.250000  0.153053  1
  Ag  Ag2  1  0.241652  0.250000  0.346947  1
  Ag  Ag3  1  0.258348  0.750000  0.846947  1
  Hg  Hg4  1  0.797357  0.999998  0.402216  1
  Hg  Hg5  1  0.202643  0.000002  0.597784  1
  Hg  Hg6  1  0.702643  0.000002  0.902216  1
  Hg  Hg7  1  0.297357  0.999998  0.097784  1
  Hg  Hg8  1  0.702643  0.499998  0.902216  1
  Hg  Hg9  1  0.202643  0.499998  0.597784  1
  Hg  Hg10  1  0.297357  0.500002  0.097784  1
  Hg  Hg11  1  0.797357  0.500002  0.402216  1
  N  N12  1  0.196061  0.250000  0.854865  1
  N  N13  1  0.803939  0.750000  0.145135  1
  N  N14  1  0.696061  0.250000  0.645135  1
  N  N15  1  0.303939  0.750000  0.354865  1
  O  O16  1  0.315255  0.250000  0.778634  1
  O  O17  1  0.115630  0.250000  0.518514  1
  O  O18  1  0.615630  0.250000  0.981486  1
  O  O19  1  0.684745  0.750000  0.221366  1
  O  O20  1  0.799898  0.750000  0.827039  1
  O  O21  1  0.884370  0.750000  0.481486  1
  O  O22  1  0.184745  0.750000  0.278634  1
  O  O23  1  0.634802  0.088938  0.605084  1
  O  O24  1  0.299898  0.750000  0.672961  1
  O  O25  1  0.365198  0.911062  0.394916  1
  O  O26  1  0.815255  0.250000  0.721366  1
  O  O27  1  0.700102  0.250000  0.327039  1
  O  O28  1  0.365198  0.588938  0.394916  1
  O  O29  1  0.384370  0.750000  0.018514  1
  O  O30  1  0.200102  0.250000  0.172961  1
  O  O31  1  0.134802  0.411062  0.894916  1
  O  O32  1  0.134802  0.088938  0.894916  1
  O  O33  1  0.865198  0.588938  0.105084  1
  O  O34  1  0.634802  0.411062  0.605084  1
  O  O35  1  0.865198  0.911062  0.105084  1
