# generated using pymatgen
data_LiMoIO6
_symmetry_space_group_name_H-M   'P 1'
_cell_length_a   5.50279223
_cell_length_b   5.43192310
_cell_length_c   9.10741587
_cell_angle_alpha   90.00000000
_cell_angle_beta   107.07263454
_cell_angle_gamma   90.00000000
_symmetry_Int_Tables_number   1
_chemical_formula_structural   LiMoIO6
_chemical_formula_sum   'Li2 Mo2 I2 O12'
_cell_volume   260.23128577
_cell_formula_units_Z   2
loop_
 _symmetry_equiv_pos_site_id
 _symmetry_equiv_pos_as_xyz
  1  'x, y, z'
loop_
 _atom_site_type_symbol
 _atom_site_label
 _atom_site_symmetry_multiplicity
 _atom_site_fract_x
 _atom_site_fract_y
 _atom_site_fract_z
 _atom_site_occupancy
  Li  Li0  1  0.498525  0.687460  0.583905  1
  Li  Li1  1  0.501475  0.187460  0.416095  1
  Mo  Mo2  1  0.736209  0.388178  0.967170  1
  Mo  Mo3  1  0.263791  0.888178  0.032830  1
  I  I4  1  0.873760  0.617599  0.338713  1
  I  I5  1  0.126240  0.117599  0.661287  1
  O  O6  1  0.849798  0.013229  0.507598  1
  O  O7  1  0.642325  0.513741  0.781657  1
  O  O8  1  0.856501  0.343777  0.213843  1
  O  O9  1  0.381671  0.032275  0.582078  1
  O  O10  1  0.479327  0.168429  0.954167  1
  O  O11  1  0.520673  0.668429  0.045833  1
  O  O12  1  0.143499  0.843777  0.786157  1
  O  O13  1  0.150202  0.513229  0.492402  1
  O  O14  1  0.011938  0.679192  0.042718  1
  O  O15  1  0.618329  0.532275  0.417922  1
  O  O16  1  0.988062  0.179192  0.957282  1
  O  O17  1  0.357675  0.013741  0.218343  1
