# generated using pymatgen
data_VCu2BiO6
_symmetry_space_group_name_H-M   'P 1'
_cell_length_a   9.21179139
_cell_length_b   9.21179139
_cell_length_c   13.75185000
_cell_angle_alpha   65.09332645
_cell_angle_beta   114.90667355
_cell_angle_gamma   129.54490263
_symmetry_Int_Tables_number   1
_chemical_formula_structural   VCu2BiO6
_chemical_formula_sum   'V6 Cu12 Bi6 O36'
_cell_volume   796.39767864
_cell_formula_units_Z   6
loop_
 _symmetry_equiv_pos_site_id
 _symmetry_equiv_pos_as_xyz
  1  'x, y, z'
loop_
 _atom_site_type_symbol
 _atom_site_label
 _atom_site_symmetry_multiplicity
 _atom_site_fract_x
 _atom_site_fract_y
 _atom_site_fract_z
 _atom_site_occupancy
  V  V0  1  0.346484  0.653516  0.538421  1
  V  V1  1  0.042525  0.957475  0.232859  1
  V  V2  1  0.957475  0.042525  0.767141  1
  V  V3  1  0.653516  0.346484  0.461579  1
  V  V4  1  0.684590  0.315410  0.876948  1
  V  V5  1  0.315410  0.684590  0.123052  1
  Cu  Cu6  1  0.631209  0.739007  0.364174  1
  Cu  Cu7  1  0.281878  0.078444  0.020964  1
  Cu  Cu8  1  0.963471  0.439112  0.702129  1
  Cu  Cu9  1  0.260993  0.368791  0.364174  1
  Cu  Cu10  1  0.078444  0.281878  0.979036  1
  Cu  Cu11  1  0.560888  0.036529  0.702129  1
  Cu  Cu12  1  0.036529  0.560888  0.297871  1
  Cu  Cu13  1  0.739007  0.631209  0.635826  1
  Cu  Cu14  1  0.718122  0.921556  0.979036  1
  Cu  Cu15  1  0.439112  0.963471  0.297871  1
  Cu  Cu16  1  0.368791  0.260993  0.635826  1
  Cu  Cu17  1  0.921556  0.718122  0.020964  1
  Bi  Bi18  1  0.436414  0.563586  0.843423  1
  Bi  Bi19  1  0.784586  0.215414  0.161928  1
  Bi  Bi20  1  0.215414  0.784586  0.838072  1
  Bi  Bi21  1  0.120727  0.879273  0.532268  1
  Bi  Bi22  1  0.563586  0.436414  0.156577  1
  Bi  Bi23  1  0.879273  0.120727  0.467732  1
  O  O24  1  0.193605  0.806395  0.062990  1
  O  O25  1  0.850285  0.508171  0.155915  1
  O  O26  1  0.125987  0.519526  0.455991  1
  O  O27  1  0.473632  0.168703  0.919745  1
  O  O28  1  0.168703  0.473632  0.080255  1
  O  O29  1  0.633822  0.366178  0.729243  1
  O  O30  1  0.326504  0.326504  0.000000  1
  O  O31  1  0.316579  0.683421  0.645557  1
  O  O32  1  0.149715  0.491829  0.844085  1
  O  O33  1  0.683421  0.316579  0.354443  1
  O  O34  1  0.172398  0.172398  0.500000  1
  O  O35  1  0.533715  0.466285  0.410218  1
  O  O36  1  0.320251  0.004264  0.686214  1
  O  O37  1  0.673496  0.673496  0.000000  1
  O  O38  1  0.972155  0.027845  0.086483  1
  O  O39  1  0.827602  0.827602  0.500000  1
  O  O40  1  0.480474  0.874013  0.455991  1
  O  O41  1  0.508171  0.850285  0.844085  1
  O  O42  1  0.163226  0.836774  0.271348  1
  O  O43  1  0.491829  0.149715  0.155915  1
  O  O44  1  0.366178  0.633822  0.270757  1
  O  O45  1  0.027845  0.972155  0.913517  1
  O  O46  1  0.801447  0.843610  0.713055  1
  O  O47  1  0.995736  0.679749  0.686214  1
  O  O48  1  0.874013  0.480474  0.544009  1
  O  O49  1  0.519526  0.125987  0.544009  1
  O  O50  1  0.806395  0.193605  0.937010  1
  O  O51  1  0.843610  0.801447  0.286945  1
  O  O52  1  0.836774  0.163226  0.728652  1
  O  O53  1  0.831297  0.526368  0.919745  1
  O  O54  1  0.004264  0.320251  0.313786  1
  O  O55  1  0.198553  0.156390  0.286945  1
  O  O56  1  0.466285  0.533715  0.589782  1
  O  O57  1  0.679749  0.995736  0.313786  1
  O  O58  1  0.156390  0.198553  0.713055  1
  O  O59  1  0.526368  0.831297  0.080255  1
