# generated using pymatgen
data_Th6Mg23
_symmetry_space_group_name_H-M   'P 1'
_cell_length_a   10.11686965
_cell_length_b   10.11686965
_cell_length_c   10.11686965
_cell_angle_alpha   60.00000000
_cell_angle_beta   60.00000000
_cell_angle_gamma   60.00000000
_symmetry_Int_Tables_number   1
_chemical_formula_structural   Th6Mg23
_chemical_formula_sum   'Th6 Mg23'
_cell_volume   732.18944842
_cell_formula_units_Z   1
loop_
 _symmetry_equiv_pos_site_id
 _symmetry_equiv_pos_as_xyz
  1  'x, y, z'
loop_
 _atom_site_type_symbol
 _atom_site_label
 _atom_site_symmetry_multiplicity
 _atom_site_fract_x
 _atom_site_fract_y
 _atom_site_fract_z
 _atom_site_occupancy
  Th  Th0  1  0.816364  0.816364  0.183636  1
  Th  Th1  1  0.183636  0.816364  0.183636  1
  Th  Th2  1  0.816364  0.183636  0.183636  1
  Th  Th3  1  0.816364  0.183636  0.816364  1
  Th  Th4  1  0.183636  0.816364  0.816364  1
  Th  Th5  1  0.183636  0.183636  0.816364  1
  Mg  Mg6  1  0.140608  0.619797  0.619797  1
  Mg  Mg7  1  0.169999  0.490003  0.169999  1
  Mg  Mg8  1  0.000000  0.500000  1.000000  1
  Mg  Mg9  1  0.500000  0.500000  0.500000  1
  Mg  Mg10  1  0.509997  0.830001  0.830001  1
  Mg  Mg11  1  0.830001  0.830001  0.830001  1
  Mg  Mg12  1  0.169999  0.169999  0.169999  1
  Mg  Mg13  1  0.619797  0.619797  0.619797  1
  Mg  Mg14  1  0.380203  0.859392  0.380203  1
  Mg  Mg15  1  0.000000  0.500000  0.500000  1
  Mg  Mg16  1  0.619797  0.619797  0.140608  1
  Mg  Mg17  1  0.380203  0.380203  0.859392  1
  Mg  Mg18  1  0.830001  0.509997  0.830001  1
  Mg  Mg19  1  0.490003  0.169999  0.169999  1
  Mg  Mg20  1  0.169999  0.169999  0.490003  1
  Mg  Mg21  1  1.000000  0.000000  0.500000  1
  Mg  Mg22  1  0.619797  0.140608  0.619797  1
  Mg  Mg23  1  0.859392  0.380203  0.380203  1
  Mg  Mg24  1  0.380203  0.380203  0.380203  1
  Mg  Mg25  1  0.500000  0.000000  0.500000  1
  Mg  Mg26  1  0.830001  0.830001  0.509997  1
  Mg  Mg27  1  0.500000  0.500000  1.000000  1
  Mg  Mg28  1  0.500000  0.000000  0.000000  1
