# generated using pymatgen
data_HfHg3(SeCl3)2
_symmetry_space_group_name_H-M   'P 1'
_cell_length_a   6.75491685
_cell_length_b   7.72784736
_cell_length_c   13.47936450
_cell_angle_alpha   90.00000000
_cell_angle_beta   91.77752039
_cell_angle_gamma   90.00000000
_symmetry_Int_Tables_number   1
_chemical_formula_structural   HfHg3(SeCl3)2
_chemical_formula_sum   'Hf2 Hg6 Se4 Cl12'
_cell_volume   703.29726841
_cell_formula_units_Z   2
loop_
 _symmetry_equiv_pos_site_id
 _symmetry_equiv_pos_as_xyz
  1  'x, y, z'
loop_
 _atom_site_type_symbol
 _atom_site_label
 _atom_site_symmetry_multiplicity
 _atom_site_fract_x
 _atom_site_fract_y
 _atom_site_fract_z
 _atom_site_occupancy
  Hf  Hf0  1  0.500000  0.000000  0.000000  1
  Hf  Hf1  1  0.500000  0.500000  0.500000  1
  Hg  Hg2  1  0.006240  0.295237  0.261538  1
  Hg  Hg3  1  0.000000  0.000000  0.500000  1
  Hg  Hg4  1  0.993760  0.795237  0.238462  1
  Hg  Hg5  1  0.993760  0.704763  0.738462  1
  Hg  Hg6  1  0.006240  0.204763  0.761538  1
  Hg  Hg7  1  0.000000  0.500000  0.000000  1
  Se  Se8  1  0.180121  0.963045  0.669058  1
  Se  Se9  1  0.819879  0.036955  0.330942  1
  Se  Se10  1  0.180121  0.536955  0.169058  1
  Se  Se11  1  0.819879  0.463045  0.830942  1
  Cl  Cl12  1  0.805897  0.148355  0.057758  1
  Cl  Cl13  1  0.194103  0.648355  0.442242  1
  Cl  Cl14  1  0.363946  0.274632  0.934744  1
  Cl  Cl15  1  0.363946  0.225368  0.434744  1
  Cl  Cl16  1  0.647506  0.550409  0.337747  1
  Cl  Cl17  1  0.647506  0.949591  0.837747  1
  Cl  Cl18  1  0.352494  0.449591  0.662253  1
  Cl  Cl19  1  0.636054  0.725368  0.065256  1
  Cl  Cl20  1  0.805897  0.351645  0.557758  1
  Cl  Cl21  1  0.352494  0.050409  0.162253  1
  Cl  Cl22  1  0.194103  0.851645  0.942242  1
  Cl  Cl23  1  0.636054  0.774632  0.565256  1
