# generated using pymatgen
data_Na2USiO6
_symmetry_space_group_name_H-M   'P 1'
_cell_length_a   11.48715257
_cell_length_b   11.48715257
_cell_length_c   11.48715257
_cell_angle_alpha   111.85154530
_cell_angle_beta   111.85154530
_cell_angle_gamma   104.80878722
_symmetry_Int_Tables_number   1
_chemical_formula_structural   Na2USiO6
_chemical_formula_sum   'Na16 U8 Si8 O48'
_cell_volume   1161.11794305
_cell_formula_units_Z   8
loop_
 _symmetry_equiv_pos_site_id
 _symmetry_equiv_pos_as_xyz
  1  'x, y, z'
loop_
 _atom_site_type_symbol
 _atom_site_label
 _atom_site_symmetry_multiplicity
 _atom_site_fract_x
 _atom_site_fract_y
 _atom_site_fract_z
 _atom_site_occupancy
  Na  Na0  1  0.695213  0.804787  0.500000  1
  Na  Na1  1  0.750000  0.750000  0.000000  1
  Na  Na2  1  0.054787  0.445213  0.000000  1
  Na  Na3  1  0.304787  0.195213  0.500000  1
  Na  Na4  1  0.195213  0.695213  0.890426  1
  Na  Na5  1  0.804787  0.304787  0.109574  1
  Na  Na6  1  0.250000  0.750000  0.500000  1
  Na  Na7  1  1.000000  0.500000  0.500000  1
  Na  Na8  1  0.750000  0.250000  0.500000  1
  Na  Na9  1  0.445213  0.054787  0.000000  1
  Na  Na10  1  0.945213  0.945213  0.390426  1
  Na  Na11  1  0.500000  1.000000  0.500000  1
  Na  Na12  1  0.554787  0.554787  0.609574  1
  Na  Na13  1  0.500000  0.500000  0.000000  1
  Na  Na14  1  1.000000  0.000000  0.000000  1
  Na  Na15  1  0.250000  0.250000  0.000000  1
  U  U16  1  0.375000  0.625000  0.250000  1
  U  U17  1  0.375000  0.125000  0.250000  1
  U  U18  1  0.375000  0.625000  0.750000  1
  U  U19  1  0.875000  0.625000  0.750000  1
  U  U20  1  0.875000  0.625000  0.250000  1
  U  U21  1  0.375000  0.125000  0.750000  1
  U  U22  1  0.875000  0.125000  0.250000  1
  U  U23  1  0.875000  0.125000  0.750000  1
  Si  Si24  1  0.034421  0.875000  0.659421  1
  Si  Si25  1  0.534421  0.875000  0.159421  1
  Si  Si26  1  0.715579  0.375000  0.840579  1
  Si  Si27  1  0.625000  0.465579  0.340579  1
  Si  Si28  1  0.125000  0.784421  0.159421  1
  Si  Si29  1  0.125000  0.284421  0.659421  1
  Si  Si30  1  0.625000  0.965579  0.840579  1
  Si  Si31  1  0.215579  0.375000  0.340579  1
  O  O32  1  0.201398  0.991982  0.754302  1
  O  O33  1  0.439995  0.754273  0.447424  1
  O  O34  1  0.197095  0.451398  0.709415  1
  O  O35  1  0.701398  0.947095  0.209415  1
  O  O36  1  0.246394  0.228421  0.679639  1
  O  O37  1  0.008018  0.762320  0.209415  1
  O  O38  1  0.052905  0.262320  0.754302  1
  O  O39  1  0.237680  0.447095  0.245698  1
  O  O40  1  0.201217  0.683245  0.179639  1
  O  O41  1  0.978421  0.798783  0.482027  1
  O  O42  1  0.548602  0.258018  0.745698  1
  O  O43  1  0.443151  0.257429  0.947424  1
  O  O44  1  0.478421  0.996394  0.179639  1
  O  O45  1  0.306849  0.992571  0.552576  1
  O  O46  1  0.548783  0.566755  0.320361  1
  O  O47  1  0.504273  0.556849  0.814278  1
  O  O48  1  0.933245  0.951217  0.679639  1
  O  O49  1  0.503606  0.021579  0.820361  1
  O  O50  1  0.746394  0.066755  0.017973  1
  O  O51  1  0.048602  0.302905  0.290585  1
  O  O52  1  0.507429  0.193151  0.447424  1
  O  O53  1  0.697095  0.987680  0.745698  1
  O  O54  1  0.271579  0.253606  0.320361  1
  O  O55  1  0.512320  0.802905  0.254302  1
  O  O56  1  0.806849  0.254273  0.314278  1
  O  O57  1  0.810005  0.757429  0.814278  1
  O  O58  1  0.741982  0.487680  0.290585  1
  O  O59  1  0.241982  0.951398  0.254302  1
  O  O60  1  0.742571  0.689995  0.185722  1
  O  O61  1  0.745727  0.060005  0.552576  1
  O  O62  1  0.508018  0.298602  0.245698  1
  O  O63  1  0.939995  0.492571  0.685722  1
  O  O64  1  0.433245  0.753606  0.982027  1
  O  O65  1  0.552905  0.798602  0.790585  1
  O  O66  1  0.007429  0.560005  0.314278  1
  O  O67  1  0.943151  0.995727  0.185722  1
  O  O68  1  0.003606  0.183245  0.482027  1
  O  O69  1  0.012320  0.758018  0.709415  1
  O  O70  1  0.004273  0.189995  0.947424  1
  O  O71  1  0.310005  0.495727  0.052576  1
  O  O72  1  0.737680  0.491982  0.790585  1
  O  O73  1  0.701217  0.521579  0.517973  1
  O  O74  1  0.316755  0.496394  0.517973  1
  O  O75  1  0.816755  0.298783  0.820361  1
  O  O76  1  0.245727  0.693151  0.685722  1
  O  O77  1  0.048783  0.728421  0.982027  1
  O  O78  1  0.242571  0.056849  0.052576  1
  O  O79  1  0.771579  0.451217  0.017973  1
