# generated using pymatgen
data_Ga(BiBr)4
_symmetry_space_group_name_H-M   'P 1'
_cell_length_a   10.56218628
_cell_length_b   14.18828599
_cell_length_c   19.01542036
_cell_angle_alpha   90.00000000
_cell_angle_beta   90.00000000
_cell_angle_gamma   90.00000000
_symmetry_Int_Tables_number   1
_chemical_formula_structural   Ga(BiBr)4
_chemical_formula_sum   'Ga8 Bi32 Br32'
_cell_volume   2849.63795744
_cell_formula_units_Z   8
loop_
 _symmetry_equiv_pos_site_id
 _symmetry_equiv_pos_as_xyz
  1  'x, y, z'
loop_
 _atom_site_type_symbol
 _atom_site_label
 _atom_site_symmetry_multiplicity
 _atom_site_fract_x
 _atom_site_fract_y
 _atom_site_fract_z
 _atom_site_occupancy
  Ga  Ga0  1  0.478302  0.797147  0.174947  1
  Ga  Ga1  1  0.993912  0.984868  0.001863  1
  Ga  Ga2  1  0.493912  0.484868  0.498137  1
  Ga  Ga3  1  0.978302  0.297147  0.325053  1
  Ga  Ga4  1  0.021698  0.797147  0.674947  1
  Ga  Ga5  1  0.506088  0.984868  0.501863  1
  Ga  Ga6  1  0.521698  0.297147  0.825053  1
  Ga  Ga7  1  0.006088  0.484868  0.998137  1
  Bi  Bi8  1  0.041987  0.370128  0.567799  1
  Bi  Bi9  1  0.037631  0.727095  0.203074  1
  Bi  Bi10  1  0.612483  0.086121  0.179057  1
  Bi  Bi11  1  0.709386  0.247731  0.083781  1
  Bi  Bi12  1  0.290614  0.747731  0.916219  1
  Bi  Bi13  1  0.458013  0.370128  0.067799  1
  Bi  Bi14  1  0.462369  0.727095  0.703074  1
  Bi  Bi15  1  0.887517  0.086121  0.679057  1
  Bi  Bi16  1  0.958013  0.870128  0.432201  1
  Bi  Bi17  1  0.661490  0.854109  0.784072  1
  Bi  Bi18  1  0.537631  0.227095  0.296926  1
  Bi  Bi19  1  0.636572  0.388106  0.201349  1
  Bi  Bi20  1  0.363428  0.888106  0.798651  1
  Bi  Bi21  1  0.136572  0.888106  0.298651  1
  Bi  Bi22  1  0.112483  0.586121  0.320943  1
  Bi  Bi23  1  0.941200  0.652771  0.448418  1
  Bi  Bi24  1  0.441200  0.152771  0.051582  1
  Bi  Bi25  1  0.790614  0.247731  0.583781  1
  Bi  Bi26  1  0.177604  0.137685  0.699799  1
  Bi  Bi27  1  0.161490  0.354109  0.715928  1
  Bi  Bi28  1  0.322396  0.137685  0.199799  1
  Bi  Bi29  1  0.541987  0.870128  0.932201  1
  Bi  Bi30  1  0.962369  0.227095  0.796926  1
  Bi  Bi31  1  0.863428  0.388106  0.701349  1
  Bi  Bi32  1  0.558800  0.652771  0.948418  1
  Bi  Bi33  1  0.338510  0.354109  0.215928  1
  Bi  Bi34  1  0.838510  0.854109  0.284072  1
  Bi  Bi35  1  0.209386  0.747731  0.416219  1
  Bi  Bi36  1  0.387517  0.586121  0.820943  1
  Bi  Bi37  1  0.058800  0.152771  0.551582  1
  Bi  Bi38  1  0.822396  0.637685  0.300201  1
  Bi  Bi39  1  0.677604  0.637685  0.800201  1
  Br  Br40  1  0.831022  0.817684  0.610906  1
  Br  Br41  1  0.687777  0.376106  0.884158  1
  Br  Br42  1  0.814138  0.051297  0.944836  1
  Br  Br43  1  0.685862  0.051297  0.444836  1
  Br  Br44  1  0.668978  0.817684  0.110906  1
  Br  Br45  1  0.939749  0.134395  0.313700  1
  Br  Br46  1  0.996832  0.040961  0.119332  1
  Br  Br47  1  0.498403  0.364888  0.711428  1
  Br  Br48  1  0.519896  0.818819  0.499017  1
  Br  Br49  1  0.331022  0.317684  0.889094  1
  Br  Br50  1  0.060251  0.634395  0.686300  1
  Br  Br51  1  0.439749  0.634395  0.186300  1
  Br  Br52  1  0.480104  0.318819  0.500983  1
  Br  Br53  1  0.187777  0.876106  0.615842  1
  Br  Br54  1  0.496832  0.540961  0.380668  1
  Br  Br55  1  0.185862  0.551297  0.055164  1
  Br  Br56  1  0.812223  0.376106  0.384158  1
  Br  Br57  1  0.980104  0.818819  0.999017  1
  Br  Br58  1  0.679365  0.535119  0.558424  1
  Br  Br59  1  0.998403  0.864888  0.788572  1
  Br  Br60  1  0.820635  0.535119  0.058424  1
  Br  Br61  1  0.003168  0.540961  0.880668  1
  Br  Br62  1  0.168978  0.317684  0.389094  1
  Br  Br63  1  0.560251  0.134395  0.813700  1
  Br  Br64  1  0.503168  0.040961  0.619332  1
  Br  Br65  1  0.320635  0.035119  0.441576  1
  Br  Br66  1  0.019896  0.318819  0.000983  1
  Br  Br67  1  0.501597  0.864888  0.288572  1
  Br  Br68  1  0.179365  0.035119  0.941576  1
  Br  Br69  1  0.314138  0.551297  0.555164  1
  Br  Br70  1  0.312223  0.876106  0.115842  1
  Br  Br71  1  0.001597  0.364888  0.211428  1
