# generated using pymatgen
data_Eu2SO6
_symmetry_space_group_name_H-M   'P 1'
_cell_length_a   7.25001156
_cell_length_b   7.25001156
_cell_length_c   8.29102772
_cell_angle_alpha   73.05935305
_cell_angle_beta   106.94064695
_cell_angle_gamma   145.79111488
_symmetry_Int_Tables_number   1
_chemical_formula_structural   Eu2SO6
_chemical_formula_sum   'Eu4 S2 O12'
_cell_volume   233.34739462
_cell_formula_units_Z   2
loop_
 _symmetry_equiv_pos_site_id
 _symmetry_equiv_pos_as_xyz
  1  'x, y, z'
loop_
 _atom_site_type_symbol
 _atom_site_label
 _atom_site_symmetry_multiplicity
 _atom_site_fract_x
 _atom_site_fract_y
 _atom_site_fract_z
 _atom_site_occupancy
  Eu  Eu0  1  0.676746  0.339460  0.083728  1
  Eu  Eu1  1  0.339460  0.676746  0.416272  1
  Eu  Eu2  1  0.323254  0.660540  0.916272  1
  Eu  Eu3  1  0.660540  0.323254  0.583728  1
  S  S4  1  0.944704  0.944704  0.250000  1
  S  S5  1  0.055296  0.055296  0.750000  1
  O  O6  1  0.262875  0.772297  0.122705  1
  O  O7  1  0.772297  0.262875  0.377295  1
  O  O8  1  0.737125  0.227703  0.877295  1
  O  O9  1  0.227703  0.737125  0.622705  1
  O  O10  1  0.737802  0.738952  0.103657  1
  O  O11  1  0.738952  0.737802  0.396343  1
  O  O12  1  0.262198  0.261048  0.896343  1
  O  O13  1  0.261048  0.262198  0.603657  1
  O  O14  1  0.233015  0.047073  0.296375  1
  O  O15  1  0.047073  0.233015  0.203625  1
  O  O16  1  0.766985  0.952927  0.703625  1
  O  O17  1  0.952927  0.766985  0.796375  1
