# generated using pymatgen
data_CeB2Rh3
_symmetry_space_group_name_H-M   'P 1'
_cell_length_a   5.48784814
_cell_length_b   5.48784814
_cell_length_c   3.11820942
_cell_angle_alpha   90.00000000
_cell_angle_beta   90.00000000
_cell_angle_gamma   120.00000000
_symmetry_Int_Tables_number   1
_chemical_formula_structural   CeB2Rh3
_chemical_formula_sum   'Ce1 B2 Rh3'
_cell_volume   81.32799785
_cell_formula_units_Z   1
loop_
 _symmetry_equiv_pos_site_id
 _symmetry_equiv_pos_as_xyz
  1  'x, y, z'
loop_
 _atom_site_type_symbol
 _atom_site_label
 _atom_site_symmetry_multiplicity
 _atom_site_fract_x
 _atom_site_fract_y
 _atom_site_fract_z
 _atom_site_occupancy
  Ce  Ce0  1  0.000000  0.000000  0.000000  1
  B  B1  1  0.333333  0.666667  0.000000  1
  B  B2  1  0.666667  0.333333  0.000000  1
  Rh  Rh3  1  0.500000  0.000000  0.500000  1
  Rh  Rh4  1  0.500000  0.500000  0.500000  1
  Rh  Rh5  1  0.000000  0.500000  0.500000  1
