# generated using pymatgen
data_Hg6BiAs4Cl7
_symmetry_space_group_name_H-M   'P 1'
_cell_length_a   12.50116713
_cell_length_b   12.50116713
_cell_length_c   12.50116713
_cell_angle_alpha   90.00000000
_cell_angle_beta   90.00000000
_cell_angle_gamma   90.00000000
_symmetry_Int_Tables_number   1
_chemical_formula_structural   Hg6BiAs4Cl7
_chemical_formula_sum   'Hg24 Bi4 As16 Cl28'
_cell_volume   1953.67214327
_cell_formula_units_Z   4
loop_
 _symmetry_equiv_pos_site_id
 _symmetry_equiv_pos_as_xyz
  1  'x, y, z'
loop_
 _atom_site_type_symbol
 _atom_site_label
 _atom_site_symmetry_multiplicity
 _atom_site_fract_x
 _atom_site_fract_y
 _atom_site_fract_z
 _atom_site_occupancy
  Hg  Hg0  1  0.804470  0.046828  0.813897  1
  Hg  Hg1  1  0.953172  0.313897  0.695530  1
  Hg  Hg2  1  0.195530  0.546828  0.686103  1
  Hg  Hg3  1  0.304470  0.046828  0.686103  1
  Hg  Hg4  1  0.953172  0.186103  0.195530  1
  Hg  Hg5  1  0.453172  0.186103  0.304470  1
  Hg  Hg6  1  0.304470  0.453172  0.186103  1
  Hg  Hg7  1  0.186103  0.195530  0.953172  1
  Hg  Hg8  1  0.186103  0.304470  0.453172  1
  Hg  Hg9  1  0.313897  0.804470  0.453172  1
  Hg  Hg10  1  0.046828  0.686103  0.304470  1
  Hg  Hg11  1  0.686103  0.304470  0.046828  1
  Hg  Hg12  1  0.453172  0.313897  0.804470  1
  Hg  Hg13  1  0.686103  0.195530  0.546828  1
  Hg  Hg14  1  0.313897  0.695530  0.953172  1
  Hg  Hg15  1  0.695530  0.546828  0.813897  1
  Hg  Hg16  1  0.813897  0.804470  0.046828  1
  Hg  Hg17  1  0.546828  0.813897  0.695530  1
  Hg  Hg18  1  0.195530  0.953172  0.186103  1
  Hg  Hg19  1  0.804470  0.453172  0.313897  1
  Hg  Hg20  1  0.046828  0.813897  0.804470  1
  Hg  Hg21  1  0.546828  0.686103  0.195530  1
  Hg  Hg22  1  0.813897  0.695530  0.546828  1
  Hg  Hg23  1  0.695530  0.953172  0.313897  1
  Bi  Bi24  1  0.000000  0.000000  0.500000  1
  Bi  Bi25  1  0.500000  0.000000  0.000000  1
  Bi  Bi26  1  0.500000  0.500000  0.500000  1
  Bi  Bi27  1  0.000000  0.500000  0.000000  1
  As  As28  1  0.232957  0.767043  0.267043  1
  As  As29  1  0.151645  0.348355  0.651645  1
  As  As30  1  0.651645  0.348355  0.848355  1
  As  As31  1  0.732957  0.732957  0.732957  1
  As  As32  1  0.848355  0.651645  0.348355  1
  As  As33  1  0.348355  0.848355  0.651645  1
  As  As34  1  0.848355  0.848355  0.848355  1
  As  As35  1  0.732957  0.767043  0.232957  1
  As  As36  1  0.267043  0.267043  0.267043  1
  As  As37  1  0.267043  0.232957  0.767043  1
  As  As38  1  0.348355  0.651645  0.151645  1
  As  As39  1  0.232957  0.732957  0.767043  1
  As  As40  1  0.767043  0.232957  0.732957  1
  As  As41  1  0.651645  0.151645  0.348355  1
  As  As42  1  0.767043  0.267043  0.232957  1
  As  As43  1  0.151645  0.151645  0.151645  1
  Cl  Cl44  1  0.956200  0.950582  0.291683  1
  Cl  Cl45  1  0.791683  0.956200  0.549418  1
  Cl  Cl46  1  0.549418  0.708317  0.456200  1
  Cl  Cl47  1  0.450582  0.208317  0.043800  1
  Cl  Cl48  1  0.549418  0.791683  0.956200  1
  Cl  Cl49  1  0.956200  0.549418  0.791683  1
  Cl  Cl50  1  0.043800  0.049418  0.708317  1
  Cl  Cl51  1  0.708317  0.456200  0.549418  1
  Cl  Cl52  1  0.043800  0.450582  0.208317  1
  Cl  Cl53  1  0.291683  0.956200  0.950582  1
  Cl  Cl54  1  0.543800  0.049418  0.791683  1
  Cl  Cl55  1  0.049418  0.708317  0.043800  1
  Cl  Cl56  1  0.500000  0.000000  0.500000  1
  Cl  Cl57  1  0.456200  0.549418  0.708317  1
  Cl  Cl58  1  0.000000  0.500000  0.500000  1
  Cl  Cl59  1  0.049418  0.791683  0.543800  1
  Cl  Cl60  1  0.208317  0.043800  0.450582  1
  Cl  Cl61  1  0.543800  0.450582  0.291683  1
  Cl  Cl62  1  0.950582  0.291683  0.956200  1
  Cl  Cl63  1  0.456200  0.950582  0.208317  1
  Cl  Cl64  1  0.791683  0.543800  0.049418  1
  Cl  Cl65  1  0.450582  0.291683  0.543800  1
  Cl  Cl66  1  0.950582  0.208317  0.456200  1
  Cl  Cl67  1  0.500000  0.500000  0.000000  1
  Cl  Cl68  1  0.291683  0.543800  0.450582  1
  Cl  Cl69  1  0.000000  0.000000  0.000000  1
  Cl  Cl70  1  0.208317  0.456200  0.950582  1
  Cl  Cl71  1  0.708317  0.043800  0.049418  1
