# generated using pymatgen
data_YbCu9Sn4
_symmetry_space_group_name_H-M   'P 1'
_cell_length_a   8.70368641
_cell_length_b   8.70368641
_cell_length_c   8.70368641
_cell_angle_alpha   120.51081177
_cell_angle_beta   120.51081177
_cell_angle_gamma   89.11750191
_symmetry_Int_Tables_number   1
_chemical_formula_structural   YbCu9Sn4
_chemical_formula_sum   'Yb2 Cu18 Sn8'
_cell_volume   462.56491584
_cell_formula_units_Z   2
loop_
 _symmetry_equiv_pos_site_id
 _symmetry_equiv_pos_as_xyz
  1  'x, y, z'
loop_
 _atom_site_type_symbol
 _atom_site_label
 _atom_site_symmetry_multiplicity
 _atom_site_fract_x
 _atom_site_fract_y
 _atom_site_fract_z
 _atom_site_occupancy
  Yb  Yb0  1  0.750000  0.750000  0.000000  1
  Yb  Yb1  1  0.250000  0.250000  0.000000  1
  Cu  Cu2  1  0.934036  0.434036  0.716359  1
  Cu  Cu3  1  0.799393  0.945268  0.744661  1
  Cu  Cu4  1  0.717677  0.217677  0.283641  1
  Cu  Cu5  1  0.565964  0.282323  0.500000  1
  Cu  Cu6  1  0.554732  0.700607  0.255339  1
  Cu  Cu7  1  0.217677  0.934036  0.500000  1
  Cu  Cu8  1  0.445268  0.299393  0.744661  1
  Cu  Cu9  1  0.500000  0.000000  0.500000  1
  Cu  Cu10  1  0.200607  0.054732  0.255339  1
  Cu  Cu11  1  0.054732  0.799393  0.854126  1
  Cu  Cu12  1  0.299393  0.554732  0.854126  1
  Cu  Cu13  1  0.282323  0.782323  0.716359  1
  Cu  Cu14  1  0.434036  0.717677  0.500000  1
  Cu  Cu15  1  0.065964  0.565964  0.283641  1
  Cu  Cu16  1  0.782323  0.065964  0.500000  1
  Cu  Cu17  1  0.700607  0.445268  0.145874  1
  Cu  Cu18  1  0.945268  0.200607  0.145874  1
  Cu  Cu19  1  1.000000  0.500000  0.500000  1
  Sn  Sn20  1  0.687018  0.559248  0.500000  1
  Sn  Sn21  1  0.440752  0.940752  0.127771  1
  Sn  Sn22  1  0.312982  0.440752  0.500000  1
  Sn  Sn23  1  0.059248  0.187018  0.500000  1
  Sn  Sn24  1  0.187018  0.687018  0.127771  1
  Sn  Sn25  1  0.940752  0.812982  0.500000  1
  Sn  Sn26  1  0.559248  0.059248  0.872229  1
  Sn  Sn27  1  0.812982  0.312982  0.872229  1
