# generated using pymatgen
data_ZrCr2
_symmetry_space_group_name_H-M   'P 1'
_cell_length_a   5.07676099
_cell_length_b   5.07676099
_cell_length_c   16.45350477
_cell_angle_alpha   90.00000000
_cell_angle_beta   90.00000000
_cell_angle_gamma   120.00000000
_symmetry_Int_Tables_number   1
_chemical_formula_structural   ZrCr2
_chemical_formula_sum   'Zr8 Cr16'
_cell_volume   367.25057782
_cell_formula_units_Z   8
loop_
 _symmetry_equiv_pos_site_id
 _symmetry_equiv_pos_as_xyz
  1  'x, y, z'
loop_
 _atom_site_type_symbol
 _atom_site_label
 _atom_site_symmetry_multiplicity
 _atom_site_fract_x
 _atom_site_fract_y
 _atom_site_fract_z
 _atom_site_occupancy
  Zr  Zr0  1  0.333333  0.666667  0.843789  1
  Zr  Zr1  1  0.000000  0.000000  0.094339  1
  Zr  Zr2  1  0.666667  0.333333  0.156211  1
  Zr  Zr3  1  0.000000  0.000000  0.905661  1
  Zr  Zr4  1  0.000000  0.000000  0.594339  1
  Zr  Zr5  1  0.000000  0.000000  0.405661  1
  Zr  Zr6  1  0.666667  0.333333  0.343789  1
  Zr  Zr7  1  0.333333  0.666667  0.656211  1
  Cr  Cr8  1  0.500000  0.000000  0.000000  1
  Cr  Cr9  1  0.834404  0.165596  0.750000  1
  Cr  Cr10  1  0.666667  0.333333  0.875877  1
  Cr  Cr11  1  0.165596  0.331192  0.250000  1
  Cr  Cr12  1  0.331192  0.165596  0.750000  1
  Cr  Cr13  1  0.834404  0.668808  0.750000  1
  Cr  Cr14  1  0.000000  0.500000  0.000000  1
  Cr  Cr15  1  0.668808  0.834404  0.250000  1
  Cr  Cr16  1  0.500000  0.000000  0.500000  1
  Cr  Cr17  1  0.165596  0.834404  0.250000  1
  Cr  Cr18  1  0.333333  0.666667  0.124123  1
  Cr  Cr19  1  0.500000  0.500000  0.000000  1
  Cr  Cr20  1  0.666667  0.333333  0.624123  1
  Cr  Cr21  1  0.000000  0.500000  0.500000  1
  Cr  Cr22  1  0.333333  0.666667  0.375877  1
  Cr  Cr23  1  0.500000  0.500000  0.500000  1
