# generated using pymatgen
data_Ta6Ni16Ge7
_symmetry_space_group_name_H-M   'P 1'
_cell_length_a   8.10859664
_cell_length_b   8.10859664
_cell_length_c   8.10859664
_cell_angle_alpha   60.00000000
_cell_angle_beta   60.00000000
_cell_angle_gamma   60.00000000
_symmetry_Int_Tables_number   1
_chemical_formula_structural   Ta6Ni16Ge7
_chemical_formula_sum   'Ta6 Ni16 Ge7'
_cell_volume   376.98328345
_cell_formula_units_Z   1
loop_
 _symmetry_equiv_pos_site_id
 _symmetry_equiv_pos_as_xyz
  1  'x, y, z'
loop_
 _atom_site_type_symbol
 _atom_site_label
 _atom_site_symmetry_multiplicity
 _atom_site_fract_x
 _atom_site_fract_y
 _atom_site_fract_z
 _atom_site_occupancy
  Ta  Ta0  1  0.199074  0.800926  0.199074  1
  Ta  Ta1  1  0.800926  0.800926  0.199074  1
  Ta  Ta2  1  0.800926  0.199074  0.800926  1
  Ta  Ta3  1  0.199074  0.199074  0.800926  1
  Ta  Ta4  1  0.199074  0.800926  0.800926  1
  Ta  Ta5  1  0.800926  0.199074  0.199074  1
  Ni  Ni6  1  0.851607  0.382798  0.382798  1
  Ni  Ni7  1  0.833891  0.833891  0.498327  1
  Ni  Ni8  1  0.617202  0.617202  0.617202  1
  Ni  Ni9  1  0.166109  0.166109  0.166109  1
  Ni  Ni10  1  0.833891  0.833891  0.833891  1
  Ni  Ni11  1  0.501673  0.166109  0.166109  1
  Ni  Ni12  1  0.498327  0.833891  0.833891  1
  Ni  Ni13  1  0.382798  0.382798  0.382798  1
  Ni  Ni14  1  0.833891  0.498327  0.833891  1
  Ni  Ni15  1  0.148393  0.617202  0.617202  1
  Ni  Ni16  1  0.382798  0.851607  0.382798  1
  Ni  Ni17  1  0.617202  0.617202  0.148393  1
  Ni  Ni18  1  0.617202  0.148393  0.617202  1
  Ni  Ni19  1  0.166109  0.501673  0.166109  1
  Ni  Ni20  1  0.382798  0.382798  0.851607  1
  Ni  Ni21  1  0.166109  0.166109  0.501673  1
  Ge  Ge22  1  0.500000  0.000000  1.000000  1
  Ge  Ge23  1  1.000000  0.000000  0.500000  1
  Ge  Ge24  1  0.500000  0.500000  0.500000  1
  Ge  Ge25  1  0.500000  0.500000  0.000000  1
  Ge  Ge26  1  0.000000  0.500000  0.500000  1
  Ge  Ge27  1  0.500000  0.000000  0.500000  1
  Ge  Ge28  1  0.000000  0.500000  0.000000  1
