# generated using pymatgen
data_Sn4P2O9
_symmetry_space_group_name_H-M   'P 1'
_cell_length_a   7.52412268
_cell_length_b   9.70138102
_cell_length_c   14.92559829
_cell_angle_alpha   90.00000000
_cell_angle_beta   110.65678644
_cell_angle_gamma   90.00000000
_symmetry_Int_Tables_number   1
_chemical_formula_structural   Sn4P2O9
_chemical_formula_sum   'Sn16 P8 O36'
_cell_volume   1019.44222308
_cell_formula_units_Z   4
loop_
 _symmetry_equiv_pos_site_id
 _symmetry_equiv_pos_as_xyz
  1  'x, y, z'
loop_
 _atom_site_type_symbol
 _atom_site_label
 _atom_site_symmetry_multiplicity
 _atom_site_fract_x
 _atom_site_fract_y
 _atom_site_fract_z
 _atom_site_occupancy
  Sn  Sn0  1  0.846992  0.979995  0.117470  1
  Sn  Sn1  1  0.143591  0.837859  0.594109  1
  Sn  Sn2  1  0.332296  0.120656  0.328187  1
  Sn  Sn3  1  0.856409  0.162141  0.405891  1
  Sn  Sn4  1  0.846992  0.520005  0.617470  1
  Sn  Sn5  1  0.153008  0.479995  0.382530  1
  Sn  Sn6  1  0.856409  0.337859  0.905891  1
  Sn  Sn7  1  0.400673  0.179232  0.603548  1
  Sn  Sn8  1  0.667704  0.879344  0.671813  1
  Sn  Sn9  1  0.599327  0.820768  0.396452  1
  Sn  Sn10  1  0.332296  0.379344  0.828187  1
  Sn  Sn11  1  0.667704  0.620656  0.171813  1
  Sn  Sn12  1  0.143591  0.662141  0.094109  1
  Sn  Sn13  1  0.599327  0.679232  0.896452  1
  Sn  Sn14  1  0.153008  0.020005  0.882530  1
  Sn  Sn15  1  0.400673  0.320768  0.103548  1
  P  P16  1  0.426320  0.573378  0.659758  1
  P  P17  1  0.573680  0.073378  0.840242  1
  P  P18  1  0.426320  0.926622  0.159758  1
  P  P19  1  0.908256  0.338569  0.147307  1
  P  P20  1  0.573680  0.426622  0.340242  1
  P  P21  1  0.908256  0.161431  0.647307  1
  P  P22  1  0.091744  0.661431  0.852693  1
  P  P23  1  0.091744  0.838569  0.352693  1
  O  O24  1  0.295063  0.476609  0.691780  1
  O  O25  1  0.295063  0.023391  0.191780  1
  O  O26  1  0.704937  0.976609  0.808220  1
  O  O27  1  0.925399  0.183817  0.171362  1
  O  O28  1  0.074601  0.683817  0.328638  1
  O  O29  1  0.518389  0.686928  0.739325  1
  O  O30  1  0.697778  0.111400  0.623872  1
  O  O31  1  0.302222  0.888600  0.376128  1
  O  O32  1  0.074601  0.816183  0.828638  1
  O  O33  1  0.579245  0.014576  0.139704  1
  O  O34  1  0.971387  0.372388  0.060743  1
  O  O35  1  0.028613  0.627612  0.939257  1
  O  O36  1  0.028613  0.872388  0.439257  1
  O  O37  1  0.420755  0.514576  0.360296  1
  O  O38  1  0.420755  0.985424  0.860296  1
  O  O39  1  0.307288  0.655805  0.569038  1
  O  O40  1  0.037402  0.424057  0.232106  1
  O  O41  1  0.037402  0.075943  0.732106  1
  O  O42  1  0.971387  0.127612  0.560743  1
  O  O43  1  0.481611  0.313072  0.260675  1
  O  O44  1  0.518389  0.813072  0.239325  1
  O  O45  1  0.481611  0.186928  0.760675  1
  O  O46  1  0.925399  0.316183  0.671362  1
  O  O47  1  0.692712  0.344195  0.430962  1
  O  O48  1  0.692712  0.155805  0.930962  1
  O  O49  1  0.386042  0.538987  0.114022  1
  O  O50  1  0.704937  0.523391  0.308220  1
  O  O51  1  0.307288  0.844195  0.069038  1
  O  O52  1  0.962598  0.575943  0.767894  1
  O  O53  1  0.386042  0.961013  0.614022  1
  O  O54  1  0.962598  0.924057  0.267894  1
  O  O55  1  0.697778  0.388600  0.123872  1
  O  O56  1  0.579245  0.485424  0.639704  1
  O  O57  1  0.302222  0.611400  0.876128  1
  O  O58  1  0.613958  0.038987  0.385978  1
  O  O59  1  0.613958  0.461013  0.885978  1
