# generated using pymatgen
data_RbTh3F13
_symmetry_space_group_name_H-M   'P 1'
_cell_length_a   7.52086438
_cell_length_b   8.25311032
_cell_length_c   8.72959385
_cell_angle_alpha   90.00000000
_cell_angle_beta   90.00000000
_cell_angle_gamma   90.00000000
_symmetry_Int_Tables_number   1
_chemical_formula_structural   RbTh3F13
_chemical_formula_sum   'Rb2 Th6 F26'
_cell_volume   541.85045960
_cell_formula_units_Z   2
loop_
 _symmetry_equiv_pos_site_id
 _symmetry_equiv_pos_as_xyz
  1  'x, y, z'
loop_
 _atom_site_type_symbol
 _atom_site_label
 _atom_site_symmetry_multiplicity
 _atom_site_fract_x
 _atom_site_fract_y
 _atom_site_fract_z
 _atom_site_occupancy
  Rb  Rb0  1  0.894776  0.500000  0.695163  1
  Rb  Rb1  1  0.105224  0.500000  0.195163  1
  Th  Th2  1  0.603313  0.252536  0.334906  1
  Th  Th3  1  0.603313  0.747464  0.334906  1
  Th  Th4  1  0.396687  0.747464  0.834906  1
  Th  Th5  1  0.396687  0.252536  0.834906  1
  Th  Th6  1  0.108298  0.000000  0.500197  1
  Th  Th7  1  0.891702  0.000000  0.000197  1
  F  F8  1  0.694880  0.826461  0.866292  1
  F  F9  1  0.560552  0.500000  0.845720  1
  F  F10  1  0.114480  0.806552  0.956526  1
  F  F11  1  0.824101  0.744882  0.144980  1
  F  F12  1  0.360953  0.000000  0.678576  1
  F  F13  1  0.033785  0.000000  0.234914  1
  F  F14  1  0.885520  0.193448  0.456526  1
  F  F15  1  0.439448  0.500000  0.345720  1
  F  F16  1  0.966215  0.000000  0.734914  1
  F  F17  1  0.452505  0.698549  0.096811  1
  F  F18  1  0.771842  0.500000  0.367960  1
  F  F19  1  0.452505  0.301451  0.096811  1
  F  F20  1  0.547495  0.698549  0.596811  1
  F  F21  1  0.597977  0.000000  0.456940  1
  F  F22  1  0.305120  0.826461  0.366292  1
  F  F23  1  0.228158  0.500000  0.867960  1
  F  F24  1  0.824101  0.255118  0.144980  1
  F  F25  1  0.175899  0.744882  0.644980  1
  F  F26  1  0.175899  0.255118  0.644980  1
  F  F27  1  0.305120  0.173539  0.366292  1
  F  F28  1  0.694880  0.173539  0.866292  1
  F  F29  1  0.639047  0.000000  0.178576  1
  F  F30  1  0.402023  0.000000  0.956940  1
  F  F31  1  0.114480  0.193448  0.956526  1
  F  F32  1  0.547495  0.301451  0.596811  1
  F  F33  1  0.885520  0.806552  0.456526  1
