# generated using pymatgen
data_MgBIr
_symmetry_space_group_name_H-M   'P 1'
_cell_length_a   5.30786316
_cell_length_b   5.30786316
_cell_length_c   9.48844591
_cell_angle_alpha   90.00000000
_cell_angle_beta   90.00000000
_cell_angle_gamma   120.00000000
_symmetry_Int_Tables_number   1
_chemical_formula_structural   MgBIr
_chemical_formula_sum   'Mg6 B6 Ir6'
_cell_volume   231.50754691
_cell_formula_units_Z   6
loop_
 _symmetry_equiv_pos_site_id
 _symmetry_equiv_pos_as_xyz
  1  'x, y, z'
loop_
 _atom_site_type_symbol
 _atom_site_label
 _atom_site_symmetry_multiplicity
 _atom_site_fract_x
 _atom_site_fract_y
 _atom_site_fract_z
 _atom_site_occupancy
  Mg  Mg0  1  0.000000  0.500000  0.666667  1
  Mg  Mg1  1  0.000000  0.000000  0.833333  1
  Mg  Mg2  1  0.000000  0.000000  0.500000  1
  Mg  Mg3  1  0.000000  0.000000  0.166667  1
  Mg  Mg4  1  0.500000  0.500000  0.333333  1
  Mg  Mg5  1  0.500000  0.000000  0.000000  1
  B  B6  1  0.204885  0.602443  0.166667  1
  B  B7  1  0.602443  0.204885  0.500000  1
  B  B8  1  0.602443  0.397557  0.833333  1
  B  B9  1  0.795115  0.397557  0.166667  1
  B  B10  1  0.397557  0.602443  0.833333  1
  B  B11  1  0.397557  0.795115  0.500000  1
  Ir  Ir12  1  0.500000  0.500000  0.044835  1
  Ir  Ir13  1  0.500000  0.000000  0.711502  1
  Ir  Ir14  1  0.500000  0.500000  0.621831  1
  Ir  Ir15  1  0.500000  0.000000  0.288498  1
  Ir  Ir16  1  0.000000  0.500000  0.378169  1
  Ir  Ir17  1  0.000000  0.500000  0.955165  1
