# generated using pymatgen
data_SbAs3(Se2F3)2
_symmetry_space_group_name_H-M   'P 1'
_cell_length_a   6.45269655
_cell_length_b   9.97960307
_cell_length_c   10.77324534
_cell_angle_alpha   90.00000000
_cell_angle_beta   92.35850880
_cell_angle_gamma   90.00000000
_symmetry_Int_Tables_number   1
_chemical_formula_structural   SbAs3(Se2F3)2
_chemical_formula_sum   'Sb2 As6 Se8 F12'
_cell_volume   693.15922885
_cell_formula_units_Z   2
loop_
 _symmetry_equiv_pos_site_id
 _symmetry_equiv_pos_as_xyz
  1  'x, y, z'
loop_
 _atom_site_type_symbol
 _atom_site_label
 _atom_site_symmetry_multiplicity
 _atom_site_fract_x
 _atom_site_fract_y
 _atom_site_fract_z
 _atom_site_occupancy
  Sb  Sb0  1  0.499059  0.750000  0.167428  1
  Sb  Sb1  1  0.500941  0.250000  0.832572  1
  As  As2  1  0.058557  0.250000  0.482496  1
  As  As3  1  0.973938  0.124019  0.155421  1
  As  As4  1  0.026062  0.624019  0.844579  1
  As  As5  1  0.941443  0.750000  0.517504  1
  As  As6  1  0.026062  0.875981  0.844579  1
  As  As7  1  0.973938  0.375981  0.155421  1
  Se  Se8  1  0.136306  0.065789  0.347415  1
  Se  Se9  1  0.136306  0.434211  0.347415  1
  Se  Se10  1  0.340563  0.750000  0.774303  1
  Se  Se11  1  0.659437  0.250000  0.225697  1
  Se  Se12  1  0.863694  0.565789  0.652585  1
  Se  Se13  1  0.314275  0.750000  0.557313  1
  Se  Se14  1  0.863694  0.934211  0.652585  1
  Se  Se15  1  0.685725  0.250000  0.442687  1
  F  F16  1  0.277003  0.750000  0.282801  1
  F  F17  1  0.351904  0.615226  0.070641  1
  F  F18  1  0.361094  0.386628  0.735469  1
  F  F19  1  0.717702  0.750000  0.051434  1
  F  F20  1  0.361094  0.113372  0.735469  1
  F  F21  1  0.282298  0.250000  0.948566  1
  F  F22  1  0.648096  0.115226  0.929359  1
  F  F23  1  0.638906  0.613372  0.264531  1
  F  F24  1  0.638906  0.886628  0.264531  1
  F  F25  1  0.351904  0.884774  0.070641  1
  F  F26  1  0.648096  0.384774  0.929359  1
  F  F27  1  0.722997  0.250000  0.717199  1
