# generated using pymatgen
data_Sr3Ru2O7
_symmetry_space_group_name_H-M   'P 1'
_cell_length_a   10.61884503
_cell_length_b   10.61884503
_cell_length_c   10.61884503
_cell_angle_alpha   158.32126177
_cell_angle_beta   158.32126177
_cell_angle_gamma   30.84701616
_symmetry_Int_Tables_number   1
_chemical_formula_structural   Sr3Ru2O7
_chemical_formula_sum   'Sr3 Ru2 O7'
_cell_volume   163.28193479
_cell_formula_units_Z   1
loop_
 _symmetry_equiv_pos_site_id
 _symmetry_equiv_pos_as_xyz
  1  'x, y, z'
loop_
 _atom_site_type_symbol
 _atom_site_label
 _atom_site_symmetry_multiplicity
 _atom_site_fract_x
 _atom_site_fract_y
 _atom_site_fract_z
 _atom_site_occupancy
  Sr  Sr0  1  0.500000  0.500000  0.000000  1
  Sr  Sr1  1  0.683725  0.683725  0.000000  1
  Sr  Sr2  1  0.316275  0.316275  0.000000  1
  Ru  Ru3  1  0.098082  0.098082  0.000000  1
  Ru  Ru4  1  0.901918  0.901918  0.000000  1
  O  O5  1  0.903317  0.403317  0.500000  1
  O  O6  1  0.403317  0.903317  0.500000  1
  O  O7  1  0.096683  0.596683  0.500000  1
  O  O8  1  0.596683  0.096683  0.500000  1
  O  O9  1  0.803640  0.803640  0.000000  1
  O  O10  1  0.000000  0.000000  0.000000  1
  O  O11  1  0.196360  0.196360  0.000000  1
