# generated using pymatgen
data_NaGaSiO4
_symmetry_space_group_name_H-M   'P 1'
_cell_length_a   8.84417541
_cell_length_b   8.84417541
_cell_length_c   8.36032630
_cell_angle_alpha   90.00000000
_cell_angle_beta   90.00000000
_cell_angle_gamma   120.00000000
_symmetry_Int_Tables_number   1
_chemical_formula_structural   NaGaSiO4
_chemical_formula_sum   'Na6 Ga6 Si6 O24'
_cell_volume   566.32867942
_cell_formula_units_Z   6
loop_
 _symmetry_equiv_pos_site_id
 _symmetry_equiv_pos_as_xyz
  1  'x, y, z'
loop_
 _atom_site_type_symbol
 _atom_site_label
 _atom_site_symmetry_multiplicity
 _atom_site_fract_x
 _atom_site_fract_y
 _atom_site_fract_z
 _atom_site_occupancy
  Na  Na0  1  0.666667  0.333333  0.063334  1
  Na  Na1  1  0.000000  0.000000  0.069416  1
  Na  Na2  1  0.333333  0.666667  0.563334  1
  Na  Na3  1  0.666667  0.333333  0.490796  1
  Na  Na4  1  0.000000  0.000000  0.569416  1
  Na  Na5  1  0.333333  0.666667  0.990796  1
  Ga  Ga6  1  0.315271  0.342802  0.250214  1
  Ga  Ga7  1  0.684729  0.657198  0.750214  1
  Ga  Ga8  1  0.027531  0.684729  0.250214  1
  Ga  Ga9  1  0.657198  0.972469  0.250214  1
  Ga  Ga10  1  0.972469  0.315271  0.750214  1
  Ga  Ga11  1  0.342802  0.027531  0.750214  1
  Si  Si12  1  0.975298  0.316989  0.365174  1
  Si  Si13  1  0.683011  0.658309  0.365174  1
  Si  Si14  1  0.316989  0.341691  0.865174  1
  Si  Si15  1  0.658309  0.975298  0.865174  1
  Si  Si16  1  0.341691  0.024702  0.365174  1
  Si  Si17  1  0.024702  0.683011  0.865174  1
  O  O18  1  0.409254  0.220502  0.879706  1
  O  O19  1  0.618778  0.886235  0.044139  1
  O  O20  1  0.188752  0.409254  0.379706  1
  O  O21  1  0.590746  0.779498  0.379706  1
  O  O22  1  0.811248  0.590746  0.879706  1
  O  O23  1  0.446309  0.533480  0.782470  1
  O  O24  1  0.866864  0.761503  0.264148  1
  O  O25  1  0.087170  0.553691  0.782470  1
  O  O26  1  0.267457  0.381222  0.044139  1
  O  O27  1  0.894639  0.133136  0.264148  1
  O  O28  1  0.779498  0.188752  0.879706  1
  O  O29  1  0.381222  0.113765  0.544139  1
  O  O30  1  0.761503  0.894639  0.764148  1
  O  O31  1  0.220502  0.811248  0.379706  1
  O  O32  1  0.113765  0.732543  0.044139  1
  O  O33  1  0.105361  0.866864  0.764148  1
  O  O34  1  0.553691  0.466520  0.282470  1
  O  O35  1  0.912830  0.446309  0.282470  1
  O  O36  1  0.466520  0.912830  0.782470  1
  O  O37  1  0.886235  0.267457  0.544139  1
  O  O38  1  0.238497  0.105361  0.264148  1
  O  O39  1  0.133136  0.238497  0.764148  1
  O  O40  1  0.533480  0.087170  0.282470  1
  O  O41  1  0.732543  0.618778  0.544139  1
