# generated using pymatgen
data_La4Pb3
_symmetry_space_group_name_H-M   'P 1'
_cell_length_a   8.59491032
_cell_length_b   8.59491032
_cell_length_c   8.59491032
_cell_angle_alpha   109.47122063
_cell_angle_beta   109.47122063
_cell_angle_gamma   109.47122063
_symmetry_Int_Tables_number   1
_chemical_formula_structural   La4Pb3
_chemical_formula_sum   'La8 Pb6'
_cell_volume   488.76731790
_cell_formula_units_Z   2
loop_
 _symmetry_equiv_pos_site_id
 _symmetry_equiv_pos_as_xyz
  1  'x, y, z'
loop_
 _atom_site_type_symbol
 _atom_site_label
 _atom_site_symmetry_multiplicity
 _atom_site_fract_x
 _atom_site_fract_y
 _atom_site_fract_z
 _atom_site_occupancy
  La  La0  1  0.357427  0.500000  1.000000  1
  La  La1  1  0.857427  0.500000  1.000000  1
  La  La2  1  0.642573  0.642573  0.642573  1
  La  La3  1  0.500000  1.000000  0.357427  1
  La  La4  1  0.142573  0.142573  0.142573  1
  La  La5  1  0.000000  0.857427  0.500000  1
  La  La6  1  0.500000  0.000000  0.857427  1
  La  La7  1  1.000000  0.357427  0.500000  1
  Pb  Pb8  1  0.875000  0.125000  0.750000  1
  Pb  Pb9  1  0.750000  0.875000  0.125000  1
  Pb  Pb10  1  0.250000  0.625000  0.375000  1
  Pb  Pb11  1  0.625000  0.375000  0.250000  1
  Pb  Pb12  1  0.125000  0.750000  0.875000  1
  Pb  Pb13  1  0.375000  0.250000  0.625000  1
