# generated using pymatgen
data_Li2V(PO4)2
_symmetry_space_group_name_H-M   'P 1'
_cell_length_a   4.83162906
_cell_length_b   4.83162906
_cell_length_c   6.40175653
_cell_angle_alpha   88.51070898
_cell_angle_beta   91.48929102
_cell_angle_gamma   112.84492212
_symmetry_Int_Tables_number   1
_chemical_formula_structural   Li2V(PO4)2
_chemical_formula_sum   'Li2 V1 P2 O8'
_cell_volume   137.65692553
_cell_formula_units_Z   1
loop_
 _symmetry_equiv_pos_site_id
 _symmetry_equiv_pos_as_xyz
  1  'x, y, z'
loop_
 _atom_site_type_symbol
 _atom_site_label
 _atom_site_symmetry_multiplicity
 _atom_site_fract_x
 _atom_site_fract_y
 _atom_site_fract_z
 _atom_site_occupancy
  Li  Li0  1  0.822403  0.177597  0.281431  1
  Li  Li1  1  0.497067  0.502933  0.507104  1
  V  V2  1  0.494350  0.505650  0.990315  1
  P  P3  1  0.848127  0.151873  0.768055  1
  P  P4  1  0.154904  0.845096  0.233875  1
  O  O5  1  0.725734  0.798821  0.783818  1
  O  O6  1  0.258940  0.741060  0.430120  1
  O  O7  1  0.736034  0.263966  0.965117  1
  O  O8  1  0.264017  0.735983  0.035873  1
  O  O9  1  0.799984  0.730716  0.218288  1
  O  O10  1  0.269284  0.200016  0.218288  1
  O  O11  1  0.201179  0.274266  0.783818  1
  O  O12  1  0.749020  0.250980  0.565103  1
