# generated using pymatgen
data_Ba3Bi2TeO9
_symmetry_space_group_name_H-M   'P 1'
_cell_length_a   6.26483590
_cell_length_b   6.26483590
_cell_length_c   15.05388466
_cell_angle_alpha   90.00000000
_cell_angle_beta   90.00000000
_cell_angle_gamma   120.00000000
_symmetry_Int_Tables_number   1
_chemical_formula_structural   Ba3Bi2TeO9
_chemical_formula_sum   'Ba6 Bi4 Te2 O18'
_cell_volume   511.68020324
_cell_formula_units_Z   2
loop_
 _symmetry_equiv_pos_site_id
 _symmetry_equiv_pos_as_xyz
  1  'x, y, z'
loop_
 _atom_site_type_symbol
 _atom_site_label
 _atom_site_symmetry_multiplicity
 _atom_site_fract_x
 _atom_site_fract_y
 _atom_site_fract_z
 _atom_site_occupancy
  Ba  Ba0  1  0.333333  0.666667  0.081974  1
  Ba  Ba1  1  0.666667  0.333333  0.918026  1
  Ba  Ba2  1  0.333333  0.666667  0.581974  1
  Ba  Ba3  1  0.666667  0.333333  0.418026  1
  Ba  Ba4  1  0.000000  0.000000  0.250000  1
  Ba  Ba5  1  0.000000  0.000000  0.750000  1
  Bi  Bi6  1  0.333333  0.666667  0.832803  1
  Bi  Bi7  1  0.666667  0.333333  0.167197  1
  Bi  Bi8  1  0.333333  0.666667  0.332803  1
  Bi  Bi9  1  0.666667  0.333333  0.667197  1
  Te  Te10  1  0.000000  0.000000  0.000000  1
  Te  Te11  1  0.000000  0.000000  0.500000  1
  O  O12  1  0.917561  0.710120  0.574999  1
  O  O13  1  0.000000  0.556295  0.250000  1
  O  O14  1  0.207441  0.289880  0.925001  1
  O  O15  1  0.917561  0.207441  0.074999  1
  O  O16  1  0.792559  0.082439  0.574999  1
  O  O17  1  0.792559  0.710120  0.074999  1
  O  O18  1  0.710120  0.792559  0.425001  1
  O  O19  1  0.443705  0.000000  0.750000  1
  O  O20  1  0.556295  0.556295  0.750000  1
  O  O21  1  0.289880  0.207441  0.574999  1
  O  O22  1  0.082439  0.289880  0.425001  1
  O  O23  1  0.207441  0.917561  0.425001  1
  O  O24  1  0.289880  0.082439  0.074999  1
  O  O25  1  0.556295  0.000000  0.250000  1
  O  O26  1  0.443705  0.443705  0.250000  1
  O  O27  1  0.000000  0.443705  0.750000  1
  O  O28  1  0.082439  0.792559  0.925001  1
  O  O29  1  0.710120  0.917561  0.925001  1
