# generated using pymatgen
data_Sr3CuIrO6
_symmetry_space_group_name_H-M   'P 1'
_cell_length_a   6.80374996
_cell_length_b   6.80374996
_cell_length_c   6.76741242
_cell_angle_alpha   89.26991634
_cell_angle_beta   90.73008366
_cell_angle_gamma   88.09134025
_symmetry_Int_Tables_number   1
_chemical_formula_structural   Sr3CuIrO6
_chemical_formula_sum   'Sr6 Cu2 Ir2 O12'
_cell_volume   313.04398524
_cell_formula_units_Z   2
loop_
 _symmetry_equiv_pos_site_id
 _symmetry_equiv_pos_as_xyz
  1  'x, y, z'
loop_
 _atom_site_type_symbol
 _atom_site_label
 _atom_site_symmetry_multiplicity
 _atom_site_fract_x
 _atom_site_fract_y
 _atom_site_fract_z
 _atom_site_occupancy
  Sr  Sr0  1  0.601225  0.601225  0.250000  1
  Sr  Sr1  1  0.398775  0.398775  0.750000  1
  Sr  Sr2  1  0.108066  0.741783  0.379690  1
  Sr  Sr3  1  0.741783  0.108066  0.120310  1
  Sr  Sr4  1  0.891934  0.258217  0.620310  1
  Sr  Sr5  1  0.258217  0.891934  0.879690  1
  Cu  Cu6  1  0.808410  0.808410  0.750000  1
  Cu  Cu7  1  0.191590  0.191590  0.250000  1
  Ir  Ir8  1  0.000000  0.500000  0.000000  1
  Ir  Ir9  1  0.500000  1.000000  0.500000  1
  O  O10  1  0.782861  0.898099  0.463205  1
  O  O11  1  0.898099  0.782861  0.036795  1
  O  O12  1  0.217139  0.101901  0.536795  1
  O  O13  1  0.101901  0.217139  0.963205  1
  O  O14  1  0.604669  0.029550  0.782852  1
  O  O15  1  0.029550  0.604669  0.717148  1
  O  O16  1  0.395331  0.970450  0.217148  1
  O  O17  1  0.970450  0.395331  0.282852  1
  O  O18  1  0.428460  0.721834  0.570090  1
  O  O19  1  0.721834  0.428460  0.929910  1
  O  O20  1  0.571540  0.278166  0.429910  1
  O  O21  1  0.278166  0.571540  0.070090  1
