# generated using pymatgen
data_Na3FeO3
_symmetry_space_group_name_H-M   'P 1'
_cell_length_a   8.67822827
_cell_length_b   8.67822827
_cell_length_c   6.20537035
_cell_angle_alpha   68.45982983
_cell_angle_beta   111.54017017
_cell_angle_gamma   102.91643025
_symmetry_Int_Tables_number   1
_chemical_formula_structural   Na3FeO3
_chemical_formula_sum   'Na12 Fe4 O12'
_cell_volume   402.20707234
_cell_formula_units_Z   4
loop_
 _symmetry_equiv_pos_site_id
 _symmetry_equiv_pos_as_xyz
  1  'x, y, z'
loop_
 _atom_site_type_symbol
 _atom_site_label
 _atom_site_symmetry_multiplicity
 _atom_site_fract_x
 _atom_site_fract_y
 _atom_site_fract_z
 _atom_site_occupancy
  Na  Na0  1  0.794434  0.251344  0.158435  1
  Na  Na1  1  0.173271  0.353121  0.305743  1
  Na  Na2  1  0.748656  0.205566  0.658435  1
  Na  Na3  1  0.232039  0.723442  0.541900  1
  Na  Na4  1  0.035551  0.016123  0.793721  1
  Na  Na5  1  0.365041  0.061778  0.299307  1
  Na  Na6  1  0.276558  0.767961  0.041900  1
  Na  Na7  1  0.983877  0.964449  0.293721  1
  Na  Na8  1  0.938222  0.634959  0.799307  1
  Na  Na9  1  0.478051  0.437406  0.094794  1
  Na  Na10  1  0.562594  0.521949  0.594794  1
  Na  Na11  1  0.646879  0.826729  0.805743  1
  Fe  Fe12  1  0.123357  0.353654  0.814047  1
  Fe  Fe13  1  0.877855  0.600371  0.245535  1
  Fe  Fe14  1  0.399629  0.122145  0.745535  1
  Fe  Fe15  1  0.646346  0.876643  0.314047  1
  O  O16  1  0.769873  0.689662  0.390790  1
  O  O17  1  0.992346  0.405484  0.471953  1
  O  O18  1  0.467834  0.280913  0.483575  1
  O  O19  1  0.594516  0.007654  0.971953  1
  O  O20  1  0.310338  0.230127  0.890790  1
  O  O21  1  0.719087  0.532166  0.983575  1
  O  O22  1  0.457960  0.787012  0.417112  1
  O  O23  1  0.227002  0.969193  0.626370  1
  O  O24  1  0.030807  0.772998  0.126370  1
  O  O25  1  0.987072  0.217067  0.999278  1
  O  O26  1  0.212988  0.542040  0.917112  1
  O  O27  1  0.782933  0.012928  0.499278  1
