# generated using pymatgen
data_CaAl2O4
_symmetry_space_group_name_H-M   'P 1'
_cell_length_a   8.83602604
_cell_length_b   8.83602604
_cell_length_c   8.20259724
_cell_angle_alpha   90.00000000
_cell_angle_beta   90.00000000
_cell_angle_gamma   120.00000000
_symmetry_Int_Tables_number   1
_chemical_formula_structural   CaAl2O4
_chemical_formula_sum   'Ca6 Al12 O24'
_cell_volume   554.62059593
_cell_formula_units_Z   6
loop_
 _symmetry_equiv_pos_site_id
 _symmetry_equiv_pos_as_xyz
  1  'x, y, z'
loop_
 _atom_site_type_symbol
 _atom_site_label
 _atom_site_symmetry_multiplicity
 _atom_site_fract_x
 _atom_site_fract_y
 _atom_site_fract_z
 _atom_site_occupancy
  Ca  Ca0  1  0.000000  0.000000  0.226259  1
  Ca  Ca1  1  0.000000  0.000000  0.726259  1
  Ca  Ca2  1  0.333333  0.666667  0.736889  1
  Ca  Ca3  1  0.333333  0.666667  0.304233  1
  Ca  Ca4  1  0.666667  0.333333  0.804233  1
  Ca  Ca5  1  0.666667  0.333333  0.236889  1
  Al  Al6  1  0.028134  0.343084  0.044232  1
  Al  Al7  1  0.318281  0.979135  0.436797  1
  Al  Al8  1  0.314950  0.971866  0.044232  1
  Al  Al9  1  0.660854  0.681719  0.436797  1
  Al  Al10  1  0.971866  0.656916  0.544232  1
  Al  Al11  1  0.681719  0.020865  0.936797  1
  Al  Al12  1  0.343084  0.314950  0.544232  1
  Al  Al13  1  0.656916  0.685050  0.044232  1
  Al  Al14  1  0.979135  0.660854  0.936797  1
  Al  Al15  1  0.339146  0.318281  0.936797  1
  Al  Al16  1  0.020865  0.339146  0.436797  1
  Al  Al17  1  0.685050  0.028134  0.544232  1
  O  O18  1  0.790606  0.582773  0.410013  1
  O  O19  1  0.901864  0.447611  0.019224  1
  O  O20  1  0.385036  0.264077  0.741344  1
  O  O21  1  0.582773  0.792167  0.910013  1
  O  O22  1  0.774293  0.886617  0.535363  1
  O  O23  1  0.417227  0.207833  0.410013  1
  O  O24  1  0.447611  0.545748  0.519224  1
  O  O25  1  0.098136  0.552389  0.519224  1
  O  O26  1  0.735923  0.120960  0.741344  1
  O  O27  1  0.113383  0.887676  0.535363  1
  O  O28  1  0.112324  0.225707  0.535363  1
  O  O29  1  0.792167  0.209394  0.410013  1
  O  O30  1  0.225707  0.113383  0.035363  1
  O  O31  1  0.886617  0.112324  0.035363  1
  O  O32  1  0.207833  0.790606  0.910013  1
  O  O33  1  0.454252  0.901864  0.519224  1
  O  O34  1  0.552389  0.454252  0.019224  1
  O  O35  1  0.614964  0.735923  0.241344  1
  O  O36  1  0.887676  0.774293  0.035363  1
  O  O37  1  0.545748  0.098136  0.019224  1
  O  O38  1  0.879040  0.614964  0.741344  1
  O  O39  1  0.209394  0.417227  0.910013  1
  O  O40  1  0.120960  0.385036  0.241344  1
  O  O41  1  0.264077  0.879040  0.241344  1
