# generated using pymatgen
data_MnVSbO6
_symmetry_space_group_name_H-M   'P 1'
_cell_length_a   4.73605726
_cell_length_b   5.03374961
_cell_length_c   17.45611012
_cell_angle_alpha   90.00000000
_cell_angle_beta   90.00000000
_cell_angle_gamma   90.00000000
_symmetry_Int_Tables_number   1
_chemical_formula_structural   MnVSbO6
_chemical_formula_sum   'Mn4 V4 Sb4 O24'
_cell_volume   416.15587146
_cell_formula_units_Z   4
loop_
 _symmetry_equiv_pos_site_id
 _symmetry_equiv_pos_as_xyz
  1  'x, y, z'
loop_
 _atom_site_type_symbol
 _atom_site_label
 _atom_site_symmetry_multiplicity
 _atom_site_fract_x
 _atom_site_fract_y
 _atom_site_fract_z
 _atom_site_occupancy
  Mn  Mn0  1  0.500000  0.250000  0.058352  1
  Mn  Mn1  1  0.500000  0.750000  0.941648  1
  Mn  Mn2  1  0.000000  0.750000  0.441648  1
  Mn  Mn3  1  0.000000  0.250000  0.558352  1
  V  V4  1  0.000000  0.250000  0.897400  1
  V  V5  1  0.500000  0.750000  0.602600  1
  V  V6  1  0.000000  0.750000  0.102600  1
  V  V7  1  0.500000  0.250000  0.397400  1
  Sb  Sb8  1  0.000000  0.750000  0.781049  1
  Sb  Sb9  1  0.000000  0.250000  0.218951  1
  Sb  Sb10  1  0.500000  0.250000  0.718951  1
  Sb  Sb11  1  0.500000  0.750000  0.281049  1
  O  O12  1  0.244250  0.424379  0.795266  1
  O  O13  1  0.744250  0.075621  0.295266  1
  O  O14  1  0.796268  0.557660  0.866394  1
  O  O15  1  0.703732  0.057660  0.633606  1
  O  O16  1  0.755750  0.575621  0.204734  1
  O  O17  1  0.203732  0.942340  0.866394  1
  O  O18  1  0.703732  0.557660  0.366394  1
  O  O19  1  0.296268  0.942340  0.366394  1
  O  O20  1  0.749267  0.612197  0.043213  1
  O  O21  1  0.750733  0.112197  0.456787  1
  O  O22  1  0.250733  0.387803  0.956787  1
  O  O23  1  0.250733  0.887803  0.043213  1
  O  O24  1  0.750733  0.612197  0.543213  1
  O  O25  1  0.203732  0.442340  0.133606  1
  O  O26  1  0.296268  0.442340  0.633606  1
  O  O27  1  0.749267  0.112197  0.956787  1
  O  O28  1  0.255750  0.924379  0.704734  1
  O  O29  1  0.244250  0.924379  0.204734  1
  O  O30  1  0.249267  0.887803  0.543213  1
  O  O31  1  0.796268  0.057660  0.133606  1
  O  O32  1  0.249267  0.387803  0.456787  1
  O  O33  1  0.755750  0.075621  0.795266  1
  O  O34  1  0.744250  0.575621  0.704734  1
  O  O35  1  0.255750  0.424379  0.295266  1
