# generated using pymatgen
data_YCrO4
_symmetry_space_group_name_H-M   'P 1'
_cell_length_a   6.73156806
_cell_length_b   6.73156806
_cell_length_c   6.73156806
_cell_angle_alpha   135.79376405
_cell_angle_beta   135.79376405
_cell_angle_gamma   64.29934084
_symmetry_Int_Tables_number   1
_chemical_formula_structural   YCrO4
_chemical_formula_sum   'Y2 Cr2 O8'
_cell_volume   146.26089591
_cell_formula_units_Z   2
loop_
 _symmetry_equiv_pos_site_id
 _symmetry_equiv_pos_as_xyz
  1  'x, y, z'
loop_
 _atom_site_type_symbol
 _atom_site_label
 _atom_site_symmetry_multiplicity
 _atom_site_fract_x
 _atom_site_fract_y
 _atom_site_fract_z
 _atom_site_occupancy
  Y  Y0  1  0.000000  0.000000  0.000000  1
  Y  Y1  1  0.750000  0.250000  0.500000  1
  Cr  Cr2  1  0.500000  0.500000  0.000000  1
  Cr  Cr3  1  0.250000  0.750000  0.500000  1
  O  O4  1  0.069745  0.683100  0.097525  1
  O  O5  1  0.722220  0.319745  0.886645  1
  O  O6  1  0.585575  0.972220  0.902475  1
  O  O7  1  0.433100  0.835575  0.113355  1
  O  O8  1  0.316900  0.414425  0.386645  1
  O  O9  1  0.027780  0.930255  0.613355  1
  O  O10  1  0.680255  0.566900  0.402475  1
  O  O11  1  0.164425  0.277780  0.597525  1
