# generated using pymatgen
data_NdNiSnH
_symmetry_space_group_name_H-M   'P 1'
_cell_length_a   4.38504845
_cell_length_b   7.24421308
_cell_length_c   8.46944320
_cell_angle_alpha   90.00000000
_cell_angle_beta   90.00000000
_cell_angle_gamma   90.00000000
_symmetry_Int_Tables_number   1
_chemical_formula_structural   NdNiSnH
_chemical_formula_sum   'Nd4 Ni4 Sn4 H4'
_cell_volume   269.04224118
_cell_formula_units_Z   4
loop_
 _symmetry_equiv_pos_site_id
 _symmetry_equiv_pos_as_xyz
  1  'x, y, z'
loop_
 _atom_site_type_symbol
 _atom_site_label
 _atom_site_symmetry_multiplicity
 _atom_site_fract_x
 _atom_site_fract_y
 _atom_site_fract_z
 _atom_site_occupancy
  Nd  Nd0  1  0.750000  0.013038  0.688902  1
  Nd  Nd1  1  0.250000  0.986962  0.311098  1
  Nd  Nd2  1  0.250000  0.486962  0.188902  1
  Nd  Nd3  1  0.750000  0.513038  0.811098  1
  Ni  Ni4  1  0.750000  0.779265  0.099345  1
  Ni  Ni5  1  0.250000  0.220735  0.900655  1
  Ni  Ni6  1  0.250000  0.720735  0.599345  1
  Ni  Ni7  1  0.750000  0.279265  0.400655  1
  Sn  Sn8  1  0.750000  0.658265  0.430843  1
  Sn  Sn9  1  0.250000  0.341735  0.569157  1
  Sn  Sn10  1  0.250000  0.841735  0.930843  1
  Sn  Sn11  1  0.750000  0.158265  0.069157  1
  H  H12  1  0.250000  0.441018  0.919482  1
  H  H13  1  0.750000  0.558982  0.080518  1
  H  H14  1  0.750000  0.058982  0.419482  1
  H  H15  1  0.250000  0.941018  0.580518  1
