# generated using pymatgen
data_KYP2O7
_symmetry_space_group_name_H-M   'P 1'
_cell_length_a   7.70089734
_cell_length_b   11.08135241
_cell_length_c   8.71626067
_cell_angle_alpha   90.00000000
_cell_angle_beta   106.95318811
_cell_angle_gamma   90.00000000
_symmetry_Int_Tables_number   1
_chemical_formula_structural   KYP2O7
_chemical_formula_sum   'K4 Y4 P8 O28'
_cell_volume   711.49024376
_cell_formula_units_Z   4
loop_
 _symmetry_equiv_pos_site_id
 _symmetry_equiv_pos_as_xyz
  1  'x, y, z'
loop_
 _atom_site_type_symbol
 _atom_site_label
 _atom_site_symmetry_multiplicity
 _atom_site_fract_x
 _atom_site_fract_y
 _atom_site_fract_z
 _atom_site_occupancy
  K  K0  1  0.181186  0.821759  0.570688  1
  K  K1  1  0.181186  0.678241  0.070688  1
  K  K2  1  0.818814  0.321759  0.929312  1
  K  K3  1  0.818814  0.178241  0.429312  1
  Y  Y4  1  0.768922  0.595256  0.251314  1
  Y  Y5  1  0.231078  0.095256  0.248686  1
  Y  Y6  1  0.768922  0.904744  0.751314  1
  Y  Y7  1  0.231078  0.404744  0.748686  1
  P  P8  1  0.128620  0.103007  0.808249  1
  P  P9  1  0.871380  0.603007  0.691751  1
  P  P10  1  0.128620  0.396993  0.308249  1
  P  P11  1  0.871380  0.896993  0.191751  1
  P  P12  1  0.444945  0.356692  0.190283  1
  P  P13  1  0.555055  0.856692  0.309717  1
  P  P14  1  0.555055  0.643308  0.809717  1
  P  P15  1  0.444945  0.143308  0.690283  1
  O  O16  1  0.633708  0.085836  0.743239  1
  O  O17  1  0.132561  0.096276  0.983084  1
  O  O18  1  0.931610  0.727940  0.765197  1
  O  O19  1  0.068390  0.227940  0.734803  1
  O  O20  1  0.132561  0.403724  0.483084  1
  O  O21  1  0.664262  0.578851  0.695990  1
  O  O22  1  0.339400  0.386963  0.017501  1
  O  O23  1  0.013355  0.498363  0.207597  1
  O  O24  1  0.986645  0.998363  0.292403  1
  O  O25  1  0.335738  0.421149  0.304010  1
  O  O26  1  0.633708  0.414164  0.243239  1
  O  O27  1  0.456911  0.278299  0.730430  1
  O  O28  1  0.986645  0.501637  0.792403  1
  O  O29  1  0.335738  0.078851  0.804010  1
  O  O30  1  0.068390  0.272060  0.234803  1
  O  O31  1  0.867439  0.903724  0.016916  1
  O  O32  1  0.664262  0.921149  0.195990  1
  O  O33  1  0.660600  0.886963  0.482499  1
  O  O34  1  0.366292  0.585836  0.756761  1
  O  O35  1  0.543089  0.721701  0.269570  1
  O  O36  1  0.867439  0.596276  0.516916  1
  O  O37  1  0.660600  0.613037  0.982499  1
  O  O38  1  0.366292  0.914164  0.256761  1
  O  O39  1  0.339400  0.113037  0.517501  1
  O  O40  1  0.013355  0.001637  0.707597  1
  O  O41  1  0.456911  0.221701  0.230430  1
  O  O42  1  0.931610  0.772060  0.265197  1
  O  O43  1  0.543089  0.778299  0.769570  1
