# generated using pymatgen
data_Nd3U(ClO2)3
_symmetry_space_group_name_H-M   'P 1'
_cell_length_a   9.46060995
_cell_length_b   9.46060995
_cell_length_c   5.58107015
_cell_angle_alpha   90.00000000
_cell_angle_beta   90.00000000
_cell_angle_gamma   120.00000000
_symmetry_Int_Tables_number   1
_chemical_formula_structural   Nd3U(ClO2)3
_chemical_formula_sum   'Nd6 U2 Cl6 O12'
_cell_volume   432.59987327
_cell_formula_units_Z   2
loop_
 _symmetry_equiv_pos_site_id
 _symmetry_equiv_pos_as_xyz
  1  'x, y, z'
loop_
 _atom_site_type_symbol
 _atom_site_label
 _atom_site_symmetry_multiplicity
 _atom_site_fract_x
 _atom_site_fract_y
 _atom_site_fract_z
 _atom_site_occupancy
  Nd  Nd0  1  0.594821  0.909651  0.750000  1
  Nd  Nd1  1  0.405179  0.090349  0.250000  1
  Nd  Nd2  1  0.090349  0.685170  0.750000  1
  Nd  Nd3  1  0.314830  0.405179  0.750000  1
  Nd  Nd4  1  0.685170  0.594821  0.250000  1
  Nd  Nd5  1  0.909651  0.314830  0.250000  1
  U  U6  1  0.666667  0.333333  0.750000  1
  U  U7  1  0.333333  0.666667  0.250000  1
  Cl  Cl8  1  0.188418  0.247668  0.250000  1
  Cl  Cl9  1  0.940750  0.188418  0.750000  1
  Cl  Cl10  1  0.247668  0.059250  0.750000  1
  Cl  Cl11  1  0.059250  0.811582  0.250000  1
  Cl  Cl12  1  0.752332  0.940750  0.250000  1
  Cl  Cl13  1  0.811582  0.752332  0.750000  1
  O  O14  1  0.634506  0.150773  0.505675  1
  O  O15  1  0.150773  0.516267  0.005675  1
  O  O16  1  0.516267  0.365494  0.994325  1
  O  O17  1  0.849227  0.483733  0.994325  1
  O  O18  1  0.365494  0.849227  0.005675  1
  O  O19  1  0.483733  0.634506  0.494325  1
  O  O20  1  0.365494  0.849227  0.494325  1
  O  O21  1  0.483733  0.634506  0.005675  1
  O  O22  1  0.849227  0.483733  0.505675  1
  O  O23  1  0.150773  0.516267  0.494325  1
  O  O24  1  0.516267  0.365494  0.505675  1
  O  O25  1  0.634506  0.150773  0.994325  1
