# generated using pymatgen
data_CsPt2Se3
_symmetry_space_group_name_H-M   'P 1'
_cell_length_a   8.49486738
_cell_length_b   8.49486738
_cell_length_c   8.49486738
_cell_angle_alpha   52.90085640
_cell_angle_beta   52.90085640
_cell_angle_gamma   52.90085640
_symmetry_Int_Tables_number   1
_chemical_formula_structural   CsPt2Se3
_chemical_formula_sum   'Cs2 Pt4 Se6'
_cell_volume   361.31594641
_cell_formula_units_Z   2
loop_
 _symmetry_equiv_pos_site_id
 _symmetry_equiv_pos_as_xyz
  1  'x, y, z'
loop_
 _atom_site_type_symbol
 _atom_site_label
 _atom_site_symmetry_multiplicity
 _atom_site_fract_x
 _atom_site_fract_y
 _atom_site_fract_z
 _atom_site_occupancy
  Cs  Cs0  1  0.800412  0.800412  0.800412  1
  Cs  Cs1  1  0.199588  0.199588  0.199588  1
  Pt  Pt2  1  0.000000  0.500000  0.500000  1
  Pt  Pt3  1  0.500000  0.500000  0.000000  1
  Pt  Pt4  1  0.000000  0.000000  0.000000  1
  Pt  Pt5  1  0.500000  0.000000  0.500000  1
  Se  Se6  1  0.772887  0.286290  0.772887  1
  Se  Se7  1  0.227113  0.713710  0.227113  1
  Se  Se8  1  0.772887  0.772887  0.286290  1
  Se  Se9  1  0.286290  0.772887  0.772887  1
  Se  Se10  1  0.713710  0.227113  0.227113  1
  Se  Se11  1  0.227113  0.227113  0.713710  1
