# generated using pymatgen
data_In2Cu2SiS6
_symmetry_space_group_name_H-M   'P 1'
_cell_length_a   6.90803773
_cell_length_b   6.90803773
_cell_length_c   12.10526174
_cell_angle_alpha   72.49308905
_cell_angle_beta   107.50691095
_cell_angle_gamma   120.44363730
_symmetry_Int_Tables_number   1
_chemical_formula_structural   In2Cu2SiS6
_chemical_formula_sum   'In4 Cu4 Si2 S12'
_cell_volume   467.16105215
_cell_formula_units_Z   2
loop_
 _symmetry_equiv_pos_site_id
 _symmetry_equiv_pos_as_xyz
  1  'x, y, z'
loop_
 _atom_site_type_symbol
 _atom_site_label
 _atom_site_symmetry_multiplicity
 _atom_site_fract_x
 _atom_site_fract_y
 _atom_site_fract_z
 _atom_site_occupancy
  In  In0  1  0.699040  0.534587  0.441250  1
  In  In1  1  0.688403  0.171870  0.746661  1
  In  In2  1  0.828130  0.311597  0.246661  1
  In  In3  1  0.465413  0.300960  0.941250  1
  Cu  Cu4  1  0.186531  0.389573  0.596938  1
  Cu  Cu5  1  0.985866  0.787931  0.746412  1
  Cu  Cu6  1  0.610427  0.813469  0.096938  1
  Cu  Cu7  1  0.212069  0.014134  0.246412  1
  Si  Si8  1  0.069834  0.407704  0.004453  1
  Si  Si9  1  0.592296  0.930166  0.504453  1
  S  S10  1  0.849993  0.692451  0.248903  1
  S  S11  1  0.648292  0.830203  0.690836  1
  S  S12  1  0.968170  0.535826  0.637384  1
  S  S13  1  0.887699  0.082740  0.954825  1
  S  S14  1  0.917260  0.112301  0.454825  1
  S  S15  1  0.307549  0.150007  0.748903  1
  S  S16  1  0.464174  0.031830  0.137384  1
  S  S17  1  0.888173  0.601438  0.939439  1
  S  S18  1  0.169797  0.351708  0.190836  1
  S  S19  1  0.398562  0.111827  0.439439  1
  S  S20  1  0.383137  0.617203  0.440347  1
  S  S21  1  0.382797  0.616863  0.940347  1
