# generated using pymatgen
data_BaBeSiO4
_symmetry_space_group_name_H-M   'P 1'
_cell_length_a   5.18227714
_cell_length_b   5.18227714
_cell_length_c   5.09332402
_cell_angle_alpha   60.80142638
_cell_angle_beta   119.19857362
_cell_angle_gamma   118.60941205
_symmetry_Int_Tables_number   1
_chemical_formula_structural   BaBeSiO4
_chemical_formula_sum   'Ba1 Be1 Si1 O4'
_cell_volume   98.88965276
_cell_formula_units_Z   1
loop_
 _symmetry_equiv_pos_site_id
 _symmetry_equiv_pos_as_xyz
  1  'x, y, z'
loop_
 _atom_site_type_symbol
 _atom_site_label
 _atom_site_symmetry_multiplicity
 _atom_site_fract_x
 _atom_site_fract_y
 _atom_site_fract_z
 _atom_site_occupancy
  Ba  Ba0  1  0.982778  0.017222  0.968653  1
  Be  Be1  1  0.252818  0.747182  0.737105  1
  Si  Si2  1  0.501257  0.498743  0.485488  1
  O  O3  1  0.878381  0.623922  0.556005  1
  O  O4  1  0.325557  0.674443  0.112355  1
  O  O5  1  0.376078  0.121619  0.556005  1
  O  O6  1  0.432136  0.567864  0.723687  1
