# generated using pymatgen
data_Li5VP2(O4F)2
_symmetry_space_group_name_H-M   'P 1'
_cell_length_a   6.45686188
_cell_length_b   10.93660380
_cell_length_c   10.52020965
_cell_angle_alpha   90.00000000
_cell_angle_beta   90.01846413
_cell_angle_gamma   90.00000000
_symmetry_Int_Tables_number   1
_chemical_formula_structural   Li5VP2(O4F)2
_chemical_formula_sum   'Li20 V4 P8 O32 F8'
_cell_volume   742.89656101
_cell_formula_units_Z   4
loop_
 _symmetry_equiv_pos_site_id
 _symmetry_equiv_pos_as_xyz
  1  'x, y, z'
loop_
 _atom_site_type_symbol
 _atom_site_label
 _atom_site_symmetry_multiplicity
 _atom_site_fract_x
 _atom_site_fract_y
 _atom_site_fract_z
 _atom_site_occupancy
  Li  Li0  1  0.032151  0.336611  0.245802  1
  Li  Li1  1  0.967849  0.836611  0.254198  1
  Li  Li2  1  0.491398  0.665552  0.731781  1
  Li  Li3  1  0.741121  0.083500  0.272524  1
  Li  Li4  1  0.744984  0.723941  0.525402  1
  Li  Li5  1  0.500000  0.500000  0.500000  1
  Li  Li6  1  0.967849  0.663389  0.754198  1
  Li  Li7  1  0.255016  0.223941  0.974598  1
  Li  Li8  1  0.258879  0.583500  0.227476  1
  Li  Li9  1  0.508602  0.334448  0.268219  1
  Li  Li10  1  0.500000  0.500000  0.000000  1
  Li  Li11  1  0.258879  0.916500  0.727476  1
  Li  Li12  1  0.741121  0.416500  0.772524  1
  Li  Li13  1  0.491398  0.834448  0.231781  1
  Li  Li14  1  0.744984  0.776059  0.025402  1
  Li  Li15  1  0.508602  0.165552  0.768219  1
  Li  Li16  1  0.500000  0.000000  0.000000  1
  Li  Li17  1  0.255016  0.276059  0.474598  1
  Li  Li18  1  0.032151  0.163389  0.745802  1
  Li  Li19  1  0.500000  0.000000  0.500000  1
  V  V20  1  0.000000  0.500000  0.500000  1
  V  V21  1  0.000000  0.000000  0.000000  1
  V  V22  1  0.000000  0.500000  0.000000  1
  V  V23  1  0.000000  0.000000  0.500000  1
  P  P24  1  0.747904  0.255217  0.523620  1
  P  P25  1  0.258735  0.079305  0.255715  1
  P  P26  1  0.258735  0.420695  0.755715  1
  P  P27  1  0.747904  0.244783  0.023620  1
  P  P28  1  0.741265  0.920695  0.744285  1
  P  P29  1  0.741265  0.579305  0.244285  1
  P  P30  1  0.252096  0.755217  0.976380  1
  P  P31  1  0.252096  0.744783  0.476380  1
  O  O32  1  0.940015  0.518150  0.184389  1
  O  O33  1  0.941504  0.323396  0.466010  1
  O  O34  1  0.058496  0.823396  0.033990  1
  O  O35  1  0.546726  0.513137  0.195757  1
  O  O36  1  0.453274  0.486863  0.804243  1
  O  O37  1  0.237987  0.619921  0.026144  1
  O  O38  1  0.546726  0.986863  0.695757  1
  O  O39  1  0.756668  0.255280  0.670868  1
  O  O40  1  0.446143  0.684330  0.531882  1
  O  O41  1  0.940015  0.981850  0.684389  1
  O  O42  1  0.553857  0.184330  0.968118  1
  O  O43  1  0.446143  0.815670  0.031882  1
  O  O44  1  0.237355  0.443668  0.609482  1
  O  O45  1  0.260722  0.282785  0.783492  1
  O  O46  1  0.762645  0.556332  0.390518  1
  O  O47  1  0.762013  0.380079  0.973856  1
  O  O48  1  0.553857  0.315670  0.468118  1
  O  O49  1  0.739278  0.717215  0.216508  1
  O  O50  1  0.243332  0.744720  0.329132  1
  O  O51  1  0.059985  0.481850  0.815611  1
  O  O52  1  0.756668  0.244720  0.170868  1
  O  O53  1  0.739278  0.782785  0.716508  1
  O  O54  1  0.059985  0.018150  0.315611  1
  O  O55  1  0.453274  0.013137  0.304243  1
  O  O56  1  0.237355  0.056332  0.109482  1
  O  O57  1  0.941504  0.176604  0.966010  1
  O  O58  1  0.058496  0.676604  0.533990  1
  O  O59  1  0.762645  0.943668  0.890518  1
  O  O60  1  0.260722  0.217215  0.283492  1
  O  O61  1  0.762013  0.119921  0.473856  1
  O  O62  1  0.243332  0.755280  0.829132  1
  O  O63  1  0.237987  0.880079  0.526144  1
  F  F64  1  0.226007  0.030865  0.867254  1
  F  F65  1  0.786727  0.623256  0.940251  1
  F  F66  1  0.213273  0.123256  0.559749  1
  F  F67  1  0.773993  0.530865  0.632746  1
  F  F68  1  0.773993  0.969135  0.132746  1
  F  F69  1  0.213273  0.376744  0.059749  1
  F  F70  1  0.786727  0.876744  0.440251  1
  F  F71  1  0.226007  0.469135  0.367254  1
