# generated using pymatgen
data_LaSc3(BO3)4
_symmetry_space_group_name_H-M   'P 1'
_cell_length_a   6.32020623
_cell_length_b   6.32020623
_cell_length_c   12.18716607
_cell_angle_alpha   80.47144367
_cell_angle_beta   99.52855633
_cell_angle_gamma   76.31415607
_symmetry_Int_Tables_number   1
_chemical_formula_structural   LaSc3(BO3)4
_chemical_formula_sum   'La2 Sc6 B8 O24'
_cell_volume   455.69965959
_cell_formula_units_Z   2
loop_
 _symmetry_equiv_pos_site_id
 _symmetry_equiv_pos_as_xyz
  1  'x, y, z'
loop_
 _atom_site_type_symbol
 _atom_site_label
 _atom_site_symmetry_multiplicity
 _atom_site_fract_x
 _atom_site_fract_y
 _atom_site_fract_z
 _atom_site_occupancy
  La  La0  1  0.820116  0.251194  0.744152  1
  La  La1  1  0.748806  0.179884  0.244152  1
  Sc  Sc2  1  0.213966  0.635578  0.244167  1
  Sc  Sc3  1  0.093867  0.409746  0.020250  1
  Sc  Sc4  1  0.496809  0.005695  0.969678  1
  Sc  Sc5  1  0.364422  0.786034  0.744167  1
  Sc  Sc6  1  0.590254  0.906133  0.520250  1
  Sc  Sc7  1  0.994305  0.503191  0.469678  1
  B  B8  1  0.283649  0.103190  0.268419  1
  B  B9  1  0.062389  0.984045  0.495143  1
  B  B10  1  0.896810  0.716351  0.768419  1
  B  B11  1  0.573216  0.479893  0.994480  1
  B  B12  1  0.015955  0.937611  0.995143  1
  B  B13  1  0.689490  0.702957  0.220186  1
  B  B14  1  0.520107  0.426784  0.494480  1
  B  B15  1  0.297043  0.310510  0.720186  1
  O  O16  1  0.786777  0.400588  0.061696  1
  O  O17  1  0.429432  0.453498  0.733228  1
  O  O18  1  0.307589  0.502298  0.425914  1
  O  O19  1  0.924063  0.842809  0.489838  1
  O  O20  1  0.661385  0.564895  0.501211  1
  O  O21  1  0.233177  0.315740  0.200605  1
  O  O22  1  0.599412  0.213223  0.561696  1
  O  O23  1  0.684260  0.766823  0.700605  1
  O  O24  1  0.028006  0.860328  0.751745  1
  O  O25  1  0.482762  0.031617  0.347491  1
  O  O26  1  0.497702  0.692411  0.925914  1
  O  O27  1  0.275914  0.911791  0.562925  1
  O  O28  1  0.979822  0.197435  0.427998  1
  O  O29  1  0.096888  0.369066  0.642626  1
  O  O30  1  0.802565  0.020178  0.927998  1
  O  O31  1  0.435105  0.338615  0.001211  1
  O  O32  1  0.546502  0.570568  0.233228  1
  O  O33  1  0.901640  0.632993  0.289147  1
  O  O34  1  0.157191  0.075937  0.989838  1
  O  O35  1  0.367007  0.098360  0.789147  1
  O  O36  1  0.088209  0.724086  0.062925  1
  O  O37  1  0.968383  0.517238  0.847491  1
  O  O38  1  0.630934  0.903112  0.142626  1
  O  O39  1  0.139672  0.971994  0.251745  1
