# generated using pymatgen
data_NaMo6Cl13
_symmetry_space_group_name_H-M   'P 1'
_cell_length_a   9.18017032
_cell_length_b   9.27973288
_cell_length_c   14.26222323
_cell_angle_alpha   97.18358451
_cell_angle_beta   101.82914760
_cell_angle_gamma   114.56376746
_symmetry_Int_Tables_number   1
_chemical_formula_structural   NaMo6Cl13
_chemical_formula_sum   'Na2 Mo12 Cl26'
_cell_volume   1050.96204319
_cell_formula_units_Z   2
loop_
 _symmetry_equiv_pos_site_id
 _symmetry_equiv_pos_as_xyz
  1  'x, y, z'
loop_
 _atom_site_type_symbol
 _atom_site_label
 _atom_site_symmetry_multiplicity
 _atom_site_fract_x
 _atom_site_fract_y
 _atom_site_fract_z
 _atom_site_occupancy
  Na  Na0  1  0.497424  0.754813  0.727793  1
  Na  Na1  1  0.502576  0.245187  0.272207  1
  Mo  Mo2  1  0.947994  0.013340  0.619506  1
  Mo  Mo3  1  0.052006  0.986660  0.380494  1
  Mo  Mo4  1  0.200403  0.003668  0.563240  1
  Mo  Mo5  1  0.799597  0.996332  0.436760  1
  Mo  Mo6  1  0.104760  0.226152  0.525221  1
  Mo  Mo7  1  0.895240  0.773848  0.474779  1
  Mo  Mo8  1  0.134253  0.456052  0.096631  1
  Mo  Mo9  1  0.865747  0.543948  0.903369  1
  Mo  Mo10  1  0.185083  0.618029  0.958377  1
  Mo  Mo11  1  0.814917  0.381971  0.041623  1
  Mo  Mo12  1  0.043549  0.688688  0.088058  1
  Mo  Mo13  1  0.956451  0.311312  0.911942  1
  Cl  Cl14  1  0.142722  0.782040  0.424967  1
  Cl  Cl15  1  0.857278  0.217960  0.575033  1
  Cl  Cl16  1  0.760534  0.771201  0.303160  1
  Cl  Cl17  1  0.239466  0.228799  0.696840  1
  Cl  Cl18  1  0.337569  0.206946  0.470248  1
  Cl  Cl19  1  0.662431  0.793054  0.529752  1
  Cl  Cl20  1  0.959824  0.197639  0.350625  1
  Cl  Cl21  1  0.040176  0.802361  0.649375  1
  Cl  Cl22  1  0.342074  0.748673  0.133104  1
  Cl  Cl23  1  0.657926  0.251327  0.866896  1
  Cl  Cl24  1  0.990330  0.523806  0.212857  1
  Cl  Cl25  1  0.009670  0.476194  0.787143  1
  Cl  Cl26  1  0.259836  0.389422  0.968709  1
  Cl  Cl27  1  0.740164  0.610578  0.031291  1
  Cl  Cl28  1  0.910777  0.167343  0.047131  1
  Cl  Cl29  1  0.089223  0.832657  0.952869  1
  Cl  Cl30  1  0.461317  0.002502  0.643479  1
  Cl  Cl31  1  0.538683  0.997498  0.356521  1
  Cl  Cl32  1  0.243788  0.523901  0.563435  1
  Cl  Cl33  1  0.756212  0.476099  0.436565  1
  Cl  Cl34  1  0.313210  0.411123  0.230128  1
  Cl  Cl35  1  0.686790  0.588877  0.769872  1
  Cl  Cl36  1  0.430028  0.775616  0.905483  1
  Cl  Cl37  1  0.569972  0.224384  0.094517  1
  Cl  Cl38  1  0.114231  0.955710  0.211429  1
  Cl  Cl39  1  0.885769  0.044290  0.788571  1
