# generated using pymatgen
data_Sr3SiO5
_symmetry_space_group_name_H-M   'P 1'
_cell_length_a   7.12717128
_cell_length_b   7.12717128
_cell_length_c   10.83814319
_cell_angle_alpha   90.00000000
_cell_angle_beta   90.00000000
_cell_angle_gamma   90.00000000
_symmetry_Int_Tables_number   1
_chemical_formula_structural   Sr3SiO5
_chemical_formula_sum   'Sr12 Si4 O20'
_cell_volume   550.54050415
_cell_formula_units_Z   4
loop_
 _symmetry_equiv_pos_site_id
 _symmetry_equiv_pos_as_xyz
  1  'x, y, z'
loop_
 _atom_site_type_symbol
 _atom_site_label
 _atom_site_symmetry_multiplicity
 _atom_site_fract_x
 _atom_site_fract_y
 _atom_site_fract_z
 _atom_site_occupancy
  Sr  Sr0  1  0.500000  0.000000  0.486584  1
  Sr  Sr1  1  0.000000  0.500000  0.013416  1
  Sr  Sr2  1  0.000000  0.500000  0.513416  1
  Sr  Sr3  1  0.500000  0.000000  0.986584  1
  Sr  Sr4  1  0.197329  0.197329  0.250000  1
  Sr  Sr5  1  0.302671  0.697329  0.250000  1
  Sr  Sr6  1  0.697329  0.302671  0.250000  1
  Sr  Sr7  1  0.802671  0.802671  0.250000  1
  Sr  Sr8  1  0.302671  0.302671  0.750000  1
  Sr  Sr9  1  0.197329  0.802671  0.750000  1
  Sr  Sr10  1  0.802671  0.197329  0.750000  1
  Sr  Sr11  1  0.697329  0.697329  0.750000  1
  Si  Si12  1  0.500000  0.500000  0.500000  1
  Si  Si13  1  0.000000  0.000000  0.500000  1
  Si  Si14  1  0.000000  0.000000  0.000000  1
  Si  Si15  1  0.500000  0.500000  0.000000  1
  O  O16  1  0.500000  0.000000  0.712696  1
  O  O17  1  0.000000  0.500000  0.787304  1
  O  O18  1  0.000000  0.500000  0.287304  1
  O  O19  1  0.500000  0.000000  0.212696  1
  O  O20  1  0.919291  0.166274  0.092257  1
  O  O21  1  0.080709  0.833726  0.092257  1
  O  O22  1  0.166274  0.919291  0.407743  1
  O  O23  1  0.666274  0.580709  0.092257  1
  O  O24  1  0.333726  0.419291  0.092257  1
  O  O25  1  0.580709  0.666274  0.407743  1
  O  O26  1  0.419291  0.333726  0.407743  1
  O  O27  1  0.833726  0.080709  0.407743  1
  O  O28  1  0.580709  0.333726  0.907743  1
  O  O29  1  0.419291  0.666274  0.907743  1
  O  O30  1  0.333726  0.580709  0.592257  1
  O  O31  1  0.833726  0.919291  0.907743  1
  O  O32  1  0.666274  0.419291  0.592257  1
  O  O33  1  0.080709  0.166274  0.592257  1
  O  O34  1  0.919291  0.833726  0.592257  1
  O  O35  1  0.166274  0.080709  0.907743  1
