# generated using pymatgen
data_CaGaGe
_symmetry_space_group_name_H-M   'P 1'
_cell_length_a   4.24428056
_cell_length_b   4.24428056
_cell_length_c   17.64258570
_cell_angle_alpha   90.00000000
_cell_angle_beta   90.00000000
_cell_angle_gamma   120.00000000
_symmetry_Int_Tables_number   1
_chemical_formula_structural   CaGaGe
_chemical_formula_sum   'Ca4 Ga4 Ge4'
_cell_volume   275.23333777
_cell_formula_units_Z   4
loop_
 _symmetry_equiv_pos_site_id
 _symmetry_equiv_pos_as_xyz
  1  'x, y, z'
loop_
 _atom_site_type_symbol
 _atom_site_label
 _atom_site_symmetry_multiplicity
 _atom_site_fract_x
 _atom_site_fract_y
 _atom_site_fract_z
 _atom_site_occupancy
  Ca  Ca0  1  0.000000  0.000000  0.000000  1
  Ca  Ca1  1  0.000000  0.000000  0.500000  1
  Ca  Ca2  1  0.000000  0.000000  0.250000  1
  Ca  Ca3  1  0.000000  0.000000  0.750000  1
  Ga  Ga4  1  0.333333  0.666667  0.152077  1
  Ga  Ga5  1  0.666667  0.333333  0.652077  1
  Ga  Ga6  1  0.666667  0.333333  0.847923  1
  Ga  Ga7  1  0.333333  0.666667  0.347923  1
  Ge  Ge8  1  0.333333  0.666667  0.609896  1
  Ge  Ge9  1  0.666667  0.333333  0.109896  1
  Ge  Ge10  1  0.666667  0.333333  0.390104  1
  Ge  Ge11  1  0.333333  0.666667  0.890104  1
