# generated using pymatgen
data_CaMn3O6
_symmetry_space_group_name_H-M   'P 1'
_cell_length_a   8.72004189
_cell_length_b   11.42269455
_cell_length_c   10.88487471
_cell_angle_alpha   90.00000000
_cell_angle_beta   122.63574545
_cell_angle_gamma   90.00000000
_symmetry_Int_Tables_number   1
_chemical_formula_structural   CaMn3O6
_chemical_formula_sum   'Ca8 Mn24 O48'
_cell_volume   913.02473461
_cell_formula_units_Z   8
loop_
 _symmetry_equiv_pos_site_id
 _symmetry_equiv_pos_as_xyz
  1  'x, y, z'
loop_
 _atom_site_type_symbol
 _atom_site_label
 _atom_site_symmetry_multiplicity
 _atom_site_fract_x
 _atom_site_fract_y
 _atom_site_fract_z
 _atom_site_occupancy
  Ca  Ca0  1  0.554137  0.166516  0.748702  1
  Ca  Ca1  1  0.445863  0.666516  0.751298  1
  Ca  Ca2  1  0.445863  0.833484  0.251298  1
  Ca  Ca3  1  0.554137  0.333484  0.248702  1
  Ca  Ca4  1  0.942109  0.165603  0.742733  1
  Ca  Ca5  1  0.057891  0.665603  0.757267  1
  Ca  Ca6  1  0.057891  0.834397  0.257267  1
  Ca  Ca7  1  0.942109  0.334397  0.242733  1
  Mn  Mn8  1  0.455985  0.381786  0.556140  1
  Mn  Mn9  1  0.544015  0.881786  0.943860  1
  Mn  Mn10  1  0.544015  0.618214  0.443860  1
  Mn  Mn11  1  0.455985  0.118214  0.056140  1
  Mn  Mn12  1  0.869814  0.881981  0.927500  1
  Mn  Mn13  1  0.130186  0.381981  0.572500  1
  Mn  Mn14  1  0.130186  0.118019  0.072500  1
  Mn  Mn15  1  0.869814  0.618019  0.427500  1
  Mn  Mn16  1  0.470577  0.904971  0.581602  1
  Mn  Mn17  1  0.529423  0.404971  0.918398  1
  Mn  Mn18  1  0.529423  0.095029  0.418398  1
  Mn  Mn19  1  0.470577  0.595029  0.081602  1
  Mn  Mn20  1  0.859806  0.403056  0.909325  1
  Mn  Mn21  1  0.140194  0.903056  0.590675  1
  Mn  Mn22  1  0.140194  0.596944  0.090675  1
  Mn  Mn23  1  0.859806  0.096944  0.409325  1
  Mn  Mn24  1  0.795590  0.395896  0.568928  1
  Mn  Mn25  1  0.204410  0.895896  0.931072  1
  Mn  Mn26  1  0.204410  0.604104  0.431072  1
  Mn  Mn27  1  0.795590  0.104104  0.068928  1
  Mn  Mn28  1  0.805933  0.903851  0.583006  1
  Mn  Mn29  1  0.194067  0.403851  0.916994  1
  Mn  Mn30  1  0.194067  0.096149  0.416994  1
  Mn  Mn31  1  0.805933  0.596149  0.083006  1
  O  O32  1  0.605239  0.850888  0.789894  1
  O  O33  1  0.394761  0.350888  0.710106  1
  O  O34  1  0.394761  0.149112  0.210106  1
  O  O35  1  0.605239  0.649112  0.289894  1
  O  O36  1  0.710957  0.334998  0.693147  1
  O  O37  1  0.289043  0.834998  0.806853  1
  O  O38  1  0.289043  0.665002  0.306853  1
  O  O39  1  0.710957  0.165002  0.193147  1
  O  O40  1  0.670609  0.521854  0.887436  1
  O  O41  1  0.329391  0.021854  0.612564  1
  O  O42  1  0.329391  0.478146  0.112564  1
  O  O43  1  0.670609  0.978146  0.387436  1
  O  O44  1  0.662406  0.023382  0.617867  1
  O  O45  1  0.337594  0.523382  0.882133  1
  O  O46  1  0.337594  0.976618  0.382133  1
  O  O47  1  0.662406  0.476618  0.117867  1
  O  O48  1  0.728077  0.301243  0.967615  1
  O  O49  1  0.271923  0.801243  0.532385  1
  O  O50  1  0.271923  0.698757  0.032385  1
  O  O51  1  0.728077  0.198757  0.467615  1
  O  O52  1  0.597156  0.804338  0.522652  1
  O  O53  1  0.402844  0.304338  0.977348  1
  O  O54  1  0.402844  0.195662  0.477348  1
  O  O55  1  0.597156  0.695662  0.022652  1
  O  O56  1  0.459459  0.578187  0.571359  1
  O  O57  1  0.540541  0.078187  0.928641  1
  O  O58  1  0.540541  0.421813  0.428641  1
  O  O59  1  0.459459  0.921813  0.071359  1
  O  O60  1  0.868515  0.088934  0.923883  1
  O  O61  1  0.131485  0.588934  0.576117  1
  O  O62  1  0.131485  0.911066  0.076117  1
  O  O63  1  0.868515  0.411066  0.423883  1
  O  O64  1  0.947547  0.849384  0.791686  1
  O  O65  1  0.052453  0.349384  0.708314  1
  O  O66  1  0.052453  0.150616  0.208314  1
  O  O67  1  0.947547  0.650616  0.291686  1
  O  O68  1  0.002583  0.511520  0.873497  1
  O  O69  1  0.997417  0.011520  0.626503  1
  O  O70  1  0.997417  0.488480  0.126503  1
  O  O71  1  0.002583  0.988480  0.373497  1
  O  O72  1  0.064581  0.296230  0.960850  1
  O  O73  1  0.935419  0.796230  0.539150  1
  O  O74  1  0.935419  0.703770  0.039150  1
  O  O75  1  0.064581  0.203770  0.460850  1
  O  O76  1  0.802629  0.583313  0.566780  1
  O  O77  1  0.197371  0.083313  0.933220  1
  O  O78  1  0.197371  0.416687  0.433220  1
  O  O79  1  0.802629  0.916687  0.066780  1
