# generated using pymatgen
data_Hg2Mo2O7
_symmetry_space_group_name_H-M   'P 1'
_cell_length_a   7.20598044
_cell_length_b   7.33597574
_cell_length_c   8.36910542
_cell_angle_alpha   64.72746113
_cell_angle_beta   67.20498449
_cell_angle_gamma   66.22225752
_symmetry_Int_Tables_number   1
_chemical_formula_structural   Hg2Mo2O7
_chemical_formula_sum   'Hg4 Mo4 O14'
_cell_volume   353.50245392
_cell_formula_units_Z   2
loop_
 _symmetry_equiv_pos_site_id
 _symmetry_equiv_pos_as_xyz
  1  'x, y, z'
loop_
 _atom_site_type_symbol
 _atom_site_label
 _atom_site_symmetry_multiplicity
 _atom_site_fract_x
 _atom_site_fract_y
 _atom_site_fract_z
 _atom_site_occupancy
  Hg  Hg0  1  0.182020  0.326511  0.366757  1
  Hg  Hg1  1  0.375135  0.175725  0.620469  1
  Hg  Hg2  1  0.817980  0.673489  0.633243  1
  Hg  Hg3  1  0.624865  0.824275  0.379531  1
  Mo  Mo4  1  0.813886  0.371839  0.132001  1
  Mo  Mo5  1  0.186114  0.628161  0.867999  1
  Mo  Mo6  1  0.695811  0.123495  0.881244  1
  Mo  Mo7  1  0.304189  0.876505  0.118756  1
  O  O8  1  0.533268  0.999273  0.837528  1
  O  O9  1  0.228645  0.814666  0.651521  1
  O  O10  1  0.466732  0.000727  0.162472  1
  O  O11  1  0.704158  0.287760  0.006629  1
  O  O12  1  0.178378  0.754778  0.341923  1
  O  O13  1  0.771355  0.185334  0.348479  1
  O  O14  1  0.968058  0.546292  0.849800  1
  O  O15  1  0.597412  0.596437  0.162259  1
  O  O16  1  0.031942  0.453708  0.150200  1
  O  O17  1  0.295842  0.712240  0.993371  1
  O  O18  1  0.102986  0.109365  0.051029  1
  O  O19  1  0.402588  0.403563  0.837741  1
  O  O20  1  0.897014  0.890635  0.948971  1
  O  O21  1  0.821622  0.245222  0.658077  1
