# generated using pymatgen
data_B8Ru11
_symmetry_space_group_name_H-M   'P 1'
_cell_length_a   2.87569101
_cell_length_b   11.67620160
_cell_length_c   11.96586269
_cell_angle_alpha   90.00000000
_cell_angle_beta   90.00000000
_cell_angle_gamma   90.00000000
_symmetry_Int_Tables_number   1
_chemical_formula_structural   B8Ru11
_chemical_formula_sum   'B16 Ru22'
_cell_volume   401.77954216
_cell_formula_units_Z   2
loop_
 _symmetry_equiv_pos_site_id
 _symmetry_equiv_pos_as_xyz
  1  'x, y, z'
loop_
 _atom_site_type_symbol
 _atom_site_label
 _atom_site_symmetry_multiplicity
 _atom_site_fract_x
 _atom_site_fract_y
 _atom_site_fract_z
 _atom_site_occupancy
  B  B0  1  0.500000  0.146687  0.020785  1
  B  B1  1  0.500000  0.853313  0.979215  1
  B  B2  1  0.500000  0.353313  0.520785  1
  B  B3  1  0.500000  0.646687  0.479215  1
  B  B4  1  0.000000  0.378086  0.187370  1
  B  B5  1  0.000000  0.621914  0.812630  1
  B  B6  1  0.000000  0.121914  0.687370  1
  B  B7  1  0.000000  0.878086  0.312630  1
  B  B8  1  0.500000  0.148956  0.317214  1
  B  B9  1  0.500000  0.851044  0.682786  1
  B  B10  1  0.500000  0.351044  0.817214  1
  B  B11  1  0.500000  0.648956  0.182786  1
  B  B12  1  0.500000  0.297399  0.232867  1
  B  B13  1  0.500000  0.702601  0.767133  1
  B  B14  1  0.500000  0.202601  0.732867  1
  B  B15  1  0.500000  0.797399  0.267133  1
  Ru  Ru16  1  0.000000  0.000000  0.000000  1
  Ru  Ru17  1  0.000000  0.500000  0.500000  1
  Ru  Ru18  1  0.000000  0.284851  0.384433  1
  Ru  Ru19  1  0.000000  0.715149  0.615567  1
  Ru  Ru20  1  0.000000  0.215149  0.884433  1
  Ru  Ru21  1  0.000000  0.784851  0.115567  1
  Ru  Ru22  1  0.000000  0.044283  0.397171  1
  Ru  Ru23  1  0.000000  0.955717  0.602829  1
  Ru  Ru24  1  0.000000  0.455717  0.897171  1
  Ru  Ru25  1  0.000000  0.544283  0.102829  1
  Ru  Ru26  1  0.000000  0.168461  0.171291  1
  Ru  Ru27  1  0.000000  0.831539  0.828709  1
  Ru  Ru28  1  0.000000  0.331539  0.671291  1
  Ru  Ru29  1  0.000000  0.668461  0.328709  1
  Ru  Ru30  1  0.500000  0.468159  0.299640  1
  Ru  Ru31  1  0.500000  0.531841  0.700360  1
  Ru  Ru32  1  0.500000  0.031841  0.799640  1
  Ru  Ru33  1  0.500000  0.968159  0.200360  1
  Ru  Ru34  1  0.500000  0.335874  0.047120  1
  Ru  Ru35  1  0.500000  0.664126  0.952880  1
  Ru  Ru36  1  0.500000  0.164126  0.547120  1
  Ru  Ru37  1  0.500000  0.835874  0.452880  1
