# generated using pymatgen
data_CdAg4Ge2S7
_symmetry_space_group_name_H-M   'P 1'
_cell_length_a   9.55580959
_cell_length_b   9.55580959
_cell_length_c   10.65016154
_cell_angle_alpha   86.99913247
_cell_angle_beta   93.00086753
_cell_angle_gamma   137.45857204
_symmetry_Int_Tables_number   1
_chemical_formula_structural   CdAg4Ge2S7
_chemical_formula_sum   'Cd2 Ag8 Ge4 S14'
_cell_volume   656.49369945
_cell_formula_units_Z   2
loop_
 _symmetry_equiv_pos_site_id
 _symmetry_equiv_pos_as_xyz
  1  'x, y, z'
loop_
 _atom_site_type_symbol
 _atom_site_label
 _atom_site_symmetry_multiplicity
 _atom_site_fract_x
 _atom_site_fract_y
 _atom_site_fract_z
 _atom_site_occupancy
  Cd  Cd0  1  0.969388  0.670117  0.710484  1
  Cd  Cd1  1  0.329883  0.030612  0.210484  1
  Ag  Ag2  1  0.824818  0.815434  0.000295  1
  Ag  Ag3  1  0.184566  0.175182  0.500295  1
  Ag  Ag4  1  0.613375  0.740351  0.613830  1
  Ag  Ag5  1  0.259649  0.386625  0.113830  1
  Ag  Ag6  1  0.469730  0.891793  0.902399  1
  Ag  Ag7  1  0.108207  0.530270  0.402399  1
  Ag  Ag8  1  0.602701  0.155202  0.554904  1
  Ag  Ag9  1  0.844798  0.397299  0.054904  1
  Ge  Ge10  1  0.397663  0.252885  0.831345  1
  Ge  Ge11  1  0.747115  0.602337  0.331345  1
  Ge  Ge12  1  0.034906  0.310457  0.756174  1
  Ge  Ge13  1  0.689543  0.965094  0.256174  1
  S  S14  1  0.803440  0.865481  0.404125  1
  S  S15  1  0.134519  0.196560  0.904125  1
  S  S16  1  0.700123  0.032695  0.716265  1
  S  S17  1  0.967305  0.299877  0.216265  1
  S  S18  1  0.083950  0.546459  0.858520  1
  S  S19  1  0.453541  0.916050  0.358520  1
  S  S20  1  0.465908  0.135943  0.983277  1
  S  S21  1  0.864057  0.534092  0.483277  1
  S  S22  1  0.293203  0.063123  0.661015  1
  S  S23  1  0.936877  0.706797  0.161015  1
  S  S24  1  0.404734  0.326203  0.296643  1
  S  S25  1  0.673797  0.595266  0.796643  1
  S  S26  1  0.219171  0.441965  0.583923  1
  S  S27  1  0.558035  0.780829  0.083923  1
