# generated using pymatgen
data_Ta5Si3
_symmetry_space_group_name_H-M   'P 1'
_cell_length_a   7.52763450
_cell_length_b   7.52763450
_cell_length_c   7.52763450
_cell_angle_alpha   96.65981555
_cell_angle_beta   96.65981555
_cell_angle_gamma   140.17925464
_symmetry_Int_Tables_number   1
_chemical_formula_structural   Ta5Si3
_chemical_formula_sum   'Ta10 Si6'
_cell_volume   256.83317859
_cell_formula_units_Z   2
loop_
 _symmetry_equiv_pos_site_id
 _symmetry_equiv_pos_as_xyz
  1  'x, y, z'
loop_
 _atom_site_type_symbol
 _atom_site_label
 _atom_site_symmetry_multiplicity
 _atom_site_fract_x
 _atom_site_fract_y
 _atom_site_fract_z
 _atom_site_occupancy
  Ta  Ta0  1  0.720168  0.575006  0.295173  1
  Ta  Ta1  1  0.750000  0.250000  0.500000  1
  Ta  Ta2  1  0.779832  0.075006  0.854838  1
  Ta  Ta3  1  0.220168  0.924994  0.145162  1
  Ta  Ta4  1  0.250000  0.750000  0.500000  1
  Ta  Ta5  1  0.424994  0.720168  0.145162  1
  Ta  Ta6  1  0.279832  0.424994  0.704827  1
  Ta  Ta7  1  0.924994  0.779832  0.704827  1
  Ta  Ta8  1  0.575006  0.279832  0.854838  1
  Ta  Ta9  1  0.075006  0.220168  0.295173  1
  Si  Si10  1  0.334427  0.165573  0.500000  1
  Si  Si11  1  0.250000  0.250000  0.000000  1
  Si  Si12  1  0.165573  0.665573  0.831146  1
  Si  Si13  1  0.665573  0.834427  0.500000  1
  Si  Si14  1  0.750000  0.750000  0.000000  1
  Si  Si15  1  0.834427  0.334427  0.168854  1
