# generated using pymatgen
data_Rb2Tb3AlF16
_symmetry_space_group_name_H-M   'P 1'
_cell_length_a   7.57109487
_cell_length_b   7.57109487
_cell_length_c   13.11897078
_cell_angle_alpha   90.00000000
_cell_angle_beta   90.00000000
_cell_angle_gamma   120.00000000
_symmetry_Int_Tables_number   1
_chemical_formula_structural   Rb2Tb3AlF16
_chemical_formula_sum   'Rb4 Tb6 Al2 F32'
_cell_volume   651.25005444
_cell_formula_units_Z   2
loop_
 _symmetry_equiv_pos_site_id
 _symmetry_equiv_pos_as_xyz
  1  'x, y, z'
loop_
 _atom_site_type_symbol
 _atom_site_label
 _atom_site_symmetry_multiplicity
 _atom_site_fract_x
 _atom_site_fract_y
 _atom_site_fract_z
 _atom_site_occupancy
  Rb  Rb0  1  0.333333  0.666667  0.441198  1
  Rb  Rb1  1  0.666667  0.333333  0.558802  1
  Rb  Rb2  1  0.666667  0.333333  0.941198  1
  Rb  Rb3  1  0.333333  0.666667  0.058802  1
  Tb  Tb4  1  0.172016  0.827984  0.750000  1
  Tb  Tb5  1  0.827984  0.172016  0.250000  1
  Tb  Tb6  1  0.172016  0.344031  0.750000  1
  Tb  Tb7  1  0.344031  0.172016  0.250000  1
  Tb  Tb8  1  0.655969  0.827984  0.750000  1
  Tb  Tb9  1  0.827984  0.655969  0.250000  1
  Al  Al10  1  0.000000  0.000000  0.000000  1
  Al  Al11  1  0.000000  0.000000  0.500000  1
  F  F12  1  0.188451  0.811549  0.250000  1
  F  F13  1  0.885820  0.771641  0.578830  1
  F  F14  1  0.449077  0.550923  0.652594  1
  F  F15  1  0.114180  0.228359  0.078830  1
  F  F16  1  0.114180  0.228359  0.421170  1
  F  F17  1  0.376902  0.188451  0.750000  1
  F  F18  1  0.000000  0.000000  0.250000  1
  F  F19  1  0.771641  0.885820  0.421170  1
  F  F20  1  0.101846  0.550923  0.652594  1
  F  F21  1  0.449077  0.898154  0.652594  1
  F  F22  1  0.228359  0.114180  0.578830  1
  F  F23  1  0.811549  0.188451  0.750000  1
  F  F24  1  0.550923  0.101846  0.347406  1
  F  F25  1  0.771641  0.885820  0.078830  1
  F  F26  1  0.885820  0.114180  0.921170  1
  F  F27  1  0.885820  0.114180  0.578830  1
  F  F28  1  0.623098  0.811549  0.250000  1
  F  F29  1  0.550923  0.101846  0.152594  1
  F  F30  1  0.114180  0.885820  0.421170  1
  F  F31  1  0.114180  0.885820  0.078830  1
  F  F32  1  0.898154  0.449077  0.347406  1
  F  F33  1  0.550923  0.449077  0.347406  1
  F  F34  1  0.228359  0.114180  0.921170  1
  F  F35  1  0.898154  0.449077  0.152594  1
  F  F36  1  0.101846  0.550923  0.847406  1
  F  F37  1  0.449077  0.898154  0.847406  1
  F  F38  1  0.188451  0.376902  0.250000  1
  F  F39  1  0.449077  0.550923  0.847406  1
  F  F40  1  0.885820  0.771641  0.921170  1
  F  F41  1  0.811549  0.623098  0.750000  1
  F  F42  1  0.000000  0.000000  0.750000  1
  F  F43  1  0.550923  0.449077  0.152594  1
