# generated using pymatgen
data_YCu2Bi2(SeO2)2
_symmetry_space_group_name_H-M   'P 1'
_cell_length_a   12.78886195
_cell_length_b   12.78886195
_cell_length_c   12.78886195
_cell_angle_alpha   162.44425846
_cell_angle_beta   162.44425846
_cell_angle_gamma   24.92667422
_symmetry_Int_Tables_number   1
_chemical_formula_structural   YCu2Bi2(SeO2)2
_chemical_formula_sum   'Y1 Cu2 Bi2 Se2 O4'
_cell_volume   190.25293676
_cell_formula_units_Z   1
loop_
 _symmetry_equiv_pos_site_id
 _symmetry_equiv_pos_as_xyz
  1  'x, y, z'
loop_
 _atom_site_type_symbol
 _atom_site_label
 _atom_site_symmetry_multiplicity
 _atom_site_fract_x
 _atom_site_fract_y
 _atom_site_fract_z
 _atom_site_occupancy
  Y  Y0  1  0.000000  0.000000  0.000000  1
  Cu  Cu1  1  0.750000  0.250000  0.500000  1
  Cu  Cu2  1  0.250000  0.750000  0.500000  1
  Bi  Bi3  1  0.399063  0.399063  0.000000  1
  Bi  Bi4  1  0.600937  0.600937  0.000000  1
  Se  Se5  1  0.810540  0.810540  0.000000  1
  Se  Se6  1  0.189460  0.189460  0.000000  1
  O  O7  1  0.055751  0.555751  0.500000  1
  O  O8  1  0.444249  0.944249  0.500000  1
  O  O9  1  0.555751  0.055751  0.500000  1
  O  O10  1  0.944249  0.444249  0.500000  1
