# generated using pymatgen
data_Ag2Mo2O7
_symmetry_space_group_name_H-M   'P 1'
_cell_length_a   6.17287731
_cell_length_b   7.74705892
_cell_length_c   7.76071881
_cell_angle_alpha   111.66372709
_cell_angle_beta   110.37082200
_cell_angle_gamma   93.08969197
_symmetry_Int_Tables_number   1
_chemical_formula_structural   Ag2Mo2O7
_chemical_formula_sum   'Ag4 Mo4 O14'
_cell_volume   316.17923406
_cell_formula_units_Z   2
loop_
 _symmetry_equiv_pos_site_id
 _symmetry_equiv_pos_as_xyz
  1  'x, y, z'
loop_
 _atom_site_type_symbol
 _atom_site_label
 _atom_site_symmetry_multiplicity
 _atom_site_fract_x
 _atom_site_fract_y
 _atom_site_fract_z
 _atom_site_occupancy
  Ag  Ag0  1  0.241342  0.052731  0.743592  1
  Ag  Ag1  1  0.758658  0.947269  0.256408  1
  Ag  Ag2  1  0.763388  0.264636  0.759812  1
  Ag  Ag3  1  0.236612  0.735364  0.240188  1
  Mo  Mo4  1  0.228028  0.540990  0.722336  1
  Mo  Mo5  1  0.771972  0.459010  0.277664  1
  Mo  Mo6  1  0.667318  0.748896  0.678894  1
  Mo  Mo7  1  0.332682  0.251104  0.321106  1
  O  O8  1  0.254160  0.064866  0.384755  1
  O  O9  1  0.745840  0.935134  0.615245  1
  O  O10  1  0.081537  0.395658  0.380006  1
  O  O11  1  0.918463  0.604342  0.619994  1
  O  O12  1  0.645377  0.229162  0.349647  1
  O  O13  1  0.354623  0.770838  0.650353  1
  O  O14  1  0.503081  0.534120  0.341293  1
  O  O15  1  0.496919  0.465880  0.658707  1
  O  O16  1  0.349321  0.702961  0.979095  1
  O  O17  1  0.650679  0.297039  0.020905  1
  O  O18  1  0.814540  0.834329  0.940640  1
  O  O19  1  0.185460  0.165671  0.059360  1
  O  O20  1  0.124152  0.327929  0.734765  1
  O  O21  1  0.875848  0.672071  0.265235  1
