# generated using pymatgen
data_Ca4Al6MoO16
_symmetry_space_group_name_H-M   'P 1'
_cell_length_a   8.12287071
_cell_length_b   8.12287071
_cell_length_c   26.36826843
_cell_angle_alpha   90.00000000
_cell_angle_beta   90.00000000
_cell_angle_gamma   108.98142349
_symmetry_Int_Tables_number   1
_chemical_formula_structural   Ca4Al6MoO16
_chemical_formula_sum   'Ca16 Al24 Mo4 O64'
_cell_volume   1645.20195188
_cell_formula_units_Z   4
loop_
 _symmetry_equiv_pos_site_id
 _symmetry_equiv_pos_as_xyz
  1  'x, y, z'
loop_
 _atom_site_type_symbol
 _atom_site_label
 _atom_site_symmetry_multiplicity
 _atom_site_fract_x
 _atom_site_fract_y
 _atom_site_fract_z
 _atom_site_occupancy
  Ca  Ca0  1  0.971527  0.437969  0.517043  1
  Ca  Ca1  1  0.009522  0.487760  0.750092  1
  Ca  Ca2  1  0.437969  0.971527  0.482957  1
  Ca  Ca3  1  0.253845  0.308422  0.862296  1
  Ca  Ca4  1  0.487760  0.009522  0.249908  1
  Ca  Ca5  1  0.471527  0.937969  0.982957  1
  Ca  Ca6  1  0.261657  0.232921  0.620465  1
  Ca  Ca7  1  0.808422  0.753845  0.362296  1
  Ca  Ca8  1  0.509522  0.987760  0.749908  1
  Ca  Ca9  1  0.308422  0.253845  0.137704  1
  Ca  Ca10  1  0.937969  0.471527  0.017043  1
  Ca  Ca11  1  0.753845  0.808422  0.637704  1
  Ca  Ca12  1  0.232921  0.261657  0.379535  1
  Ca  Ca13  1  0.987760  0.509522  0.250092  1
  Ca  Ca14  1  0.761657  0.732921  0.879535  1
  Ca  Ca15  1  0.732921  0.761657  0.120465  1
  Al  Al16  1  0.743490  0.743490  1.000000  1
  Al  Al17  1  0.874384  0.124160  0.814642  1
  Al  Al18  1  0.124160  0.874384  0.185358  1
  Al  Al19  1  0.591485  0.363573  0.937245  1
  Al  Al20  1  0.628718  0.360584  0.440374  1
  Al  Al21  1  0.753530  0.758263  0.243514  1
  Al  Al22  1  0.363573  0.591485  0.062755  1
  Al  Al23  1  0.885108  0.135802  0.310197  1
  Al  Al24  1  0.385108  0.635802  0.189803  1
  Al  Al25  1  0.860584  0.128718  0.940374  1
  Al  Al26  1  0.135802  0.885108  0.689803  1
  Al  Al27  1  0.728743  0.728743  0.500000  1
  Al  Al28  1  0.128718  0.860584  0.059626  1
  Al  Al29  1  0.624160  0.374384  0.314642  1
  Al  Al30  1  0.091485  0.863573  0.562755  1
  Al  Al31  1  0.863573  0.091485  0.437245  1
  Al  Al32  1  0.253530  0.258263  0.256486  1
  Al  Al33  1  0.758263  0.753530  0.756486  1
  Al  Al34  1  0.228743  0.228743  1.000000  1
  Al  Al35  1  0.243490  0.243490  0.500000  1
  Al  Al36  1  0.635802  0.385108  0.810197  1
  Al  Al37  1  0.360584  0.628718  0.559626  1
  Al  Al38  1  0.258263  0.253530  0.743514  1
  Al  Al39  1  0.374384  0.624160  0.685358  1
  Mo  Mo40  1  0.740924  0.261371  0.636233  1
  Mo  Mo41  1  0.240924  0.761371  0.863767  1
  Mo  Mo42  1  0.261371  0.740924  0.363767  1
  Mo  Mo43  1  0.761371  0.240924  0.136233  1
  O  O44  1  0.433058  0.603284  0.126252  1
  O  O45  1  0.696257  0.176206  0.453391  1
  O  O46  1  0.278670  0.551231  0.394050  1
  O  O47  1  0.401980  0.251622  0.305284  1
  O  O48  1  0.824227  0.439022  0.679188  1
  O  O49  1  0.933058  0.103284  0.373748  1
  O  O50  1  0.751622  0.901980  0.805284  1
  O  O51  1  0.158027  0.947182  0.121843  1
  O  O52  1  0.551231  0.278670  0.605950  1
  O  O53  1  0.422482  0.326157  0.788296  1
  O  O54  1  0.721840  0.567244  0.279554  1
  O  O55  1  0.292434  0.082340  0.709302  1
  O  O56  1  0.903646  0.267548  0.589224  1
  O  O57  1  0.792434  0.582340  0.790698  1
  O  O58  1  0.267153  0.402606  0.547106  1
  O  O59  1  0.582340  0.792434  0.209302  1
  O  O60  1  0.324227  0.939022  0.820812  1
  O  O61  1  0.567244  0.721840  0.720446  1
  O  O62  1  0.687427  0.056332  0.669872  1
  O  O63  1  0.439022  0.824227  0.320812  1
  O  O64  1  0.658027  0.447182  0.378157  1
  O  O65  1  0.939022  0.324227  0.179188  1
  O  O66  1  0.551084  0.733855  0.032421  1
  O  O67  1  0.403646  0.767548  0.910776  1
  O  O68  1  0.767548  0.403646  0.089224  1
  O  O69  1  0.447182  0.658027  0.621843  1
  O  O70  1  0.221840  0.067244  0.220446  1
  O  O71  1  0.363881  0.293632  0.945865  1
  O  O72  1  0.176206  0.696257  0.546609  1
  O  O73  1  0.187427  0.556332  0.830128  1
  O  O74  1  0.522744  0.746497  0.516757  1
  O  O75  1  0.793632  0.863881  0.445865  1
  O  O76  1  0.103284  0.933058  0.626252  1
  O  O77  1  0.728765  0.227608  0.791666  1
  O  O78  1  0.556332  0.187427  0.169872  1
  O  O79  1  0.727608  0.228765  0.291666  1
  O  O80  1  0.603284  0.433058  0.873748  1
  O  O81  1  0.402606  0.267153  0.452894  1
  O  O82  1  0.947182  0.158027  0.878157  1
  O  O83  1  0.733855  0.551084  0.967579  1
  O  O84  1  0.051231  0.778670  0.894050  1
  O  O85  1  0.251622  0.401980  0.694716  1
  O  O86  1  0.326157  0.422482  0.211704  1
  O  O87  1  0.228765  0.727608  0.708334  1
  O  O88  1  0.196257  0.676206  0.046609  1
  O  O89  1  0.901980  0.751622  0.194716  1
  O  O90  1  0.293632  0.363881  0.054135  1
  O  O91  1  0.746497  0.522744  0.483243  1
  O  O92  1  0.067244  0.221840  0.779554  1
  O  O93  1  0.778670  0.051231  0.105950  1
  O  O94  1  0.022744  0.246497  0.983243  1
  O  O95  1  0.056332  0.687427  0.330128  1
  O  O96  1  0.246497  0.022744  0.016757  1
  O  O97  1  0.082340  0.292434  0.290698  1
  O  O98  1  0.233855  0.051084  0.532421  1
  O  O99  1  0.902606  0.767153  0.047106  1
  O  O100  1  0.826157  0.922482  0.288296  1
  O  O101  1  0.227608  0.728765  0.208334  1
  O  O102  1  0.863881  0.793632  0.554135  1
  O  O103  1  0.922482  0.826157  0.711704  1
  O  O104  1  0.051084  0.233855  0.467579  1
  O  O105  1  0.767153  0.902606  0.952894  1
  O  O106  1  0.267548  0.903646  0.410776  1
  O  O107  1  0.676206  0.196257  0.953391  1
