# generated using pymatgen
data_Mg(BH4)2
_symmetry_space_group_name_H-M   'P 1'
_cell_length_a   4.31188528
_cell_length_b   6.09677431
_cell_length_c   8.39071301
_cell_angle_alpha   90.00000000
_cell_angle_beta   90.00000000
_cell_angle_gamma   90.00000000
_symmetry_Int_Tables_number   1
_chemical_formula_structural   Mg(BH4)2
_chemical_formula_sum   'Mg2 B4 H16'
_cell_volume   220.58002590
_cell_formula_units_Z   2
loop_
 _symmetry_equiv_pos_site_id
 _symmetry_equiv_pos_as_xyz
  1  'x, y, z'
loop_
 _atom_site_type_symbol
 _atom_site_label
 _atom_site_symmetry_multiplicity
 _atom_site_fract_x
 _atom_site_fract_y
 _atom_site_fract_z
 _atom_site_occupancy
  Mg  Mg0  1  0.000000  0.698364  0.500619  1
  Mg  Mg1  1  0.000000  0.301636  0.000619  1
  B  B2  1  0.000000  0.517956  0.244939  1
  B  B3  1  0.000000  0.482044  0.744939  1
  B  B4  1  0.500000  0.102372  0.978812  1
  B  B5  1  0.500000  0.897628  0.478812  1
  H  H6  1  0.279787  0.941815  0.566849  1
  H  H7  1  0.500000  0.008161  0.359855  1
  H  H8  1  0.500000  0.991839  0.859855  1
  H  H9  1  0.000000  0.416758  0.372167  1
  H  H10  1  0.000000  0.718555  0.255742  1
  H  H11  1  0.279787  0.058185  0.066849  1
  H  H12  1  0.759932  0.531693  0.676248  1
  H  H13  1  0.240068  0.468307  0.176248  1
  H  H14  1  0.000000  0.281445  0.755742  1
  H  H15  1  0.500000  0.700370  0.442702  1
  H  H16  1  0.720213  0.058185  0.066849  1
  H  H17  1  0.000000  0.583242  0.872167  1
  H  H18  1  0.720213  0.941815  0.566849  1
  H  H19  1  0.240068  0.531693  0.676248  1
  H  H20  1  0.759932  0.468307  0.176248  1
  H  H21  1  0.500000  0.299630  0.942702  1
