# generated using pymatgen
data_Ce8Ni18P11
_symmetry_space_group_name_H-M   'P 1'
_cell_length_a   18.15954367
_cell_length_b   18.15954367
_cell_length_c   3.87529923
_cell_angle_alpha   90.00000000
_cell_angle_beta   90.00000000
_cell_angle_gamma   120.00000000
_symmetry_Int_Tables_number   1
_chemical_formula_structural   Ce8Ni18P11
_chemical_formula_sum   'Ce16 Ni36 P22'
_cell_volume   1106.74032931
_cell_formula_units_Z   2
loop_
 _symmetry_equiv_pos_site_id
 _symmetry_equiv_pos_as_xyz
  1  'x, y, z'
loop_
 _atom_site_type_symbol
 _atom_site_label
 _atom_site_symmetry_multiplicity
 _atom_site_fract_x
 _atom_site_fract_y
 _atom_site_fract_z
 _atom_site_occupancy
  Ce  Ce0  1  0.380718  0.190359  0.000000  1
  Ce  Ce1  1  0.110904  0.221809  0.500000  1
  Ce  Ce2  1  0.550842  0.665698  0.500000  1
  Ce  Ce3  1  0.334302  0.449158  0.500000  1
  Ce  Ce4  1  0.778191  0.889096  0.500000  1
  Ce  Ce5  1  0.334302  0.885144  0.500000  1
  Ce  Ce6  1  0.114856  0.665698  0.500000  1
  Ce  Ce7  1  0.809641  0.619282  0.000000  1
  Ce  Ce8  1  0.593443  0.186886  0.000000  1
  Ce  Ce9  1  0.110904  0.889096  0.500000  1
  Ce  Ce10  1  0.809641  0.190359  0.000000  1
  Ce  Ce11  1  0.813114  0.406557  0.000000  1
  Ce  Ce12  1  0.114856  0.449158  0.500000  1
  Ce  Ce13  1  0.593443  0.406557  0.000000  1
  Ce  Ce14  1  0.333333  0.666667  0.500000  1
  Ce  Ce15  1  0.550842  0.885144  0.500000  1
  Ni  Ni16  1  0.623578  0.811789  0.000000  1
  Ni  Ni17  1  0.734218  0.697484  0.500000  1
  Ni  Ni18  1  0.410285  0.374014  0.000000  1
  Ni  Ni19  1  0.963265  0.265782  0.500000  1
  Ni  Ni20  1  0.044552  0.955448  0.000000  1
  Ni  Ni21  1  0.739286  0.260714  0.500000  1
  Ni  Ni22  1  0.739286  0.478571  0.500000  1
  Ni  Ni23  1  0.963729  0.374014  0.000000  1
  Ni  Ni24  1  0.517915  0.482085  0.500000  1
  Ni  Ni25  1  0.964979  0.797645  0.000000  1
  Ni  Ni26  1  0.517915  0.035829  0.500000  1
  Ni  Ni27  1  0.949086  0.050914  0.500000  1
  Ni  Ni28  1  0.302516  0.265782  0.500000  1
  Ni  Ni29  1  0.188211  0.376422  0.000000  1
  Ni  Ni30  1  0.187524  0.593762  0.000000  1
  Ni  Ni31  1  0.832666  0.035021  0.000000  1
  Ni  Ni32  1  0.949086  0.898172  0.500000  1
  Ni  Ni33  1  0.734218  0.036735  0.500000  1
  Ni  Ni34  1  0.101828  0.050914  0.500000  1
  Ni  Ni35  1  0.202355  0.035021  0.000000  1
  Ni  Ni36  1  0.625986  0.036271  0.000000  1
  Ni  Ni37  1  0.963265  0.697484  0.500000  1
  Ni  Ni38  1  0.188211  0.811789  0.000000  1
  Ni  Ni39  1  0.521429  0.260714  0.500000  1
  Ni  Ni40  1  0.910896  0.955448  0.000000  1
  Ni  Ni41  1  0.406238  0.593762  0.000000  1
  Ni  Ni42  1  0.202355  0.167334  0.000000  1
  Ni  Ni43  1  0.044552  0.089104  0.000000  1
  Ni  Ni44  1  0.964171  0.482085  0.500000  1
  Ni  Ni45  1  0.964979  0.167334  0.000000  1
  Ni  Ni46  1  0.406238  0.812476  0.000000  1
  Ni  Ni47  1  0.832666  0.797645  0.000000  1
  Ni  Ni48  1  0.963729  0.589715  0.000000  1
  Ni  Ni49  1  0.302516  0.036735  0.500000  1
  Ni  Ni50  1  0.410285  0.036271  0.000000  1
  Ni  Ni51  1  0.625986  0.589715  0.000000  1
  P  P52  1  0.262639  0.307699  0.000000  1
  P  P53  1  0.450295  0.334756  0.500000  1
  P  P54  1  0.880105  0.119895  0.500000  1
  P  P55  1  0.239790  0.119895  0.500000  1
  P  P56  1  0.478520  0.957039  0.000000  1
  P  P57  1  0.692301  0.737361  0.000000  1
  P  P58  1  0.478137  0.739068  0.000000  1
  P  P59  1  0.045059  0.307699  0.000000  1
  P  P60  1  0.042961  0.521480  0.000000  1
  P  P61  1  0.260932  0.521863  0.000000  1
  P  P62  1  0.666667  0.333333  0.500000  1
  P  P63  1  0.260932  0.739068  0.000000  1
  P  P64  1  0.262639  0.954941  0.000000  1
  P  P65  1  0.450295  0.115539  0.500000  1
  P  P66  1  0.884461  0.549705  0.500000  1
  P  P67  1  0.665244  0.115539  0.500000  1
  P  P68  1  0.045059  0.737361  0.000000  1
  P  P69  1  0.665244  0.549705  0.500000  1
  P  P70  1  0.884461  0.334756  0.500000  1
  P  P71  1  0.478520  0.521480  0.000000  1
  P  P72  1  0.880105  0.760210  0.500000  1
  P  P73  1  0.692301  0.954941  0.000000  1
