# generated using pymatgen
data_TmMoClO4
_symmetry_space_group_name_H-M   'P 1'
_cell_length_a   6.26139711
_cell_length_b   6.26139711
_cell_length_c   6.87600960
_cell_angle_alpha   75.76437560
_cell_angle_beta   104.23562440
_cell_angle_gamma   109.34415621
_symmetry_Int_Tables_number   1
_chemical_formula_structural   TmMoClO4
_chemical_formula_sum   'Tm2 Mo2 Cl2 O8'
_cell_volume   242.52680943
_cell_formula_units_Z   2
loop_
 _symmetry_equiv_pos_site_id
 _symmetry_equiv_pos_as_xyz
  1  'x, y, z'
loop_
 _atom_site_type_symbol
 _atom_site_label
 _atom_site_symmetry_multiplicity
 _atom_site_fract_x
 _atom_site_fract_y
 _atom_site_fract_z
 _atom_site_occupancy
  Tm  Tm0  1  0.778320  0.221680  0.387260  1
  Tm  Tm1  1  0.221680  0.778320  0.612740  1
  Mo  Mo2  1  0.362229  0.637771  0.230947  1
  Mo  Mo3  1  0.637771  0.362229  0.769053  1
  Cl  Cl4  1  0.989647  0.010353  0.731607  1
  Cl  Cl5  1  0.010353  0.989647  0.268393  1
  O  O6  1  0.706492  0.293508  0.037956  1
  O  O7  1  0.293508  0.706492  0.962044  1
  O  O8  1  0.507842  0.106252  0.653708  1
  O  O9  1  0.454962  0.545038  0.699633  1
  O  O10  1  0.106252  0.507842  0.346292  1
  O  O11  1  0.893748  0.492158  0.653708  1
  O  O12  1  0.545038  0.454962  0.300367  1
  O  O13  1  0.492158  0.893748  0.346292  1
