# generated using pymatgen
data_Th(TeI)2
_symmetry_space_group_name_H-M   'P 1'
_cell_length_a   8.23037807
_cell_length_b   8.23037807
_cell_length_c   8.11308188
_cell_angle_alpha   81.04508629
_cell_angle_beta   98.95491371
_cell_angle_gamma   56.86603191
_symmetry_Int_Tables_number   1
_chemical_formula_structural   Th(TeI)2
_chemical_formula_sum   'Th2 Te4 I4'
_cell_volume   434.92188144
_cell_formula_units_Z   2
loop_
 _symmetry_equiv_pos_site_id
 _symmetry_equiv_pos_as_xyz
  1  'x, y, z'
loop_
 _atom_site_type_symbol
 _atom_site_label
 _atom_site_symmetry_multiplicity
 _atom_site_fract_x
 _atom_site_fract_y
 _atom_site_fract_z
 _atom_site_occupancy
  Th  Th0  1  0.857217  0.857217  0.500000  1
  Th  Th1  1  0.142783  0.142783  0.500000  1
  Te  Te2  1  0.119935  0.880065  0.824873  1
  Te  Te3  1  0.880065  0.119935  0.175127  1
  Te  Te4  1  0.668628  0.331372  0.388613  1
  Te  Te5  1  0.331372  0.668628  0.611387  1
  I  I6  1  0.020996  0.559799  0.256820  1
  I  I7  1  0.559799  0.020996  0.743180  1
  I  I8  1  0.979004  0.440201  0.743180  1
  I  I9  1  0.440201  0.979004  0.256820  1
