# generated using pymatgen
data_RuCl(OF3)2
_symmetry_space_group_name_H-M   'P 1'
_cell_length_a   7.19862812
_cell_length_b   5.84341580
_cell_length_c   10.41707108
_cell_angle_alpha   90.00000000
_cell_angle_beta   133.14743051
_cell_angle_gamma   90.00000000
_symmetry_Int_Tables_number   1
_chemical_formula_structural   RuCl(OF3)2
_chemical_formula_sum   'Ru2 Cl2 O4 F12'
_cell_volume   319.70162161
_cell_formula_units_Z   2
loop_
 _symmetry_equiv_pos_site_id
 _symmetry_equiv_pos_as_xyz
  1  'x, y, z'
loop_
 _atom_site_type_symbol
 _atom_site_label
 _atom_site_symmetry_multiplicity
 _atom_site_fract_x
 _atom_site_fract_y
 _atom_site_fract_z
 _atom_site_occupancy
  Ru  Ru0  1  0.500000  0.998432  0.250000  1
  Ru  Ru1  1  0.500000  0.001568  0.750000  1
  Cl  Cl2  1  0.000000  0.356883  0.250000  1
  Cl  Cl3  1  0.000000  0.643117  0.750000  1
  O  O4  1  0.844494  0.515288  0.589930  1
  O  O5  1  0.844494  0.484712  0.089930  1
  O  O6  1  0.155506  0.515288  0.910070  1
  O  O7  1  0.155506  0.484712  0.410070  1
  F  F8  1  0.325729  0.758398  0.758355  1
  F  F9  1  0.242713  0.001301  0.001455  1
  F  F10  1  0.325729  0.241602  0.258355  1
  F  F11  1  0.320506  0.224442  0.757255  1
  F  F12  1  0.674271  0.758398  0.741645  1
  F  F13  1  0.679494  0.775558  0.242745  1
  F  F14  1  0.242713  0.998699  0.501455  1
  F  F15  1  0.320506  0.775558  0.257255  1
  F  F16  1  0.674271  0.241602  0.241645  1
  F  F17  1  0.757287  0.001301  0.498545  1
  F  F18  1  0.757287  0.998699  0.998545  1
  F  F19  1  0.679494  0.224442  0.742745  1
