# generated using pymatgen
data_Mg3(BO3)2
_symmetry_space_group_name_H-M   'P 1'
_cell_length_a   4.54288119
_cell_length_b   5.45811947
_cell_length_c   8.51042264
_cell_angle_alpha   90.00000000
_cell_angle_beta   90.00000000
_cell_angle_gamma   90.00000000
_symmetry_Int_Tables_number   1
_chemical_formula_structural   Mg3(BO3)2
_chemical_formula_sum   'Mg6 B4 O12'
_cell_volume   211.02093581
_cell_formula_units_Z   2
loop_
 _symmetry_equiv_pos_site_id
 _symmetry_equiv_pos_as_xyz
  1  'x, y, z'
loop_
 _atom_site_type_symbol
 _atom_site_label
 _atom_site_symmetry_multiplicity
 _atom_site_fract_x
 _atom_site_fract_y
 _atom_site_fract_z
 _atom_site_occupancy
  Mg  Mg0  1  0.000000  0.500000  0.813120  1
  Mg  Mg1  1  0.500000  0.000000  0.686880  1
  Mg  Mg2  1  0.000000  0.500000  0.186880  1
  Mg  Mg3  1  0.500000  0.000000  0.313120  1
  Mg  Mg4  1  0.500000  0.500000  0.500000  1
  Mg  Mg5  1  0.000000  0.000000  0.000000  1
  B  B6  1  0.045540  0.244482  0.500000  1
  B  B7  1  0.454460  0.744482  0.000000  1
  B  B8  1  0.954460  0.755518  0.500000  1
  B  B9  1  0.545540  0.255518  0.000000  1
  O  O10  1  0.298812  0.795452  0.138616  1
  O  O11  1  0.798812  0.704548  0.361384  1
  O  O12  1  0.298812  0.795452  0.861384  1
  O  O13  1  0.701188  0.204548  0.861384  1
  O  O14  1  0.798812  0.704548  0.638616  1
  O  O15  1  0.201188  0.295452  0.638616  1
  O  O16  1  0.250891  0.320724  0.000000  1
  O  O17  1  0.750891  0.179276  0.500000  1
  O  O18  1  0.249109  0.820724  0.500000  1
  O  O19  1  0.749109  0.679276  0.000000  1
  O  O20  1  0.701188  0.204548  0.138616  1
  O  O21  1  0.201188  0.295452  0.361384  1
