# generated using pymatgen
data_InH8C4NO10
_symmetry_space_group_name_H-M   'P 1'
_cell_length_a   9.10228980
_cell_length_b   9.10228980
_cell_length_c   11.65331025
_cell_angle_alpha   90.00000000
_cell_angle_beta   90.00000000
_cell_angle_gamma   120.00000000
_symmetry_Int_Tables_number   1
_chemical_formula_structural   InH8C4NO10
_chemical_formula_sum   'In3 H24 C12 N3 O30'
_cell_volume   836.14434687
_cell_formula_units_Z   3
loop_
 _symmetry_equiv_pos_site_id
 _symmetry_equiv_pos_as_xyz
  1  'x, y, z'
loop_
 _atom_site_type_symbol
 _atom_site_label
 _atom_site_symmetry_multiplicity
 _atom_site_fract_x
 _atom_site_fract_y
 _atom_site_fract_z
 _atom_site_occupancy
  In  In0  1  0.500000  0.000000  0.000000  1
  In  In1  1  0.000000  0.500000  0.666667  1
  In  In2  1  0.500000  0.500000  0.333333  1
  H  H3  1  0.900852  0.643157  0.178390  1
  H  H4  1  0.897181  0.922450  0.948133  1
  H  H5  1  0.257695  0.900852  0.511723  1
  H  H6  1  0.900852  0.257695  0.154943  1
  H  H7  1  0.257695  0.356843  0.821610  1
  H  H8  1  0.025269  0.102819  0.281467  1
  H  H9  1  0.974731  0.077550  0.051867  1
  H  H10  1  0.025269  0.922450  0.051867  1
  H  H11  1  0.099148  0.742305  0.154943  1
  H  H12  1  0.922450  0.897181  0.718533  1
  H  H13  1  0.099148  0.356843  0.178390  1
  H  H14  1  0.922450  0.025269  0.614800  1
  H  H15  1  0.643157  0.742305  0.845057  1
  H  H16  1  0.742305  0.643157  0.821610  1
  H  H17  1  0.974731  0.897181  0.281467  1
  H  H18  1  0.356843  0.257695  0.845057  1
  H  H19  1  0.356843  0.099148  0.488277  1
  H  H20  1  0.077550  0.102819  0.718533  1
  H  H21  1  0.742305  0.099148  0.511723  1
  H  H22  1  0.102819  0.077550  0.948133  1
  H  H23  1  0.077550  0.974731  0.614800  1
  H  H24  1  0.897181  0.974731  0.385200  1
  H  H25  1  0.102819  0.025269  0.385200  1
  H  H26  1  0.643157  0.900852  0.488277  1
  C  C27  1  0.213263  0.786737  0.833333  1
  C  C28  1  0.311521  0.623042  0.500000  1
  C  C29  1  0.376958  0.688479  0.166667  1
  C  C30  1  0.786737  0.573473  0.500000  1
  C  C31  1  0.786737  0.213263  0.833333  1
  C  C32  1  0.213263  0.426527  0.500000  1
  C  C33  1  0.311521  0.688479  0.833333  1
  C  C34  1  0.688479  0.376958  0.500000  1
  C  C35  1  0.688479  0.311521  0.833333  1
  C  C36  1  0.573473  0.786737  0.166667  1
  C  C37  1  0.623042  0.311521  0.166667  1
  C  C38  1  0.426527  0.213263  0.166667  1
  N  N39  1  0.000000  0.000000  0.666667  1
  N  N40  1  0.000000  0.000000  0.333333  1
  N  N41  1  0.000000  0.000000  0.000000  1
  O  O42  1  0.244841  0.694885  0.555017  1
  O  O43  1  0.081644  0.731138  0.771754  1
  O  O44  1  0.549956  0.305115  0.444983  1
  O  O45  1  0.350505  0.268862  0.228246  1
  O  O46  1  0.243084  0.000000  0.500000  1
  O  O47  1  0.549956  0.244841  0.888350  1
  O  O48  1  0.244841  0.549956  0.778317  1
  O  O49  1  0.731138  0.649495  0.438420  1
  O  O50  1  0.000000  0.243084  0.166667  1
  O  O51  1  0.450044  0.755159  0.888350  1
  O  O52  1  0.756916  0.756916  0.833333  1
  O  O53  1  0.731138  0.081644  0.894913  1
  O  O54  1  0.243084  0.243084  0.833333  1
  O  O55  1  0.694885  0.244841  0.111650  1
  O  O56  1  0.918356  0.649495  0.561580  1
  O  O57  1  0.081644  0.350505  0.561580  1
  O  O58  1  0.268862  0.350505  0.438420  1
  O  O59  1  0.649495  0.918356  0.105087  1
  O  O60  1  0.268862  0.918356  0.894913  1
  O  O61  1  0.450044  0.694885  0.444983  1
  O  O62  1  0.694885  0.450044  0.221683  1
  O  O63  1  0.756916  0.000000  0.500000  1
  O  O64  1  0.000000  0.756916  0.166667  1
  O  O65  1  0.755159  0.305115  0.555017  1
  O  O66  1  0.918356  0.268862  0.771754  1
  O  O67  1  0.350505  0.081644  0.105087  1
  O  O68  1  0.305115  0.755159  0.111650  1
  O  O69  1  0.755159  0.450044  0.778317  1
  O  O70  1  0.649495  0.731138  0.228246  1
  O  O71  1  0.305115  0.549956  0.221683  1
