# generated using pymatgen
data_Yb2S3
_symmetry_space_group_name_H-M   'P 1'
_cell_length_a   7.26120562
_cell_length_b   7.26120562
_cell_length_c   15.48334530
_cell_angle_alpha   90.00000000
_cell_angle_beta   90.00000000
_cell_angle_gamma   120.00000000
_symmetry_Int_Tables_number   1
_chemical_formula_structural   Yb2S3
_chemical_formula_sum   'Yb12 S18'
_cell_volume   706.98939801
_cell_formula_units_Z   6
loop_
 _symmetry_equiv_pos_site_id
 _symmetry_equiv_pos_as_xyz
  1  'x, y, z'
loop_
 _atom_site_type_symbol
 _atom_site_label
 _atom_site_symmetry_multiplicity
 _atom_site_fract_x
 _atom_site_fract_y
 _atom_site_fract_z
 _atom_site_occupancy
  Yb  Yb0  1  0.000000  0.000000  0.306264  1
  Yb  Yb1  1  0.333333  0.666667  0.205173  1
  Yb  Yb2  1  0.666667  0.333333  0.978697  1
  Yb  Yb3  1  0.666667  0.333333  0.205173  1
  Yb  Yb4  1  0.333333  0.666667  0.705173  1
  Yb  Yb5  1  0.666667  0.333333  0.705173  1
  Yb  Yb6  1  0.333333  0.666667  0.978697  1
  Yb  Yb7  1  0.000000  0.000000  0.048545  1
  Yb  Yb8  1  0.666667  0.333333  0.478697  1
  Yb  Yb9  1  0.000000  0.000000  0.806264  1
  Yb  Yb10  1  0.333333  0.666667  0.478697  1
  Yb  Yb11  1  0.000000  0.000000  0.548545  1
  S  S12  1  0.000000  0.718855  0.922200  1
  S  S13  1  0.718855  0.718855  0.422200  1
  S  S14  1  0.000000  0.506422  0.831689  1
  S  S15  1  0.281145  0.000000  0.422200  1
  S  S16  1  0.354789  0.354789  0.607694  1
  S  S17  1  0.000000  0.645211  0.607694  1
  S  S18  1  0.000000  0.493578  0.331689  1
  S  S19  1  0.000000  0.354789  0.107694  1
  S  S20  1  0.718855  0.000000  0.922200  1
  S  S21  1  0.493578  0.000000  0.331689  1
  S  S22  1  0.645211  0.645211  0.107694  1
  S  S23  1  0.493578  0.493578  0.831689  1
  S  S24  1  0.281145  0.281145  0.922200  1
  S  S25  1  0.000000  0.281145  0.422200  1
  S  S26  1  0.645211  0.000000  0.607694  1
  S  S27  1  0.506422  0.000000  0.831689  1
  S  S28  1  0.354789  0.000000  0.107694  1
  S  S29  1  0.506422  0.506422  0.331689  1
