# generated using pymatgen
data_Nd2SnS5
_symmetry_space_group_name_H-M   'P 1'
_cell_length_a   3.96907646
_cell_length_b   7.87503863
_cell_length_c   11.34349317
_cell_angle_alpha   90.00000000
_cell_angle_beta   90.00000000
_cell_angle_gamma   90.00000000
_symmetry_Int_Tables_number   1
_chemical_formula_structural   Nd2SnS5
_chemical_formula_sum   'Nd4 Sn2 S10'
_cell_volume   354.55937400
_cell_formula_units_Z   2
loop_
 _symmetry_equiv_pos_site_id
 _symmetry_equiv_pos_as_xyz
  1  'x, y, z'
loop_
 _atom_site_type_symbol
 _atom_site_label
 _atom_site_symmetry_multiplicity
 _atom_site_fract_x
 _atom_site_fract_y
 _atom_site_fract_z
 _atom_site_occupancy
  Nd  Nd0  1  0.500000  0.439233  0.170173  1
  Nd  Nd1  1  0.500000  0.060767  0.670173  1
  Nd  Nd2  1  0.500000  0.939233  0.329827  1
  Nd  Nd3  1  0.500000  0.560767  0.829827  1
  Sn  Sn4  1  0.000000  0.000000  0.000000  1
  Sn  Sn5  1  0.000000  0.500000  0.500000  1
  S  S6  1  0.500000  0.184676  0.922162  1
  S  S7  1  0.000000  0.654537  0.299084  1
  S  S8  1  0.500000  0.815324  0.077838  1
  S  S9  1  0.000000  0.845463  0.799084  1
  S  S10  1  0.500000  0.315324  0.422162  1
  S  S11  1  0.000000  0.154537  0.200916  1
  S  S12  1  0.000000  0.345463  0.700916  1
  S  S13  1  0.500000  0.684676  0.577838  1
  S  S14  1  0.000000  0.000000  0.500000  1
  S  S15  1  0.000000  0.500000  0.000000  1
