# generated using pymatgen
data_As2P2S7
_symmetry_space_group_name_H-M   'P 1'
_cell_length_a   11.90666207
_cell_length_b   8.63180872
_cell_length_c   12.51233030
_cell_angle_alpha   90.00000000
_cell_angle_beta   94.64105589
_cell_angle_gamma   90.00000000
_symmetry_Int_Tables_number   1
_chemical_formula_structural   As2P2S7
_chemical_formula_sum   'As8 P8 S28'
_cell_volume   1281.75113938
_cell_formula_units_Z   4
loop_
 _symmetry_equiv_pos_site_id
 _symmetry_equiv_pos_as_xyz
  1  'x, y, z'
loop_
 _atom_site_type_symbol
 _atom_site_label
 _atom_site_symmetry_multiplicity
 _atom_site_fract_x
 _atom_site_fract_y
 _atom_site_fract_z
 _atom_site_occupancy
  As  As0  1  0.681622  0.114576  0.336068  1
  As  As1  1  0.818378  0.614576  0.663932  1
  As  As2  1  0.318378  0.885424  0.663932  1
  As  As3  1  0.181622  0.385424  0.336068  1
  As  As4  1  0.648938  0.920382  0.176752  1
  As  As5  1  0.851062  0.420382  0.823248  1
  As  As6  1  0.351062  0.079618  0.823248  1
  As  As7  1  0.148938  0.579618  0.176752  1
  P  P8  1  0.885324  0.143865  0.157389  1
  P  P9  1  0.614676  0.643865  0.842611  1
  P  P10  1  0.114676  0.856135  0.842611  1
  P  P11  1  0.385324  0.356135  0.157389  1
  P  P12  1  0.886328  0.832735  0.342095  1
  P  P13  1  0.613672  0.332735  0.657905  1
  P  P14  1  0.113672  0.167265  0.657905  1
  P  P15  1  0.386328  0.667265  0.342095  1
  S  S16  1  0.985154  0.977714  0.248475  1
  S  S17  1  0.514846  0.477714  0.751525  1
  S  S18  1  0.014846  0.022286  0.751525  1
  S  S19  1  0.485154  0.522286  0.248475  1
  S  S20  1  0.800665  0.282539  0.261793  1
  S  S21  1  0.699335  0.782539  0.738207  1
  S  S22  1  0.199335  0.717461  0.738207  1
  S  S23  1  0.300665  0.217461  0.261793  1
  S  S24  1  0.801443  0.971163  0.447421  1
  S  S25  1  0.698557  0.471163  0.552579  1
  S  S26  1  0.198557  0.028837  0.552579  1
  S  S27  1  0.301443  0.528837  0.447421  1
  S  S28  1  0.761362  0.030472  0.058489  1
  S  S29  1  0.738638  0.530472  0.941511  1
  S  S30  1  0.238638  0.969528  0.941511  1
  S  S31  1  0.261362  0.469528  0.058489  1
  S  S32  1  0.761169  0.722674  0.243176  1
  S  S33  1  0.738831  0.222674  0.756824  1
  S  S34  1  0.238831  0.277326  0.756824  1
  S  S35  1  0.261169  0.777326  0.243176  1
  S  S36  1  0.990801  0.260251  0.077574  1
  S  S37  1  0.509199  0.760251  0.922426  1
  S  S38  1  0.009199  0.739749  0.922426  1
  S  S39  1  0.490801  0.239749  0.077574  1
  S  S40  1  0.989802  0.687176  0.416447  1
  S  S41  1  0.510198  0.187176  0.583553  1
  S  S42  1  0.010198  0.312824  0.583553  1
  S  S43  1  0.489802  0.812824  0.416447  1
