# generated using pymatgen
data_NaAlSiO4
_symmetry_space_group_name_H-M   'P 1'
_cell_length_a   5.22317987
_cell_length_b   10.40366353
_cell_length_c   14.18363421
_cell_angle_alpha   90.00000000
_cell_angle_beta   90.00000000
_cell_angle_gamma   90.00000000
_symmetry_Int_Tables_number   1
_chemical_formula_structural   NaAlSiO4
_chemical_formula_sum   'Na8 Al8 Si8 O32'
_cell_volume   770.74160372
_cell_formula_units_Z   8
loop_
 _symmetry_equiv_pos_site_id
 _symmetry_equiv_pos_as_xyz
  1  'x, y, z'
loop_
 _atom_site_type_symbol
 _atom_site_label
 _atom_site_symmetry_multiplicity
 _atom_site_fract_x
 _atom_site_fract_y
 _atom_site_fract_z
 _atom_site_occupancy
  Na  Na0  1  0.947341  0.474772  0.252863  1
  Na  Na1  1  0.947341  0.025228  0.752863  1
  Na  Na2  1  0.447359  0.285560  0.500625  1
  Na  Na3  1  0.052659  0.974772  0.252863  1
  Na  Na4  1  0.552641  0.785560  0.500625  1
  Na  Na5  1  0.052659  0.525228  0.752863  1
  Na  Na6  1  0.447359  0.214440  0.000625  1
  Na  Na7  1  0.552641  0.714440  0.000625  1
  Al  Al8  1  0.547232  0.721531  0.750291  1
  Al  Al9  1  0.937221  0.528052  0.502459  1
  Al  Al10  1  0.937221  0.971948  0.002459  1
  Al  Al11  1  0.452768  0.278469  0.250291  1
  Al  Al12  1  0.062779  0.471948  0.002459  1
  Al  Al13  1  0.452768  0.221531  0.750291  1
  Al  Al14  1  0.062779  0.028052  0.502459  1
  Al  Al15  1  0.547232  0.778469  0.250291  1
  Si  Si16  1  0.561686  0.030614  0.375943  1
  Si  Si17  1  0.561686  0.469386  0.875943  1
  Si  Si18  1  0.953731  0.277658  0.627295  1
  Si  Si19  1  0.046269  0.777658  0.627295  1
  Si  Si20  1  0.953731  0.222342  0.127295  1
  Si  Si21  1  0.438314  0.530614  0.375943  1
  Si  Si22  1  0.046269  0.722342  0.127295  1
  Si  Si23  1  0.438314  0.969386  0.875943  1
  O  O24  1  0.126527  0.239083  0.719555  1
  O  O25  1  0.482935  0.818133  0.849660  1
  O  O26  1  0.126527  0.260917  0.219555  1
  O  O27  1  0.621194  0.006428  0.965961  1
  O  O28  1  0.507827  0.059782  0.784386  1
  O  O29  1  0.650405  0.253484  0.651692  1
  O  O30  1  0.993000  0.929008  0.600796  1
  O  O31  1  0.873473  0.760917  0.219555  1
  O  O32  1  0.960552  0.690630  0.536420  1
  O  O33  1  0.507827  0.440218  0.284386  1
  O  O34  1  0.960552  0.809370  0.036420  1
  O  O35  1  0.349595  0.746516  0.151692  1
  O  O36  1  0.859195  0.999654  0.405053  1
  O  O37  1  0.492173  0.940218  0.284386  1
  O  O38  1  0.650405  0.246516  0.151692  1
  O  O39  1  0.492173  0.559782  0.784386  1
  O  O40  1  0.517065  0.181867  0.349660  1
  O  O41  1  0.378806  0.506428  0.965961  1
  O  O42  1  0.873473  0.739083  0.719555  1
  O  O43  1  0.482935  0.681867  0.349660  1
  O  O44  1  0.378806  0.993572  0.465961  1
  O  O45  1  0.140805  0.499654  0.405053  1
  O  O46  1  0.140805  0.000346  0.905053  1
  O  O47  1  0.517065  0.318133  0.849660  1
  O  O48  1  0.621194  0.493572  0.465961  1
  O  O49  1  0.859195  0.500346  0.905053  1
  O  O50  1  0.007000  0.070992  0.100796  1
  O  O51  1  0.039448  0.309370  0.036420  1
  O  O52  1  0.349595  0.753484  0.651692  1
  O  O53  1  0.039448  0.190630  0.536420  1
  O  O54  1  0.993000  0.570992  0.100796  1
  O  O55  1  0.007000  0.429008  0.600796  1
