# generated using pymatgen
data_TlPAuSe3
_symmetry_space_group_name_H-M   'P 1'
_cell_length_a   7.24041840
_cell_length_b   7.24041840
_cell_length_c   8.44251365
_cell_angle_alpha   64.59435168
_cell_angle_beta   115.40564832
_cell_angle_gamma   119.01760128
_symmetry_Int_Tables_number   1
_chemical_formula_structural   TlPAuSe3
_chemical_formula_sum   'Tl2 P2 Au2 Se6'
_cell_volume   335.65065471
_cell_formula_units_Z   2
loop_
 _symmetry_equiv_pos_site_id
 _symmetry_equiv_pos_as_xyz
  1  'x, y, z'
loop_
 _atom_site_type_symbol
 _atom_site_label
 _atom_site_symmetry_multiplicity
 _atom_site_fract_x
 _atom_site_fract_y
 _atom_site_fract_z
 _atom_site_occupancy
  Tl  Tl0  1  0.715033  0.284967  0.769851  1
  Tl  Tl1  1  0.284967  0.715033  0.230149  1
  P  P2  1  0.968232  0.031768  0.347118  1
  P  P3  1  0.031768  0.968232  0.652882  1
  Au  Au4  1  0.761679  0.761679  0.000000  1
  Au  Au5  1  0.238321  0.238321  0.000000  1
  Se  Se6  1  0.232747  0.767253  0.811018  1
  Se  Se7  1  0.190941  0.315276  0.675036  1
  Se  Se8  1  0.767253  0.232747  0.188982  1
  Se  Se9  1  0.809059  0.684724  0.324964  1
  Se  Se10  1  0.684724  0.809059  0.675036  1
  Se  Se11  1  0.315276  0.190941  0.324964  1
