# generated using pymatgen
data_BaNb2O6
_symmetry_space_group_name_H-M   'P 1'
_cell_length_a   7.38814582
_cell_length_b   7.38814582
_cell_length_c   10.49011818
_cell_angle_alpha   90.00000000
_cell_angle_beta   90.00000000
_cell_angle_gamma   114.44322576
_symmetry_Int_Tables_number   1
_chemical_formula_structural   BaNb2O6
_chemical_formula_sum   'Ba4 Nb8 O24'
_cell_volume   521.27880551
_cell_formula_units_Z   4
loop_
 _symmetry_equiv_pos_site_id
 _symmetry_equiv_pos_as_xyz
  1  'x, y, z'
loop_
 _atom_site_type_symbol
 _atom_site_label
 _atom_site_symmetry_multiplicity
 _atom_site_fract_x
 _atom_site_fract_y
 _atom_site_fract_z
 _atom_site_occupancy
  Ba  Ba0  1  0.575631  0.424369  0.750000  1
  Ba  Ba1  1  0.868971  0.131029  0.250000  1
  Ba  Ba2  1  0.424369  0.575631  0.250000  1
  Ba  Ba3  1  0.131029  0.868971  0.750000  1
  Nb  Nb4  1  0.127230  0.413795  0.578198  1
  Nb  Nb5  1  0.586205  0.872770  0.921802  1
  Nb  Nb6  1  0.872770  0.586205  0.078198  1
  Nb  Nb7  1  0.911954  0.635556  0.428328  1
  Nb  Nb8  1  0.413795  0.127230  0.421802  1
  Nb  Nb9  1  0.364444  0.088046  0.071672  1
  Nb  Nb10  1  0.088046  0.364444  0.928328  1
  Nb  Nb11  1  0.635556  0.911954  0.571672  1
  O  O12  1  0.121598  0.880095  0.036409  1
  O  O13  1  0.520386  0.920955  0.390343  1
  O  O14  1  0.880095  0.121598  0.963591  1
  O  O15  1  0.661406  0.344046  0.114331  1
  O  O16  1  0.119905  0.878402  0.463591  1
  O  O17  1  0.344046  0.661406  0.885669  1
  O  O18  1  0.338594  0.655954  0.614331  1
  O  O19  1  0.299474  0.299474  0.500000  1
  O  O20  1  0.865357  0.703413  0.250246  1
  O  O21  1  0.655954  0.338594  0.385669  1
  O  O22  1  0.479614  0.079045  0.890343  1
  O  O23  1  0.308715  0.308715  1.000000  1
  O  O24  1  0.079045  0.479614  0.109657  1
  O  O25  1  0.703413  0.865357  0.749754  1
  O  O26  1  0.920955  0.520386  0.609657  1
  O  O27  1  0.700526  0.700526  1.000000  1
  O  O28  1  0.481940  0.075987  0.607761  1
  O  O29  1  0.518060  0.924013  0.107761  1
  O  O30  1  0.075987  0.481940  0.392239  1
  O  O31  1  0.878402  0.119905  0.536409  1
  O  O32  1  0.296587  0.134643  0.249754  1
  O  O33  1  0.691285  0.691285  0.500000  1
  O  O34  1  0.924013  0.518060  0.892239  1
  O  O35  1  0.134643  0.296587  0.750246  1
