# generated using pymatgen
data_Cs2Li3F5
_symmetry_space_group_name_H-M   'P 1'
_cell_length_a   10.41359119
_cell_length_b   10.41359119
_cell_length_c   4.05038985
_cell_angle_alpha   90.00000000
_cell_angle_beta   90.00000000
_cell_angle_gamma   157.09916625
_symmetry_Int_Tables_number   1
_chemical_formula_structural   Cs2Li3F5
_chemical_formula_sum   'Cs2 Li3 F5'
_cell_volume   170.92311440
_cell_formula_units_Z   1
loop_
 _symmetry_equiv_pos_site_id
 _symmetry_equiv_pos_as_xyz
  1  'x, y, z'
loop_
 _atom_site_type_symbol
 _atom_site_label
 _atom_site_symmetry_multiplicity
 _atom_site_fract_x
 _atom_site_fract_y
 _atom_site_fract_z
 _atom_site_occupancy
  Cs  Cs0  1  0.731717  0.268283  0.000000  1
  Cs  Cs1  1  0.381543  0.618457  0.500000  1
  Li  Li2  1  0.576883  0.423117  0.000000  1
  Li  Li3  1  0.986110  0.013890  0.000000  1
  Li  Li4  1  0.122701  0.877299  0.500000  1
  F  F5  1  0.085188  0.914812  0.000000  1
  F  F6  1  0.890113  0.109887  0.000000  1
  F  F7  1  0.220045  0.779955  0.500000  1
  F  F8  1  0.609393  0.390607  0.500000  1
  F  F9  1  0.487038  0.512962  0.000000  1
