# generated using pymatgen
data_SrCd(PO3)4
_symmetry_space_group_name_H-M   'P 1'
_cell_length_a   7.19902191
_cell_length_b   9.20569128
_cell_length_c   16.54909041
_cell_angle_alpha   90.00000000
_cell_angle_beta   114.69993847
_cell_angle_gamma   90.00000000
_symmetry_Int_Tables_number   1
_chemical_formula_structural   SrCd(PO3)4
_chemical_formula_sum   'Sr4 Cd4 P16 O48'
_cell_volume   996.39854658
_cell_formula_units_Z   4
loop_
 _symmetry_equiv_pos_site_id
 _symmetry_equiv_pos_as_xyz
  1  'x, y, z'
loop_
 _atom_site_type_symbol
 _atom_site_label
 _atom_site_symmetry_multiplicity
 _atom_site_fract_x
 _atom_site_fract_y
 _atom_site_fract_z
 _atom_site_occupancy
  Sr  Sr0  1  0.652109  0.894803  0.636046  1
  Sr  Sr1  1  0.347891  0.394803  0.863954  1
  Sr  Sr2  1  0.347891  0.105197  0.363954  1
  Sr  Sr3  1  0.652109  0.605197  0.136046  1
  Cd  Cd4  1  0.845220  0.258792  0.346147  1
  Cd  Cd5  1  0.154780  0.758792  0.153853  1
  Cd  Cd6  1  0.154780  0.741208  0.653853  1
  Cd  Cd7  1  0.845220  0.241208  0.846147  1
  P  P8  1  0.189592  0.511880  0.324791  1
  P  P9  1  0.810408  0.011880  0.175209  1
  P  P10  1  0.810408  0.488120  0.675209  1
  P  P11  1  0.189592  0.988120  0.824791  1
  P  P12  1  0.222516  0.756918  0.453961  1
  P  P13  1  0.777484  0.256918  0.046039  1
  P  P14  1  0.777484  0.243082  0.546039  1
  P  P15  1  0.222516  0.743082  0.953961  1
  P  P16  1  0.803857  0.839365  0.439016  1
  P  P17  1  0.196143  0.339365  0.060984  1
  P  P18  1  0.196143  0.160635  0.560984  1
  P  P19  1  0.803857  0.660635  0.939016  1
  P  P20  1  0.587271  0.598085  0.320053  1
  P  P21  1  0.412729  0.098085  0.179947  1
  P  P22  1  0.412729  0.401915  0.679947  1
  P  P23  1  0.587271  0.901915  0.820053  1
  O  O24  1  0.063462  0.594276  0.241073  1
  O  O25  1  0.936538  0.094276  0.258927  1
  O  O26  1  0.936538  0.405724  0.758927  1
  O  O27  1  0.063462  0.905724  0.741073  1
  O  O28  1  0.136778  0.356642  0.334189  1
  O  O29  1  0.863222  0.856642  0.165811  1
  O  O30  1  0.863222  0.643358  0.665811  1
  O  O31  1  0.136778  0.143358  0.834189  1
  O  O32  1  0.200658  0.596031  0.412024  1
  O  O33  1  0.799342  0.096031  0.087976  1
  O  O34  1  0.799342  0.403969  0.587976  1
  O  O35  1  0.200658  0.903969  0.912024  1
  O  O36  1  0.347203  0.854988  0.423988  1
  O  O37  1  0.652797  0.354988  0.076012  1
  O  O38  1  0.652797  0.145012  0.576012  1
  O  O39  1  0.347203  0.645012  0.923988  1
  O  O40  1  0.301097  0.734736  0.553104  1
  O  O41  1  0.698903  0.234736  0.946896  1
  O  O42  1  0.698903  0.265264  0.446896  1
  O  O43  1  0.301097  0.765264  0.053104  1
  O  O44  1  0.991718  0.815591  0.410929  1
  O  O45  1  0.008282  0.315591  0.089071  1
  O  O46  1  0.008282  0.184409  0.589071  1
  O  O47  1  0.991718  0.684409  0.910929  1
  O  O48  1  0.694280  0.681279  0.413494  1
  O  O49  1  0.305720  0.181279  0.086506  1
  O  O50  1  0.305720  0.318721  0.586506  1
  O  O51  1  0.694280  0.818721  0.913494  1
  O  O52  1  0.878141  0.849750  0.538944  1
  O  O53  1  0.121859  0.349750  0.961056  1
  O  O54  1  0.121859  0.150250  0.461056  1
  O  O55  1  0.878141  0.650250  0.038944  1
  O  O56  1  0.676284  0.959484  0.383260  1
  O  O57  1  0.323716  0.459484  0.116740  1
  O  O58  1  0.323716  0.040516  0.616740  1
  O  O59  1  0.676284  0.540516  0.883260  1
  O  O60  1  0.736970  0.497381  0.306479  1
  O  O61  1  0.263030  0.997381  0.193521  1
  O  O62  1  0.263030  0.502619  0.693521  1
  O  O63  1  0.736970  0.002619  0.806479  1
  O  O64  1  0.424842  0.503932  0.339623  1
  O  O65  1  0.575158  0.003932  0.160377  1
  O  O66  1  0.575158  0.496068  0.660377  1
  O  O67  1  0.424842  0.996068  0.839623  1
  O  O68  1  0.488970  0.703945  0.244426  1
  O  O69  1  0.511030  0.203945  0.255574  1
  O  O70  1  0.511030  0.296055  0.755574  1
  O  O71  1  0.488970  0.796055  0.744426  1
