# generated using pymatgen
data_Rb2Sb4S7
_symmetry_space_group_name_H-M   'P 1'
_cell_length_a   7.60847267
_cell_length_b   9.84806249
_cell_length_c   11.92028780
_cell_angle_alpha   100.38275939
_cell_angle_beta   87.79996256
_cell_angle_gamma   102.69700214
_symmetry_Int_Tables_number   1
_chemical_formula_structural   Rb2Sb4S7
_chemical_formula_sum   'Rb4 Sb8 S14'
_cell_volume   857.06217415
_cell_formula_units_Z   2
loop_
 _symmetry_equiv_pos_site_id
 _symmetry_equiv_pos_as_xyz
  1  'x, y, z'
loop_
 _atom_site_type_symbol
 _atom_site_label
 _atom_site_symmetry_multiplicity
 _atom_site_fract_x
 _atom_site_fract_y
 _atom_site_fract_z
 _atom_site_occupancy
  Rb  Rb0  1  0.273830  0.340194  0.104095  1
  Rb  Rb1  1  0.420949  0.737367  0.564773  1
  Rb  Rb2  1  0.579051  0.262633  0.435227  1
  Rb  Rb3  1  0.726170  0.659806  0.895905  1
  Sb  Sb4  1  0.031017  0.947985  0.344803  1
  Sb  Sb5  1  0.156780  0.432420  0.809261  1
  Sb  Sb6  1  0.727457  0.136269  0.051668  1
  Sb  Sb7  1  0.496101  0.185132  0.770710  1
  Sb  Sb8  1  0.272543  0.863731  0.948332  1
  Sb  Sb9  1  0.968983  0.052015  0.655197  1
  Sb  Sb10  1  0.843220  0.567580  0.190739  1
  Sb  Sb11  1  0.503899  0.814868  0.229290  1
  S  S12  1  0.811258  0.871557  0.153796  1
  S  S13  1  0.653944  0.324930  0.951561  1
  S  S14  1  0.447830  0.421194  0.711331  1
  S  S15  1  0.232638  0.019983  0.538317  1
  S  S16  1  0.045073  0.698153  0.353377  1
  S  S17  1  0.346056  0.675070  0.048439  1
  S  S18  1  0.441130  0.067467  0.149485  1
  S  S19  1  0.954927  0.301847  0.646623  1
  S  S20  1  0.558870  0.932533  0.850515  1
  S  S21  1  0.869977  0.331520  0.227869  1
  S  S22  1  0.130023  0.668480  0.772131  1
  S  S23  1  0.767362  0.980017  0.461683  1
  S  S24  1  0.552170  0.578806  0.288669  1
  S  S25  1  0.188742  0.128443  0.846204  1
