# generated using pymatgen
data_Na5Fe3F14
_symmetry_space_group_name_H-M   'P 1'
_cell_length_a   7.52872719
_cell_length_b   7.42880821
_cell_length_c   12.87864618
_cell_angle_alpha   90.00000000
_cell_angle_beta   124.77740671
_cell_angle_gamma   90.00000000
_symmetry_Int_Tables_number   1
_chemical_formula_structural   Na5Fe3F14
_chemical_formula_sum   'Na10 Fe6 F28'
_cell_volume   591.63243054
_cell_formula_units_Z   2
loop_
 _symmetry_equiv_pos_site_id
 _symmetry_equiv_pos_as_xyz
  1  'x, y, z'
loop_
 _atom_site_type_symbol
 _atom_site_label
 _atom_site_symmetry_multiplicity
 _atom_site_fract_x
 _atom_site_fract_y
 _atom_site_fract_z
 _atom_site_occupancy
  Na  Na0  1  0.994389  0.698452  0.752520  1
  Na  Na1  1  0.994389  0.801548  0.252520  1
  Na  Na2  1  0.005611  0.301548  0.247480  1
  Na  Na3  1  0.510775  0.254292  0.738348  1
  Na  Na4  1  0.489225  0.754292  0.761652  1
  Na  Na5  1  0.510775  0.245708  0.238348  1
  Na  Na6  1  0.500000  0.000000  0.500000  1
  Na  Na7  1  0.500000  0.500000  0.000000  1
  Na  Na8  1  0.489225  0.745708  0.261652  1
  Na  Na9  1  0.005611  0.198452  0.747480  1
  Fe  Fe10  1  0.000000  0.000000  0.500000  1
  Fe  Fe11  1  0.000000  0.500000  0.500000  1
  Fe  Fe12  1  0.000000  0.500000  0.000000  1
  Fe  Fe13  1  0.500000  0.000000  0.000000  1
  Fe  Fe14  1  0.000000  0.000000  0.000000  1
  Fe  Fe15  1  0.500000  0.500000  0.500000  1
  F  F16  1  0.644125  0.291309  0.609050  1
  F  F17  1  0.749421  0.573455  0.497241  1
  F  F18  1  0.386135  0.337524  0.357168  1
  F  F19  1  0.812490  0.059583  0.824073  1
  F  F20  1  0.644125  0.208691  0.109050  1
  F  F21  1  0.048757  0.436048  0.871726  1
  F  F22  1  0.613865  0.837524  0.142832  1
  F  F23  1  0.048757  0.063952  0.371726  1
  F  F24  1  0.355875  0.791309  0.890950  1
  F  F25  1  0.993350  0.247283  0.053753  1
  F  F26  1  0.951243  0.936047  0.628274  1
  F  F27  1  0.613865  0.662476  0.642832  1
  F  F28  1  0.315345  0.994179  0.618383  1
  F  F29  1  0.684655  0.005821  0.381617  1
  F  F30  1  0.250579  0.073455  0.002759  1
  F  F31  1  0.315345  0.505821  0.118383  1
  F  F32  1  0.187510  0.559583  0.675927  1
  F  F33  1  0.355875  0.708691  0.390950  1
  F  F34  1  0.812490  0.440417  0.324073  1
  F  F35  1  0.250579  0.426545  0.502759  1
  F  F36  1  0.006650  0.752717  0.946247  1
  F  F37  1  0.993350  0.252717  0.553753  1
  F  F38  1  0.684655  0.494179  0.881617  1
  F  F39  1  0.187510  0.940417  0.175927  1
  F  F40  1  0.749421  0.926545  0.997241  1
  F  F41  1  0.386135  0.162476  0.857168  1
  F  F42  1  0.951243  0.563952  0.128274  1
  F  F43  1  0.006650  0.747283  0.446247  1
