# generated using pymatgen
data_Tl4Pd3Cl10
_symmetry_space_group_name_H-M   'P 1'
_cell_length_a   13.66442069
_cell_length_b   13.66442069
_cell_length_c   13.66442069
_cell_angle_alpha   105.95546992
_cell_angle_beta   105.95546992
_cell_angle_gamma   116.75777626
_symmetry_Int_Tables_number   1
_chemical_formula_structural   Tl4Pd3Cl10
_chemical_formula_sum   'Tl16 Pd12 Cl40'
_cell_volume   1939.93450718
_cell_formula_units_Z   4
loop_
 _symmetry_equiv_pos_site_id
 _symmetry_equiv_pos_as_xyz
  1  'x, y, z'
loop_
 _atom_site_type_symbol
 _atom_site_label
 _atom_site_symmetry_multiplicity
 _atom_site_fract_x
 _atom_site_fract_y
 _atom_site_fract_z
 _atom_site_occupancy
  Tl  Tl0  1  0.882749  0.875000  0.507749  1
  Tl  Tl1  1  0.625000  0.117251  0.992251  1
  Tl  Tl2  1  0.108034  0.608034  0.500000  1
  Tl  Tl3  1  0.141966  0.141966  0.000000  1
  Tl  Tl4  1  0.398780  0.595478  0.291868  1
  Tl  Tl5  1  0.356912  0.053610  0.208132  1
  Tl  Tl6  1  0.893088  0.601220  0.196699  1
  Tl  Tl7  1  0.367251  0.375000  0.492251  1
  Tl  Tl8  1  0.858034  0.858034  0.000000  1
  Tl  Tl9  1  0.946390  0.154522  0.303301  1
  Tl  Tl10  1  0.303610  0.106912  0.708132  1
  Tl  Tl11  1  0.845478  0.148780  0.791868  1
  Tl  Tl12  1  0.404522  0.696390  0.803301  1
  Tl  Tl13  1  0.125000  0.632749  0.007749  1
  Tl  Tl14  1  0.851220  0.643088  0.696699  1
  Tl  Tl15  1  0.391966  0.891966  0.500000  1
  Pd  Pd16  1  0.625000  0.773689  0.648689  1
  Pd  Pd17  1  0.226311  0.875000  0.851311  1
  Pd  Pd18  1  0.494634  0.374457  0.092486  1
  Pd  Pd19  1  0.652148  0.031971  0.407514  1
  Pd  Pd20  1  0.023689  0.375000  0.148689  1
  Pd  Pd21  1  0.597852  0.505366  0.879823  1
  Pd  Pd22  1  0.968029  0.375543  0.620177  1
  Pd  Pd23  1  0.755366  0.347852  0.379823  1
  Pd  Pd24  1  0.125000  0.976311  0.351311  1
  Pd  Pd25  1  0.281971  0.402148  0.907514  1
  Pd  Pd26  1  0.624457  0.244634  0.592486  1
  Pd  Pd27  1  0.625543  0.718029  0.120177  1
  Cl  Cl28  1  0.882200  0.375000  0.007200  1
  Cl  Cl29  1  0.112060  0.400827  0.552160  1
  Cl  Cl30  1  0.650827  0.862060  0.052160  1
  Cl  Cl31  1  0.125000  0.834247  0.209247  1
  Cl  Cl32  1  0.594462  0.387080  0.977467  1
  Cl  Cl33  1  0.866995  0.159613  0.522533  1
  Cl  Cl34  1  0.344727  0.893724  0.753681  1
  Cl  Cl35  1  0.165753  0.375000  0.290753  1
  Cl  Cl36  1  0.391134  0.161174  0.995533  1
  Cl  Cl37  1  0.106276  0.859957  0.451003  1
  Cl  Cl38  1  0.383005  0.405538  0.792618  1
  Cl  Cl39  1  0.841046  0.890043  0.746319  1
  Cl  Cl40  1  0.125000  0.117800  0.492800  1
  Cl  Cl41  1  0.401333  0.349173  0.211234  1
  Cl  Cl42  1  0.858866  0.354399  0.270040  1
  Cl  Cl43  1  0.084359  0.588826  0.729960  1
  Cl  Cl44  1  0.637080  0.344462  0.477467  1
  Cl  Cl45  1  0.809900  0.598667  0.947840  1
  Cl  Cl46  1  0.367800  0.875000  0.992800  1
  Cl  Cl47  1  0.140043  0.591046  0.246319  1
  Cl  Cl48  1  0.440100  0.887940  0.288766  1
  Cl  Cl49  1  0.109957  0.856276  0.951003  1
  Cl  Cl50  1  0.840387  0.362920  0.707382  1
  Cl  Cl51  1  0.165641  0.395601  0.004466  1
  Cl  Cl52  1  0.408954  0.655273  0.548997  1
  Cl  Cl53  1  0.838826  0.834359  0.229960  1
  Cl  Cl54  1  0.143724  0.094727  0.253681  1
  Cl  Cl55  1  0.625000  0.915753  0.790753  1
  Cl  Cl56  1  0.905273  0.158954  0.048997  1
  Cl  Cl57  1  0.411174  0.141134  0.495533  1
  Cl  Cl58  1  0.599173  0.151333  0.711234  1
  Cl  Cl59  1  0.604399  0.608866  0.770040  1
  Cl  Cl60  1  0.612920  0.590387  0.207382  1
  Cl  Cl61  1  0.409613  0.616995  0.022533  1
  Cl  Cl62  1  0.084247  0.875000  0.709247  1
  Cl  Cl63  1  0.137940  0.190100  0.788766  1
  Cl  Cl64  1  0.625000  0.632200  0.507200  1
  Cl  Cl65  1  0.645601  0.915641  0.504467  1
  Cl  Cl66  1  0.848667  0.559900  0.447840  1
  Cl  Cl67  1  0.655538  0.133005  0.292618  1
