# generated using pymatgen
data_K2Ba(SO)12
_symmetry_space_group_name_H-M   'P 1'
_cell_length_a   9.38522170
_cell_length_b   11.12570999
_cell_length_c   11.89519219
_cell_angle_alpha   90.00000000
_cell_angle_beta   112.12354857
_cell_angle_gamma   90.00000000
_symmetry_Int_Tables_number   1
_chemical_formula_structural   K2Ba(SO)12
_chemical_formula_sum   'K4 Ba2 S24 O24'
_cell_volume   1150.61506627
_cell_formula_units_Z   2
loop_
 _symmetry_equiv_pos_site_id
 _symmetry_equiv_pos_as_xyz
  1  'x, y, z'
loop_
 _atom_site_type_symbol
 _atom_site_label
 _atom_site_symmetry_multiplicity
 _atom_site_fract_x
 _atom_site_fract_y
 _atom_site_fract_z
 _atom_site_occupancy
  K  K0  1  0.500000  0.000000  0.500000  1
  K  K1  1  0.000000  0.000000  0.500000  1
  K  K2  1  0.250000  0.551839  0.000000  1
  K  K3  1  0.750000  0.448161  0.000000  1
  Ba  Ba4  1  0.250000  0.986830  0.000000  1
  Ba  Ba5  1  0.750000  0.013170  0.000000  1
  S  S6  1  0.044388  0.726444  0.136879  1
  S  S7  1  0.455612  0.726444  0.863121  1
  S  S8  1  0.955612  0.273556  0.863121  1
  S  S9  1  0.544388  0.273556  0.136879  1
  S  S10  1  0.167405  0.715007  0.332160  1
  S  S11  1  0.332595  0.715007  0.667840  1
  S  S12  1  0.832595  0.284993  0.667840  1
  S  S13  1  0.667405  0.284993  0.332160  1
  S  S14  1  0.325045  0.583748  0.347871  1
  S  S15  1  0.174955  0.583748  0.652129  1
  S  S16  1  0.674955  0.416252  0.652129  1
  S  S17  1  0.825045  0.416252  0.347871  1
  S  S18  1  0.546741  0.652487  0.397490  1
  S  S19  1  0.953259  0.652487  0.602510  1
  S  S20  1  0.453259  0.347513  0.602510  1
  S  S21  1  0.046741  0.347513  0.397490  1
  S  S22  1  0.593764  0.698028  0.249067  1
  S  S23  1  0.906236  0.698028  0.750933  1
  S  S24  1  0.406236  0.301972  0.750933  1
  S  S25  1  0.093764  0.301972  0.249067  1
  S  S26  1  0.577659  0.891967  0.251571  1
  S  S27  1  0.922341  0.891967  0.748429  1
  S  S28  1  0.422341  0.108033  0.748429  1
  S  S29  1  0.077659  0.108033  0.251571  1
  O  O30  1  0.993090  0.603523  0.098061  1
  O  O31  1  0.506910  0.603523  0.901939  1
  O  O32  1  0.006910  0.396477  0.901939  1
  O  O33  1  0.493090  0.396477  0.098061  1
  O  O34  1  0.922473  0.811257  0.130993  1
  O  O35  1  0.577527  0.811257  0.869007  1
  O  O36  1  0.077527  0.188743  0.869007  1
  O  O37  1  0.422473  0.188743  0.130993  1
  O  O38  1  0.153319  0.770221  0.083909  1
  O  O39  1  0.346681  0.770221  0.916091  1
  O  O40  1  0.846681  0.229779  0.916091  1
  O  O41  1  0.653319  0.229779  0.083909  1
  O  O42  1  0.705939  0.933019  0.358733  1
  O  O43  1  0.794061  0.933019  0.641267  1
  O  O44  1  0.294061  0.066981  0.641267  1
  O  O45  1  0.205939  0.066981  0.358733  1
  O  O46  1  0.586419  0.923280  0.133616  1
  O  O47  1  0.913581  0.923280  0.866384  1
  O  O48  1  0.413581  0.076720  0.866384  1
  O  O49  1  0.086419  0.076720  0.133616  1
  O  O50  1  0.426831  0.921712  0.254982  1
  O  O51  1  0.073169  0.921712  0.745018  1
  O  O52  1  0.573169  0.078288  0.745018  1
  O  O53  1  0.926831  0.078288  0.254982  1
