# generated using pymatgen
data_SiH17S3N5
_symmetry_space_group_name_H-M   'P 1'
_cell_length_a   6.43318702
_cell_length_b   6.56491802
_cell_length_c   13.14081582
_cell_angle_alpha   96.51153321
_cell_angle_beta   92.39494270
_cell_angle_gamma   95.17420891
_symmetry_Int_Tables_number   1
_chemical_formula_structural   SiH17S3N5
_chemical_formula_sum   'Si2 H34 S6 N10'
_cell_volume   548.39430741
_cell_formula_units_Z   2
loop_
 _symmetry_equiv_pos_site_id
 _symmetry_equiv_pos_as_xyz
  1  'x, y, z'
loop_
 _atom_site_type_symbol
 _atom_site_label
 _atom_site_symmetry_multiplicity
 _atom_site_fract_x
 _atom_site_fract_y
 _atom_site_fract_z
 _atom_site_occupancy
  Si  Si0  1  0.114349  0.684444  0.193285  1
  Si  Si1  1  0.885651  0.315556  0.806715  1
  H  H2  1  0.711094  0.828142  0.303687  1
  H  H3  1  0.768665  0.538666  0.959317  1
  H  H4  1  0.288906  0.171858  0.696313  1
  H  H5  1  0.894830  0.040932  0.128347  1
  H  H6  1  0.575063  0.473256  0.867881  1
  H  H7  1  0.223151  0.734642  0.874682  1
  H  H8  1  0.372843  0.964646  0.871274  1
  H  H9  1  0.627157  0.035354  0.128726  1
  H  H10  1  0.231335  0.461334  0.040683  1
  H  H11  1  0.293606  0.133551  0.564662  1
  H  H12  1  0.642348  0.060696  0.361911  1
  H  H13  1  0.839148  0.968517  0.604065  1
  H  H14  1  0.480351  0.833049  0.357425  1
  H  H15  1  0.105170  0.959068  0.871653  1
  H  H16  1  0.775650  0.424051  0.344132  1
  H  H17  1  0.671718  0.388285  0.453013  1
  H  H18  1  0.243593  0.917883  0.978598  1
  H  H19  1  0.813162  0.713237  0.594273  1
  H  H20  1  0.160852  0.031483  0.395935  1
  H  H21  1  0.186838  0.286763  0.405727  1
  H  H22  1  0.357652  0.939304  0.638089  1
  H  H23  1  0.224350  0.575949  0.655868  1
  H  H24  1  0.012344  0.169778  0.470590  1
  H  H25  1  0.756407  0.082117  0.021402  1
  H  H26  1  0.238878  0.340155  0.146271  1
  H  H27  1  0.328282  0.611715  0.546987  1
  H  H28  1  0.761122  0.659845  0.853729  1
  H  H29  1  0.424937  0.526744  0.132119  1
  H  H30  1  0.706394  0.866449  0.435338  1
  H  H31  1  0.480277  0.601430  0.649123  1
  H  H32  1  0.776849  0.265358  0.125318  1
  H  H33  1  0.519723  0.398570  0.350877  1
  H  H34  1  0.987656  0.830222  0.529410  1
  H  H35  1  0.519649  0.166951  0.642575  1
  S  S36  1  0.802158  0.604338  0.137654  1
  S  S37  1  0.173253  0.641166  0.345674  1
  S  S38  1  0.752402  0.036639  0.852219  1
  S  S39  1  0.197842  0.395662  0.862346  1
  S  S40  1  0.247598  0.963361  0.147781  1
  S  S41  1  0.826747  0.358834  0.654326  1
  N  N42  1  0.266381  0.482592  0.120011  1
  N  N43  1  0.161044  0.163116  0.446583  1
  N  N44  1  0.237359  0.894763  0.897553  1
  N  N45  1  0.345029  0.656604  0.624405  1
  N  N46  1  0.364071  0.101489  0.635801  1
  N  N47  1  0.762641  0.105237  0.102447  1
  N  N48  1  0.654971  0.343396  0.375595  1
  N  N49  1  0.733619  0.517408  0.879989  1
  N  N50  1  0.635929  0.898511  0.364199  1
  N  N51  1  0.838956  0.836884  0.553417  1
