# generated using pymatgen
data_Cs3SrCu2C7(SN)7
_symmetry_space_group_name_H-M   'P 1'
_cell_length_a   12.76589419
_cell_length_b   12.76589419
_cell_length_c   12.76589419
_cell_angle_alpha   128.99318979
_cell_angle_beta   128.99318979
_cell_angle_gamma   75.02153191
_symmetry_Int_Tables_number   1
_chemical_formula_structural   Cs3SrCu2C7(SN)7
_chemical_formula_sum   'Cs6 Sr2 Cu4 C14 S14 N14'
_cell_volume   1223.75549264
_cell_formula_units_Z   2
loop_
 _symmetry_equiv_pos_site_id
 _symmetry_equiv_pos_as_xyz
  1  'x, y, z'
loop_
 _atom_site_type_symbol
 _atom_site_label
 _atom_site_symmetry_multiplicity
 _atom_site_fract_x
 _atom_site_fract_y
 _atom_site_fract_z
 _atom_site_occupancy
  Cs  Cs0  1  0.437143  0.437143  0.475444  1
  Cs  Cs1  1  0.961699  0.961699  0.524556  1
  Cs  Cs2  1  0.000000  0.500000  0.500000  1
  Cs  Cs3  1  0.038301  0.562857  1.000000  1
  Cs  Cs4  1  0.500000  1.000000  0.500000  1
  Cs  Cs5  1  0.562857  0.038301  0.000000  1
  Sr  Sr6  1  0.403960  0.403960  0.000000  1
  Sr  Sr7  1  0.596040  0.596040  0.000000  1
  Cu  Cu8  1  0.951456  0.246623  1.000000  1
  Cu  Cu9  1  0.753377  0.753377  0.704833  1
  Cu  Cu10  1  0.246623  0.951456  0.000000  1
  Cu  Cu11  1  0.048544  0.048544  0.295167  1
  C  C12  1  0.039069  0.278394  0.609178  1
  C  C13  1  0.793343  0.793343  0.000000  1
  C  C14  1  0.705958  0.285844  0.000000  1
  C  C15  1  0.960931  0.570109  0.239325  1
  C  C16  1  0.429891  0.669216  0.390822  1
  C  C17  1  0.330784  0.721606  0.760675  1
  C  C18  1  0.294042  0.294042  0.579887  1
  C  C19  1  0.278394  0.039069  0.609178  1
  C  C20  1  0.285844  0.705958  0.000000  1
  C  C21  1  0.669216  0.429891  0.390822  1
  C  C22  1  0.206657  0.206657  0.000000  1
  C  C23  1  0.721606  0.330784  0.760675  1
  C  C24  1  0.570109  0.960931  0.239325  1
  C  C25  1  0.714156  0.714156  0.420113  1
  S  S26  1  0.077922  0.477177  0.248784  1
  S  S27  1  0.477177  0.077922  0.248784  1
  S  S28  1  0.803483  0.172401  1.000000  1
  S  S29  1  0.829138  0.228393  0.751216  1
  S  S30  1  0.875423  0.875423  0.000000  1
  S  S31  1  0.196517  0.196517  0.368918  1
  S  S32  1  0.771607  0.522823  0.600745  1
  S  S33  1  0.170862  0.922078  0.399255  1
  S  S34  1  0.228393  0.829138  0.751216  1
  S  S35  1  0.922078  0.170862  0.399255  1
  S  S36  1  0.124577  0.124577  0.000000  1
  S  S37  1  0.172401  0.803483  1.000000  1
  S  S38  1  0.522823  0.771607  0.600745  1
  S  S39  1  0.827599  0.827599  0.631082  1
  N  N40  1  0.366674  0.366674  0.732005  1
  N  N41  1  0.634670  0.634670  0.267995  1
  N  N42  1  0.734987  0.734987  0.000000  1
  N  N43  1  0.356658  0.124023  0.761048  1
  N  N44  1  0.875977  0.637025  0.232635  1
  N  N45  1  0.633326  0.365330  0.000000  1
  N  N46  1  0.124023  0.356658  0.761048  1
  N  N47  1  0.637025  0.875977  0.232635  1
  N  N48  1  0.362975  0.595610  0.238952  1
  N  N49  1  0.365330  0.633326  0.000000  1
  N  N50  1  0.404390  0.643342  0.767365  1
  N  N51  1  0.265013  0.265013  0.000000  1
  N  N52  1  0.643342  0.404390  0.767365  1
  N  N53  1  0.595610  0.362975  0.238952  1
