# generated using pymatgen
data_NaH9O5
_symmetry_space_group_name_H-M   'P 1'
_cell_length_a   6.35649659
_cell_length_b   6.38295247
_cell_length_c   13.04190332
_cell_angle_alpha   90.00000000
_cell_angle_beta   90.00000000
_cell_angle_gamma   90.00000000
_symmetry_Int_Tables_number   1
_chemical_formula_structural   NaH9O5
_chemical_formula_sum   'Na4 H36 O20'
_cell_volume   529.15195536
_cell_formula_units_Z   4
loop_
 _symmetry_equiv_pos_site_id
 _symmetry_equiv_pos_as_xyz
  1  'x, y, z'
loop_
 _atom_site_type_symbol
 _atom_site_label
 _atom_site_symmetry_multiplicity
 _atom_site_fract_x
 _atom_site_fract_y
 _atom_site_fract_z
 _atom_site_occupancy
  Na  Na0  1  0.007922  0.249576  0.249081  1
  Na  Na1  1  0.992078  0.749576  0.250919  1
  Na  Na2  1  0.507922  0.250424  0.750919  1
  Na  Na3  1  0.492078  0.750424  0.749081  1
  H  H4  1  0.426018  0.332824  0.047690  1
  H  H5  1  0.573982  0.832824  0.452310  1
  H  H6  1  0.926018  0.167176  0.952310  1
  H  H7  1  0.073982  0.667176  0.547690  1
  H  H8  1  0.925409  0.513416  0.065810  1
  H  H9  1  0.074591  0.013416  0.434190  1
  H  H10  1  0.425409  0.986584  0.934190  1
  H  H11  1  0.574591  0.486584  0.565810  1
  H  H12  1  0.694542  0.481816  0.105583  1
  H  H13  1  0.305458  0.981816  0.394417  1
  H  H14  1  0.194542  0.018184  0.894417  1
  H  H15  1  0.805458  0.518184  0.605583  1
  H  H16  1  0.356059  0.507686  0.173555  1
  H  H17  1  0.643941  0.007686  0.326445  1
  H  H18  1  0.856059  0.992314  0.826445  1
  H  H19  1  0.143941  0.492314  0.673555  1
  H  H20  1  0.369886  0.493623  0.298399  1
  H  H21  1  0.630114  0.993623  0.201601  1
  H  H22  1  0.869886  0.006377  0.701601  1
  H  H23  1  0.130114  0.506377  0.798399  1
  H  H24  1  0.937329  0.501531  0.439035  1
  H  H25  1  0.062671  0.001531  0.060965  1
  H  H26  1  0.437329  0.998469  0.560965  1
  H  H27  1  0.562671  0.498469  0.939035  1
  H  H28  1  0.710977  0.479415  0.389546  1
  H  H29  1  0.289023  0.979415  0.110454  1
  H  H30  1  0.210977  0.020585  0.610454  1
  H  H31  1  0.789023  0.520585  0.889546  1
  H  H32  1  0.443219  0.274282  0.449564  1
  H  H33  1  0.556781  0.774282  0.050436  1
  H  H34  1  0.943219  0.225718  0.550436  1
  H  H35  1  0.056781  0.725718  0.949564  1
  H  H36  1  0.283921  0.457173  0.485298  1
  H  H37  1  0.716079  0.957173  0.014702  1
  H  H38  1  0.783921  0.042827  0.514702  1
  H  H39  1  0.216079  0.542827  0.985298  1
  O  O40  1  0.433860  0.485501  0.047632  1
  O  O41  1  0.566140  0.985501  0.452368  1
  O  O42  1  0.933860  0.014499  0.952368  1
  O  O43  1  0.066140  0.514499  0.547632  1
  O  O44  1  0.843244  0.489466  0.129260  1
  O  O45  1  0.156756  0.989466  0.370740  1
  O  O46  1  0.343244  0.010534  0.870740  1
  O  O47  1  0.656756  0.510534  0.629260  1
  O  O48  1  0.275593  0.512263  0.239785  1
  O  O49  1  0.724407  0.012263  0.260215  1
  O  O50  1  0.775593  0.987737  0.760215  1
  O  O51  1  0.224407  0.487737  0.739785  1
  O  O52  1  0.859194  0.496075  0.371261  1
  O  O53  1  0.140806  0.996075  0.128739  1
  O  O54  1  0.359194  0.003925  0.628739  1
  O  O55  1  0.640806  0.503925  0.871261  1
  O  O56  1  0.426003  0.427377  0.450355  1
  O  O57  1  0.573997  0.927377  0.049645  1
  O  O58  1  0.926003  0.072623  0.549645  1
  O  O59  1  0.073997  0.572623  0.950355  1
