# generated using pymatgen
data_La3U(ClO2)3
_symmetry_space_group_name_H-M   'P 1'
_cell_length_a   9.60504114
_cell_length_b   9.60504114
_cell_length_c   5.65228665
_cell_angle_alpha   90.00000000
_cell_angle_beta   90.00000000
_cell_angle_gamma   120.00000000
_symmetry_Int_Tables_number   1
_chemical_formula_structural   La3U(ClO2)3
_chemical_formula_sum   'La6 U2 Cl6 O12'
_cell_volume   451.59930941
_cell_formula_units_Z   2
loop_
 _symmetry_equiv_pos_site_id
 _symmetry_equiv_pos_as_xyz
  1  'x, y, z'
loop_
 _atom_site_type_symbol
 _atom_site_label
 _atom_site_symmetry_multiplicity
 _atom_site_fract_x
 _atom_site_fract_y
 _atom_site_fract_z
 _atom_site_occupancy
  La  La0  1  0.089291  0.683867  0.750000  1
  La  La1  1  0.316133  0.405425  0.750000  1
  La  La2  1  0.683867  0.594575  0.250000  1
  La  La3  1  0.405425  0.089291  0.250000  1
  La  La4  1  0.910709  0.316133  0.250000  1
  La  La5  1  0.594575  0.910709  0.750000  1
  U  U6  1  0.666667  0.333333  0.750000  1
  U  U7  1  0.333333  0.666667  0.250000  1
  Cl  Cl8  1  0.808742  0.750566  0.750000  1
  Cl  Cl9  1  0.249434  0.058176  0.750000  1
  Cl  Cl10  1  0.941824  0.191258  0.750000  1
  Cl  Cl11  1  0.191258  0.249434  0.250000  1
  Cl  Cl12  1  0.750566  0.941824  0.250000  1
  Cl  Cl13  1  0.058176  0.808742  0.250000  1
  O  O14  1  0.152621  0.519206  0.009069  1
  O  O15  1  0.480794  0.633415  0.009069  1
  O  O16  1  0.366585  0.847379  0.490931  1
  O  O17  1  0.519206  0.366585  0.509069  1
  O  O18  1  0.633415  0.152621  0.509069  1
  O  O19  1  0.480794  0.633415  0.490931  1
  O  O20  1  0.847379  0.480794  0.990931  1
  O  O21  1  0.152621  0.519206  0.490931  1
  O  O22  1  0.847379  0.480794  0.509069  1
  O  O23  1  0.366585  0.847379  0.009069  1
  O  O24  1  0.519206  0.366585  0.990931  1
  O  O25  1  0.633415  0.152621  0.990931  1
