# generated using pymatgen
data_Nd3BWO9
_symmetry_space_group_name_H-M   'P 1'
_cell_length_a   8.79891804
_cell_length_b   8.79891804
_cell_length_c   5.59337370
_cell_angle_alpha   90.00000000
_cell_angle_beta   90.00000000
_cell_angle_gamma   120.00000000
_symmetry_Int_Tables_number   1
_chemical_formula_structural   Nd3BWO9
_chemical_formula_sum   'Nd6 B2 W2 O18'
_cell_volume   375.02741117
_cell_formula_units_Z   2
loop_
 _symmetry_equiv_pos_site_id
 _symmetry_equiv_pos_as_xyz
  1  'x, y, z'
loop_
 _atom_site_type_symbol
 _atom_site_label
 _atom_site_symmetry_multiplicity
 _atom_site_fract_x
 _atom_site_fract_y
 _atom_site_fract_z
 _atom_site_occupancy
  Nd  Nd0  1  0.724137  0.643704  0.203583  1
  Nd  Nd1  1  0.080433  0.724137  0.703583  1
  Nd  Nd2  1  0.356296  0.080433  0.203583  1
  Nd  Nd3  1  0.919567  0.275863  0.203583  1
  Nd  Nd4  1  0.643704  0.919567  0.703583  1
  Nd  Nd5  1  0.275863  0.356296  0.703583  1
  B  B6  1  0.000000  0.000000  0.368851  1
  B  B7  1  0.000000  0.000000  0.868851  1
  W  W8  1  0.666667  0.333333  0.747113  1
  W  W9  1  0.333333  0.666667  0.247113  1
  O  O10  1  0.175549  0.048061  0.860620  1
  O  O11  1  0.793963  0.533745  0.544464  1
  O  O12  1  0.127487  0.175549  0.360620  1
  O  O13  1  0.739783  0.206037  0.544464  1
  O  O14  1  0.135224  0.519782  0.470778  1
  O  O15  1  0.615442  0.135224  0.970778  1
  O  O16  1  0.260217  0.793963  0.044464  1
  O  O17  1  0.951939  0.127487  0.860620  1
  O  O18  1  0.206037  0.466255  0.044464  1
  O  O19  1  0.864776  0.480218  0.970778  1
  O  O20  1  0.872513  0.824451  0.860620  1
  O  O21  1  0.533745  0.739783  0.044464  1
  O  O22  1  0.519782  0.384558  0.970778  1
  O  O23  1  0.384558  0.864776  0.470778  1
  O  O24  1  0.048061  0.872513  0.360620  1
  O  O25  1  0.480218  0.615442  0.470778  1
  O  O26  1  0.466255  0.260217  0.544464  1
  O  O27  1  0.824451  0.951939  0.360620  1
