# generated using pymatgen
data_Rb2LiNbS4
_symmetry_space_group_name_H-M   'P 1'
_cell_length_a   7.18801642
_cell_length_b   11.56855397
_cell_length_c   12.07045825
_cell_angle_alpha   71.52782887
_cell_angle_beta   87.68498994
_cell_angle_gamma   83.71963224
_symmetry_Int_Tables_number   1
_chemical_formula_structural   Rb2LiNbS4
_chemical_formula_sum   'Rb8 Li4 Nb4 S16'
_cell_volume   946.27354814
_cell_formula_units_Z   4
loop_
 _symmetry_equiv_pos_site_id
 _symmetry_equiv_pos_as_xyz
  1  'x, y, z'
loop_
 _atom_site_type_symbol
 _atom_site_label
 _atom_site_symmetry_multiplicity
 _atom_site_fract_x
 _atom_site_fract_y
 _atom_site_fract_z
 _atom_site_occupancy
  Rb  Rb0  1  0.263884  0.376079  0.276688  1
  Rb  Rb1  1  0.736116  0.623921  0.723312  1
  Rb  Rb2  1  0.752075  0.154610  0.857280  1
  Rb  Rb3  1  0.751480  0.650377  0.349189  1
  Rb  Rb4  1  0.247925  0.845390  0.142720  1
  Rb  Rb5  1  0.684380  0.097280  0.249615  1
  Rb  Rb6  1  0.315620  0.902720  0.750385  1
  Rb  Rb7  1  0.248520  0.349623  0.650811  1
  Li  Li8  1  0.176784  0.011303  0.415298  1
  Li  Li9  1  0.778210  0.478188  0.070939  1
  Li  Li10  1  0.823216  0.988697  0.584702  1
  Li  Li11  1  0.221790  0.521812  0.929061  1
  Nb  Nb12  1  0.217760  0.230829  0.014359  1
  Nb  Nb13  1  0.782240  0.769171  0.985641  1
  Nb  Nb14  1  0.775685  0.272614  0.485585  1
  Nb  Nb15  1  0.224315  0.727386  0.514415  1
  S  S16  1  0.761967  0.378788  0.289692  1
  S  S17  1  0.252730  0.599730  0.402931  1
  S  S18  1  0.747270  0.400270  0.597069  1
  S  S19  1  0.947130  0.853457  0.467743  1
  S  S20  1  0.238033  0.621212  0.710308  1
  S  S21  1  0.545526  0.143753  0.531428  1
  S  S22  1  0.031947  0.626315  0.059690  1
  S  S23  1  0.732150  0.894638  0.099054  1
  S  S24  1  0.531965  0.659927  0.994217  1
  S  S25  1  0.968053  0.373685  0.940310  1
  S  S26  1  0.052870  0.146543  0.532257  1
  S  S27  1  0.170845  0.117522  0.205328  1
  S  S28  1  0.454474  0.856247  0.468572  1
  S  S29  1  0.267850  0.105362  0.900946  1
  S  S30  1  0.468035  0.340073  0.005783  1
  S  S31  1  0.829155  0.882478  0.794672  1
