# generated using pymatgen
data_Sm4Mg3Co2
_symmetry_space_group_name_H-M   'P 1'
_cell_length_a   7.57186577
_cell_length_b   3.80129161
_cell_length_c   8.26635517
_cell_angle_alpha   90.00000000
_cell_angle_beta   109.82666649
_cell_angle_gamma   90.00000000
_symmetry_Int_Tables_number   1
_chemical_formula_structural   Sm4Mg3Co2
_chemical_formula_sum   'Sm4 Mg3 Co2'
_cell_volume   223.82568530
_cell_formula_units_Z   1
loop_
 _symmetry_equiv_pos_site_id
 _symmetry_equiv_pos_as_xyz
  1  'x, y, z'
loop_
 _atom_site_type_symbol
 _atom_site_label
 _atom_site_symmetry_multiplicity
 _atom_site_fract_x
 _atom_site_fract_y
 _atom_site_fract_z
 _atom_site_occupancy
  Sm  Sm0  1  0.602439  0.500000  0.818759  1
  Sm  Sm1  1  0.096492  0.500000  0.725569  1
  Sm  Sm2  1  0.397561  0.500000  0.181241  1
  Sm  Sm3  1  0.903508  0.500000  0.274431  1
  Mg  Mg4  1  0.707595  0.000000  0.498388  1
  Mg  Mg5  1  0.000000  0.000000  0.000000  1
  Mg  Mg6  1  0.292405  0.000000  0.501612  1
  Co  Co7  1  0.648361  0.000000  0.105846  1
  Co  Co8  1  0.351639  0.000000  0.894154  1
