# generated using pymatgen
data_K2Zn(Si2O5)2
_symmetry_space_group_name_H-M   'P 1'
_cell_length_a   7.17369200
_cell_length_b   10.20582200
_cell_length_c   14.25641800
_cell_angle_alpha   90.00000000
_cell_angle_beta   90.00000000
_cell_angle_gamma   90.00000000
_symmetry_Int_Tables_number   1
_chemical_formula_structural   K2Zn(Si2O5)2
_chemical_formula_sum   'K8 Zn4 Si16 O40'
_cell_volume   1043.76117055
_cell_formula_units_Z   4
loop_
 _symmetry_equiv_pos_site_id
 _symmetry_equiv_pos_as_xyz
  1  'x, y, z'
loop_
 _atom_site_type_symbol
 _atom_site_label
 _atom_site_symmetry_multiplicity
 _atom_site_fract_x
 _atom_site_fract_y
 _atom_site_fract_z
 _atom_site_occupancy
  K  K0  1  0.231326  0.401135  0.119285  1
  K  K1  1  0.731326  0.098865  0.880715  1
  K  K2  1  0.268674  0.598865  0.619285  1
  K  K3  1  0.768674  0.901135  0.380715  1
  K  K4  1  0.988777  0.675232  0.900612  1
  K  K5  1  0.488777  0.824768  0.099388  1
  K  K6  1  0.011223  0.175232  0.599388  1
  K  K7  1  0.511223  0.324768  0.400612  1
  Zn  Zn8  1  0.481650  0.806403  0.853468  1
  Zn  Zn9  1  0.018350  0.193597  0.353468  1
  Zn  Zn10  1  0.518350  0.306403  0.646532  1
  Zn  Zn11  1  0.981650  0.693597  0.146532  1
  Si  Si12  1  0.266173  0.940044  0.400871  1
  Si  Si13  1  0.766173  0.559956  0.599129  1
  Si  Si14  1  0.236315  0.344788  0.820800  1
  Si  Si15  1  0.531457  0.518285  0.921064  1
  Si  Si16  1  0.173683  0.902987  0.726842  1
  Si  Si17  1  0.468543  0.018285  0.578936  1
  Si  Si18  1  0.826317  0.402987  0.773158  1
  Si  Si19  1  0.673683  0.597013  0.273158  1
  Si  Si20  1  0.263685  0.655212  0.320800  1
  Si  Si21  1  0.031457  0.981715  0.078936  1
  Si  Si22  1  0.736315  0.155212  0.179200  1
  Si  Si23  1  0.326317  0.097013  0.226842  1
  Si  Si24  1  0.763685  0.844788  0.679200  1
  Si  Si25  1  0.968543  0.481715  0.421064  1
  Si  Si26  1  0.233827  0.059956  0.900871  1
  Si  Si27  1  0.733827  0.440044  0.099129  1
  O  O28  1  0.920544  0.574154  0.513386  1
  O  O29  1  0.806889  0.508027  0.341772  1
  O  O30  1  0.107384  0.004890  0.811043  1
  O  O31  1  0.509679  0.134866  0.163157  1
  O  O32  1  0.716121  0.847416  0.789050  1
  O  O33  1  0.022316  0.829386  0.051865  1
  O  O34  1  0.283879  0.347416  0.710950  1
  O  O35  1  0.229447  0.227551  0.266825  1
  O  O36  1  0.198135  0.790161  0.375289  1
  O  O37  1  0.892616  0.504890  0.688957  1
  O  O38  1  0.671222  0.966431  0.618307  1
  O  O39  1  0.079456  0.074154  0.986614  1
  O  O40  1  0.490321  0.634866  0.336843  1
  O  O41  1  0.828778  0.033569  0.118307  1
  O  O42  1  0.590520  0.468537  0.574800  1
  O  O43  1  0.977684  0.329386  0.448135  1
  O  O44  1  0.392616  0.995110  0.311043  1
  O  O45  1  0.801865  0.290161  0.124711  1
  O  O46  1  0.270553  0.772449  0.766825  1
  O  O47  1  0.698135  0.709839  0.624711  1
  O  O48  1  0.909480  0.531463  0.074800  1
  O  O49  1  0.607384  0.495110  0.188957  1
  O  O50  1  0.009679  0.365134  0.836843  1
  O  O51  1  0.693111  0.491973  0.841772  1
  O  O52  1  0.216121  0.652584  0.210950  1
  O  O53  1  0.193111  0.008027  0.158228  1
  O  O54  1  0.579456  0.425846  0.013386  1
  O  O55  1  0.409480  0.968537  0.925200  1
  O  O56  1  0.306889  0.991973  0.658228  1
  O  O57  1  0.477684  0.170614  0.551865  1
  O  O58  1  0.090520  0.031463  0.425200  1
  O  O59  1  0.301865  0.209839  0.875289  1
  O  O60  1  0.522316  0.670614  0.948135  1
  O  O61  1  0.990321  0.865134  0.663157  1
  O  O62  1  0.171222  0.533569  0.381693  1
  O  O63  1  0.770553  0.727551  0.233175  1
  O  O64  1  0.783879  0.152584  0.289050  1
  O  O65  1  0.729447  0.272449  0.733175  1
  O  O66  1  0.328778  0.466431  0.881693  1
  O  O67  1  0.420544  0.925846  0.486614  1
