# generated using pymatgen
data_RbMnCl3
_symmetry_space_group_name_H-M   'P 1'
_cell_length_a   7.23357232
_cell_length_b   7.23357232
_cell_length_c   17.97433510
_cell_angle_alpha   90.00000000
_cell_angle_beta   90.00000000
_cell_angle_gamma   120.00000000
_symmetry_Int_Tables_number   1
_chemical_formula_structural   RbMnCl3
_chemical_formula_sum   'Rb6 Mn6 Cl18'
_cell_volume   814.49631137
_cell_formula_units_Z   6
loop_
 _symmetry_equiv_pos_site_id
 _symmetry_equiv_pos_as_xyz
  1  'x, y, z'
loop_
 _atom_site_type_symbol
 _atom_site_label
 _atom_site_symmetry_multiplicity
 _atom_site_fract_x
 _atom_site_fract_y
 _atom_site_fract_z
 _atom_site_occupancy
  Rb  Rb0  1  0.000000  0.000000  0.250000  1
  Rb  Rb1  1  0.333333  0.666667  0.416683  1
  Rb  Rb2  1  0.666667  0.333333  0.583317  1
  Rb  Rb3  1  0.000000  0.000000  0.750000  1
  Rb  Rb4  1  0.666667  0.333333  0.916683  1
  Rb  Rb5  1  0.333333  0.666667  0.083317  1
  Mn  Mn6  1  0.333333  0.666667  0.661352  1
  Mn  Mn7  1  0.666667  0.333333  0.161352  1
  Mn  Mn8  1  0.333333  0.666667  0.838648  1
  Mn  Mn9  1  0.000000  0.000000  0.000000  1
  Mn  Mn10  1  0.666667  0.333333  0.338648  1
  Mn  Mn11  1  0.000000  0.000000  0.500000  1
  Cl  Cl12  1  0.165526  0.834474  0.917800  1
  Cl  Cl13  1  0.165526  0.331052  0.582200  1
  Cl  Cl14  1  0.834474  0.165526  0.082200  1
  Cl  Cl15  1  0.016619  0.508309  0.750000  1
  Cl  Cl16  1  0.668948  0.834474  0.582200  1
  Cl  Cl17  1  0.508309  0.491691  0.250000  1
  Cl  Cl18  1  0.834474  0.668948  0.417800  1
  Cl  Cl19  1  0.331052  0.165526  0.082200  1
  Cl  Cl20  1  0.331052  0.165526  0.417800  1
  Cl  Cl21  1  0.983381  0.491691  0.250000  1
  Cl  Cl22  1  0.491691  0.983381  0.750000  1
  Cl  Cl23  1  0.834474  0.668948  0.082200  1
  Cl  Cl24  1  0.834474  0.165526  0.417800  1
  Cl  Cl25  1  0.668948  0.834474  0.917800  1
  Cl  Cl26  1  0.491691  0.508309  0.750000  1
  Cl  Cl27  1  0.165526  0.331052  0.917800  1
  Cl  Cl28  1  0.165526  0.834474  0.582200  1
  Cl  Cl29  1  0.508309  0.016619  0.250000  1
