# generated using pymatgen
data_Li2ZnSi
_symmetry_space_group_name_H-M   'P 1'
_cell_length_a   4.23328932
_cell_length_b   4.23328932
_cell_length_c   16.27783585
_cell_angle_alpha   90.00000000
_cell_angle_beta   90.00000000
_cell_angle_gamma   120.00000000
_symmetry_Int_Tables_number   1
_chemical_formula_structural   Li2ZnSi
_chemical_formula_sum   'Li8 Zn4 Si4'
_cell_volume   252.62899672
_cell_formula_units_Z   4
loop_
 _symmetry_equiv_pos_site_id
 _symmetry_equiv_pos_as_xyz
  1  'x, y, z'
loop_
 _atom_site_type_symbol
 _atom_site_label
 _atom_site_symmetry_multiplicity
 _atom_site_fract_x
 _atom_site_fract_y
 _atom_site_fract_z
 _atom_site_occupancy
  Li  Li0  1  0.666667  0.333333  0.791072  1
  Li  Li1  1  0.333333  0.666667  0.208928  1
  Li  Li2  1  0.666667  0.333333  0.459247  1
  Li  Li3  1  0.666667  0.333333  0.292212  1
  Li  Li4  1  0.333333  0.666667  0.042359  1
  Li  Li5  1  0.666667  0.333333  0.957641  1
  Li  Li6  1  0.333333  0.666667  0.707788  1
  Li  Li7  1  0.333333  0.666667  0.540753  1
  Zn  Zn8  1  0.000000  0.000000  0.872766  1
  Zn  Zn9  1  0.000000  0.000000  0.377452  1
  Zn  Zn10  1  0.000000  0.000000  0.622548  1
  Zn  Zn11  1  0.000000  0.000000  0.127234  1
  Si  Si12  1  0.333333  0.666667  0.874666  1
  Si  Si13  1  0.666667  0.333333  0.624597  1
  Si  Si14  1  0.333333  0.666667  0.375403  1
  Si  Si15  1  0.666667  0.333333  0.125334  1
