# generated using pymatgen
data_Cs2Zr(Si2O5)3
_symmetry_space_group_name_H-M   'P 1'
_cell_length_a   14.03161811
_cell_length_b   14.03161811
_cell_length_c   11.78537955
_cell_angle_alpha   73.30656604
_cell_angle_beta   106.69343396
_cell_angle_gamma   148.51902723
_symmetry_Int_Tables_number   1
_chemical_formula_structural   Cs2Zr(Si2O5)3
_chemical_formula_sum   'Cs6 Zr3 Si18 O45'
_cell_volume   1156.51636083
_cell_formula_units_Z   3
loop_
 _symmetry_equiv_pos_site_id
 _symmetry_equiv_pos_as_xyz
  1  'x, y, z'
loop_
 _atom_site_type_symbol
 _atom_site_label
 _atom_site_symmetry_multiplicity
 _atom_site_fract_x
 _atom_site_fract_y
 _atom_site_fract_z
 _atom_site_occupancy
  Cs  Cs0  1  0.102581  0.897419  0.629144  1
  Cs  Cs1  1  0.423973  0.576027  0.987470  1
  Cs  Cs2  1  0.752725  0.247275  0.361730  1
  Cs  Cs3  1  0.247275  0.752725  0.638270  1
  Cs  Cs4  1  0.576027  0.423973  0.012530  1
  Cs  Cs5  1  0.897419  0.102581  0.370856  1
  Zr  Zr6  1  0.000000  0.000000  0.000000  1
  Zr  Zr7  1  0.679446  0.320554  0.641897  1
  Zr  Zr8  1  0.320554  0.679446  0.358103  1
  Si  Si9  1  0.825896  0.569656  0.370949  1
  Si  Si10  1  0.183099  0.816901  0.267817  1
  Si  Si11  1  0.137041  0.862959  0.998195  1
  Si  Si12  1  0.496504  0.108473  0.907921  1
  Si  Si13  1  0.174104  0.430344  0.629051  1
  Si  Si14  1  0.183761  0.208874  0.731918  1
  Si  Si15  1  0.791126  0.816239  0.731918  1
  Si  Si16  1  0.503496  0.891527  0.092079  1
  Si  Si17  1  0.816901  0.183099  0.732183  1
  Si  Si18  1  0.541619  0.458381  0.632448  1
  Si  Si19  1  0.458381  0.541619  0.367552  1
  Si  Si20  1  0.108473  0.496504  0.092079  1
  Si  Si21  1  0.208874  0.183761  0.268082  1
  Si  Si22  1  0.569656  0.825896  0.629051  1
  Si  Si23  1  0.816239  0.791126  0.268082  1
  Si  Si24  1  0.862959  0.137041  0.001805  1
  Si  Si25  1  0.430344  0.174104  0.370949  1
  Si  Si26  1  0.891527  0.503496  0.907921  1
  O  O27  1  0.181366  0.818634  0.128300  1
  O  O28  1  0.861882  0.532646  0.506932  1
  O  O29  1  0.078683  0.921317  0.005224  1
  O  O30  1  0.025102  0.327966  0.712921  1
  O  O31  1  0.103963  0.492323  0.229064  1
  O  O32  1  0.000000  0.500000  0.000000  1
  O  O33  1  0.500000  1.000000  0.000000  1
  O  O34  1  0.625360  0.374640  0.310099  1
  O  O35  1  0.818634  0.181366  0.871700  1
  O  O36  1  0.138118  0.467354  0.493068  1
  O  O37  1  0.921317  0.078683  0.994776  1
  O  O38  1  0.690800  0.829463  0.635908  1
  O  O39  1  0.703948  0.642075  0.706039  1
  O  O40  1  0.532646  0.861882  0.493068  1
  O  O41  1  0.492323  0.103963  0.770936  1
  O  O42  1  0.974226  0.678107  0.925858  1
  O  O43  1  0.758341  0.241659  0.645070  1
  O  O44  1  0.296052  0.357925  0.293961  1
  O  O45  1  0.672034  0.974898  0.712921  1
  O  O46  1  0.321165  0.678835  0.054474  1
  O  O47  1  0.467354  0.138118  0.506932  1
  O  O48  1  0.829463  0.690800  0.364092  1
  O  O49  1  0.996379  0.003621  0.305262  1
  O  O50  1  0.678107  0.974226  0.074142  1
  O  O51  1  0.003621  0.996379  0.694738  1
  O  O52  1  0.399368  0.600632  0.369328  1
  O  O53  1  0.507677  0.896037  0.229064  1
  O  O54  1  0.188399  0.215001  0.868076  1
  O  O55  1  0.170537  0.309200  0.635908  1
  O  O56  1  0.642075  0.703948  0.293961  1
  O  O57  1  0.357925  0.296052  0.706039  1
  O  O58  1  0.241659  0.758341  0.354930  1
  O  O59  1  0.600632  0.399368  0.630672  1
  O  O60  1  0.374640  0.625360  0.689901  1
  O  O61  1  0.215001  0.188399  0.131924  1
  O  O62  1  0.896037  0.507677  0.770936  1
  O  O63  1  0.811601  0.784999  0.131924  1
  O  O64  1  0.500000  0.500000  0.500000  1
  O  O65  1  0.025774  0.321893  0.074142  1
  O  O66  1  0.974898  0.672034  0.287079  1
  O  O67  1  0.309200  0.170537  0.364092  1
  O  O68  1  0.321893  0.025774  0.925858  1
  O  O69  1  0.784999  0.811601  0.868076  1
  O  O70  1  0.327966  0.025102  0.287079  1
  O  O71  1  0.678835  0.321165  0.945526  1
