# generated using pymatgen
data_Er4Si9Ir13
_symmetry_space_group_name_H-M   'P 1'
_cell_length_a   3.95137705
_cell_length_b   11.00682613
_cell_length_c   19.00473092
_cell_angle_alpha   90.00000000
_cell_angle_beta   90.00000000
_cell_angle_gamma   90.00000000
_symmetry_Int_Tables_number   1
_chemical_formula_structural   Er4Si9Ir13
_chemical_formula_sum   'Er8 Si18 Ir26'
_cell_volume   826.55604085
_cell_formula_units_Z   2
loop_
 _symmetry_equiv_pos_site_id
 _symmetry_equiv_pos_as_xyz
  1  'x, y, z'
loop_
 _atom_site_type_symbol
 _atom_site_label
 _atom_site_symmetry_multiplicity
 _atom_site_fract_x
 _atom_site_fract_y
 _atom_site_fract_z
 _atom_site_occupancy
  Er  Er0  1  0.500000  0.690880  0.207933  1
  Er  Er1  1  0.000000  0.809120  0.792067  1
  Er  Er2  1  0.000000  0.190880  0.792067  1
  Er  Er3  1  0.500000  0.309120  0.207933  1
  Er  Er4  1  0.500000  0.000000  0.519364  1
  Er  Er5  1  0.000000  0.500000  0.480636  1
  Er  Er6  1  0.500000  0.500000  0.021940  1
  Er  Er7  1  0.000000  0.000000  0.978060  1
  Si  Si8  1  0.000000  0.000000  0.397732  1
  Si  Si9  1  0.500000  0.500000  0.602268  1
  Si  Si10  1  0.500000  0.318558  0.414589  1
  Si  Si11  1  0.000000  0.181442  0.585411  1
  Si  Si12  1  0.000000  0.818558  0.585411  1
  Si  Si13  1  0.500000  0.681442  0.414589  1
  Si  Si14  1  0.000000  0.687824  0.080493  1
  Si  Si15  1  0.500000  0.812176  0.919507  1
  Si  Si16  1  0.500000  0.187824  0.919507  1
  Si  Si17  1  0.000000  0.312176  0.080493  1
  Si  Si18  1  0.500000  0.000000  0.102088  1
  Si  Si19  1  0.000000  0.500000  0.897912  1
  Si  Si20  1  0.500000  0.373430  0.729388  1
  Si  Si21  1  0.000000  0.126570  0.270612  1
  Si  Si22  1  0.000000  0.873430  0.270612  1
  Si  Si23  1  0.500000  0.626570  0.729388  1
  Si  Si24  1  0.500000  0.000000  0.732390  1
  Si  Si25  1  0.000000  0.500000  0.267610  1
  Ir  Ir26  1  0.000000  0.683839  0.335095  1
  Ir  Ir27  1  0.500000  0.816161  0.664905  1
  Ir  Ir28  1  0.500000  0.183839  0.664905  1
  Ir  Ir29  1  0.000000  0.316161  0.335095  1
  Ir  Ir30  1  0.000000  0.500000  0.142104  1
  Ir  Ir31  1  0.500000  0.000000  0.857896  1
  Ir  Ir32  1  0.500000  0.500000  0.342905  1
  Ir  Ir33  1  0.000000  0.000000  0.657095  1
  Ir  Ir34  1  0.000000  0.500000  0.772620  1
  Ir  Ir35  1  0.500000  0.000000  0.227380  1
  Ir  Ir36  1  0.500000  0.688779  0.538906  1
  Ir  Ir37  1  0.000000  0.811221  0.461094  1
  Ir  Ir38  1  0.000000  0.188779  0.461094  1
  Ir  Ir39  1  0.500000  0.311221  0.538906  1
  Ir  Ir40  1  0.000000  0.700398  0.953337  1
  Ir  Ir41  1  0.500000  0.799602  0.046663  1
  Ir  Ir42  1  0.500000  0.200398  0.046663  1
  Ir  Ir43  1  0.000000  0.299602  0.953337  1
  Ir  Ir44  1  0.000000  0.875081  0.143435  1
  Ir  Ir45  1  0.500000  0.624919  0.856565  1
  Ir  Ir46  1  0.500000  0.375081  0.856565  1
  Ir  Ir47  1  0.000000  0.124919  0.143435  1
  Ir  Ir48  1  0.500000  0.872249  0.355534  1
  Ir  Ir49  1  0.000000  0.627751  0.644466  1
  Ir  Ir50  1  0.000000  0.372249  0.644466  1
  Ir  Ir51  1  0.500000  0.127751  0.355534  1
