# generated using pymatgen
data_YbMgGe
_symmetry_space_group_name_H-M   'P 1'
_cell_length_a   4.43347466
_cell_length_b   7.47782341
_cell_length_c   8.33072517
_cell_angle_alpha   90.00000000
_cell_angle_beta   90.00000000
_cell_angle_gamma   90.00000000
_symmetry_Int_Tables_number   1
_chemical_formula_structural   YbMgGe
_chemical_formula_sum   'Yb4 Mg4 Ge4'
_cell_volume   276.18637057
_cell_formula_units_Z   4
loop_
 _symmetry_equiv_pos_site_id
 _symmetry_equiv_pos_as_xyz
  1  'x, y, z'
loop_
 _atom_site_type_symbol
 _atom_site_label
 _atom_site_symmetry_multiplicity
 _atom_site_fract_x
 _atom_site_fract_y
 _atom_site_fract_z
 _atom_site_occupancy
  Yb  Yb0  1  0.750000  0.979485  0.680082  1
  Yb  Yb1  1  0.250000  0.020515  0.319918  1
  Yb  Yb2  1  0.750000  0.479485  0.819918  1
  Yb  Yb3  1  0.250000  0.520515  0.180082  1
  Mg  Mg4  1  0.750000  0.856231  0.062861  1
  Mg  Mg5  1  0.250000  0.143769  0.937139  1
  Mg  Mg6  1  0.750000  0.356231  0.437139  1
  Mg  Mg7  1  0.250000  0.643769  0.562861  1
  Ge  Ge8  1  0.750000  0.733116  0.384118  1
  Ge  Ge9  1  0.250000  0.266884  0.615882  1
  Ge  Ge10  1  0.750000  0.233116  0.115882  1
  Ge  Ge11  1  0.250000  0.766884  0.884118  1
