# generated using pymatgen
data_Sm3CuGeS7
_symmetry_space_group_name_H-M   'P 1'
_cell_length_a   10.07127063
_cell_length_b   10.07127063
_cell_length_c   5.87278713
_cell_angle_alpha   90.00000000
_cell_angle_beta   90.00000000
_cell_angle_gamma   120.00000000
_symmetry_Int_Tables_number   1
_chemical_formula_structural   Sm3CuGeS7
_chemical_formula_sum   'Sm6 Cu2 Ge2 S14'
_cell_volume   515.87374268
_cell_formula_units_Z   2
loop_
 _symmetry_equiv_pos_site_id
 _symmetry_equiv_pos_as_xyz
  1  'x, y, z'
loop_
 _atom_site_type_symbol
 _atom_site_label
 _atom_site_symmetry_multiplicity
 _atom_site_fract_x
 _atom_site_fract_y
 _atom_site_fract_z
 _atom_site_occupancy
  Sm  Sm0  1  0.129489  0.772908  0.746021  1
  Sm  Sm1  1  0.356581  0.129489  0.246021  1
  Sm  Sm2  1  0.870511  0.227092  0.246021  1
  Sm  Sm3  1  0.227092  0.356581  0.746021  1
  Sm  Sm4  1  0.643419  0.870511  0.746021  1
  Sm  Sm5  1  0.772908  0.643419  0.246021  1
  Cu  Cu6  1  0.000000  0.000000  0.690642  1
  Cu  Cu7  1  0.000000  0.000000  0.190642  1
  Ge  Ge8  1  0.666667  0.333333  0.829914  1
  Ge  Ge9  1  0.333333  0.666667  0.329914  1
  S  S10  1  0.582250  0.101695  0.987692  1
  S  S11  1  0.333333  0.666667  0.954576  1
  S  S12  1  0.094475  0.839228  0.213943  1
  S  S13  1  0.160772  0.255247  0.213943  1
  S  S14  1  0.666667  0.333333  0.454576  1
  S  S15  1  0.839228  0.744753  0.713943  1
  S  S16  1  0.255247  0.094475  0.713943  1
  S  S17  1  0.905525  0.160772  0.713943  1
  S  S18  1  0.744753  0.905525  0.213943  1
  S  S19  1  0.417750  0.898305  0.487692  1
  S  S20  1  0.480555  0.582250  0.487692  1
  S  S21  1  0.519445  0.417750  0.987692  1
  S  S22  1  0.898305  0.480555  0.987692  1
  S  S23  1  0.101695  0.519445  0.487692  1
