# generated using pymatgen
data_NiBiPO5
_symmetry_space_group_name_H-M   'P 1'
_cell_length_a   5.24684092
_cell_length_b   11.30940123
_cell_length_c   7.60721554
_cell_angle_alpha   90.00000000
_cell_angle_beta   113.69824733
_cell_angle_gamma   90.00000000
_symmetry_Int_Tables_number   1
_chemical_formula_structural   NiBiPO5
_chemical_formula_sum   'Ni4 Bi4 P4 O20'
_cell_volume   413.33723975
_cell_formula_units_Z   4
loop_
 _symmetry_equiv_pos_site_id
 _symmetry_equiv_pos_as_xyz
  1  'x, y, z'
loop_
 _atom_site_type_symbol
 _atom_site_label
 _atom_site_symmetry_multiplicity
 _atom_site_fract_x
 _atom_site_fract_y
 _atom_site_fract_z
 _atom_site_occupancy
  Ni  Ni0  1  0.554682  0.421074  0.685206  1
  Ni  Ni1  1  0.445318  0.921074  0.814794  1
  Ni  Ni2  1  0.445318  0.578926  0.314794  1
  Ni  Ni3  1  0.554682  0.078926  0.185206  1
  Bi  Bi4  1  0.075118  0.898604  0.189444  1
  Bi  Bi5  1  0.924882  0.398604  0.310556  1
  Bi  Bi6  1  0.924882  0.101396  0.810556  1
  Bi  Bi7  1  0.075118  0.601396  0.689444  1
  P  P8  1  0.193117  0.151897  0.475960  1
  P  P9  1  0.193117  0.348103  0.975960  1
  P  P10  1  0.806883  0.848103  0.524040  1
  P  P11  1  0.806883  0.651897  0.024040  1
  O  O12  1  0.242147  0.525166  0.484887  1
  O  O13  1  0.322059  0.278270  0.512515  1
  O  O14  1  0.127887  0.827171  0.615389  1
  O  O15  1  0.127887  0.672829  0.115389  1
  O  O16  1  0.677941  0.778270  0.987485  1
  O  O17  1  0.677941  0.721730  0.487485  1
  O  O18  1  0.708766  0.581554  0.160889  1
  O  O19  1  0.757853  0.025166  0.015113  1
  O  O20  1  0.872113  0.172829  0.384611  1
  O  O21  1  0.274680  0.082658  0.667275  1
  O  O22  1  0.725320  0.582658  0.832725  1
  O  O23  1  0.708766  0.918446  0.660889  1
  O  O24  1  0.757853  0.474834  0.515113  1
  O  O25  1  0.242147  0.974834  0.984887  1
  O  O26  1  0.291234  0.418446  0.839111  1
  O  O27  1  0.274680  0.417342  0.167275  1
  O  O28  1  0.725320  0.917342  0.332725  1
  O  O29  1  0.322059  0.221730  0.012515  1
  O  O30  1  0.872113  0.327171  0.884611  1
  O  O31  1  0.291234  0.081554  0.339111  1
