# generated using pymatgen
data_Rb2BaNb2Se11
_symmetry_space_group_name_H-M   'P 1'
_cell_length_a   8.01111788
_cell_length_b   14.30379793
_cell_length_c   17.29627400
_cell_angle_alpha   90.00000000
_cell_angle_beta   96.26111647
_cell_angle_gamma   90.00000000
_symmetry_Int_Tables_number   1
_chemical_formula_structural   Rb2BaNb2Se11
_chemical_formula_sum   'Rb8 Ba4 Nb8 Se44'
_cell_volume   1970.14779854
_cell_formula_units_Z   4
loop_
 _symmetry_equiv_pos_site_id
 _symmetry_equiv_pos_as_xyz
  1  'x, y, z'
loop_
 _atom_site_type_symbol
 _atom_site_label
 _atom_site_symmetry_multiplicity
 _atom_site_fract_x
 _atom_site_fract_y
 _atom_site_fract_z
 _atom_site_occupancy
  Rb  Rb0  1  0.262261  0.541427  0.084770  1
  Rb  Rb1  1  0.737739  0.458573  0.915230  1
  Rb  Rb2  1  0.262261  0.958573  0.584770  1
  Rb  Rb3  1  0.292411  0.883446  0.267051  1
  Rb  Rb4  1  0.737739  0.041427  0.415230  1
  Rb  Rb5  1  0.707589  0.383446  0.232949  1
  Rb  Rb6  1  0.292411  0.616554  0.767051  1
  Rb  Rb7  1  0.707589  0.116554  0.732949  1
  Ba  Ba8  1  0.249125  0.877626  0.967103  1
  Ba  Ba9  1  0.249125  0.622374  0.467103  1
  Ba  Ba10  1  0.750875  0.377626  0.532897  1
  Ba  Ba11  1  0.750875  0.122374  0.032897  1
  Nb  Nb12  1  0.142902  0.327548  0.805130  1
  Nb  Nb13  1  0.142902  0.172452  0.305130  1
  Nb  Nb14  1  0.721383  0.716922  0.394178  1
  Nb  Nb15  1  0.857098  0.672452  0.194870  1
  Nb  Nb16  1  0.278617  0.216922  0.105822  1
  Nb  Nb17  1  0.721383  0.783078  0.894178  1
  Nb  Nb18  1  0.857098  0.827548  0.694870  1
  Nb  Nb19  1  0.278617  0.283078  0.605822  1
  Se  Se20  1  0.146289  0.164450  0.698331  1
  Se  Se21  1  0.163026  0.123550  0.976455  1
  Se  Se22  1  0.960965  0.282391  0.389057  1
  Se  Se23  1  0.836974  0.876450  0.023545  1
  Se  Se24  1  0.495743  0.193821  0.555137  1
  Se  Se25  1  0.558959  0.823276  0.749103  1
  Se  Se26  1  0.206520  0.446487  0.898793  1
  Se  Se27  1  0.600916  0.546175  0.394392  1
  Se  Se28  1  0.039035  0.782391  0.110943  1
  Se  Se29  1  0.960965  0.217609  0.889057  1
  Se  Se30  1  0.376615  0.294730  0.345525  1
  Se  Se31  1  0.922276  0.575441  0.324753  1
  Se  Se32  1  0.991372  0.811884  0.433030  1
  Se  Se33  1  0.399084  0.453825  0.605608  1
  Se  Se34  1  0.399084  0.046175  0.105608  1
  Se  Se35  1  0.623385  0.705270  0.654475  1
  Se  Se36  1  0.836974  0.623550  0.523545  1
  Se  Se37  1  0.160066  0.637638  0.264217  1
  Se  Se38  1  0.853711  0.664450  0.801669  1
  Se  Se39  1  0.206520  0.053513  0.398793  1
  Se  Se40  1  0.853711  0.835550  0.301669  1
  Se  Se41  1  0.376615  0.205270  0.845525  1
  Se  Se42  1  0.495743  0.306179  0.055137  1
  Se  Se43  1  0.839934  0.137638  0.235783  1
  Se  Se44  1  0.160066  0.862362  0.764217  1
  Se  Se45  1  0.077724  0.424559  0.675247  1
  Se  Se46  1  0.793480  0.946487  0.601207  1
  Se  Se47  1  0.839934  0.362362  0.735783  1
  Se  Se48  1  0.146289  0.335550  0.198331  1
  Se  Se49  1  0.600916  0.953825  0.894392  1
  Se  Se50  1  0.441041  0.323276  0.750897  1
  Se  Se51  1  0.441041  0.176724  0.250897  1
  Se  Se52  1  0.922276  0.924559  0.824753  1
  Se  Se53  1  0.793480  0.553513  0.101207  1
  Se  Se54  1  0.623385  0.794730  0.154475  1
  Se  Se55  1  0.558959  0.676724  0.249103  1
  Se  Se56  1  0.008628  0.188116  0.566970  1
  Se  Se57  1  0.039035  0.717609  0.610943  1
  Se  Se58  1  0.991372  0.688116  0.933030  1
  Se  Se59  1  0.504257  0.806179  0.444863  1
  Se  Se60  1  0.077724  0.075441  0.175247  1
  Se  Se61  1  0.008628  0.311884  0.066970  1
  Se  Se62  1  0.504257  0.693821  0.944863  1
  Se  Se63  1  0.163026  0.376450  0.476455  1
