# generated using pymatgen
data_LaSiAs3
_symmetry_space_group_name_H-M   'P 1'
_cell_length_a   6.01261924
_cell_length_b   6.13218063
_cell_length_c   26.68020069
_cell_angle_alpha   90.00000000
_cell_angle_beta   90.00000000
_cell_angle_gamma   90.00000000
_symmetry_Int_Tables_number   1
_chemical_formula_structural   LaSiAs3
_chemical_formula_sum   'La8 Si8 As24'
_cell_volume   983.71146547
_cell_formula_units_Z   8
loop_
 _symmetry_equiv_pos_site_id
 _symmetry_equiv_pos_as_xyz
  1  'x, y, z'
loop_
 _atom_site_type_symbol
 _atom_site_label
 _atom_site_symmetry_multiplicity
 _atom_site_fract_x
 _atom_site_fract_y
 _atom_site_fract_z
 _atom_site_occupancy
  La  La0  1  0.747982  0.984053  0.090630  1
  La  La1  1  0.247982  0.015947  0.909370  1
  La  La2  1  0.247982  0.515947  0.590630  1
  La  La3  1  0.747982  0.484053  0.409370  1
  La  La4  1  0.247642  0.482578  0.096545  1
  La  La5  1  0.747642  0.517422  0.903455  1
  La  La6  1  0.747642  0.017422  0.596545  1
  La  La7  1  0.247642  0.982578  0.403455  1
  Si  Si8  1  0.327333  0.063310  0.205256  1
  Si  Si9  1  0.827333  0.936690  0.794744  1
  Si  Si10  1  0.827333  0.436690  0.705256  1
  Si  Si11  1  0.327333  0.563310  0.294744  1
  Si  Si12  1  0.825556  0.387437  0.207846  1
  Si  Si13  1  0.325556  0.612563  0.792154  1
  Si  Si14  1  0.325556  0.112563  0.707846  1
  Si  Si15  1  0.825556  0.887437  0.292154  1
  As  As16  1  0.745137  0.488536  0.125119  1
  As  As17  1  0.245137  0.511464  0.874881  1
  As  As18  1  0.245137  0.011464  0.625119  1
  As  As19  1  0.745137  0.988536  0.374881  1
  As  As20  1  0.244505  0.978874  0.121881  1
  As  As21  1  0.744505  0.021126  0.878119  1
  As  As22  1  0.744505  0.521126  0.621881  1
  As  As23  1  0.244505  0.478874  0.378119  1
  As  As24  1  0.468692  0.703089  0.002062  1
  As  As25  1  0.968692  0.296911  0.997938  1
  As  As26  1  0.968692  0.796911  0.502062  1
  As  As27  1  0.468692  0.203089  0.497938  1
  As  As28  1  0.541619  0.294920  0.998300  1
  As  As29  1  0.041619  0.705080  0.001700  1
  As  As30  1  0.041619  0.205080  0.498300  1
  As  As31  1  0.541619  0.794920  0.501700  1
  As  As32  1  0.219655  0.432626  0.213991  1
  As  As33  1  0.719655  0.567374  0.786009  1
  As  As34  1  0.719655  0.067374  0.713991  1
  As  As35  1  0.219655  0.932626  0.286009  1
  As  As36  1  0.720880  0.016014  0.210267  1
  As  As37  1  0.220880  0.983986  0.789733  1
  As  As38  1  0.220880  0.483986  0.710267  1
  As  As39  1  0.720880  0.516014  0.289733  1
