# generated using pymatgen
data_Co2As2O7
_symmetry_space_group_name_H-M   'P 1'
_cell_length_a   5.45467671
_cell_length_b   5.45467671
_cell_length_c   4.86325494
_cell_angle_alpha   82.78615748
_cell_angle_beta   97.21384252
_cell_angle_gamma   74.11102394
_symmetry_Int_Tables_number   1
_chemical_formula_structural   Co2As2O7
_chemical_formula_sum   'Co2 As2 O7'
_cell_volume   136.11513212
_cell_formula_units_Z   1
loop_
 _symmetry_equiv_pos_site_id
 _symmetry_equiv_pos_as_xyz
  1  'x, y, z'
loop_
 _atom_site_type_symbol
 _atom_site_label
 _atom_site_symmetry_multiplicity
 _atom_site_fract_x
 _atom_site_fract_y
 _atom_site_fract_z
 _atom_site_occupancy
  Co  Co0  1  0.689662  0.689662  0.500000  1
  Co  Co1  1  0.310338  0.310338  0.500000  1
  As  As2  1  0.241702  0.758298  0.901316  1
  As  As3  1  0.758298  0.241702  0.098684  1
  O  O4  1  0.399801  0.926176  0.709111  1
  O  O5  1  0.405828  0.594172  0.228872  1
  O  O6  1  0.594172  0.405828  0.771128  1
  O  O7  1  0.000000  0.000000  0.000000  1
  O  O8  1  0.073824  0.600199  0.709111  1
  O  O9  1  0.926176  0.399801  0.290889  1
  O  O10  1  0.600199  0.073824  0.290889  1
