# generated using pymatgen
data_CdH4Br3N
_symmetry_space_group_name_H-M   'P 1'
_cell_length_a   4.39002834
_cell_length_b   9.21381405
_cell_length_c   16.16450405
_cell_angle_alpha   90.00000000
_cell_angle_beta   90.00000000
_cell_angle_gamma   90.00000000
_symmetry_Int_Tables_number   1
_chemical_formula_structural   CdH4Br3N
_chemical_formula_sum   'Cd4 H16 Br12 N4'
_cell_volume   653.83648544
_cell_formula_units_Z   4
loop_
 _symmetry_equiv_pos_site_id
 _symmetry_equiv_pos_as_xyz
  1  'x, y, z'
loop_
 _atom_site_type_symbol
 _atom_site_label
 _atom_site_symmetry_multiplicity
 _atom_site_fract_x
 _atom_site_fract_y
 _atom_site_fract_z
 _atom_site_occupancy
  Cd  Cd0  1  0.750000  0.832558  0.941321  1
  Cd  Cd1  1  0.250000  0.167442  0.058679  1
  Cd  Cd2  1  0.750000  0.332558  0.558679  1
  Cd  Cd3  1  0.250000  0.667442  0.441321  1
  H  H4  1  0.750000  0.677040  0.162693  1
  H  H5  1  0.250000  0.322960  0.837307  1
  H  H6  1  0.750000  0.177040  0.337307  1
  H  H7  1  0.250000  0.822960  0.662693  1
  H  H8  1  0.750000  0.511761  0.114209  1
  H  H9  1  0.250000  0.488239  0.885791  1
  H  H10  1  0.750000  0.011761  0.385791  1
  H  H11  1  0.250000  0.988239  0.614209  1
  H  H12  1  0.939856  0.534559  0.203786  1
  H  H13  1  0.439856  0.465441  0.796214  1
  H  H14  1  0.560144  0.034559  0.296214  1
  H  H15  1  0.060144  0.965441  0.703786  1
  H  H16  1  0.060144  0.465441  0.796214  1
  H  H17  1  0.560144  0.534559  0.203786  1
  H  H18  1  0.439856  0.965441  0.703786  1
  H  H19  1  0.939856  0.034559  0.296214  1
  Br  Br20  1  0.750000  0.717860  0.788826  1
  Br  Br21  1  0.250000  0.282140  0.211174  1
  Br  Br22  1  0.750000  0.217860  0.711174  1
  Br  Br23  1  0.250000  0.782140  0.288826  1
  Br  Br24  1  0.250000  0.663099  0.999033  1
  Br  Br25  1  0.750000  0.336901  0.000967  1
  Br  Br26  1  0.250000  0.163099  0.500967  1
  Br  Br27  1  0.750000  0.836901  0.499033  1
  Br  Br28  1  0.750000  0.965178  0.098351  1
  Br  Br29  1  0.250000  0.034822  0.901649  1
  Br  Br30  1  0.750000  0.465178  0.401649  1
  Br  Br31  1  0.250000  0.534822  0.598351  1
  N  N32  1  0.750000  0.566003  0.170725  1
  N  N33  1  0.250000  0.433997  0.829275  1
  N  N34  1  0.750000  0.066003  0.329275  1
  N  N35  1  0.250000  0.933997  0.670725  1
