# generated using pymatgen
data_Ca2Si5N8
_symmetry_space_group_name_H-M   'P 1'
_cell_length_a   9.71053995
_cell_length_b   10.66060485
_cell_length_c   13.69600368
_cell_angle_alpha   90.00000000
_cell_angle_beta   90.00000000
_cell_angle_gamma   90.00000000
_symmetry_Int_Tables_number   1
_chemical_formula_structural   Ca2Si5N8
_chemical_formula_sum   'Ca16 Si40 N64'
_cell_volume   1417.81344127
_cell_formula_units_Z   8
loop_
 _symmetry_equiv_pos_site_id
 _symmetry_equiv_pos_as_xyz
  1  'x, y, z'
loop_
 _atom_site_type_symbol
 _atom_site_label
 _atom_site_symmetry_multiplicity
 _atom_site_fract_x
 _atom_site_fract_y
 _atom_site_fract_z
 _atom_site_occupancy
  Ca  Ca0  1  0.344515  0.113554  0.514977  1
  Ca  Ca1  1  0.559372  0.114243  0.902724  1
  Ca  Ca2  1  0.059372  0.885757  0.597276  1
  Ca  Ca3  1  0.655485  0.386446  0.014977  1
  Ca  Ca4  1  0.940628  0.614243  0.097276  1
  Ca  Ca5  1  0.559372  0.614243  0.597276  1
  Ca  Ca6  1  0.155485  0.613554  0.485023  1
  Ca  Ca7  1  0.844515  0.386446  0.514977  1
  Ca  Ca8  1  0.155485  0.113554  0.014977  1
  Ca  Ca9  1  0.940628  0.114243  0.402724  1
  Ca  Ca10  1  0.344515  0.613554  0.985023  1
  Ca  Ca11  1  0.844515  0.886446  0.985023  1
  Ca  Ca12  1  0.655485  0.886446  0.485023  1
  Ca  Ca13  1  0.440628  0.885757  0.097276  1
  Ca  Ca14  1  0.059372  0.385757  0.902724  1
  Ca  Ca15  1  0.440628  0.385757  0.402724  1
  Si  Si16  1  0.003949  0.020768  0.791248  1
  Si  Si17  1  0.503949  0.479232  0.791248  1
  Si  Si18  1  0.651509  0.670006  0.040688  1
  Si  Si19  1  0.465209  0.743813  0.344394  1
  Si  Si20  1  0.348491  0.329994  0.959312  1
  Si  Si21  1  0.275268  0.398966  0.650595  1
  Si  Si22  1  0.728253  0.335482  0.274333  1
  Si  Si23  1  0.996051  0.479232  0.291248  1
  Si  Si24  1  0.003949  0.520768  0.708752  1
  Si  Si25  1  0.965209  0.256187  0.155606  1
  Si  Si26  1  0.503949  0.979232  0.708752  1
  Si  Si27  1  0.965209  0.756187  0.344394  1
  Si  Si28  1  0.496051  0.020768  0.291248  1
  Si  Si29  1  0.724732  0.601034  0.349405  1
  Si  Si30  1  0.348491  0.829994  0.540688  1
  Si  Si31  1  0.651509  0.170006  0.459312  1
  Si  Si32  1  0.271747  0.164518  0.774333  1
  Si  Si33  1  0.775268  0.601034  0.849405  1
  Si  Si34  1  0.728253  0.835482  0.225667  1
  Si  Si35  1  0.224732  0.398966  0.150595  1
  Si  Si36  1  0.151509  0.329994  0.459312  1
  Si  Si37  1  0.771747  0.335482  0.774333  1
  Si  Si38  1  0.224732  0.898966  0.349405  1
  Si  Si39  1  0.271747  0.664518  0.725667  1
  Si  Si40  1  0.465209  0.243813  0.155606  1
  Si  Si41  1  0.771747  0.835482  0.725667  1
  Si  Si42  1  0.848491  0.170006  0.959312  1
  Si  Si43  1  0.848491  0.670006  0.540688  1
  Si  Si44  1  0.034791  0.743813  0.844394  1
  Si  Si45  1  0.275268  0.898966  0.849405  1
  Si  Si46  1  0.151509  0.829994  0.040688  1
  Si  Si47  1  0.228253  0.664518  0.225667  1
  Si  Si48  1  0.534791  0.256187  0.655606  1
  Si  Si49  1  0.775268  0.101034  0.650595  1
  Si  Si50  1  0.228253  0.164518  0.274333  1
  Si  Si51  1  0.724732  0.101034  0.150595  1
  Si  Si52  1  0.496051  0.520768  0.208752  1
  Si  Si53  1  0.534791  0.756187  0.844394  1
  Si  Si54  1  0.996051  0.979232  0.208752  1
  Si  Si55  1  0.034791  0.243813  0.655606  1
  N  N56  1  0.042216  0.932441  0.097450  1
  N  N57  1  0.248986  0.739248  0.618095  1
  N  N58  1  0.056390  0.229678  0.533176  1
  N  N59  1  0.607345  0.116182  0.702082  1
  N  N60  1  0.770063  0.579368  0.972677  1
  N  N61  1  0.392655  0.383818  0.202082  1
  N  N62  1  0.856675  0.745977  0.817115  1
  N  N63  1  0.388798  0.621242  0.277780  1
  N  N64  1  0.729937  0.079368  0.027323  1
  N  N65  1  0.751014  0.260752  0.381905  1
  N  N66  1  0.042216  0.432441  0.402550  1
  N  N67  1  0.388798  0.121242  0.222220  1
  N  N68  1  0.957784  0.067559  0.902550  1
  N  N69  1  0.143325  0.754023  0.317115  1
  N  N70  1  0.107345  0.383818  0.702082  1
  N  N71  1  0.888798  0.878758  0.277780  1
  N  N72  1  0.542216  0.067559  0.402550  1
  N  N73  1  0.751014  0.760752  0.118095  1
  N  N74  1  0.542216  0.567559  0.097450  1
  N  N75  1  0.143325  0.254023  0.182885  1
  N  N76  1  0.229937  0.920632  0.472677  1
  N  N77  1  0.556390  0.770322  0.966824  1
  N  N78  1  0.392655  0.883818  0.297918  1
  N  N79  1  0.367815  0.022095  0.790490  1
  N  N80  1  0.892655  0.616182  0.297918  1
  N  N81  1  0.943610  0.270322  0.033176  1
  N  N82  1  0.943610  0.770322  0.466824  1
  N  N83  1  0.443610  0.229678  0.033176  1
  N  N84  1  0.457784  0.432441  0.902550  1
  N  N85  1  0.229937  0.420632  0.027323  1
  N  N86  1  0.056390  0.729678  0.966824  1
  N  N87  1  0.270063  0.920632  0.972677  1
  N  N88  1  0.856675  0.245977  0.682885  1
  N  N89  1  0.443610  0.729678  0.466824  1
  N  N90  1  0.556390  0.270322  0.533176  1
  N  N91  1  0.611202  0.378758  0.722220  1
  N  N92  1  0.367815  0.522095  0.709510  1
  N  N93  1  0.770063  0.079368  0.527323  1
  N  N94  1  0.132185  0.022095  0.290490  1
  N  N95  1  0.888798  0.378758  0.222220  1
  N  N96  1  0.356675  0.754023  0.817115  1
  N  N97  1  0.611202  0.878758  0.777780  1
  N  N98  1  0.643325  0.245977  0.182885  1
  N  N99  1  0.632185  0.977905  0.209510  1
  N  N100  1  0.748986  0.260752  0.881905  1
  N  N101  1  0.729937  0.579368  0.472677  1
  N  N102  1  0.867815  0.977905  0.709510  1
  N  N103  1  0.251014  0.239248  0.381905  1
  N  N104  1  0.457784  0.932441  0.597450  1
  N  N105  1  0.111202  0.121242  0.722220  1
  N  N106  1  0.270063  0.420632  0.527323  1
  N  N107  1  0.356675  0.254023  0.682885  1
  N  N108  1  0.632185  0.477905  0.290490  1
  N  N109  1  0.248986  0.239248  0.881905  1
  N  N110  1  0.607345  0.616182  0.797918  1
  N  N111  1  0.867815  0.477905  0.790490  1
  N  N112  1  0.132185  0.522095  0.209510  1
  N  N113  1  0.251014  0.739248  0.118095  1
  N  N114  1  0.643325  0.745977  0.317115  1
  N  N115  1  0.111202  0.621242  0.777780  1
  N  N116  1  0.107345  0.883818  0.797918  1
  N  N117  1  0.892655  0.116182  0.202082  1
  N  N118  1  0.957784  0.567559  0.597450  1
  N  N119  1  0.748986  0.760752  0.618095  1
