# generated using pymatgen
data_AsS
_symmetry_space_group_name_H-M   'P 1'
_cell_length_a   8.95815566
_cell_length_b   10.14236808
_cell_length_c   10.48269877
_cell_angle_alpha   90.00000000
_cell_angle_beta   97.78345988
_cell_angle_gamma   90.00000000
_symmetry_Int_Tables_number   1
_chemical_formula_structural   AsS
_chemical_formula_sum   'As16 S16'
_cell_volume   943.65092058
_cell_formula_units_Z   16
loop_
 _symmetry_equiv_pos_site_id
 _symmetry_equiv_pos_as_xyz
  1  'x, y, z'
loop_
 _atom_site_type_symbol
 _atom_site_label
 _atom_site_symmetry_multiplicity
 _atom_site_fract_x
 _atom_site_fract_y
 _atom_site_fract_z
 _atom_site_occupancy
  As  As0  1  0.452441  0.869262  0.685110  1
  As  As1  1  0.660726  0.366320  0.633659  1
  As  As2  1  0.160726  0.133680  0.633659  1
  As  As3  1  0.166860  0.651107  0.151724  1
  As  As4  1  0.680914  0.544156  0.912153  1
  As  As5  1  0.180914  0.955844  0.912153  1
  As  As6  1  0.839274  0.866320  0.366341  1
  As  As7  1  0.547559  0.130738  0.314890  1
  As  As8  1  0.333140  0.151107  0.848276  1
  As  As9  1  0.339274  0.633680  0.366341  1
  As  As10  1  0.952441  0.630738  0.685110  1
  As  As11  1  0.819086  0.044156  0.087847  1
  As  As12  1  0.833140  0.348893  0.848276  1
  As  As13  1  0.047559  0.369262  0.314890  1
  As  As14  1  0.666860  0.848893  0.151724  1
  As  As15  1  0.319086  0.455844  0.087847  1
  S  S16  1  0.498918  0.475742  0.749122  1
  S  S17  1  0.039817  0.448025  0.801874  1
  S  S18  1  0.215034  0.475920  0.463062  1
  S  S19  1  0.284966  0.975920  0.536938  1
  S  S20  1  0.460183  0.948025  0.198126  1
  S  S21  1  0.539817  0.051975  0.801874  1
  S  S22  1  0.193466  0.288027  0.169897  1
  S  S23  1  0.501082  0.524258  0.250878  1
  S  S24  1  0.998918  0.024258  0.749122  1
  S  S25  1  0.693466  0.211973  0.169897  1
  S  S26  1  0.784966  0.524080  0.536938  1
  S  S27  1  0.715034  0.024080  0.463062  1
  S  S28  1  0.001082  0.975742  0.250878  1
  S  S29  1  0.960183  0.551975  0.198126  1
  S  S30  1  0.806534  0.711973  0.830103  1
  S  S31  1  0.306534  0.788027  0.830103  1
