# generated using pymatgen
data_DyMnO3
_symmetry_space_group_name_H-M   'P 1'
_cell_length_a   6.22788137
_cell_length_b   6.22788137
_cell_length_c   11.56132277
_cell_angle_alpha   90.00000000
_cell_angle_beta   90.00000000
_cell_angle_gamma   120.00000000
_symmetry_Int_Tables_number   1
_chemical_formula_structural   DyMnO3
_chemical_formula_sum   'Dy6 Mn6 O18'
_cell_volume   388.34598605
_cell_formula_units_Z   6
loop_
 _symmetry_equiv_pos_site_id
 _symmetry_equiv_pos_as_xyz
  1  'x, y, z'
loop_
 _atom_site_type_symbol
 _atom_site_label
 _atom_site_symmetry_multiplicity
 _atom_site_fract_x
 _atom_site_fract_y
 _atom_site_fract_z
 _atom_site_occupancy
  Dy  Dy0  1  0.000000  0.000000  0.282745  1
  Dy  Dy1  1  0.000000  0.000000  0.782745  1
  Dy  Dy2  1  0.333333  0.666667  0.239002  1
  Dy  Dy3  1  0.666667  0.333333  0.739002  1
  Dy  Dy4  1  0.333333  0.666667  0.739002  1
  Dy  Dy5  1  0.666667  0.333333  0.239002  1
  Mn  Mn6  1  0.333539  0.000000  0.007864  1
  Mn  Mn7  1  0.333539  0.333539  0.507864  1
  Mn  Mn8  1  0.000000  0.666461  0.507864  1
  Mn  Mn9  1  0.000000  0.333539  0.007864  1
  Mn  Mn10  1  0.666461  0.666461  0.007864  1
  Mn  Mn11  1  0.666461  0.000000  0.507864  1
  O  O12  1  0.307581  0.000000  0.172470  1
  O  O13  1  0.307581  0.307581  0.672470  1
  O  O14  1  0.000000  0.692419  0.672470  1
  O  O15  1  0.000000  0.307581  0.172470  1
  O  O16  1  0.692419  0.692419  0.172470  1
  O  O17  1  0.692419  0.000000  0.672470  1
  O  O18  1  0.641456  0.000000  0.343361  1
  O  O19  1  0.641456  0.641456  0.843361  1
  O  O20  1  0.000000  0.358544  0.843361  1
  O  O21  1  0.000000  0.641456  0.343361  1
  O  O22  1  0.358544  0.358544  0.343361  1
  O  O23  1  0.358544  0.000000  0.843361  1
  O  O24  1  0.000000  0.000000  0.483876  1
  O  O25  1  0.000000  0.000000  0.983876  1
  O  O26  1  0.333333  0.666667  0.028147  1
  O  O27  1  0.666667  0.333333  0.528147  1
  O  O28  1  0.333333  0.666667  0.528147  1
  O  O29  1  0.666667  0.333333  0.028147  1
