# generated using pymatgen
data_V2P3O10
_symmetry_space_group_name_H-M   'P 1'
_cell_length_a   4.80240786
_cell_length_b   8.46540919
_cell_length_c   9.04513257
_cell_angle_alpha   90.00000000
_cell_angle_beta   98.37262660
_cell_angle_gamma   90.00000000
_symmetry_Int_Tables_number   1
_chemical_formula_structural   V2P3O10
_chemical_formula_sum   'V4 P6 O20'
_cell_volume   363.80476680
_cell_formula_units_Z   2
loop_
 _symmetry_equiv_pos_site_id
 _symmetry_equiv_pos_as_xyz
  1  'x, y, z'
loop_
 _atom_site_type_symbol
 _atom_site_label
 _atom_site_symmetry_multiplicity
 _atom_site_fract_x
 _atom_site_fract_y
 _atom_site_fract_z
 _atom_site_occupancy
  V  V0  1  0.961104  0.922585  0.667254  1
  V  V1  1  0.961104  0.577415  0.667254  1
  V  V2  1  0.038896  0.422585  0.332746  1
  V  V3  1  0.038896  0.077415  0.332746  1
  P  P4  1  0.671429  0.750000  0.186583  1
  P  P5  1  0.607805  0.250000  0.543684  1
  P  P6  1  0.460249  0.250000  0.145717  1
  P  P7  1  0.539751  0.750000  0.854283  1
  P  P8  1  0.392195  0.750000  0.456316  1
  P  P9  1  0.328571  0.250000  0.813417  1
  O  O10  1  0.832850  0.900753  0.214172  1
  O  O11  1  0.832850  0.599247  0.214172  1
  O  O12  1  0.773163  0.250000  0.226971  1
  O  O13  1  0.769905  0.401399  0.513550  1
  O  O14  1  0.769905  0.098601  0.513550  1
  O  O15  1  0.695529  0.750000  0.542451  1
  O  O16  1  0.688547  0.901856  0.823583  1
  O  O17  1  0.688547  0.598144  0.823583  1
  O  O18  1  0.487492  0.750000  0.026876  1
  O  O19  1  0.588121  0.250000  0.716935  1
  O  O20  1  0.411879  0.750000  0.283065  1
  O  O21  1  0.512508  0.250000  0.973124  1
  O  O22  1  0.311453  0.401856  0.176417  1
  O  O23  1  0.311453  0.098144  0.176417  1
  O  O24  1  0.304471  0.250000  0.457549  1
  O  O25  1  0.167150  0.099247  0.785828  1
  O  O26  1  0.230095  0.598601  0.486450  1
  O  O27  1  0.226837  0.750000  0.773029  1
  O  O28  1  0.167150  0.400753  0.785828  1
  O  O29  1  0.230095  0.901399  0.486450  1
