# generated using pymatgen
data_Ho2Te5O13
_symmetry_space_group_name_H-M   'P 1'
_cell_length_a   7.01285305
_cell_length_b   8.77375037
_cell_length_c   10.78705498
_cell_angle_alpha   89.29975921
_cell_angle_beta   87.35599674
_cell_angle_gamma   75.01347380
_symmetry_Int_Tables_number   1
_chemical_formula_structural   Ho2Te5O13
_chemical_formula_sum   'Ho4 Te10 O26'
_cell_volume   640.45915076
_cell_formula_units_Z   2
loop_
 _symmetry_equiv_pos_site_id
 _symmetry_equiv_pos_as_xyz
  1  'x, y, z'
loop_
 _atom_site_type_symbol
 _atom_site_label
 _atom_site_symmetry_multiplicity
 _atom_site_fract_x
 _atom_site_fract_y
 _atom_site_fract_z
 _atom_site_occupancy
  Ho  Ho0  1  0.999742  0.738159  0.238967  1
  Ho  Ho1  1  0.000258  0.261841  0.761033  1
  Ho  Ho2  1  0.553227  0.527985  0.178695  1
  Ho  Ho3  1  0.446773  0.472015  0.821305  1
  Te  Te4  1  0.291200  0.874771  0.977644  1
  Te  Te5  1  0.708800  0.125229  0.022356  1
  Te  Te6  1  0.154664  0.803320  0.644591  1
  Te  Te7  1  0.845336  0.196680  0.355409  1
  Te  Te8  1  0.728049  0.605504  0.510803  1
  Te  Te9  1  0.271951  0.394496  0.489197  1
  Te  Te10  1  0.877602  0.648585  0.892952  1
  Te  Te11  1  0.122398  0.351415  0.107048  1
  Te  Te12  1  0.559256  0.100116  0.699229  1
  Te  Te13  1  0.440744  0.899884  0.300771  1
  O  O14  1  0.933965  0.983354  0.307217  1
  O  O15  1  0.066035  0.016646  0.692783  1
  O  O16  1  0.328632  0.739687  0.776380  1
  O  O17  1  0.671368  0.260313  0.223620  1
  O  O18  1  0.940526  0.182623  0.960601  1
  O  O19  1  0.059474  0.817377  0.039399  1
  O  O20  1  0.875615  0.510304  0.105175  1
  O  O21  1  0.124385  0.489696  0.894825  1
  O  O22  1  0.540028  0.805081  0.478647  1
  O  O23  1  0.459972  0.194919  0.521353  1
  O  O24  1  0.956624  0.649469  0.432662  1
  O  O25  1  0.043376  0.350531  0.567338  1
  O  O26  1  0.649378  0.018838  0.874873  1
  O  O27  1  0.350622  0.981162  0.125127  1
  O  O28  1  0.326546  0.228718  0.776975  1
  O  O29  1  0.673454  0.771282  0.223025  1
  O  O30  1  0.532724  0.330585  0.999916  1
  O  O31  1  0.467276  0.669415  0.000084  1
  O  O32  1  0.235737  0.496225  0.186880  1
  O  O33  1  0.764263  0.503775  0.813120  1
  O  O34  1  0.314419  0.734962  0.285235  1
  O  O35  1  0.685581  0.265038  0.714765  1
  O  O36  1  0.662912  0.485839  0.380454  1
  O  O37  1  0.337088  0.514161  0.619546  1
  O  O38  1  0.067329  0.265390  0.275258  1
  O  O39  1  0.932671  0.734610  0.724742  1
