# generated using pymatgen
data_Nb4As3
_symmetry_space_group_name_H-M   'P 1'
_cell_length_a   7.60641013
_cell_length_b   7.60641013
_cell_length_c   18.99304998
_cell_angle_alpha   90.00000000
_cell_angle_beta   90.00000000
_cell_angle_gamma   153.06971637
_symmetry_Int_Tables_number   1
_chemical_formula_structural   Nb4As3
_chemical_formula_sum   'Nb16 As12'
_cell_volume   497.69384134
_cell_formula_units_Z   4
loop_
 _symmetry_equiv_pos_site_id
 _symmetry_equiv_pos_as_xyz
  1  'x, y, z'
loop_
 _atom_site_type_symbol
 _atom_site_label
 _atom_site_symmetry_multiplicity
 _atom_site_fract_x
 _atom_site_fract_y
 _atom_site_fract_z
 _atom_site_occupancy
  Nb  Nb0  1  0.737736  0.262264  0.161873  1
  Nb  Nb1  1  0.262264  0.737736  0.838127  1
  Nb  Nb2  1  0.262264  0.737736  0.661873  1
  Nb  Nb3  1  0.737736  0.262264  0.338127  1
  Nb  Nb4  1  0.533867  0.466133  0.119651  1
  Nb  Nb5  1  0.466133  0.533867  0.880349  1
  Nb  Nb6  1  0.466133  0.533867  0.619651  1
  Nb  Nb7  1  0.533867  0.466133  0.380349  1
  Nb  Nb8  1  0.668353  0.331647  0.971259  1
  Nb  Nb9  1  0.331647  0.668353  0.028741  1
  Nb  Nb10  1  0.331647  0.668353  0.471259  1
  Nb  Nb11  1  0.668353  0.331647  0.528741  1
  Nb  Nb12  1  0.000000  0.000000  0.000000  1
  Nb  Nb13  1  0.000000  0.000000  0.500000  1
  Nb  Nb14  1  0.053328  0.946672  0.750000  1
  Nb  Nb15  1  0.946672  0.053328  0.250000  1
  As  As16  1  0.901854  0.098146  0.118112  1
  As  As17  1  0.098146  0.901854  0.881888  1
  As  As18  1  0.098146  0.901854  0.618112  1
  As  As19  1  0.901854  0.098146  0.381888  1
  As  As20  1  0.842062  0.157938  0.922597  1
  As  As21  1  0.157938  0.842062  0.077403  1
  As  As22  1  0.157938  0.842062  0.422597  1
  As  As23  1  0.842062  0.157938  0.577403  1
  As  As24  1  0.691841  0.308159  0.750000  1
  As  As25  1  0.308159  0.691841  0.250000  1
  As  As26  1  0.412872  0.587128  0.750000  1
  As  As27  1  0.587128  0.412872  0.250000  1
