# generated using pymatgen
data_Nd5Co19B6
_symmetry_space_group_name_H-M   'P 1'
_cell_length_a   5.12156418
_cell_length_b   5.12156418
_cell_length_c   16.55490256
_cell_angle_alpha   90.00000000
_cell_angle_beta   90.00000000
_cell_angle_gamma   120.00000000
_symmetry_Int_Tables_number   1
_chemical_formula_structural   Nd5Co19B6
_chemical_formula_sum   'Nd5 Co19 B6'
_cell_volume   376.06463852
_cell_formula_units_Z   1
loop_
 _symmetry_equiv_pos_site_id
 _symmetry_equiv_pos_as_xyz
  1  'x, y, z'
loop_
 _atom_site_type_symbol
 _atom_site_label
 _atom_site_symmetry_multiplicity
 _atom_site_fract_x
 _atom_site_fract_y
 _atom_site_fract_z
 _atom_site_occupancy
  Nd  Nd0  1  0.000000  0.000000  0.704811  1
  Nd  Nd1  1  0.000000  0.000000  0.093488  1
  Nd  Nd2  1  0.000000  0.000000  0.295189  1
  Nd  Nd3  1  0.000000  0.000000  0.500000  1
  Nd  Nd4  1  0.000000  0.000000  0.906512  1
  Co  Co5  1  0.500000  0.500000  0.586543  1
  Co  Co6  1  0.500000  0.500000  0.413457  1
  Co  Co7  1  0.333333  0.666667  0.705722  1
  Co  Co8  1  0.500000  0.000000  0.413457  1
  Co  Co9  1  0.000000  0.500000  0.586543  1
  Co  Co10  1  0.500000  0.500000  0.174390  1
  Co  Co11  1  0.333333  0.666667  0.294278  1
  Co  Co12  1  0.666667  0.333333  0.705722  1
  Co  Co13  1  0.500000  0.500000  0.825610  1
  Co  Co14  1  0.500000  0.000000  0.825610  1
  Co  Co15  1  0.666667  0.333333  0.294278  1
  Co  Co16  1  0.000000  0.500000  0.413457  1
  Co  Co17  1  0.500000  0.000000  0.586543  1
  Co  Co18  1  0.500000  0.000000  0.174390  1
  Co  Co19  1  0.000000  0.500000  0.174390  1
  Co  Co20  1  0.500000  0.000000  0.000000  1
  Co  Co21  1  0.000000  0.500000  0.825610  1
  Co  Co22  1  0.000000  0.500000  0.000000  1
  Co  Co23  1  0.500000  0.500000  0.000000  1
  B  B24  1  0.333333  0.666667  0.911646  1
  B  B25  1  0.666667  0.333333  0.911646  1
  B  B26  1  0.666667  0.333333  0.088354  1
  B  B27  1  0.333333  0.666667  0.088354  1
  B  B28  1  0.666667  0.333333  0.500000  1
  B  B29  1  0.333333  0.666667  0.500000  1
