# generated using pymatgen
data_CsTmZnSe3
_symmetry_space_group_name_H-M   'P 1'
_cell_length_a   8.39624902
_cell_length_b   8.39624902
_cell_length_c   10.91196164
_cell_angle_alpha   90.00000000
_cell_angle_beta   90.00000000
_cell_angle_gamma   151.45957124
_symmetry_Int_Tables_number   1
_chemical_formula_structural   CsTmZnSe3
_chemical_formula_sum   'Cs2 Tm2 Zn2 Se6'
_cell_volume   367.53633458
_cell_formula_units_Z   2
loop_
 _symmetry_equiv_pos_site_id
 _symmetry_equiv_pos_as_xyz
  1  'x, y, z'
loop_
 _atom_site_type_symbol
 _atom_site_label
 _atom_site_symmetry_multiplicity
 _atom_site_fract_x
 _atom_site_fract_y
 _atom_site_fract_z
 _atom_site_occupancy
  Cs  Cs0  1  0.257694  0.742306  0.750000  1
  Cs  Cs1  1  0.742306  0.257694  0.250000  1
  Tm  Tm2  1  0.000000  0.000000  0.000000  1
  Tm  Tm3  1  0.000000  0.000000  0.500000  1
  Zn  Zn4  1  0.539585  0.460415  0.750000  1
  Zn  Zn5  1  0.460415  0.539585  0.250000  1
  Se  Se6  1  0.615212  0.384788  0.943993  1
  Se  Se7  1  0.384788  0.615212  0.056007  1
  Se  Se8  1  0.384788  0.615212  0.443993  1
  Se  Se9  1  0.615212  0.384788  0.556007  1
  Se  Se10  1  0.946012  0.053988  0.750000  1
  Se  Se11  1  0.053988  0.946012  0.250000  1
