# generated using pymatgen
data_TbInNi
_symmetry_space_group_name_H-M   'P 1'
_cell_length_a   7.49071117
_cell_length_b   7.49071117
_cell_length_c   3.78416306
_cell_angle_alpha   90.00000000
_cell_angle_beta   90.00000000
_cell_angle_gamma   120.00000000
_symmetry_Int_Tables_number   1
_chemical_formula_structural   TbInNi
_chemical_formula_sum   'Tb3 In3 Ni3'
_cell_volume   183.88511558
_cell_formula_units_Z   3
loop_
 _symmetry_equiv_pos_site_id
 _symmetry_equiv_pos_as_xyz
  1  'x, y, z'
loop_
 _atom_site_type_symbol
 _atom_site_label
 _atom_site_symmetry_multiplicity
 _atom_site_fract_x
 _atom_site_fract_y
 _atom_site_fract_z
 _atom_site_occupancy
  Tb  Tb0  1  0.000000  0.589058  0.500000  1
  Tb  Tb1  1  0.589058  0.000000  0.500000  1
  Tb  Tb2  1  0.410942  0.410942  0.500000  1
  In  In3  1  0.744815  0.744815  0.000000  1
  In  In4  1  0.000000  0.255185  0.000000  1
  In  In5  1  0.255185  0.000000  0.000000  1
  Ni  Ni6  1  0.000000  0.000000  0.500000  1
  Ni  Ni7  1  0.666667  0.333333  0.000000  1
  Ni  Ni8  1  0.333333  0.666667  0.000000  1
