# generated using pymatgen
data_Ba3Ti20O40
_symmetry_space_group_name_H-M   'P 1'
_cell_length_a   10.34203707
_cell_length_b   10.34203707
_cell_length_c   10.13502697
_cell_angle_alpha   61.29340427
_cell_angle_beta   118.70659573
_cell_angle_gamma   87.72875567
_symmetry_Int_Tables_number   1
_chemical_formula_structural   Ba3Ti20O40
_chemical_formula_sum   'Ba3 Ti20 O40'
_cell_volume   780.73481384
_cell_formula_units_Z   1
loop_
 _symmetry_equiv_pos_site_id
 _symmetry_equiv_pos_as_xyz
  1  'x, y, z'
loop_
 _atom_site_type_symbol
 _atom_site_label
 _atom_site_symmetry_multiplicity
 _atom_site_fract_x
 _atom_site_fract_y
 _atom_site_fract_z
 _atom_site_occupancy
  Ba  Ba0  1  0.366041  0.366041  0.000000  1
  Ba  Ba1  1  0.633959  0.633959  0.000000  1
  Ba  Ba2  1  0.000000  0.000000  0.000000  1
  Ti  Ti3  1  0.934274  0.262646  0.182695  1
  Ti  Ti4  1  0.737354  0.065726  0.182695  1
  Ti  Ti5  1  0.846892  0.153108  0.508736  1
  Ti  Ti6  1  0.942352  0.655301  0.469030  1
  Ti  Ti7  1  0.344699  0.057648  0.469030  1
  Ti  Ti8  1  0.340823  0.659177  0.181992  1
  Ti  Ti9  1  0.747639  0.449420  0.483332  1
  Ti  Ti10  1  0.550580  0.252361  0.483332  1
  Ti  Ti11  1  0.528734  0.873096  0.180764  1
  Ti  Ti12  1  0.126904  0.471266  0.180764  1
  Ti  Ti13  1  0.873096  0.528734  0.819236  1
  Ti  Ti14  1  0.471266  0.126904  0.819236  1
  Ti  Ti15  1  0.449420  0.747639  0.516668  1
  Ti  Ti16  1  0.252361  0.550580  0.516668  1
  Ti  Ti17  1  0.659177  0.340823  0.818008  1
  Ti  Ti18  1  0.655301  0.942352  0.530970  1
  Ti  Ti19  1  0.057648  0.344699  0.530970  1
  Ti  Ti20  1  0.153108  0.846892  0.491264  1
  Ti  Ti21  1  0.262646  0.934274  0.817305  1
  Ti  Ti22  1  0.065726  0.737354  0.817305  1
  O  O23  1  0.961838  0.038162  0.282328  1
  O  O24  1  0.502145  0.097337  0.051015  1
  O  O25  1  0.902663  0.497855  0.051015  1
  O  O26  1  0.697581  0.302419  0.051281  1
  O  O27  1  0.739995  0.057953  0.380773  1
  O  O28  1  0.942047  0.260005  0.380773  1
  O  O29  1  0.654735  0.345265  0.348456  1
  O  O30  1  0.858829  0.541304  0.355967  1
  O  O31  1  0.458696  0.141171  0.355967  1
  O  O32  1  0.742766  0.060512  0.642853  1
  O  O33  1  0.939488  0.257234  0.642853  1
  O  O34  1  0.357211  0.438939  0.279834  1
  O  O35  1  0.561061  0.642789  0.279834  1
  O  O36  1  0.757250  0.841293  0.285010  1
  O  O37  1  0.158707  0.242750  0.285010  1
  O  O38  1  0.301824  0.894117  0.051971  1
  O  O39  1  0.105883  0.698176  0.051971  1
  O  O40  1  0.455514  0.143195  0.615432  1
  O  O41  1  0.856805  0.544486  0.615432  1
  O  O42  1  0.657250  0.342750  0.620740  1
  O  O43  1  0.342750  0.657250  0.379260  1
  O  O44  1  0.143195  0.455514  0.384568  1
  O  O45  1  0.544486  0.856805  0.384568  1
  O  O46  1  0.894117  0.301824  0.948029  1
  O  O47  1  0.698176  0.105883  0.948029  1
  O  O48  1  0.841293  0.757250  0.714990  1
  O  O49  1  0.242750  0.158707  0.714990  1
  O  O50  1  0.642789  0.561061  0.720166  1
  O  O51  1  0.438939  0.357211  0.720166  1
  O  O52  1  0.060512  0.742766  0.357147  1
  O  O53  1  0.257234  0.939488  0.357147  1
  O  O54  1  0.541304  0.858829  0.644033  1
  O  O55  1  0.141171  0.458696  0.644033  1
  O  O56  1  0.345265  0.654735  0.651544  1
  O  O57  1  0.057953  0.739995  0.619227  1
  O  O58  1  0.260005  0.942047  0.619227  1
  O  O59  1  0.302419  0.697581  0.948719  1
  O  O60  1  0.097337  0.502145  0.948985  1
  O  O61  1  0.497855  0.902663  0.948985  1
  O  O62  1  0.038162  0.961838  0.717672  1
