# generated using pymatgen
data_SrFe2(PO4)2
_symmetry_space_group_name_H-M   'P 1'
_cell_length_a   9.53211387
_cell_length_b   6.95984645
_cell_length_c   10.69631532
_cell_angle_alpha   90.00000000
_cell_angle_beta   109.79189876
_cell_angle_gamma   90.00000000
_symmetry_Int_Tables_number   1
_chemical_formula_structural   SrFe2(PO4)2
_chemical_formula_sum   'Sr4 Fe8 P8 O32'
_cell_volume   667.69753320
_cell_formula_units_Z   4
loop_
 _symmetry_equiv_pos_site_id
 _symmetry_equiv_pos_as_xyz
  1  'x, y, z'
loop_
 _atom_site_type_symbol
 _atom_site_label
 _atom_site_symmetry_multiplicity
 _atom_site_fract_x
 _atom_site_fract_y
 _atom_site_fract_z
 _atom_site_occupancy
  Sr  Sr0  1  0.304997  0.880259  0.017540  1
  Sr  Sr1  1  0.695003  0.380259  0.482460  1
  Sr  Sr2  1  0.695003  0.119741  0.982460  1
  Sr  Sr3  1  0.304997  0.619741  0.517540  1
  Fe  Fe4  1  0.079496  0.348472  0.117835  1
  Fe  Fe5  1  0.920504  0.848472  0.382165  1
  Fe  Fe6  1  0.920504  0.651528  0.882165  1
  Fe  Fe7  1  0.079496  0.151528  0.617835  1
  Fe  Fe8  1  0.287914  0.107250  0.333451  1
  Fe  Fe9  1  0.712086  0.607250  0.166549  1
  Fe  Fe10  1  0.712086  0.892750  0.666549  1
  Fe  Fe11  1  0.287914  0.392750  0.833451  1
  P  P12  1  0.035362  0.825891  0.172745  1
  P  P13  1  0.964638  0.325891  0.327255  1
  P  P14  1  0.964638  0.174109  0.827255  1
  P  P15  1  0.035362  0.674109  0.672745  1
  P  P16  1  0.422096  0.145202  0.619692  1
  P  P17  1  0.577904  0.645202  0.880308  1
  P  P18  1  0.577904  0.854798  0.380308  1
  P  P19  1  0.422096  0.354798  0.119692  1
  O  O20  1  0.107111  0.787199  0.324359  1
  O  O21  1  0.892889  0.287199  0.175641  1
  O  O22  1  0.892889  0.212801  0.675641  1
  O  O23  1  0.107111  0.712801  0.824359  1
  O  O24  1  0.111416  0.007934  0.140883  1
  O  O25  1  0.888584  0.507934  0.359117  1
  O  O26  1  0.888584  0.992066  0.859117  1
  O  O27  1  0.111416  0.492066  0.640883  1
  O  O28  1  0.135335  0.346767  0.355033  1
  O  O29  1  0.864665  0.846767  0.144967  1
  O  O30  1  0.864665  0.653233  0.644967  1
  O  O31  1  0.135335  0.153233  0.855033  1
  O  O32  1  0.061524  0.656404  0.086235  1
  O  O33  1  0.938476  0.156404  0.413765  1
  O  O34  1  0.938476  0.343596  0.913765  1
  O  O35  1  0.061524  0.843596  0.586235  1
  O  O36  1  0.431596  0.919525  0.273875  1
  O  O37  1  0.568404  0.419525  0.226125  1
  O  O38  1  0.568404  0.080475  0.726125  1
  O  O39  1  0.431596  0.580475  0.773875  1
  O  O40  1  0.448661  0.314278  0.536204  1
  O  O41  1  0.551339  0.814278  0.963796  1
  O  O42  1  0.551339  0.685722  0.463796  1
  O  O43  1  0.448661  0.185722  0.036204  1
  O  O44  1  0.345210  0.983475  0.518634  1
  O  O45  1  0.654790  0.483475  0.981366  1
  O  O46  1  0.654790  0.016525  0.481366  1
  O  O47  1  0.345210  0.516525  0.018634  1
  O  O48  1  0.306517  0.302893  0.190465  1
  O  O49  1  0.693483  0.802893  0.309535  1
  O  O50  1  0.693483  0.697107  0.809535  1
  O  O51  1  0.306517  0.197107  0.690465  1
