# generated using pymatgen
data_In7Pd3
_symmetry_space_group_name_H-M   'P 1'
_cell_length_a   8.33184747
_cell_length_b   8.33184747
_cell_length_c   8.33184747
_cell_angle_alpha   109.47122063
_cell_angle_beta   109.47122063
_cell_angle_gamma   109.47122063
_symmetry_Int_Tables_number   1
_chemical_formula_structural   In7Pd3
_chemical_formula_sum   'In14 Pd6'
_cell_volume   445.24806594
_cell_formula_units_Z   2
loop_
 _symmetry_equiv_pos_site_id
 _symmetry_equiv_pos_as_xyz
  1  'x, y, z'
loop_
 _atom_site_type_symbol
 _atom_site_label
 _atom_site_symmetry_multiplicity
 _atom_site_fract_x
 _atom_site_fract_y
 _atom_site_fract_z
 _atom_site_occupancy
  In  In0  1  0.500000  0.250000  0.750000  1
  In  In1  1  0.325140  0.000000  0.000000  1
  In  In2  1  0.674860  0.000000  0.000000  1
  In  In3  1  0.250000  0.500000  0.750000  1
  In  In4  1  0.750000  0.250000  0.500000  1
  In  In5  1  0.000000  0.674860  0.000000  1
  In  In6  1  0.000000  0.000000  0.325140  1
  In  In7  1  0.325140  0.325140  0.325140  1
  In  In8  1  0.250000  0.750000  0.500000  1
  In  In9  1  0.000000  0.325140  0.000000  1
  In  In10  1  0.000000  0.000000  0.674860  1
  In  In11  1  0.750000  0.500000  0.250000  1
  In  In12  1  0.674860  0.674860  0.674860  1
  In  In13  1  0.500000  0.750000  0.250000  1
  Pd  Pd14  1  1.000000  0.652554  0.652554  1
  Pd  Pd15  1  0.652554  0.652554  0.000000  1
  Pd  Pd16  1  0.000000  0.347446  0.347446  1
  Pd  Pd17  1  0.652554  1.000000  0.652554  1
  Pd  Pd18  1  0.347446  0.000000  0.347446  1
  Pd  Pd19  1  0.347446  0.347446  0.000000  1
