# generated using pymatgen
data_BaY2Si3O10
_symmetry_space_group_name_H-M   'P 1'
_cell_length_a   5.47404531
_cell_length_b   12.35796800
_cell_length_c   6.93551309
_cell_angle_alpha   90.00000000
_cell_angle_beta   106.35972110
_cell_angle_gamma   90.00000000
_symmetry_Int_Tables_number   1
_chemical_formula_structural   BaY2Si3O10
_chemical_formula_sum   'Ba2 Y4 Si6 O20'
_cell_volume   450.17830502
_cell_formula_units_Z   2
loop_
 _symmetry_equiv_pos_site_id
 _symmetry_equiv_pos_as_xyz
  1  'x, y, z'
loop_
 _atom_site_type_symbol
 _atom_site_label
 _atom_site_symmetry_multiplicity
 _atom_site_fract_x
 _atom_site_fract_y
 _atom_site_fract_z
 _atom_site_occupancy
  Ba  Ba0  1  0.762780  0.750000  0.015160  1
  Ba  Ba1  1  0.237220  0.250000  0.984840  1
  Y  Y2  1  0.158828  0.598652  0.684574  1
  Y  Y3  1  0.158828  0.901348  0.684574  1
  Y  Y4  1  0.841172  0.098652  0.315426  1
  Y  Y5  1  0.841172  0.401348  0.315426  1
  Si  Si6  1  0.695656  0.061720  0.785798  1
  Si  Si7  1  0.418642  0.250000  0.511771  1
  Si  Si8  1  0.581358  0.750000  0.488229  1
  Si  Si9  1  0.695656  0.438280  0.785798  1
  Si  Si10  1  0.304344  0.561720  0.214202  1
  Si  Si11  1  0.304344  0.938280  0.214202  1
  O  O12  1  0.897457  0.449744  0.648289  1
  O  O13  1  0.454051  0.143400  0.661486  1
  O  O14  1  0.545949  0.856600  0.338514  1
  O  O15  1  0.454051  0.356600  0.661486  1
  O  O16  1  0.836035  0.377580  0.996528  1
  O  O17  1  0.163965  0.877580  0.003472  1
  O  O18  1  0.434821  0.053652  0.191943  1
  O  O19  1  0.102543  0.949744  0.351711  1
  O  O20  1  0.102543  0.550256  0.351711  1
  O  O21  1  0.626956  0.250000  0.383460  1
  O  O22  1  0.836035  0.122420  0.996528  1
  O  O23  1  0.565179  0.553652  0.808057  1
  O  O24  1  0.124973  0.250000  0.367074  1
  O  O25  1  0.545949  0.643400  0.338514  1
  O  O26  1  0.875027  0.750000  0.632926  1
  O  O27  1  0.565179  0.946348  0.808057  1
  O  O28  1  0.373044  0.750000  0.616540  1
  O  O29  1  0.434821  0.446348  0.191943  1
  O  O30  1  0.163965  0.622420  0.003472  1
  O  O31  1  0.897457  0.050256  0.648289  1
