# generated using pymatgen
data_LiCu2Sn
_symmetry_space_group_name_H-M   'P 1'
_cell_length_a   4.29755081
_cell_length_b   4.29755081
_cell_length_c   7.65334554
_cell_angle_alpha   90.00000000
_cell_angle_beta   90.00000000
_cell_angle_gamma   120.00000000
_symmetry_Int_Tables_number   1
_chemical_formula_structural   LiCu2Sn
_chemical_formula_sum   'Li2 Cu4 Sn2'
_cell_volume   122.41199977
_cell_formula_units_Z   2
loop_
 _symmetry_equiv_pos_site_id
 _symmetry_equiv_pos_as_xyz
  1  'x, y, z'
loop_
 _atom_site_type_symbol
 _atom_site_label
 _atom_site_symmetry_multiplicity
 _atom_site_fract_x
 _atom_site_fract_y
 _atom_site_fract_z
 _atom_site_occupancy
  Li  Li0  1  0.000000  0.000000  0.500000  1
  Li  Li1  1  0.000000  0.000000  0.000000  1
  Cu  Cu2  1  0.666667  0.333333  0.411162  1
  Cu  Cu3  1  0.333333  0.666667  0.911162  1
  Cu  Cu4  1  0.666667  0.333333  0.088838  1
  Cu  Cu5  1  0.333333  0.666667  0.588838  1
  Sn  Sn6  1  0.666667  0.333333  0.750000  1
  Sn  Sn7  1  0.333333  0.666667  0.250000  1
