# generated using pymatgen
data_KLa(PS3)2
_symmetry_space_group_name_H-M   'P 1'
_cell_length_a   11.48706692
_cell_length_b   7.66184100
_cell_length_c   12.18850561
_cell_angle_alpha   90.00000000
_cell_angle_beta   109.68038729
_cell_angle_gamma   90.00000000
_symmetry_Int_Tables_number   1
_chemical_formula_structural   KLa(PS3)2
_chemical_formula_sum   'K4 La4 P8 S24'
_cell_volume   1010.07281948
_cell_formula_units_Z   4
loop_
 _symmetry_equiv_pos_site_id
 _symmetry_equiv_pos_as_xyz
  1  'x, y, z'
loop_
 _atom_site_type_symbol
 _atom_site_label
 _atom_site_symmetry_multiplicity
 _atom_site_fract_x
 _atom_site_fract_y
 _atom_site_fract_z
 _atom_site_occupancy
  K  K0  1  0.374609  0.094207  0.130507  1
  K  K1  1  0.125391  0.594207  0.869493  1
  K  K2  1  0.625391  0.905793  0.869493  1
  K  K3  1  0.874609  0.405793  0.130507  1
  La  La4  1  0.597172  0.607108  0.351580  1
  La  La5  1  0.097172  0.892892  0.351580  1
  La  La6  1  0.902828  0.107108  0.648420  1
  La  La7  1  0.402828  0.392892  0.648420  1
  P  P8  1  0.253712  0.399846  0.329308  1
  P  P9  1  0.753712  0.100154  0.329308  1
  P  P10  1  0.766749  0.881788  0.211149  1
  P  P11  1  0.246288  0.899846  0.670692  1
  P  P12  1  0.233251  0.118212  0.788851  1
  P  P13  1  0.733251  0.381788  0.788851  1
  P  P14  1  0.746288  0.600154  0.670692  1
  P  P15  1  0.266749  0.618212  0.211149  1
  S  S16  1  0.638438  0.195014  0.674555  1
  S  S17  1  0.355178  0.713526  0.773195  1
  S  S18  1  0.644822  0.286474  0.226805  1
  S  S19  1  0.366755  0.525902  0.116666  1
  S  S20  1  0.183954  0.517361  0.445301  1
  S  S21  1  0.316046  0.017361  0.554699  1
  S  S22  1  0.408392  0.203810  0.868450  1
  S  S23  1  0.855178  0.786474  0.773195  1
  S  S24  1  0.068940  0.818087  0.588586  1
  S  S25  1  0.568940  0.681913  0.588586  1
  S  S26  1  0.866755  0.974098  0.116666  1
  S  S27  1  0.683954  0.982639  0.445301  1
  S  S28  1  0.138438  0.304986  0.674555  1
  S  S29  1  0.144822  0.213526  0.226805  1
  S  S30  1  0.861562  0.695014  0.325445  1
  S  S31  1  0.816046  0.482639  0.554699  1
  S  S32  1  0.931060  0.181913  0.411414  1
  S  S33  1  0.591608  0.796190  0.131550  1
  S  S34  1  0.361562  0.804986  0.325445  1
  S  S35  1  0.091608  0.703810  0.131550  1
  S  S36  1  0.133245  0.025902  0.883334  1
  S  S37  1  0.908392  0.296190  0.868450  1
  S  S38  1  0.633245  0.474098  0.883334  1
  S  S39  1  0.431060  0.318087  0.411414  1
