# generated using pymatgen
data_Bi5BrO7
_symmetry_space_group_name_H-M   'P 1'
_cell_length_a   8.67560410
_cell_length_b   8.67560410
_cell_length_c   23.77379138
_cell_angle_alpha   90.00000000
_cell_angle_beta   90.00000000
_cell_angle_gamma   143.43798422
_symmetry_Int_Tables_number   1
_chemical_formula_structural   Bi5BrO7
_chemical_formula_sum   'Bi20 Br4 O28'
_cell_volume   1065.90878744
_cell_formula_units_Z   4
loop_
 _symmetry_equiv_pos_site_id
 _symmetry_equiv_pos_as_xyz
  1  'x, y, z'
loop_
 _atom_site_type_symbol
 _atom_site_label
 _atom_site_symmetry_multiplicity
 _atom_site_fract_x
 _atom_site_fract_y
 _atom_site_fract_z
 _atom_site_occupancy
  Bi  Bi0  1  0.957410  0.614231  0.939171  1
  Bi  Bi1  1  0.715850  0.715850  0.798306  1
  Bi  Bi2  1  0.215850  0.215850  0.701694  1
  Bi  Bi3  1  0.365700  0.014831  0.809264  1
  Bi  Bi4  1  0.634300  0.985169  0.190736  1
  Bi  Bi5  1  0.514831  0.865700  0.690736  1
  Bi  Bi6  1  0.134300  0.485169  0.309264  1
  Bi  Bi7  1  0.457410  0.114231  0.560829  1
  Bi  Bi8  1  0.542590  0.885769  0.439171  1
  Bi  Bi9  1  0.014831  0.365700  0.809264  1
  Bi  Bi10  1  0.485169  0.134300  0.309264  1
  Bi  Bi11  1  0.042590  0.385769  0.060829  1
  Bi  Bi12  1  0.784150  0.784150  0.298306  1
  Bi  Bi13  1  0.885769  0.542590  0.439171  1
  Bi  Bi14  1  0.385769  0.042590  0.060829  1
  Bi  Bi15  1  0.614231  0.957410  0.939171  1
  Bi  Bi16  1  0.114231  0.457410  0.560829  1
  Bi  Bi17  1  0.985169  0.634300  0.190736  1
  Bi  Bi18  1  0.284150  0.284150  0.201694  1
  Bi  Bi19  1  0.865700  0.514831  0.690736  1
  Br  Br20  1  0.681121  0.681121  0.605216  1
  Br  Br21  1  0.181121  0.181121  0.894784  1
  Br  Br22  1  0.318879  0.318879  0.394784  1
  Br  Br23  1  0.818879  0.818879  0.105216  1
  O  O24  1  0.388499  0.007160  0.149765  1
  O  O25  1  0.229885  0.729885  0.750000  1
  O  O26  1  0.007160  0.388499  0.149765  1
  O  O27  1  0.770115  0.270115  0.250000  1
  O  O28  1  0.609140  0.446023  0.253037  1
  O  O29  1  0.446023  0.609140  0.253037  1
  O  O30  1  0.507160  0.888499  0.350235  1
  O  O31  1  0.961196  0.370070  0.950034  1
  O  O32  1  0.888499  0.507160  0.350235  1
  O  O33  1  0.870070  0.461196  0.549966  1
  O  O34  1  0.038804  0.629930  0.049966  1
  O  O35  1  0.729885  0.229885  0.750000  1
  O  O36  1  0.553977  0.390860  0.746963  1
  O  O37  1  0.109140  0.946023  0.246963  1
  O  O38  1  0.370070  0.961196  0.950034  1
  O  O39  1  0.111501  0.492840  0.649765  1
  O  O40  1  0.629930  0.038804  0.049966  1
  O  O41  1  0.053977  0.890860  0.753037  1
  O  O42  1  0.890860  0.053977  0.753037  1
  O  O43  1  0.270115  0.770115  0.250000  1
  O  O44  1  0.992840  0.611501  0.850235  1
  O  O45  1  0.946023  0.109140  0.246963  1
  O  O46  1  0.611501  0.992840  0.850235  1
  O  O47  1  0.390860  0.553977  0.746963  1
  O  O48  1  0.492840  0.111501  0.649765  1
  O  O49  1  0.461196  0.870070  0.549966  1
  O  O50  1  0.538804  0.129930  0.450034  1
  O  O51  1  0.129930  0.538804  0.450034  1
