# generated using pymatgen
data_LiMn2P3O11
_symmetry_space_group_name_H-M   'P 1'
_cell_length_a   7.31179529
_cell_length_b   7.31179529
_cell_length_c   8.61072486
_cell_angle_alpha   72.04201262
_cell_angle_beta   107.95798738
_cell_angle_gamma   108.11611565
_symmetry_Int_Tables_number   1
_chemical_formula_structural   LiMn2P3O11
_chemical_formula_sum   'Li2 Mn4 P6 O22'
_cell_volume   404.56042296
_cell_formula_units_Z   2
loop_
 _symmetry_equiv_pos_site_id
 _symmetry_equiv_pos_as_xyz
  1  'x, y, z'
loop_
 _atom_site_type_symbol
 _atom_site_label
 _atom_site_symmetry_multiplicity
 _atom_site_fract_x
 _atom_site_fract_y
 _atom_site_fract_z
 _atom_site_occupancy
  Li  Li0  1  0.516921  0.014335  0.738476  1
  Li  Li1  1  0.014335  0.516921  0.261524  1
  Mn  Mn2  1  0.362862  0.121600  0.293247  1
  Mn  Mn3  1  0.636535  0.879742  0.205776  1
  Mn  Mn4  1  0.121600  0.362862  0.706753  1
  Mn  Mn5  1  0.879742  0.636535  0.794224  1
  P  P6  1  0.550873  0.325673  0.967112  1
  P  P7  1  0.676278  0.449464  0.467898  1
  P  P8  1  0.449464  0.676278  0.532102  1
  P  P9  1  0.325673  0.550873  0.032888  1
  P  P10  1  0.036578  0.036578  0.500000  1
  P  P11  1  0.962753  0.962753  0.000000  1
  O  O12  1  0.987563  0.124573  0.840870  1
  O  O13  1  0.264787  0.398718  0.184949  1
  O  O14  1  0.764683  0.392304  0.948115  1
  O  O15  1  0.738293  0.599310  0.315796  1
  O  O16  1  0.233172  0.606826  0.546774  1
  O  O17  1  0.398718  0.264787  0.815051  1
  O  O18  1  0.531704  0.164095  0.131775  1
  O  O19  1  0.124573  0.987563  0.159130  1
  O  O20  1  0.043422  0.246779  0.516833  1
  O  O21  1  0.246779  0.043422  0.483167  1
  O  O22  1  0.468422  0.837630  0.367572  1
  O  O23  1  0.599310  0.738293  0.684204  1
  O  O24  1  0.010524  0.874967  0.658678  1
  O  O25  1  0.487665  0.487665  0.500000  1
  O  O26  1  0.164095  0.531704  0.868225  1
  O  O27  1  0.392304  0.764683  0.051885  1
  O  O28  1  0.514838  0.514838  0.000000  1
  O  O29  1  0.956422  0.752659  0.983828  1
  O  O30  1  0.606826  0.233172  0.453226  1
  O  O31  1  0.752659  0.956422  0.016172  1
  O  O32  1  0.874967  0.010524  0.341322  1
  O  O33  1  0.837630  0.468422  0.632428  1
