# generated using pymatgen
data_Li3Er(NO3)6
_symmetry_space_group_name_H-M   'P 1'
_cell_length_a   7.92331887
_cell_length_b   7.64576350
_cell_length_c   25.60829935
_cell_angle_alpha   90.00000000
_cell_angle_beta   107.00624061
_cell_angle_gamma   90.00000000
_symmetry_Int_Tables_number   1
_chemical_formula_structural   Li3Er(NO3)6
_chemical_formula_sum   'Li12 Er4 N24 O72'
_cell_volume   1483.51035977
_cell_formula_units_Z   4
loop_
 _symmetry_equiv_pos_site_id
 _symmetry_equiv_pos_as_xyz
  1  'x, y, z'
loop_
 _atom_site_type_symbol
 _atom_site_label
 _atom_site_symmetry_multiplicity
 _atom_site_fract_x
 _atom_site_fract_y
 _atom_site_fract_z
 _atom_site_occupancy
  Li  Li0  1  0.422509  0.815173  0.635551  1
  Li  Li1  1  0.243909  0.940438  0.245360  1
  Li  Li2  1  0.718115  0.711284  0.475324  1
  Li  Li3  1  0.756091  0.440438  0.254640  1
  Li  Li4  1  0.243909  0.559562  0.745360  1
  Li  Li5  1  0.756091  0.059562  0.754640  1
  Li  Li6  1  0.281885  0.288716  0.524676  1
  Li  Li7  1  0.577491  0.184827  0.364449  1
  Li  Li8  1  0.577491  0.315173  0.864449  1
  Li  Li9  1  0.422509  0.684827  0.135551  1
  Li  Li10  1  0.281885  0.211284  0.024676  1
  Li  Li11  1  0.718115  0.788716  0.975324  1
  Er  Er12  1  0.133971  0.804758  0.890562  1
  Er  Er13  1  0.866029  0.195242  0.109438  1
  Er  Er14  1  0.133971  0.695242  0.390562  1
  Er  Er15  1  0.866029  0.304758  0.609438  1
  N  N16  1  0.040164  0.377443  0.435627  1
  N  N17  1  0.500210  0.298979  0.764638  1
  N  N18  1  0.177717  0.383001  0.105980  1
  N  N19  1  0.177717  0.116999  0.605980  1
  N  N20  1  0.959836  0.622557  0.564373  1
  N  N21  1  0.297066  0.002961  0.445594  1
  N  N22  1  0.032764  0.802032  0.772173  1
  N  N23  1  0.967236  0.197968  0.227827  1
  N  N24  1  0.546832  0.996194  0.097795  1
  N  N25  1  0.822283  0.616999  0.894020  1
  N  N26  1  0.453168  0.003806  0.902205  1
  N  N27  1  0.822283  0.883001  0.394020  1
  N  N28  1  0.040164  0.122557  0.935627  1
  N  N29  1  0.702934  0.502961  0.054406  1
  N  N30  1  0.032764  0.697968  0.272173  1
  N  N31  1  0.959836  0.877443  0.064373  1
  N  N32  1  0.453168  0.496194  0.402205  1
  N  N33  1  0.702934  0.997039  0.554406  1
  N  N34  1  0.546832  0.503806  0.597795  1
  N  N35  1  0.499790  0.798979  0.735362  1
  N  N36  1  0.500210  0.201021  0.264638  1
  N  N37  1  0.297066  0.497039  0.945594  1
  N  N38  1  0.499790  0.701021  0.235362  1
  N  N39  1  0.967236  0.302032  0.727827  1
  O  O40  1  0.540638  0.703819  0.285849  1
  O  O41  1  0.541190  0.361698  0.570156  1
  O  O42  1  0.636313  0.862408  0.529390  1
  O  O43  1  0.046368  0.396756  0.700449  1
  O  O44  1  0.585610  0.402044  0.409821  1
  O  O45  1  0.995099  0.757529  0.543366  1
  O  O46  1  0.218025  0.889047  0.466930  1
  O  O47  1  0.962591  0.425292  0.387330  1
  O  O48  1  0.585610  0.097956  0.909821  1
  O  O49  1  0.363687  0.362408  0.970610  1
  O  O50  1  0.305622  0.466842  0.100649  1
  O  O51  1  0.833307  0.980915  0.036281  1
  O  O52  1  0.130838  0.240165  0.078703  1
  O  O53  1  0.130838  0.259835  0.578703  1
  O  O54  1  0.584325  0.607980  0.209467  1
  O  O55  1  0.913720  0.570868  0.863146  1
  O  O56  1  0.781975  0.389047  0.033070  1
  O  O57  1  0.008552  0.300271  0.777744  1
  O  O58  1  0.166693  0.480915  0.463719  1
  O  O59  1  0.218025  0.610953  0.966930  1
  O  O60  1  0.037409  0.574708  0.612670  1
  O  O61  1  0.584325  0.892020  0.709467  1
  O  O62  1  0.694244  0.540769  0.632287  1
  O  O63  1  0.913720  0.929132  0.363146  1
  O  O64  1  0.833307  0.519085  0.536281  1
  O  O65  1  0.305622  0.033158  0.600649  1
  O  O66  1  0.869162  0.740165  0.421297  1
  O  O67  1  0.459362  0.296181  0.714151  1
  O  O68  1  0.991448  0.699729  0.222256  1
  O  O69  1  0.305756  0.040769  0.867713  1
  O  O70  1  0.962591  0.074708  0.887330  1
  O  O71  1  0.305756  0.459231  0.367713  1
  O  O72  1  0.086280  0.070868  0.636854  1
  O  O73  1  0.304026  0.528557  0.897392  1
  O  O74  1  0.160889  0.792011  0.302007  1
  O  O75  1  0.839111  0.292011  0.197993  1
  O  O76  1  0.869162  0.759835  0.921297  1
  O  O77  1  0.694378  0.966842  0.399351  1
  O  O78  1  0.160889  0.707989  0.802007  1
  O  O79  1  0.629727  0.209804  0.794734  1
  O  O80  1  0.839111  0.207989  0.697993  1
  O  O81  1  0.363687  0.137592  0.470610  1
  O  O82  1  0.636313  0.637592  0.029390  1
  O  O83  1  0.629727  0.290196  0.294734  1
  O  O84  1  0.695974  0.028557  0.602608  1
  O  O85  1  0.694244  0.959231  0.132287  1
  O  O86  1  0.370273  0.709804  0.705266  1
  O  O87  1  0.414390  0.597956  0.590179  1
  O  O88  1  0.414390  0.902044  0.090179  1
  O  O89  1  0.415675  0.107980  0.290533  1
  O  O90  1  0.458810  0.861698  0.929844  1
  O  O91  1  0.004901  0.242471  0.456634  1
  O  O92  1  0.166693  0.019085  0.963719  1
  O  O93  1  0.086280  0.429132  0.136854  1
  O  O94  1  0.953632  0.603244  0.299551  1
  O  O95  1  0.304026  0.971443  0.397392  1
  O  O96  1  0.540638  0.796181  0.785849  1
  O  O97  1  0.694378  0.533158  0.899351  1
  O  O98  1  0.541190  0.138302  0.070156  1
  O  O99  1  0.370273  0.790196  0.205266  1
  O  O100  1  0.695974  0.471443  0.102608  1
  O  O101  1  0.953632  0.896756  0.799551  1
  O  O102  1  0.037409  0.925292  0.112670  1
  O  O103  1  0.458810  0.638302  0.429844  1
  O  O104  1  0.995099  0.742471  0.043366  1
  O  O105  1  0.991448  0.800271  0.722256  1
  O  O106  1  0.004901  0.257529  0.956634  1
  O  O107  1  0.008552  0.199729  0.277744  1
  O  O108  1  0.415675  0.392020  0.790533  1
  O  O109  1  0.046368  0.103244  0.200449  1
  O  O110  1  0.781975  0.110953  0.533070  1
  O  O111  1  0.459362  0.203819  0.214151  1
