# generated using pymatgen
data_LiCrPO4
_symmetry_space_group_name_H-M   'P 1'
_cell_length_a   7.62461447
_cell_length_b   7.62461447
_cell_length_c   9.53012560
_cell_angle_alpha   90.00000000
_cell_angle_beta   90.00000000
_cell_angle_gamma   120.00000000
_symmetry_Int_Tables_number   1
_chemical_formula_structural   LiCrPO4
_chemical_formula_sum   'Li6 Cr6 P6 O24'
_cell_volume   479.80529217
_cell_formula_units_Z   6
loop_
 _symmetry_equiv_pos_site_id
 _symmetry_equiv_pos_as_xyz
  1  'x, y, z'
loop_
 _atom_site_type_symbol
 _atom_site_label
 _atom_site_symmetry_multiplicity
 _atom_site_fract_x
 _atom_site_fract_y
 _atom_site_fract_z
 _atom_site_occupancy
  Li  Li0  1  0.207094  0.959370  0.260187  1
  Li  Li1  1  0.040630  0.247725  0.260187  1
  Li  Li2  1  0.247725  0.040630  0.760187  1
  Li  Li3  1  0.752275  0.792906  0.260187  1
  Li  Li4  1  0.792906  0.752275  0.760187  1
  Li  Li5  1  0.959370  0.207094  0.760187  1
  Cr  Cr6  1  0.053012  0.583917  0.479018  1
  Cr  Cr7  1  0.530905  0.946988  0.479018  1
  Cr  Cr8  1  0.416083  0.469095  0.479018  1
  Cr  Cr9  1  0.469095  0.416083  0.979018  1
  Cr  Cr10  1  0.583917  0.053012  0.979018  1
  Cr  Cr11  1  0.946988  0.530905  0.979018  1
  P  P12  1  0.333333  0.666667  0.778000  1
  P  P13  1  0.333333  0.666667  0.180984  1
  P  P14  1  0.000000  0.000000  0.508952  1
  P  P15  1  0.000000  0.000000  0.008952  1
  P  P16  1  0.666667  0.333333  0.680984  1
  P  P17  1  0.666667  0.333333  0.278000  1
  O  O18  1  0.108609  0.886878  0.453580  1
  O  O19  1  0.161416  0.703950  0.133441  1
  O  O20  1  0.127406  0.492677  0.829079  1
  O  O21  1  0.365271  0.872594  0.829079  1
  O  O22  1  0.333333  0.666667  0.612892  1
  O  O23  1  0.333333  0.666667  0.350475  1
  O  O24  1  0.000000  0.000000  0.671767  1
  O  O25  1  0.113122  0.221731  0.453580  1
  O  O26  1  0.296050  0.457466  0.133441  1
  O  O27  1  0.542534  0.838584  0.133441  1
  O  O28  1  0.221731  0.113122  0.953580  1
  O  O29  1  0.507323  0.634729  0.829079  1
  O  O30  1  0.457466  0.296050  0.633441  1
  O  O31  1  0.778269  0.891391  0.453580  1
  O  O32  1  0.634729  0.507323  0.329079  1
  O  O33  1  0.492677  0.127406  0.329079  1
  O  O34  1  0.000000  0.000000  0.171767  1
  O  O35  1  0.666667  0.333333  0.850475  1
  O  O36  1  0.666667  0.333333  0.112892  1
  O  O37  1  0.891391  0.778269  0.953580  1
  O  O38  1  0.838584  0.542534  0.633441  1
  O  O39  1  0.703950  0.161416  0.633441  1
  O  O40  1  0.872594  0.365271  0.329079  1
  O  O41  1  0.886878  0.108609  0.953580  1
