# generated using pymatgen
data_Yb3SiO
_symmetry_space_group_name_H-M   'P 1'
_cell_length_a   6.57434739
_cell_length_b   6.58953254
_cell_length_c   9.30522979
_cell_angle_alpha   90.00000000
_cell_angle_beta   90.00000000
_cell_angle_gamma   90.00000000
_symmetry_Int_Tables_number   1
_chemical_formula_structural   Yb3SiO
_chemical_formula_sum   'Yb12 Si4 O4'
_cell_volume   403.12001163
_cell_formula_units_Z   4
loop_
 _symmetry_equiv_pos_site_id
 _symmetry_equiv_pos_as_xyz
  1  'x, y, z'
loop_
 _atom_site_type_symbol
 _atom_site_label
 _atom_site_symmetry_multiplicity
 _atom_site_fract_x
 _atom_site_fract_y
 _atom_site_fract_z
 _atom_site_occupancy
  Yb  Yb0  1  0.765319  0.234691  0.016011  1
  Yb  Yb1  1  0.234681  0.765309  0.516011  1
  Yb  Yb2  1  0.998914  0.531394  0.250000  1
  Yb  Yb3  1  0.265319  0.265309  0.016011  1
  Yb  Yb4  1  0.234681  0.765309  0.983989  1
  Yb  Yb5  1  0.265319  0.265309  0.483989  1
  Yb  Yb6  1  0.001086  0.468606  0.750000  1
  Yb  Yb7  1  0.498914  0.968606  0.250000  1
  Yb  Yb8  1  0.501086  0.031394  0.750000  1
  Yb  Yb9  1  0.765319  0.234691  0.483989  1
  Yb  Yb10  1  0.734681  0.734691  0.516011  1
  Yb  Yb11  1  0.734681  0.734691  0.983989  1
  Si  Si12  1  0.506248  0.498993  0.250000  1
  Si  Si13  1  0.993752  0.998993  0.750000  1
  Si  Si14  1  0.493752  0.501007  0.750000  1
  Si  Si15  1  0.006248  0.001007  0.250000  1
  O  O16  1  0.000000  0.500000  0.500000  1
  O  O17  1  0.500000  0.000000  0.000000  1
  O  O18  1  0.500000  0.000000  0.500000  1
  O  O19  1  0.000000  0.500000  0.000000  1
