# generated using pymatgen
data_ZnS
_symmetry_space_group_name_H-M   'P 1'
_cell_length_a   25.28356803
_cell_length_b   25.28356803
_cell_length_c   25.28356803
_cell_angle_alpha   8.74246986
_cell_angle_beta   8.74246986
_cell_angle_gamma   8.74246986
_symmetry_Int_Tables_number   1
_chemical_formula_structural   ZnS
_chemical_formula_sum   'Zn8 S8'
_cell_volume   323.99437372
_cell_formula_units_Z   8
loop_
 _symmetry_equiv_pos_site_id
 _symmetry_equiv_pos_as_xyz
  1  'x, y, z'
loop_
 _atom_site_type_symbol
 _atom_site_label
 _atom_site_symmetry_multiplicity
 _atom_site_fract_x
 _atom_site_fract_y
 _atom_site_fract_z
 _atom_site_occupancy
  Zn  Zn0  1  0.458321  0.458321  0.458321  1
  Zn  Zn1  1  0.999981  0.999981  0.999981  1
  Zn  Zn2  1  0.541653  0.541653  0.541653  1
  Zn  Zn3  1  0.166650  0.166650  0.166650  1
  Zn  Zn4  1  0.374980  0.374980  0.374980  1
  Zn  Zn5  1  0.083318  0.083318  0.083318  1
  Zn  Zn6  1  0.249997  0.249997  0.249997  1
  Zn  Zn7  1  0.624989  0.624989  0.624989  1
  S  S8  1  0.343739  0.343739  0.343739  1
  S  S9  1  0.427100  0.427100  0.427100  1
  S  S10  1  0.510431  0.510431  0.510431  1
  S  S11  1  0.135429  0.135429  0.135429  1
  S  S12  1  0.218765  0.218765  0.218765  1
  S  S13  1  0.593783  0.593783  0.593783  1
  S  S14  1  0.968762  0.968762  0.968762  1
  S  S15  1  0.052096  0.052096  0.052096  1
