# generated using pymatgen
data_K2YZr(PO4)3
_symmetry_space_group_name_H-M   'P 1'
_cell_length_a   10.48429661
_cell_length_b   10.48429661
_cell_length_c   10.48429661
_cell_angle_alpha   90.00000000
_cell_angle_beta   90.00000000
_cell_angle_gamma   90.00000000
_symmetry_Int_Tables_number   1
_chemical_formula_structural   K2YZr(PO4)3
_chemical_formula_sum   'K8 Y4 Zr4 P12 O48'
_cell_volume   1152.43886767
_cell_formula_units_Z   4
loop_
 _symmetry_equiv_pos_site_id
 _symmetry_equiv_pos_as_xyz
  1  'x, y, z'
loop_
 _atom_site_type_symbol
 _atom_site_label
 _atom_site_symmetry_multiplicity
 _atom_site_fract_x
 _atom_site_fract_y
 _atom_site_fract_z
 _atom_site_occupancy
  K  K0  1  0.066773  0.066773  0.066773  1
  K  K1  1  0.196250  0.696250  0.803750  1
  K  K2  1  0.303750  0.303750  0.303750  1
  K  K3  1  0.433227  0.933227  0.566773  1
  K  K4  1  0.566773  0.433227  0.933227  1
  K  K5  1  0.696250  0.803750  0.196250  1
  K  K6  1  0.803750  0.196250  0.696250  1
  K  K7  1  0.933227  0.566773  0.433227  1
  Y  Y8  1  0.147197  0.352803  0.647197  1
  Y  Y9  1  0.352803  0.647197  0.147197  1
  Y  Y10  1  0.647197  0.147197  0.352803  1
  Y  Y11  1  0.852803  0.852803  0.852803  1
  Zr  Zr12  1  0.087805  0.912195  0.412195  1
  Zr  Zr13  1  0.412195  0.087805  0.912195  1
  Zr  Zr14  1  0.587805  0.587805  0.587805  1
  Zr  Zr15  1  0.912195  0.412195  0.087805  1
  P  P16  1  0.031766  0.727607  0.129716  1
  P  P17  1  0.129716  0.031766  0.727607  1
  P  P18  1  0.227607  0.370284  0.968234  1
  P  P19  1  0.272393  0.629716  0.468234  1
  P  P20  1  0.370284  0.968234  0.227607  1
  P  P21  1  0.468234  0.272393  0.629716  1
  P  P22  1  0.531766  0.772393  0.870284  1
  P  P23  1  0.629716  0.468234  0.272393  1
  P  P24  1  0.727607  0.129716  0.031766  1
  P  P25  1  0.772393  0.870284  0.531766  1
  P  P26  1  0.870284  0.531766  0.772393  1
  P  P27  1  0.968234  0.227607  0.370284  1
  O  O28  1  0.992091  0.585291  0.147825  1
  O  O29  1  0.024731  0.791414  0.264020  1
  O  O30  1  0.043519  0.936512  0.798481  1
  O  O31  1  0.063488  0.298481  0.456481  1
  O  O32  1  0.075467  0.167887  0.734006  1
  O  O33  1  0.085291  0.352175  0.007909  1
  O  O34  1  0.147825  0.992091  0.585291  1
  O  O35  1  0.167887  0.734006  0.075467  1
  O  O36  1  0.208586  0.764020  0.475269  1
  O  O37  1  0.201519  0.543519  0.563488  1
  O  O38  1  0.234006  0.424533  0.832113  1
  O  O39  1  0.235980  0.975269  0.291414  1
  O  O40  1  0.264020  0.024731  0.791414  1
  O  O41  1  0.265994  0.575467  0.332113  1
  O  O42  1  0.298481  0.456481  0.063488  1
  O  O43  1  0.291414  0.235980  0.975269  1
  O  O44  1  0.332113  0.265994  0.575467  1
  O  O45  1  0.352175  0.007909  0.085291  1
  O  O46  1  0.414709  0.647825  0.507909  1
  O  O47  1  0.424533  0.832113  0.234006  1
  O  O48  1  0.436512  0.701519  0.956481  1
  O  O49  1  0.456481  0.063488  0.298481  1
  O  O50  1  0.475269  0.208586  0.764020  1
  O  O51  1  0.507909  0.414709  0.647825  1
  O  O52  1  0.492091  0.914709  0.852175  1
  O  O53  1  0.524731  0.708586  0.735980  1
  O  O54  1  0.543519  0.563488  0.201519  1
  O  O55  1  0.563488  0.201519  0.543519  1
  O  O56  1  0.575467  0.332113  0.265994  1
  O  O57  1  0.585291  0.147825  0.992091  1
  O  O58  1  0.647825  0.507909  0.414709  1
  O  O59  1  0.667887  0.765994  0.924533  1
  O  O60  1  0.708586  0.735980  0.524731  1
  O  O61  1  0.701519  0.956481  0.436512  1
  O  O62  1  0.734006  0.075467  0.167887  1
  O  O63  1  0.735980  0.524731  0.708586  1
  O  O64  1  0.764020  0.475269  0.208586  1
  O  O65  1  0.765994  0.924533  0.667887  1
  O  O66  1  0.798481  0.043519  0.936512  1
  O  O67  1  0.791414  0.264020  0.024731  1
  O  O68  1  0.832113  0.234006  0.424533  1
  O  O69  1  0.852175  0.492091  0.914709  1
  O  O70  1  0.914709  0.852175  0.492091  1
  O  O71  1  0.924533  0.667887  0.765994  1
  O  O72  1  0.936512  0.798481  0.043519  1
  O  O73  1  0.956481  0.436512  0.701519  1
  O  O74  1  0.975269  0.291414  0.235980  1
  O  O75  1  0.007909  0.085291  0.352175  1
