# generated using pymatgen
data_CaSiN2
_symmetry_space_group_name_H-M   'P 1'
_cell_length_a   5.16070571
_cell_length_b   10.27655252
_cell_length_c   14.88487138
_cell_angle_alpha   90.00000000
_cell_angle_beta   90.00000000
_cell_angle_gamma   90.00000000
_symmetry_Int_Tables_number   1
_chemical_formula_structural   CaSiN2
_chemical_formula_sum   'Ca16 Si16 N32'
_cell_volume   789.40818749
_cell_formula_units_Z   16
loop_
 _symmetry_equiv_pos_site_id
 _symmetry_equiv_pos_as_xyz
  1  'x, y, z'
loop_
 _atom_site_type_symbol
 _atom_site_label
 _atom_site_symmetry_multiplicity
 _atom_site_fract_x
 _atom_site_fract_y
 _atom_site_fract_z
 _atom_site_occupancy
  Ca  Ca0  1  0.652708  0.774133  0.312362  1
  Ca  Ca1  1  0.740170  0.008454  0.434882  1
  Ca  Ca2  1  0.240170  0.491546  0.565118  1
  Ca  Ca3  1  0.847292  0.225867  0.812362  1
  Ca  Ca4  1  0.347292  0.225867  0.687638  1
  Ca  Ca5  1  0.259830  0.508454  0.065118  1
  Ca  Ca6  1  0.259830  0.991546  0.565118  1
  Ca  Ca7  1  0.347292  0.274133  0.187638  1
  Ca  Ca8  1  0.152708  0.725867  0.687638  1
  Ca  Ca9  1  0.152708  0.774133  0.187638  1
  Ca  Ca10  1  0.740170  0.491546  0.934882  1
  Ca  Ca11  1  0.652708  0.725867  0.812362  1
  Ca  Ca12  1  0.240170  0.008454  0.065118  1
  Ca  Ca13  1  0.759830  0.508454  0.434882  1
  Ca  Ca14  1  0.759830  0.991546  0.934882  1
  Ca  Ca15  1  0.847292  0.274133  0.312362  1
  Si  Si16  1  0.273648  0.983457  0.812002  1
  Si  Si17  1  0.683718  0.729995  0.562676  1
  Si  Si18  1  0.683718  0.770005  0.062676  1
  Si  Si19  1  0.183718  0.770005  0.437324  1
  Si  Si20  1  0.816282  0.270005  0.062676  1
  Si  Si21  1  0.316282  0.270005  0.437324  1
  Si  Si22  1  0.816282  0.229995  0.562676  1
  Si  Si23  1  0.726352  0.016543  0.187998  1
  Si  Si24  1  0.183718  0.729995  0.937324  1
  Si  Si25  1  0.226352  0.483457  0.812002  1
  Si  Si26  1  0.726352  0.483457  0.687998  1
  Si  Si27  1  0.316282  0.229995  0.937324  1
  Si  Si28  1  0.226352  0.016543  0.312002  1
  Si  Si29  1  0.273648  0.516543  0.312002  1
  Si  Si30  1  0.773648  0.983457  0.687998  1
  Si  Si31  1  0.773648  0.516543  0.187998  1
  N  N32  1  0.303768  0.927104  0.409268  1
  N  N33  1  0.595952  0.022930  0.784537  1
  N  N34  1  0.350976  0.776229  0.035838  1
  N  N35  1  0.775208  0.180228  0.161951  1
  N  N36  1  0.904048  0.522930  0.784537  1
  N  N37  1  0.724792  0.680228  0.161951  1
  N  N38  1  0.224792  0.819772  0.838049  1
  N  N39  1  0.404048  0.977070  0.215463  1
  N  N40  1  0.595952  0.477070  0.284537  1
  N  N41  1  0.149024  0.223771  0.535838  1
  N  N42  1  0.196232  0.427104  0.409268  1
  N  N43  1  0.095952  0.477070  0.215463  1
  N  N44  1  0.275208  0.319772  0.838049  1
  N  N45  1  0.803768  0.927104  0.090732  1
  N  N46  1  0.149024  0.276229  0.035838  1
  N  N47  1  0.850976  0.723771  0.964162  1
  N  N48  1  0.649024  0.223771  0.964162  1
  N  N49  1  0.696232  0.427104  0.090732  1
  N  N50  1  0.095952  0.022930  0.715463  1
  N  N51  1  0.196232  0.072896  0.909268  1
  N  N52  1  0.224792  0.680228  0.338049  1
  N  N53  1  0.350976  0.723771  0.535838  1
  N  N54  1  0.404048  0.522930  0.715463  1
  N  N55  1  0.649024  0.276229  0.464162  1
  N  N56  1  0.275208  0.180228  0.338049  1
  N  N57  1  0.724792  0.819772  0.661951  1
  N  N58  1  0.904048  0.977070  0.284537  1
  N  N59  1  0.803768  0.572896  0.590732  1
  N  N60  1  0.850976  0.776229  0.464162  1
  N  N61  1  0.775208  0.319772  0.661951  1
  N  N62  1  0.303768  0.572896  0.909268  1
  N  N63  1  0.696232  0.072896  0.590732  1
