# generated using pymatgen
data_Sb3As2S14(IF8)3
_symmetry_space_group_name_H-M   'P 1'
_cell_length_a   8.47230454
_cell_length_b   9.54615015
_cell_length_c   13.46502812
_cell_angle_alpha   71.59999355
_cell_angle_beta   85.04888181
_cell_angle_gamma   85.32118722
_symmetry_Int_Tables_number   1
_chemical_formula_structural   Sb3As2S14(IF8)3
_chemical_formula_sum   'Sb3 As2 S14 I3 F24'
_cell_volume   1027.79064138
_cell_formula_units_Z   1
loop_
 _symmetry_equiv_pos_site_id
 _symmetry_equiv_pos_as_xyz
  1  'x, y, z'
loop_
 _atom_site_type_symbol
 _atom_site_label
 _atom_site_symmetry_multiplicity
 _atom_site_fract_x
 _atom_site_fract_y
 _atom_site_fract_z
 _atom_site_occupancy
  Sb  Sb0  1  0.468285  0.216025  0.664566  1
  Sb  Sb1  1  0.531715  0.783975  0.335434  1
  Sb  Sb2  1  0.000000  0.000000  0.000000  1
  As  As3  1  0.519205  0.230366  0.002878  1
  As  As4  1  0.480795  0.769634  0.997122  1
  S  S5  1  0.910163  0.933938  0.693204  1
  S  S6  1  0.742098  0.627848  0.709365  1
  S  S7  1  0.257902  0.372152  0.290635  1
  S  S8  1  0.964082  0.406557  0.135317  1
  S  S9  1  0.035918  0.593443  0.864683  1
  S  S10  1  0.158475  0.179978  0.396050  1
  S  S11  1  0.884006  0.455186  0.696162  1
  S  S12  1  0.871809  0.168697  0.244390  1
  S  S13  1  0.089837  0.066062  0.306796  1
  S  S14  1  0.115994  0.544814  0.303838  1
  S  S15  1  0.841525  0.820022  0.603950  1
  S  S16  1  0.128191  0.831303  0.755610  1
  S  S17  1  0.898566  0.541736  0.210426  1
  S  S18  1  0.101434  0.458264  0.789574  1
  I  I19  1  0.283659  0.760151  0.625171  1
  I  I20  1  0.000000  0.500000  0.500000  1
  I  I21  1  0.716341  0.239849  0.374829  1
  F  F22  1  0.442330  0.253046  0.516414  1
  F  F23  1  0.438294  0.423395  0.646950  1
  F  F24  1  0.243697  0.196417  0.691574  1
  F  F25  1  0.502069  0.008653  0.682705  1
  F  F26  1  0.653317  0.358547  0.922500  1
  F  F27  1  0.307992  0.762209  0.371516  1
  F  F28  1  0.561706  0.576605  0.353050  1
  F  F29  1  0.497931  0.991347  0.317295  1
  F  F30  1  0.501144  0.822413  0.189144  1
  F  F31  1  0.346683  0.641453  0.077500  1
  F  F32  1  0.650758  0.645570  0.022306  1
  F  F33  1  0.960408  0.104950  0.856549  1
  F  F34  1  0.557754  0.268088  0.119769  1
  F  F35  1  0.349242  0.354430  0.977694  1
  F  F36  1  0.224928  0.001166  0.965039  1
  F  F37  1  0.039592  0.895050  0.143451  1
  F  F38  1  0.442246  0.731912  0.880231  1
  F  F39  1  0.498856  0.177587  0.810856  1
  F  F40  1  0.004720  0.183996  0.030378  1
  F  F41  1  0.557670  0.746954  0.483586  1
  F  F42  1  0.692008  0.237791  0.628484  1
  F  F43  1  0.756303  0.803583  0.308426  1
  F  F44  1  0.775072  0.998834  0.034961  1
  F  F45  1  0.995280  0.816004  0.969622  1
