# generated using pymatgen
data_KNaThF6
_symmetry_space_group_name_H-M   'P 1'
_cell_length_a   6.38138313
_cell_length_b   6.38138313
_cell_length_c   7.97659144
_cell_angle_alpha   90.00000000
_cell_angle_beta   90.00000000
_cell_angle_gamma   120.00000000
_symmetry_Int_Tables_number   1
_chemical_formula_structural   KNaThF6
_chemical_formula_sum   'K2 Na2 Th2 F12'
_cell_volume   281.30510868
_cell_formula_units_Z   2
loop_
 _symmetry_equiv_pos_site_id
 _symmetry_equiv_pos_as_xyz
  1  'x, y, z'
loop_
 _atom_site_type_symbol
 _atom_site_label
 _atom_site_symmetry_multiplicity
 _atom_site_fract_x
 _atom_site_fract_y
 _atom_site_fract_z
 _atom_site_occupancy
  K  K0  1  0.666667  0.333333  0.391262  1
  K  K1  1  0.333333  0.666667  0.608738  1
  Na  Na2  1  0.000000  0.000000  0.234529  1
  Na  Na3  1  0.000000  0.000000  0.765471  1
  Th  Th4  1  0.333333  0.666667  0.121263  1
  Th  Th5  1  0.666667  0.333333  0.878737  1
  F  F6  1  0.276168  0.892740  0.321270  1
  F  F7  1  0.924059  0.610714  0.097091  1
  F  F8  1  0.389286  0.313344  0.097091  1
  F  F9  1  0.610714  0.686656  0.902909  1
  F  F10  1  0.892740  0.616572  0.678730  1
  F  F11  1  0.723832  0.107260  0.678730  1
  F  F12  1  0.313344  0.924059  0.902909  1
  F  F13  1  0.075941  0.389286  0.902909  1
  F  F14  1  0.107260  0.383428  0.321270  1
  F  F15  1  0.686656  0.075941  0.097091  1
  F  F16  1  0.616572  0.723832  0.321270  1
  F  F17  1  0.383428  0.276168  0.678730  1
