# generated using pymatgen
data_K2S2O7
_symmetry_space_group_name_H-M   'P 1'
_cell_length_a   7.35546207
_cell_length_b   7.35546207
_cell_length_c   7.42276995
_cell_angle_alpha   88.20565591
_cell_angle_beta   91.79434409
_cell_angle_gamma   119.06670212
_symmetry_Int_Tables_number   1
_chemical_formula_structural   K2S2O7
_chemical_formula_sum   'K4 S4 O14'
_cell_volume   350.78238348
_cell_formula_units_Z   2
loop_
 _symmetry_equiv_pos_site_id
 _symmetry_equiv_pos_as_xyz
  1  'x, y, z'
loop_
 _atom_site_type_symbol
 _atom_site_label
 _atom_site_symmetry_multiplicity
 _atom_site_fract_x
 _atom_site_fract_y
 _atom_site_fract_z
 _atom_site_occupancy
  K  K0  1  0.801381  0.509214  0.850946  1
  K  K1  1  0.490786  0.198619  0.350946  1
  K  K2  1  0.509214  0.801381  0.649054  1
  K  K3  1  0.198619  0.490786  0.149054  1
  S  S4  1  0.915781  0.713247  0.356292  1
  S  S5  1  0.713247  0.915781  0.143708  1
  S  S6  1  0.084219  0.286753  0.643708  1
  S  S7  1  0.286753  0.084219  0.856292  1
  O  O8  1  0.801910  0.132845  0.088127  1
  O  O9  1  0.132845  0.801910  0.411873  1
  O  O10  1  0.150264  0.449229  0.778703  1
  O  O11  1  0.449229  0.150264  0.721297  1
  O  O12  1  0.198090  0.867155  0.911873  1
  O  O13  1  0.346368  0.231848  0.002955  1
  O  O14  1  0.081764  0.081764  0.750000  1
  O  O15  1  0.231848  0.346368  0.497045  1
  O  O16  1  0.653632  0.768152  0.997045  1
  O  O17  1  0.550771  0.849736  0.278703  1
  O  O18  1  0.849736  0.550771  0.221297  1
  O  O19  1  0.918236  0.918236  0.250000  1
  O  O20  1  0.768152  0.653632  0.502955  1
  O  O21  1  0.867155  0.198090  0.588127  1
