# generated using pymatgen
data_Ca5W(N2O)2
_symmetry_space_group_name_H-M   'P 1'
_cell_length_a   6.14827675
_cell_length_b   6.79737882
_cell_length_c   8.52663454
_cell_angle_alpha   90.00000000
_cell_angle_beta   90.81913309
_cell_angle_gamma   90.00000000
_symmetry_Int_Tables_number   1
_chemical_formula_structural   Ca5W(N2O)2
_chemical_formula_sum   'Ca10 W2 N8 O4'
_cell_volume   356.31011087
_cell_formula_units_Z   2
loop_
 _symmetry_equiv_pos_site_id
 _symmetry_equiv_pos_as_xyz
  1  'x, y, z'
loop_
 _atom_site_type_symbol
 _atom_site_label
 _atom_site_symmetry_multiplicity
 _atom_site_fract_x
 _atom_site_fract_y
 _atom_site_fract_z
 _atom_site_occupancy
  Ca  Ca0  1  0.270906  0.489482  0.666869  1
  Ca  Ca1  1  0.497687  0.750000  0.983341  1
  Ca  Ca2  1  0.729094  0.510518  0.333131  1
  Ca  Ca3  1  0.502313  0.250000  0.016659  1
  Ca  Ca4  1  0.000000  0.500000  0.000000  1
  Ca  Ca5  1  0.805877  0.750000  0.669851  1
  Ca  Ca6  1  0.000000  0.000000  0.000000  1
  Ca  Ca7  1  0.270906  0.010518  0.666869  1
  Ca  Ca8  1  0.729094  0.989482  0.333131  1
  Ca  Ca9  1  0.194123  0.250000  0.330149  1
  W  W10  1  0.278607  0.750000  0.322730  1
  W  W11  1  0.721393  0.250000  0.677270  1
  N  N12  1  0.333207  0.975620  0.190536  1
  N  N13  1  0.022211  0.750000  0.444225  1
  N  N14  1  0.666793  0.475620  0.809464  1
  N  N15  1  0.977789  0.250000  0.555775  1
  N  N16  1  0.333207  0.524380  0.190536  1
  N  N17  1  0.666793  0.024380  0.809464  1
  N  N18  1  0.497896  0.250000  0.523292  1
  N  N19  1  0.502104  0.750000  0.476708  1
  O  O20  1  0.153156  0.750000  0.828386  1
  O  O21  1  0.194616  0.250000  0.873775  1
  O  O22  1  0.805384  0.750000  0.126225  1
  O  O23  1  0.846844  0.250000  0.171614  1
