# generated using pymatgen
data_K2B2Se7
_symmetry_space_group_name_H-M   'P 1'
_cell_length_a   8.75441805
_cell_length_b   8.75441805
_cell_length_c   12.56695061
_cell_angle_alpha   61.45859259
_cell_angle_beta   118.54140741
_cell_angle_gamma   130.69386104
_symmetry_Int_Tables_number   1
_chemical_formula_structural   K2B2Se7
_chemical_formula_sum   'K4 B4 Se14'
_cell_volume   621.19491860
_cell_formula_units_Z   2
loop_
 _symmetry_equiv_pos_site_id
 _symmetry_equiv_pos_as_xyz
  1  'x, y, z'
loop_
 _atom_site_type_symbol
 _atom_site_label
 _atom_site_symmetry_multiplicity
 _atom_site_fract_x
 _atom_site_fract_y
 _atom_site_fract_z
 _atom_site_occupancy
  K  K0  1  0.882059  0.673242  0.023683  1
  K  K1  1  0.673242  0.882059  0.476317  1
  K  K2  1  0.117941  0.326758  0.976317  1
  K  K3  1  0.326758  0.117941  0.523683  1
  B  B4  1  0.610240  0.842959  0.151199  1
  B  B5  1  0.842959  0.610240  0.348801  1
  B  B6  1  0.389760  0.157041  0.848801  1
  B  B7  1  0.157041  0.389760  0.651199  1
  Se  Se8  1  0.543997  0.543997  0.250000  1
  Se  Se9  1  0.456003  0.456003  0.750000  1
  Se  Se10  1  0.432465  0.173743  0.019174  1
  Se  Se11  1  0.173743  0.432465  0.480826  1
  Se  Se12  1  0.567535  0.826257  0.980826  1
  Se  Se13  1  0.826257  0.567535  0.519174  1
  Se  Se14  1  0.392540  0.850391  0.167348  1
  Se  Se15  1  0.850391  0.392540  0.332652  1
  Se  Se16  1  0.607460  0.149609  0.832652  1
  Se  Se17  1  0.149609  0.607460  0.667348  1
  Se  Se18  1  0.901847  0.067338  0.228798  1
  Se  Se19  1  0.067338  0.901847  0.271202  1
  Se  Se20  1  0.098153  0.932662  0.771202  1
  Se  Se21  1  0.932662  0.098153  0.728798  1
