# generated using pymatgen
data_Li2Ni(PO3)4
_symmetry_space_group_name_H-M   'P 1'
_cell_length_a   9.24042721
_cell_length_b   9.40834796
_cell_length_c   10.23219244
_cell_angle_alpha   90.00000000
_cell_angle_beta   90.00000000
_cell_angle_gamma   90.00000000
_symmetry_Int_Tables_number   1
_chemical_formula_structural   Li2Ni(PO3)4
_chemical_formula_sum   'Li8 Ni4 P16 O48'
_cell_volume   889.55769494
_cell_formula_units_Z   4
loop_
 _symmetry_equiv_pos_site_id
 _symmetry_equiv_pos_as_xyz
  1  'x, y, z'
loop_
 _atom_site_type_symbol
 _atom_site_label
 _atom_site_symmetry_multiplicity
 _atom_site_fract_x
 _atom_site_fract_y
 _atom_site_fract_z
 _atom_site_occupancy
  Li  Li0  1  0.094814  0.008102  0.677387  1
  Li  Li1  1  0.405186  0.008102  0.677387  1
  Li  Li2  1  0.594814  0.491898  0.177387  1
  Li  Li3  1  0.905186  0.491898  0.177387  1
  Li  Li4  1  0.094814  0.508102  0.822613  1
  Li  Li5  1  0.405186  0.508102  0.822613  1
  Li  Li6  1  0.594814  0.991898  0.322613  1
  Li  Li7  1  0.905186  0.991898  0.322613  1
  Ni  Ni8  1  0.250000  0.011059  0.296775  1
  Ni  Ni9  1  0.750000  0.488941  0.796775  1
  Ni  Ni10  1  0.250000  0.511059  0.203225  1
  Ni  Ni11  1  0.750000  0.988941  0.703225  1
  P  P12  1  0.750000  0.194652  0.108641  1
  P  P13  1  0.542076  0.210432  0.887927  1
  P  P14  1  0.957924  0.210432  0.887927  1
  P  P15  1  0.250000  0.229982  0.019043  1
  P  P16  1  0.750000  0.270018  0.519043  1
  P  P17  1  0.042076  0.289568  0.387927  1
  P  P18  1  0.457924  0.289568  0.387927  1
  P  P19  1  0.250000  0.305348  0.608641  1
  P  P20  1  0.750000  0.694652  0.391359  1
  P  P21  1  0.542076  0.710432  0.612073  1
  P  P22  1  0.957924  0.710432  0.612073  1
  P  P23  1  0.250000  0.729982  0.480957  1
  P  P24  1  0.750000  0.770018  0.980957  1
  P  P25  1  0.042076  0.789568  0.112073  1
  P  P26  1  0.457924  0.789568  0.112073  1
  P  P27  1  0.250000  0.805348  0.891359  1
  O  O28  1  0.750000  0.096527  0.223572  1
  O  O29  1  0.750000  0.110870  0.535401  1
  O  O30  1  0.575643  0.113224  0.774851  1
  O  O31  1  0.924357  0.113224  0.774851  1
  O  O32  1  0.071488  0.132214  0.374457  1
  O  O33  1  0.428512  0.132214  0.374457  1
  O  O34  1  0.250000  0.134729  0.134368  1
  O  O35  1  0.614290  0.148432  0.019143  1
  O  O36  1  0.885710  0.148432  0.019143  1
  O  O37  1  0.250000  0.147970  0.629376  1
  O  O38  1  0.123448  0.183720  0.919224  1
  O  O39  1  0.376552  0.183720  0.919224  1
  O  O40  1  0.623448  0.316280  0.419224  1
  O  O41  1  0.876552  0.316280  0.419224  1
  O  O42  1  0.750000  0.352030  0.129376  1
  O  O43  1  0.114290  0.351568  0.519143  1
  O  O44  1  0.385710  0.351568  0.519143  1
  O  O45  1  0.750000  0.365271  0.634368  1
  O  O46  1  0.571488  0.367786  0.874457  1
  O  O47  1  0.928512  0.367786  0.874457  1
  O  O48  1  0.075643  0.386776  0.274851  1
  O  O49  1  0.424357  0.386776  0.274851  1
  O  O50  1  0.250000  0.389130  0.035401  1
  O  O51  1  0.250000  0.403473  0.723572  1
  O  O52  1  0.750000  0.596527  0.276428  1
  O  O53  1  0.750000  0.610870  0.964599  1
  O  O54  1  0.575643  0.613224  0.725149  1
  O  O55  1  0.924357  0.613224  0.725149  1
  O  O56  1  0.071488  0.632214  0.125543  1
  O  O57  1  0.428512  0.632214  0.125543  1
  O  O58  1  0.250000  0.634729  0.365632  1
  O  O59  1  0.614290  0.648432  0.480857  1
  O  O60  1  0.885710  0.648432  0.480857  1
  O  O61  1  0.250000  0.647970  0.870624  1
  O  O62  1  0.123448  0.683720  0.580776  1
  O  O63  1  0.376552  0.683720  0.580776  1
  O  O64  1  0.623448  0.816280  0.080776  1
  O  O65  1  0.876552  0.816280  0.080776  1
  O  O66  1  0.750000  0.852030  0.370624  1
  O  O67  1  0.114290  0.851568  0.980857  1
  O  O68  1  0.385710  0.851568  0.980857  1
  O  O69  1  0.750000  0.865271  0.865632  1
  O  O70  1  0.571488  0.867786  0.625543  1
  O  O71  1  0.928512  0.867786  0.625543  1
  O  O72  1  0.075643  0.886776  0.225149  1
  O  O73  1  0.424357  0.886776  0.225149  1
  O  O74  1  0.250000  0.889130  0.464599  1
  O  O75  1  0.250000  0.903473  0.776428  1
