# generated using pymatgen
data_Na2LiFeO4
_symmetry_space_group_name_H-M   'P 1'
_cell_length_a   6.33711028
_cell_length_b   7.74026652
_cell_length_c   8.53815812
_cell_angle_alpha   90.00000000
_cell_angle_beta   90.00000000
_cell_angle_gamma   90.00000000
_symmetry_Int_Tables_number   1
_chemical_formula_structural   Na2LiFeO4
_chemical_formula_sum   'Na8 Li4 Fe4 O16'
_cell_volume   418.80453253
_cell_formula_units_Z   4
loop_
 _symmetry_equiv_pos_site_id
 _symmetry_equiv_pos_as_xyz
  1  'x, y, z'
loop_
 _atom_site_type_symbol
 _atom_site_label
 _atom_site_symmetry_multiplicity
 _atom_site_fract_x
 _atom_site_fract_y
 _atom_site_fract_z
 _atom_site_occupancy
  Na  Na0  1  0.738563  0.500000  0.000000  1
  Na  Na1  1  0.000000  0.241155  0.758478  1
  Na  Na2  1  0.500000  0.741155  0.741522  1
  Na  Na3  1  0.238563  0.000000  0.500000  1
  Na  Na4  1  0.761437  0.000000  0.500000  1
  Na  Na5  1  0.500000  0.258845  0.258478  1
  Na  Na6  1  0.000000  0.758845  0.241522  1
  Na  Na7  1  0.261437  0.500000  0.000000  1
  Li  Li8  1  0.500000  0.161750  0.915075  1
  Li  Li9  1  0.000000  0.661750  0.584925  1
  Li  Li10  1  0.000000  0.338250  0.415075  1
  Li  Li11  1  0.500000  0.838250  0.084925  1
  Fe  Fe12  1  0.000000  0.789131  0.868606  1
  Fe  Fe13  1  0.500000  0.289131  0.631394  1
  Fe  Fe14  1  0.500000  0.710869  0.368606  1
  Fe  Fe15  1  0.000000  0.210869  0.131394  1
  O  O16  1  0.755667  0.798789  0.965223  1
  O  O17  1  0.244333  0.798789  0.965223  1
  O  O18  1  0.500000  0.419412  0.797132  1
  O  O19  1  0.000000  0.574834  0.801066  1
  O  O20  1  0.500000  0.074834  0.698934  1
  O  O21  1  0.000000  0.919412  0.702868  1
  O  O22  1  0.255667  0.298789  0.534777  1
  O  O23  1  0.744333  0.298789  0.534777  1
  O  O24  1  0.744333  0.701211  0.465223  1
  O  O25  1  0.255667  0.701211  0.465223  1
  O  O26  1  0.000000  0.080588  0.297132  1
  O  O27  1  0.500000  0.925166  0.301066  1
  O  O28  1  0.000000  0.425166  0.198934  1
  O  O29  1  0.500000  0.580588  0.202868  1
  O  O30  1  0.755667  0.201211  0.034777  1
  O  O31  1  0.244333  0.201211  0.034777  1
