# generated using pymatgen
data_Sr11(OsO6)4
_symmetry_space_group_name_H-M   'P 1'
_cell_length_a   11.66722232
_cell_length_b   11.66722232
_cell_length_c   11.66722232
_cell_angle_alpha   119.25658976
_cell_angle_beta   119.25658976
_cell_angle_gamma   91.29252060
_symmetry_Int_Tables_number   1
_chemical_formula_structural   Sr11(OsO6)4
_chemical_formula_sum   'Sr22 Os8 O48'
_cell_volume   1135.32613124
_cell_formula_units_Z   2
loop_
 _symmetry_equiv_pos_site_id
 _symmetry_equiv_pos_as_xyz
  1  'x, y, z'
loop_
 _atom_site_type_symbol
 _atom_site_label
 _atom_site_symmetry_multiplicity
 _atom_site_fract_x
 _atom_site_fract_y
 _atom_site_fract_z
 _atom_site_occupancy
  Sr  Sr0  1  0.120319  0.932129  0.234822  1
  Sr  Sr1  1  0.033104  0.974632  0.532050  1
  Sr  Sr2  1  0.487290  0.987290  0.500000  1
  Sr  Sr3  1  0.737290  0.737290  0.000000  1
  Sr  Sr4  1  0.114503  0.879681  0.811811  1
  Sr  Sr5  1  0.716896  0.275368  0.967950  1
  Sr  Sr6  1  0.012710  0.512710  0.500000  1
  Sr  Sr7  1  0.635497  0.370319  0.688189  1
  Sr  Sr8  1  0.067871  0.302692  0.188189  1
  Sr  Sr9  1  0.697308  0.885497  0.765178  1
  Sr  Sr10  1  0.682129  0.947308  0.311811  1
  Sr  Sr11  1  0.500000  0.500000  0.000000  1
  Sr  Sr12  1  0.052692  0.364503  0.734822  1
  Sr  Sr13  1  0.250000  0.750000  0.500000  1
  Sr  Sr14  1  0.025368  0.557418  0.058473  1
  Sr  Sr15  1  0.629681  0.317871  0.265178  1
  Sr  Sr16  1  0.307418  0.748946  0.032050  1
  Sr  Sr17  1  0.498946  0.966896  0.941527  1
  Sr  Sr18  1  0.724632  0.692582  0.441527  1
  Sr  Sr19  1  0.442582  0.501054  0.467950  1
  Sr  Sr20  1  0.262710  0.262710  0.000000  1
  Sr  Sr21  1  0.251054  0.283104  0.558473  1
  Os  Os22  1  0.875000  0.125000  0.750000  1
  Os  Os23  1  0.375000  0.625000  0.250000  1
  Os  Os24  1  0.375000  0.125000  0.750000  1
  Os  Os25  1  0.875000  0.125000  0.250000  1
  Os  Os26  1  0.375000  0.625000  0.750000  1
  Os  Os27  1  0.375000  0.125000  0.250000  1
  Os  Os28  1  0.875000  0.625000  0.750000  1
  Os  Os29  1  0.875000  0.625000  0.250000  1
  O  O30  1  0.711007  0.117827  0.248745  1
  O  O31  1  0.358834  0.152714  0.417059  1
  O  O32  1  0.238841  0.484794  0.512834  1
  O  O33  1  0.882173  0.130918  0.593180  1
  O  O34  1  0.480046  0.268981  0.765090  1
  O  O35  1  0.537738  0.288993  0.406820  1
  O  O36  1  0.902714  0.985655  0.293880  1
  O  O37  1  0.735655  0.941775  0.582941  1
  O  O38  1  0.273993  0.761159  0.245953  1
  O  O39  1  0.847286  0.264345  0.206120  1
  O  O40  1  0.263045  0.017285  0.521131  1
  O  O41  1  0.496153  0.741914  0.478869  1
  O  O42  1  0.731019  0.496108  0.211065  1
  O  O43  1  0.946172  0.728701  0.973029  1
  O  O44  1  0.982715  0.503847  0.245761  1
  O  O45  1  0.391166  0.097286  0.082941  1
  O  O46  1  0.014345  0.308225  0.917059  1
  O  O47  1  0.503892  0.714956  0.234910  1
  O  O48  1  0.755672  0.973143  0.026971  1
  O  O49  1  0.515206  0.028040  0.754047  1
  O  O50  1  0.803828  0.521299  0.526971  1
  O  O51  1  0.253847  0.508086  0.021131  1
  O  O52  1  0.880918  0.787738  0.748745  1
  O  O53  1  0.486955  0.232715  0.978869  1
  O  O54  1  0.271299  0.244328  0.217471  1
  O  O55  1  0.778040  0.523993  0.012834  1
  O  O56  1  0.491914  0.513045  0.745761  1
  O  O57  1  0.867827  0.119082  0.906820  1
  O  O58  1  0.058225  0.641166  0.793880  1
  O  O59  1  0.869082  0.462262  0.751255  1
  O  O60  1  0.723143  0.196172  0.717471  1
  O  O61  1  0.026857  0.053828  0.782529  1
  O  O62  1  0.246108  0.535044  0.265090  1
  O  O63  1  0.476007  0.488841  0.254047  1
  O  O64  1  0.994328  0.276857  0.473029  1
  O  O65  1  0.269954  0.981019  0.734910  1
  O  O66  1  0.464956  0.730046  0.711065  1
  O  O67  1  0.511159  0.765206  0.987166  1
  O  O68  1  0.018981  0.753892  0.288935  1
  O  O69  1  0.212262  0.961007  0.093180  1
  O  O70  1  0.971960  0.726007  0.487166  1
  O  O71  1  0.767285  0.746153  0.254239  1
  O  O72  1  0.038993  0.132173  0.251255  1
  O  O73  1  0.258086  0.736955  0.754239  1
  O  O74  1  0.691775  0.608834  0.706120  1
  O  O75  1  0.478701  0.005672  0.282529  1
  O  O76  1  0.285044  0.519954  0.788935  1
  O  O77  1  0.234794  0.221960  0.745953  1
