# generated using pymatgen
data_Ce3CuGeS7
_symmetry_space_group_name_H-M   'P 1'
_cell_length_a   10.19790040
_cell_length_b   10.19790040
_cell_length_c   5.86365164
_cell_angle_alpha   90.00000000
_cell_angle_beta   90.00000000
_cell_angle_gamma   120.00000000
_symmetry_Int_Tables_number   1
_chemical_formula_structural   Ce3CuGeS7
_chemical_formula_sum   'Ce6 Cu2 Ge2 S14'
_cell_volume   528.10505468
_cell_formula_units_Z   2
loop_
 _symmetry_equiv_pos_site_id
 _symmetry_equiv_pos_as_xyz
  1  'x, y, z'
loop_
 _atom_site_type_symbol
 _atom_site_label
 _atom_site_symmetry_multiplicity
 _atom_site_fract_x
 _atom_site_fract_y
 _atom_site_fract_z
 _atom_site_occupancy
  Ce  Ce0  1  0.770129  0.643415  0.250722  1
  Ce  Ce1  1  0.356585  0.126714  0.250722  1
  Ce  Ce2  1  0.126714  0.770129  0.750722  1
  Ce  Ce3  1  0.643415  0.873286  0.750722  1
  Ce  Ce4  1  0.873286  0.229871  0.250722  1
  Ce  Ce5  1  0.229871  0.356585  0.750722  1
  Cu  Cu6  1  0.000000  0.000000  0.223020  1
  Cu  Cu7  1  0.000000  0.000000  0.723020  1
  Ge  Ge8  1  0.666667  0.333333  0.831644  1
  Ge  Ge9  1  0.333333  0.666667  0.331644  1
  S  S10  1  0.666667  0.333333  0.454353  1
  S  S11  1  0.519793  0.416944  0.986247  1
  S  S12  1  0.250873  0.088996  0.735359  1
  S  S13  1  0.583056  0.102849  0.986247  1
  S  S14  1  0.749127  0.911004  0.235359  1
  S  S15  1  0.911004  0.161877  0.735359  1
  S  S16  1  0.088996  0.838123  0.235359  1
  S  S17  1  0.838123  0.749127  0.735359  1
  S  S18  1  0.333333  0.666667  0.954353  1
  S  S19  1  0.161877  0.250873  0.235359  1
  S  S20  1  0.102849  0.519793  0.486247  1
  S  S21  1  0.480207  0.583056  0.486247  1
  S  S22  1  0.897151  0.480207  0.986247  1
  S  S23  1  0.416944  0.897151  0.486247  1
