# generated using pymatgen
data_TiCu2P
_symmetry_space_group_name_H-M   'P 1'
_cell_length_a   16.92995349
_cell_length_b   16.92995349
_cell_length_c   16.92995349
_cell_angle_alpha   168.07656121
_cell_angle_beta   168.07656121
_cell_angle_gamma   16.89299924
_symmetry_Int_Tables_number   1
_chemical_formula_structural   TiCu2P
_chemical_formula_sum   'Ti4 Cu8 P4'
_cell_volume   207.11943660
_cell_formula_units_Z   4
loop_
 _symmetry_equiv_pos_site_id
 _symmetry_equiv_pos_as_xyz
  1  'x, y, z'
loop_
 _atom_site_type_symbol
 _atom_site_label
 _atom_site_symmetry_multiplicity
 _atom_site_fract_x
 _atom_site_fract_y
 _atom_site_fract_z
 _atom_site_occupancy
  Ti  Ti0  1  0.028002  0.528002  0.500000  1
  Ti  Ti1  1  0.471998  0.971998  0.500000  1
  Ti  Ti2  1  0.278002  0.278002  0.000000  1
  Ti  Ti3  1  0.721998  0.721998  0.000000  1
  Cu  Cu4  1  0.654956  0.154956  0.500000  1
  Cu  Cu5  1  0.095044  0.095044  0.000000  1
  Cu  Cu6  1  0.904956  0.904956  0.000000  1
  Cu  Cu7  1  0.845044  0.345044  0.500000  1
  Cu  Cu8  1  0.402613  0.402613  0.000000  1
  Cu  Cu9  1  0.347387  0.847387  0.500000  1
  Cu  Cu10  1  0.597387  0.597387  0.000000  1
  Cu  Cu11  1  0.152613  0.652613  0.500000  1
  P  P12  1  0.546646  0.046646  0.500000  1
  P  P13  1  0.203354  0.203354  0.000000  1
  P  P14  1  0.953354  0.453354  0.500000  1
  P  P15  1  0.796646  0.796646  0.000000  1
