# generated using pymatgen
data_Na4UO5
_symmetry_space_group_name_H-M   'P 1'
_cell_length_a   5.92066704
_cell_length_b   5.92066704
_cell_length_c   5.92066704
_cell_angle_alpha   98.88371813
_cell_angle_beta   98.88371813
_cell_angle_gamma   133.72047641
_symmetry_Int_Tables_number   1
_chemical_formula_structural   Na4UO5
_chemical_formula_sum   'Na4 U1 O5'
_cell_volume   137.92944300
_cell_formula_units_Z   1
loop_
 _symmetry_equiv_pos_site_id
 _symmetry_equiv_pos_as_xyz
  1  'x, y, z'
loop_
 _atom_site_type_symbol
 _atom_site_label
 _atom_site_symmetry_multiplicity
 _atom_site_fract_x
 _atom_site_fract_y
 _atom_site_fract_z
 _atom_site_occupancy
  Na  Na0  1  0.396654  0.802242  0.198897  1
  Na  Na1  1  0.603346  0.197758  0.801103  1
  Na  Na2  1  0.802242  0.603346  0.405588  1
  Na  Na3  1  0.197758  0.396654  0.594412  1
  U  U4  1  0.000000  0.000000  0.000000  1
  O  O5  1  0.500000  0.500000  0.000000  1
  O  O6  1  0.075053  0.746409  0.821462  1
  O  O7  1  0.924947  0.253591  0.178538  1
  O  O8  1  0.746409  0.924947  0.671356  1
  O  O9  1  0.253591  0.075053  0.328644  1
