# generated using pymatgen
data_Ti5Re24
_symmetry_space_group_name_H-M   'P 1'
_cell_length_a   8.35951684
_cell_length_b   8.35951684
_cell_length_c   8.35951684
_cell_angle_alpha   109.47122063
_cell_angle_beta   109.47122063
_cell_angle_gamma   109.47122063
_symmetry_Int_Tables_number   1
_chemical_formula_structural   Ti5Re24
_chemical_formula_sum   'Ti5 Re24'
_cell_volume   449.69870899
_cell_formula_units_Z   1
loop_
 _symmetry_equiv_pos_site_id
 _symmetry_equiv_pos_as_xyz
  1  'x, y, z'
loop_
 _atom_site_type_symbol
 _atom_site_label
 _atom_site_symmetry_multiplicity
 _atom_site_fract_x
 _atom_site_fract_y
 _atom_site_fract_z
 _atom_site_occupancy
  Ti  Ti0  1  0.000000  0.000000  0.000000  1
  Ti  Ti1  1  0.632303  0.000000  0.000000  1
  Ti  Ti2  1  0.000000  0.632303  0.000000  1
  Ti  Ti3  1  0.000000  0.000000  0.632303  1
  Ti  Ti4  1  0.367697  0.367697  0.367697  1
  Re  Re5  1  0.398811  0.681503  0.000000  1
  Re  Re6  1  0.717308  0.318497  0.318497  1
  Re  Re7  1  0.398811  0.000000  0.681503  1
  Re  Re8  1  0.681503  0.398811  0.000000  1
  Re  Re9  1  0.000000  0.398811  0.681503  1
  Re  Re10  1  0.318497  0.717308  0.318497  1
  Re  Re11  1  0.318497  0.318497  0.717308  1
  Re  Re12  1  0.000000  0.681503  0.398811  1
  Re  Re13  1  0.681503  0.000000  0.398811  1
  Re  Re14  1  0.601189  0.601189  0.282692  1
  Re  Re15  1  0.282692  0.601189  0.601189  1
  Re  Re16  1  0.601189  0.282692  0.601189  1
  Re  Re17  1  0.374884  0.193189  0.000000  1
  Re  Re18  1  0.181695  0.806811  0.806811  1
  Re  Re19  1  0.374884  0.000000  0.193189  1
  Re  Re20  1  0.193189  0.374884  1.000000  1
  Re  Re21  1  0.000000  0.374884  0.193189  1
  Re  Re22  1  0.806811  0.181695  0.806811  1
  Re  Re23  1  0.806811  0.806811  0.181695  1
  Re  Re24  1  0.000000  0.193189  0.374884  1
  Re  Re25  1  0.193189  0.000000  0.374884  1
  Re  Re26  1  0.625116  0.625116  0.818305  1
  Re  Re27  1  0.818305  0.625116  0.625116  1
  Re  Re28  1  0.625116  0.818305  0.625116  1
