# generated using pymatgen
data_Pr5B2C5
_symmetry_space_group_name_H-M   'P 1'
_cell_length_a   8.68167179
_cell_length_b   8.68167179
_cell_length_c   11.08934136
_cell_angle_alpha   90.00000000
_cell_angle_beta   90.00000000
_cell_angle_gamma   90.00000000
_symmetry_Int_Tables_number   1
_chemical_formula_structural   Pr5B2C5
_chemical_formula_sum   'Pr20 B8 C20'
_cell_volume   835.81946138
_cell_formula_units_Z   4
loop_
 _symmetry_equiv_pos_site_id
 _symmetry_equiv_pos_as_xyz
  1  'x, y, z'
loop_
 _atom_site_type_symbol
 _atom_site_label
 _atom_site_symmetry_multiplicity
 _atom_site_fract_x
 _atom_site_fract_y
 _atom_site_fract_z
 _atom_site_occupancy
  Pr  Pr0  1  0.593307  0.713459  0.898294  1
  Pr  Pr1  1  0.406693  0.286541  0.898294  1
  Pr  Pr2  1  0.500000  0.000000  0.643164  1
  Pr  Pr3  1  0.500000  0.000000  0.143164  1
  Pr  Pr4  1  0.713459  0.593307  0.601706  1
  Pr  Pr5  1  0.906693  0.213459  0.601706  1
  Pr  Pr6  1  0.093307  0.213459  0.101706  1
  Pr  Pr7  1  0.786541  0.906693  0.398294  1
  Pr  Pr8  1  0.213459  0.906693  0.898294  1
  Pr  Pr9  1  0.406693  0.713459  0.398294  1
  Pr  Pr10  1  0.213459  0.093307  0.398294  1
  Pr  Pr11  1  0.286541  0.406693  0.601706  1
  Pr  Pr12  1  0.713459  0.406693  0.101706  1
  Pr  Pr13  1  0.786541  0.093307  0.898294  1
  Pr  Pr14  1  0.286541  0.593307  0.101706  1
  Pr  Pr15  1  0.593307  0.286541  0.398294  1
  Pr  Pr16  1  0.093307  0.786541  0.601706  1
  Pr  Pr17  1  0.000000  0.500000  0.356836  1
  Pr  Pr18  1  0.000000  0.500000  0.856836  1
  Pr  Pr19  1  0.906693  0.786541  0.101706  1
  B  B20  1  0.844152  0.155848  0.250000  1
  B  B21  1  0.655848  0.655848  0.250000  1
  B  B22  1  0.344152  0.344152  0.250000  1
  B  B23  1  0.155848  0.844152  0.250000  1
  B  B24  1  0.844152  0.844152  0.750000  1
  B  B25  1  0.155848  0.155848  0.750000  1
  B  B26  1  0.655848  0.344152  0.750000  1
  B  B27  1  0.344152  0.655848  0.750000  1
  C  C28  1  0.103960  0.800854  0.371321  1
  C  C29  1  0.000000  0.500000  0.095724  1
  C  C30  1  0.000000  0.500000  0.595724  1
  C  C31  1  0.500000  0.000000  0.904276  1
  C  C32  1  0.603960  0.699146  0.128679  1
  C  C33  1  0.103960  0.199146  0.871321  1
  C  C34  1  0.396040  0.300854  0.128679  1
  C  C35  1  0.896040  0.199146  0.371321  1
  C  C36  1  0.800854  0.103960  0.128679  1
  C  C37  1  0.800854  0.896040  0.628679  1
  C  C38  1  0.300854  0.603960  0.871321  1
  C  C39  1  0.699146  0.396040  0.871321  1
  C  C40  1  0.199146  0.896040  0.128679  1
  C  C41  1  0.500000  0.000000  0.404276  1
  C  C42  1  0.603960  0.300854  0.628679  1
  C  C43  1  0.896040  0.800854  0.871321  1
  C  C44  1  0.396040  0.699146  0.628679  1
  C  C45  1  0.300854  0.396040  0.371321  1
  C  C46  1  0.199146  0.103960  0.628679  1
  C  C47  1  0.699146  0.603960  0.371321  1
