# generated using pymatgen
data_MnSiO3
_symmetry_space_group_name_H-M   'P 1'
_cell_length_a   6.80165879
_cell_length_b   7.73032616
_cell_length_c   12.02802133
_cell_angle_alpha   105.76209460
_cell_angle_beta   92.44259830
_cell_angle_gamma   94.59550675
_symmetry_Int_Tables_number   1
_chemical_formula_structural   MnSiO3
_chemical_formula_sum   'Mn10 Si10 O30'
_cell_volume   605.31687937
_cell_formula_units_Z   10
loop_
 _symmetry_equiv_pos_site_id
 _symmetry_equiv_pos_as_xyz
  1  'x, y, z'
loop_
 _atom_site_type_symbol
 _atom_site_label
 _atom_site_symmetry_multiplicity
 _atom_site_fract_x
 _atom_site_fract_y
 _atom_site_fract_z
 _atom_site_occupancy
  Mn  Mn0  1  0.130183  0.316159  0.446655  1
  Mn  Mn1  1  0.655640  0.033123  0.705523  1
  Mn  Mn2  1  0.027668  0.122596  0.147140  1
  Mn  Mn3  1  0.344360  0.966877  0.294477  1
  Mn  Mn4  1  0.208062  0.701641  0.027975  1
  Mn  Mn5  1  0.791938  0.298359  0.972025  1
  Mn  Mn6  1  0.814065  0.490066  0.269146  1
  Mn  Mn7  1  0.185935  0.509934  0.730854  1
  Mn  Mn8  1  0.972332  0.877404  0.852860  1
  Mn  Mn9  1  0.869817  0.683841  0.553345  1
  Si  Si10  1  0.494190  0.223576  0.124131  1
  Si  Si11  1  0.242693  0.255106  0.910945  1
  Si  Si12  1  0.702756  0.451267  0.733844  1
  Si  Si13  1  0.297244  0.548733  0.266156  1
  Si  Si14  1  0.757307  0.744894  0.089055  1
  Si  Si15  1  0.361510  0.739869  0.533556  1
  Si  Si16  1  0.150903  0.075926  0.655246  1
  Si  Si17  1  0.638490  0.260131  0.466444  1
  Si  Si18  1  0.505810  0.776424  0.875869  1
  Si  Si19  1  0.849097  0.924074  0.344754  1
  O  O20  1  0.891350  0.595293  0.732336  1
  O  O21  1  0.419471  0.230899  0.402291  1
  O  O22  1  0.482380  0.426546  0.217861  1
  O  O23  1  0.944694  0.843703  0.039760  1
  O  O24  1  0.337590  0.068958  0.145054  1
  O  O25  1  0.195363  0.598129  0.565558  1
  O  O26  1  0.269083  0.796442  0.869175  1
  O  O27  1  0.262217  0.695825  0.195090  1
  O  O28  1  0.705739  0.861001  0.220947  1
  O  O29  1  0.662410  0.931042  0.854946  1
  O  O30  1  0.294261  0.138999  0.779053  1
  O  O31  1  0.108650  0.404707  0.267664  1
  O  O32  1  0.890184  0.748776  0.387962  1
  O  O33  1  0.283634  0.944940  0.562075  1
  O  O34  1  0.716366  0.055060  0.437925  1
  O  O35  1  0.055306  0.156297  0.960240  1
  O  O36  1  0.109816  0.251224  0.612038  1
  O  O37  1  0.956794  0.954605  0.680118  1
  O  O38  1  0.383686  0.678653  0.393258  1
  O  O39  1  0.444691  0.256544  0.994207  1
  O  O40  1  0.616314  0.321347  0.606742  1
  O  O41  1  0.188965  0.452180  0.904676  1
  O  O42  1  0.730917  0.203558  0.130825  1
  O  O43  1  0.737783  0.304175  0.804910  1
  O  O44  1  0.555309  0.743456  0.005793  1
  O  O45  1  0.811035  0.547820  0.095324  1
  O  O46  1  0.043206  0.045395  0.319882  1
  O  O47  1  0.517620  0.573454  0.782139  1
  O  O48  1  0.804637  0.401871  0.434442  1
  O  O49  1  0.580529  0.769101  0.597709  1
