# generated using pymatgen
data_LiBi2(PO4)3
_symmetry_space_group_name_H-M   'P 1'
_cell_length_a   8.77152997
_cell_length_b   8.78688799
_cell_length_c   9.67616754
_cell_angle_alpha   116.95681117
_cell_angle_beta   89.73345712
_cell_angle_gamma   119.85491103
_symmetry_Int_Tables_number   1
_chemical_formula_structural   LiBi2(PO4)3
_chemical_formula_sum   'Li2 Bi4 P6 O24'
_cell_volume   552.47032282
_cell_formula_units_Z   2
loop_
 _symmetry_equiv_pos_site_id
 _symmetry_equiv_pos_as_xyz
  1  'x, y, z'
loop_
 _atom_site_type_symbol
 _atom_site_label
 _atom_site_symmetry_multiplicity
 _atom_site_fract_x
 _atom_site_fract_y
 _atom_site_fract_z
 _atom_site_occupancy
  Li  Li0  1  0.257943  0.318015  0.878346  1
  Li  Li1  1  0.742057  0.681985  0.121654  1
  Bi  Bi2  1  0.148140  0.864306  0.435203  1
  Bi  Bi3  1  0.337287  0.661047  0.033438  1
  Bi  Bi4  1  0.662713  0.338953  0.966562  1
  Bi  Bi5  1  0.851860  0.135694  0.564797  1
  P  P6  1  0.548524  0.734965  0.764319  1
  P  P7  1  0.738718  0.945632  0.241220  1
  P  P8  1  0.046860  0.546675  0.246044  1
  P  P9  1  0.953140  0.453325  0.753956  1
  P  P10  1  0.261282  0.054368  0.758780  1
  P  P11  1  0.451476  0.265035  0.235681  1
  O  O12  1  0.208002  0.861110  0.890502  1
  O  O13  1  0.553986  0.771697  0.913975  1
  O  O14  1  0.398368  0.780881  0.613660  1
  O  O15  1  0.743327  0.846747  0.750180  1
  O  O16  1  0.150092  0.467862  0.884472  1
  O  O17  1  0.131285  0.742920  0.254078  1
  O  O18  1  0.786178  0.965766  0.404903  1
  O  O19  1  0.500319  0.521247  0.811596  1
  O  O20  1  0.526703  0.834748  0.190101  1
  O  O21  1  0.027368  0.399410  0.406885  1
  O  O22  1  0.848282  0.848943  0.246204  1
  O  O23  1  0.158247  0.505161  0.186354  1
  O  O24  1  0.841753  0.494839  0.813646  1
  O  O25  1  0.151718  0.151057  0.753796  1
  O  O26  1  0.972632  0.600590  0.593115  1
  O  O27  1  0.473297  0.165252  0.809899  1
  O  O28  1  0.499681  0.478753  0.188404  1
  O  O29  1  0.213822  0.034234  0.595097  1
  O  O30  1  0.868715  0.257080  0.745922  1
  O  O31  1  0.849908  0.532138  0.115528  1
  O  O32  1  0.256673  0.153253  0.249820  1
  O  O33  1  0.601632  0.219119  0.386340  1
  O  O34  1  0.446014  0.228303  0.086025  1
  O  O35  1  0.791998  0.138890  0.109498  1
