# generated using pymatgen
data_RbGaS2
_symmetry_space_group_name_H-M   'P 1'
_cell_length_a   7.54403601
_cell_length_b   7.54403601
_cell_length_c   15.64164861
_cell_angle_alpha   83.06708152
_cell_angle_beta   96.93291848
_cell_angle_gamma   90.04327278
_symmetry_Int_Tables_number   1
_chemical_formula_structural   RbGaS2
_chemical_formula_sum   'Rb8 Ga8 S16'
_cell_volume   877.14830565
_cell_formula_units_Z   8
loop_
 _symmetry_equiv_pos_site_id
 _symmetry_equiv_pos_as_xyz
  1  'x, y, z'
loop_
 _atom_site_type_symbol
 _atom_site_label
 _atom_site_symmetry_multiplicity
 _atom_site_fract_x
 _atom_site_fract_y
 _atom_site_fract_z
 _atom_site_occupancy
  Rb  Rb0  1  0.847592  0.275999  0.394404  1
  Rb  Rb1  1  0.724001  0.152408  0.894404  1
  Rb  Rb2  1  0.152408  0.724001  0.605596  1
  Rb  Rb3  1  0.650929  0.723995  0.606172  1
  Rb  Rb4  1  0.723995  0.650929  0.893828  1
  Rb  Rb5  1  0.349071  0.276005  0.393828  1
  Rb  Rb6  1  0.276005  0.349071  0.106172  1
  Rb  Rb7  1  0.275999  0.847592  0.105596  1
  Ga  Ga8  1  0.791891  0.586671  0.167965  1
  Ga  Ga9  1  0.208109  0.413329  0.832035  1
  Ga  Ga10  1  0.413329  0.208109  0.667965  1
  Ga  Ga11  1  0.207862  0.920848  0.832281  1
  Ga  Ga12  1  0.920848  0.207862  0.667719  1
  Ga  Ga13  1  0.079152  0.792138  0.332281  1
  Ga  Ga14  1  0.792138  0.079152  0.167719  1
  Ga  Ga15  1  0.586671  0.791891  0.332035  1
  S  S16  1  0.933985  0.933985  0.750000  1
  S  S17  1  0.855392  0.769148  0.423413  1
  S  S18  1  0.230852  0.144608  0.923413  1
  S  S19  1  0.144608  0.230852  0.576587  1
  S  S20  1  0.229379  0.644996  0.919384  1
  S  S21  1  0.441051  0.934307  0.750316  1
  S  S22  1  0.934307  0.441051  0.749684  1
  S  S23  1  0.769148  0.855392  0.076587  1
  S  S24  1  0.558949  0.065693  0.249684  1
  S  S25  1  0.770621  0.355004  0.080616  1
  S  S26  1  0.644996  0.229379  0.580616  1
  S  S27  1  0.066015  0.066015  0.250000  1
  S  S28  1  0.065693  0.558949  0.250316  1
  S  S29  1  0.355004  0.770621  0.419384  1
  S  S30  1  0.558732  0.558732  0.250000  1
  S  S31  1  0.441268  0.441268  0.750000  1
