# generated using pymatgen
data_Ca3(GaN2)2
_symmetry_space_group_name_H-M   'P 1'
_cell_length_a   6.80863347
_cell_length_b   6.80863347
_cell_length_c   5.60355100
_cell_angle_alpha   89.12647799
_cell_angle_beta   90.87352201
_cell_angle_gamma   103.82912140
_symmetry_Int_Tables_number   1
_chemical_formula_structural   Ca3(GaN2)2
_chemical_formula_sum   'Ca6 Ga4 N8'
_cell_volume   252.18936405
_cell_formula_units_Z   2
loop_
 _symmetry_equiv_pos_site_id
 _symmetry_equiv_pos_as_xyz
  1  'x, y, z'
loop_
 _atom_site_type_symbol
 _atom_site_label
 _atom_site_symmetry_multiplicity
 _atom_site_fract_x
 _atom_site_fract_y
 _atom_site_fract_z
 _atom_site_occupancy
  Ca  Ca0  1  0.019130  0.251641  0.457492  1
  Ca  Ca1  1  0.748359  0.980870  0.957492  1
  Ca  Ca2  1  0.399536  0.399536  0.750000  1
  Ca  Ca3  1  0.980870  0.748359  0.542508  1
  Ca  Ca4  1  0.600464  0.600464  0.250000  1
  Ca  Ca5  1  0.251641  0.019130  0.042508  1
  Ga  Ga6  1  0.177838  0.583689  0.094537  1
  Ga  Ga7  1  0.416311  0.822162  0.594537  1
  Ga  Ga8  1  0.583689  0.177838  0.405463  1
  Ga  Ga9  1  0.822162  0.416311  0.905463  1
  N  N10  1  0.739132  0.424571  0.567436  1
  N  N11  1  0.708109  0.942733  0.479775  1
  N  N12  1  0.575429  0.260868  0.067436  1
  N  N13  1  0.260868  0.575429  0.432564  1
  N  N14  1  0.942733  0.708109  0.020224  1
  N  N15  1  0.424571  0.739132  0.932564  1
  N  N16  1  0.057267  0.291891  0.979776  1
  N  N17  1  0.291891  0.057267  0.520224  1
