# generated using pymatgen
data_SbSCl9
_symmetry_space_group_name_H-M   'P 1'
_cell_length_a   7.74786724
_cell_length_b   7.74786724
_cell_length_c   14.25103832
_cell_angle_alpha   74.64936932
_cell_angle_beta   105.35063068
_cell_angle_gamma   117.43222385
_symmetry_Int_Tables_number   1
_chemical_formula_structural   SbSCl9
_chemical_formula_sum   'Sb2 S2 Cl18'
_cell_volume   721.94188733
_cell_formula_units_Z   2
loop_
 _symmetry_equiv_pos_site_id
 _symmetry_equiv_pos_as_xyz
  1  'x, y, z'
loop_
 _atom_site_type_symbol
 _atom_site_label
 _atom_site_symmetry_multiplicity
 _atom_site_fract_x
 _atom_site_fract_y
 _atom_site_fract_z
 _atom_site_occupancy
  Sb  Sb0  1  0.000000  0.000000  0.000000  1
  Sb  Sb1  1  0.500000  0.500000  0.500000  1
  S  S2  1  0.845048  0.154952  0.280366  1
  S  S3  1  0.154952  0.845048  0.719634  1
  Cl  Cl4  1  0.034634  0.578011  0.800991  1
  Cl  Cl5  1  0.261882  0.313408  0.610490  1
  Cl  Cl6  1  0.313408  0.261882  0.389510  1
  Cl  Cl7  1  0.421989  0.965366  0.800991  1
  Cl  Cl8  1  0.686592  0.738118  0.610490  1
  Cl  Cl9  1  0.688880  0.311120  0.583293  1
  Cl  Cl10  1  0.212155  0.787845  0.604576  1
  Cl  Cl11  1  0.578011  0.034634  0.199009  1
  Cl  Cl12  1  0.703839  0.703839  0.000000  1
  Cl  Cl13  1  0.738118  0.686592  0.389510  1
  Cl  Cl14  1  0.965366  0.421989  0.199009  1
  Cl  Cl15  1  0.787845  0.212155  0.395424  1
  Cl  Cl16  1  0.808004  0.191996  0.964254  1
  Cl  Cl17  1  0.973146  0.026854  0.823405  1
  Cl  Cl18  1  0.311120  0.688880  0.416707  1
  Cl  Cl19  1  0.191996  0.808004  0.035746  1
  Cl  Cl20  1  0.296161  0.296161  0.000000  1
  Cl  Cl21  1  0.026854  0.973146  0.176595  1
