# generated using pymatgen
data_Li3Ni(PO4)2
_symmetry_space_group_name_H-M   'P 1'
_cell_length_a   4.94533137
_cell_length_b   4.94533137
_cell_length_c   6.24397648
_cell_angle_alpha   89.90582422
_cell_angle_beta   90.09417578
_cell_angle_gamma   113.48614110
_symmetry_Int_Tables_number   1
_chemical_formula_structural   Li3Ni(PO4)2
_chemical_formula_sum   'Li3 Ni1 P2 O8'
_cell_volume   140.05372439
_cell_formula_units_Z   1
loop_
 _symmetry_equiv_pos_site_id
 _symmetry_equiv_pos_as_xyz
  1  'x, y, z'
loop_
 _atom_site_type_symbol
 _atom_site_label
 _atom_site_symmetry_multiplicity
 _atom_site_fract_x
 _atom_site_fract_y
 _atom_site_fract_z
 _atom_site_occupancy
  Li  Li0  1  0.000000  0.000000  0.500000  1
  Li  Li1  1  0.326778  0.673222  0.733268  1
  Li  Li2  1  0.673222  0.326778  0.266732  1
  Ni  Ni3  1  0.000000  0.000000  0.000000  1
  P  P4  1  0.355742  0.644258  0.236157  1
  P  P5  1  0.644258  0.355742  0.763843  1
  O  O6  1  0.761804  0.700316  0.761977  1
  O  O7  1  0.247425  0.752575  0.033323  1
  O  O8  1  0.700316  0.761804  0.238023  1
  O  O9  1  0.299684  0.238196  0.761977  1
  O  O10  1  0.238196  0.299684  0.238023  1
  O  O11  1  0.752575  0.247425  0.966677  1
  O  O12  1  0.749602  0.250398  0.561301  1
  O  O13  1  0.250398  0.749602  0.438699  1
