# generated using pymatgen
data_KY(PO3)4
_symmetry_space_group_name_H-M   'P 1'
_cell_length_a   7.41751730
_cell_length_b   7.41751730
_cell_length_c   10.55999127
_cell_angle_alpha   78.96831513
_cell_angle_beta   101.03168487
_cell_angle_gamma   64.64440575
_symmetry_Int_Tables_number   1
_chemical_formula_structural   KY(PO3)4
_chemical_formula_sum   'K2 Y2 P8 O24'
_cell_volume   490.26166762
_cell_formula_units_Z   2
loop_
 _symmetry_equiv_pos_site_id
 _symmetry_equiv_pos_as_xyz
  1  'x, y, z'
loop_
 _atom_site_type_symbol
 _atom_site_label
 _atom_site_symmetry_multiplicity
 _atom_site_fract_x
 _atom_site_fract_y
 _atom_site_fract_z
 _atom_site_occupancy
  K  K0  1  0.815344  0.815344  0.750000  1
  K  K1  1  0.184656  0.184656  0.250000  1
  Y  Y2  1  0.879909  0.879909  0.250000  1
  Y  Y3  1  0.120091  0.120091  0.750000  1
  P  P4  1  0.255307  0.696892  0.057095  1
  P  P5  1  0.696892  0.255307  0.442905  1
  P  P6  1  0.744693  0.303108  0.942905  1
  P  P7  1  0.303108  0.744693  0.557095  1
  P  P8  1  0.286183  0.373451  0.503417  1
  P  P9  1  0.373451  0.286183  0.996583  1
  P  P10  1  0.713817  0.626549  0.496583  1
  P  P11  1  0.626549  0.713817  0.003417  1
  O  O12  1  0.185435  0.752897  0.173874  1
  O  O13  1  0.752897  0.185435  0.326126  1
  O  O14  1  0.814565  0.247103  0.826126  1
  O  O15  1  0.247103  0.814565  0.673874  1
  O  O16  1  0.135818  0.842778  0.914692  1
  O  O17  1  0.842778  0.135818  0.585308  1
  O  O18  1  0.864182  0.157222  0.085308  1
  O  O19  1  0.157222  0.864182  0.414692  1
  O  O20  1  0.272056  0.470831  0.064048  1
  O  O21  1  0.470831  0.272056  0.435952  1
  O  O22  1  0.727944  0.529169  0.935952  1
  O  O23  1  0.529169  0.727944  0.564048  1
  O  O24  1  0.358539  0.500653  0.589203  1
  O  O25  1  0.500653  0.358539  0.910797  1
  O  O26  1  0.641461  0.499347  0.410797  1
  O  O27  1  0.499347  0.641461  0.089203  1
  O  O28  1  0.090714  0.512512  0.385576  1
  O  O29  1  0.512512  0.090714  0.114424  1
  O  O30  1  0.909286  0.487488  0.614424  1
  O  O31  1  0.487488  0.909286  0.885576  1
  O  O32  1  0.297768  0.190964  0.602528  1
  O  O33  1  0.190964  0.297768  0.897472  1
  O  O34  1  0.702232  0.809036  0.397472  1
  O  O35  1  0.809036  0.702232  0.102528  1
