# generated using pymatgen
data_TlHg3Sb2Br3
_symmetry_space_group_name_H-M   'P 1'
_cell_length_a   6.76356339
_cell_length_b   13.48534510
_cell_length_c   13.51803001
_cell_angle_alpha   90.00000000
_cell_angle_beta   90.00000000
_cell_angle_gamma   90.00000000
_symmetry_Int_Tables_number   1
_chemical_formula_structural   TlHg3Sb2Br3
_chemical_formula_sum   'Tl4 Hg12 Sb8 Br12'
_cell_volume   1232.96581561
_cell_formula_units_Z   4
loop_
 _symmetry_equiv_pos_site_id
 _symmetry_equiv_pos_as_xyz
  1  'x, y, z'
loop_
 _atom_site_type_symbol
 _atom_site_label
 _atom_site_symmetry_multiplicity
 _atom_site_fract_x
 _atom_site_fract_y
 _atom_site_fract_z
 _atom_site_occupancy
  Tl  Tl0  1  0.998122  0.750000  0.757528  1
  Tl  Tl1  1  0.001878  0.750000  0.257528  1
  Tl  Tl2  1  0.998122  0.250000  0.742472  1
  Tl  Tl3  1  0.001878  0.250000  0.242472  1
  Hg  Hg4  1  0.467056  0.000000  0.750000  1
  Hg  Hg5  1  0.535682  0.750000  0.013243  1
  Hg  Hg6  1  0.467056  0.500000  0.750000  1
  Hg  Hg7  1  0.532944  0.000000  0.250000  1
  Hg  Hg8  1  0.464318  0.250000  0.986757  1
  Hg  Hg9  1  0.000000  0.500000  0.000000  1
  Hg  Hg10  1  0.000000  0.500000  0.500000  1
  Hg  Hg11  1  0.535682  0.250000  0.486757  1
  Hg  Hg12  1  0.464318  0.750000  0.513243  1
  Hg  Hg13  1  0.532944  0.500000  0.250000  1
  Hg  Hg14  1  0.000000  0.000000  0.000000  1
  Hg  Hg15  1  0.000000  0.000000  0.500000  1
  Sb  Sb16  1  0.371706  0.943654  0.559865  1
  Sb  Sb17  1  0.628294  0.943654  0.059865  1
  Sb  Sb18  1  0.371706  0.556346  0.559865  1
  Sb  Sb19  1  0.628294  0.556346  0.059865  1
  Sb  Sb20  1  0.371706  0.443654  0.940135  1
  Sb  Sb21  1  0.371706  0.056346  0.940135  1
  Sb  Sb22  1  0.628294  0.443654  0.440135  1
  Sb  Sb23  1  0.628294  0.056346  0.440135  1
  Br  Br24  1  0.532898  0.750000  0.797483  1
  Br  Br25  1  0.532898  0.250000  0.702517  1
  Br  Br26  1  0.896874  0.250000  0.990598  1
  Br  Br27  1  0.898793  0.000000  0.750000  1
  Br  Br28  1  0.467102  0.750000  0.297483  1
  Br  Br29  1  0.898793  0.500000  0.750000  1
  Br  Br30  1  0.103126  0.750000  0.009402  1
  Br  Br31  1  0.101207  0.500000  0.250000  1
  Br  Br32  1  0.896874  0.750000  0.509402  1
  Br  Br33  1  0.101207  0.000000  0.250000  1
  Br  Br34  1  0.103126  0.250000  0.490598  1
  Br  Br35  1  0.467102  0.250000  0.202517  1
