# generated using pymatgen
data_AlPO4
_symmetry_space_group_name_H-M   'P 1'
_cell_length_a   8.61534685
_cell_length_b   14.08666757
_cell_length_c   24.27801862
_cell_angle_alpha   90.00000000
_cell_angle_beta   90.00000000
_cell_angle_gamma   90.00000000
_symmetry_Int_Tables_number   1
_chemical_formula_structural   AlPO4
_chemical_formula_sum   'Al24 P24 O96'
_cell_volume   2946.41741411
_cell_formula_units_Z   24
loop_
 _symmetry_equiv_pos_site_id
 _symmetry_equiv_pos_as_xyz
  1  'x, y, z'
loop_
 _atom_site_type_symbol
 _atom_site_label
 _atom_site_symmetry_multiplicity
 _atom_site_fract_x
 _atom_site_fract_y
 _atom_site_fract_z
 _atom_site_occupancy
  Al  Al0  1  0.425992  0.212246  0.334052  1
  Al  Al1  1  0.925527  0.389422  0.056755  1
  Al  Al2  1  0.927623  0.217217  0.665260  1
  Al  Al3  1  0.427380  0.893044  0.229673  1
  Al  Al4  1  0.424724  0.405421  0.936751  1
  Al  Al5  1  0.927380  0.393044  0.270327  1
  Al  Al6  1  0.925992  0.712246  0.165948  1
  Al  Al7  1  0.925257  0.105454  0.230668  1
  Al  Al8  1  0.424724  0.594579  0.063249  1
  Al  Al9  1  0.927623  0.782783  0.334740  1
  Al  Al10  1  0.427623  0.717217  0.834740  1
  Al  Al11  1  0.425992  0.787754  0.665948  1
  Al  Al12  1  0.924724  0.094579  0.436751  1
  Al  Al13  1  0.927380  0.606956  0.729673  1
  Al  Al14  1  0.427380  0.106956  0.770327  1
  Al  Al15  1  0.924724  0.905421  0.563249  1
  Al  Al16  1  0.425257  0.605454  0.269332  1
  Al  Al17  1  0.427623  0.282783  0.165260  1
  Al  Al18  1  0.925992  0.287754  0.834052  1
  Al  Al19  1  0.425257  0.394546  0.730668  1
  Al  Al20  1  0.925527  0.610578  0.943245  1
  Al  Al21  1  0.425527  0.889422  0.443245  1
  Al  Al22  1  0.425527  0.110578  0.556755  1
  Al  Al23  1  0.925257  0.894546  0.769332  1
  P  P24  1  0.049210  0.105308  0.771444  1
  P  P25  1  0.549210  0.605308  0.728556  1
  P  P26  1  0.050494  0.213608  0.336728  1
  P  P27  1  0.050494  0.786392  0.663272  1
  P  P28  1  0.549670  0.103439  0.228442  1
  P  P29  1  0.054614  0.596878  0.064012  1
  P  P30  1  0.554614  0.903122  0.564012  1
  P  P31  1  0.549407  0.782739  0.335941  1
  P  P32  1  0.054011  0.888614  0.441816  1
  P  P33  1  0.049670  0.603439  0.271558  1
  P  P34  1  0.554614  0.096878  0.435988  1
  P  P35  1  0.049407  0.717261  0.835941  1
  P  P36  1  0.049210  0.894692  0.228556  1
  P  P37  1  0.049407  0.282739  0.164059  1
  P  P38  1  0.554011  0.611386  0.941816  1
  P  P39  1  0.550494  0.286392  0.836728  1
  P  P40  1  0.549210  0.394692  0.271444  1
  P  P41  1  0.054614  0.403122  0.935988  1
  P  P42  1  0.549670  0.896561  0.771558  1
  P  P43  1  0.550494  0.713608  0.163272  1
  P  P44  1  0.054011  0.111386  0.558184  1
  P  P45  1  0.554011  0.388614  0.058184  1
  P  P46  1  0.049670  0.396561  0.728442  1
  P  P47  1  0.549407  0.217261  0.664059  1
  O  O48  1  0.524259  0.132603  0.494918  1
  O  O49  1  0.486560  0.492254  0.288570  1
  O  O50  1  0.480272  0.314423  0.892431  1
  O  O51  1  0.476861  0.686460  0.320905  1
  O  O52  1  0.224518  0.391453  0.740071  1
  O  O53  1  0.960896  0.127800  0.505041  1
  O  O54  1  0.727008  0.626913  0.953673  1
  O  O55  1  0.478522  0.633349  0.784504  1
  O  O56  1  0.024259  0.367397  0.994918  1
  O  O57  1  0.978522  0.133349  0.715496  1
  O  O58  1  0.499419  0.316690  0.101272  1
  O  O59  1  0.986560  0.007746  0.788570  1
  O  O60  1  0.008043  0.671984  0.318552  1
  O  O61  1  0.504665  0.677503  0.683868  1
  O  O62  1  0.512810  0.823824  0.604570  1
  O  O63  1  0.226370  0.273418  0.163722  1
  O  O64  1  0.993047  0.310588  0.106475  1
  O  O65  1  0.993047  0.689412  0.893525  1
  O  O66  1  0.524259  0.867397  0.505082  1
  O  O67  1  0.000801  0.359592  0.205776  1
  O  O68  1  0.726097  0.399175  0.266167  1
  O  O69  1  0.976861  0.186460  0.179095  1
  O  O70  1  0.504665  0.322497  0.316132  1
  O  O71  1  0.724518  0.891453  0.759929  1
  O  O72  1  0.008043  0.328016  0.681448  1
  O  O73  1  0.224518  0.608547  0.259929  1
  O  O74  1  0.508043  0.828016  0.818552  1
  O  O75  1  0.976861  0.813540  0.820905  1
  O  O76  1  0.012810  0.676176  0.104570  1
  O  O77  1  0.013304  0.862817  0.706785  1
  O  O78  1  0.727008  0.373087  0.046327  1
  O  O79  1  0.724518  0.108547  0.240071  1
  O  O80  1  0.028221  0.990674  0.420355  1
  O  O81  1  0.726561  0.276946  0.842964  1
  O  O82  1  0.226097  0.100825  0.766167  1
  O  O83  1  0.004665  0.177503  0.816132  1
  O  O84  1  0.999419  0.816690  0.398728  1
  O  O85  1  0.960250  0.370448  0.781305  1
  O  O86  1  0.460250  0.870448  0.718695  1
  O  O87  1  0.726766  0.070623  0.429676  1
  O  O88  1  0.726097  0.600825  0.733833  1
  O  O89  1  0.493047  0.189412  0.606475  1
  O  O90  1  0.226561  0.223054  0.342964  1
  O  O91  1  0.960250  0.629552  0.218695  1
  O  O92  1  0.455589  0.991757  0.576636  1
  O  O93  1  0.493047  0.810588  0.393525  1
  O  O94  1  0.478522  0.366651  0.215496  1
  O  O95  1  0.981127  0.690233  0.679899  1
  O  O96  1  0.999419  0.183310  0.601272  1
  O  O97  1  0.012810  0.323824  0.895430  1
  O  O98  1  0.004665  0.822497  0.183868  1
  O  O99  1  0.955589  0.508243  0.076636  1
  O  O100  1  0.500801  0.859592  0.294224  1
  O  O101  1  0.226097  0.899175  0.233833  1
  O  O102  1  0.460250  0.129552  0.281305  1
  O  O103  1  0.726370  0.226582  0.663722  1
  O  O104  1  0.005021  0.497360  0.710734  1
  O  O105  1  0.528221  0.509326  0.920355  1
  O  O106  1  0.512810  0.176176  0.395430  1
  O  O107  1  0.505021  0.997360  0.789266  1
  O  O108  1  0.455589  0.008243  0.423364  1
  O  O109  1  0.500801  0.140408  0.705776  1
  O  O110  1  0.226370  0.726582  0.836278  1
  O  O111  1  0.499419  0.683310  0.898728  1
  O  O112  1  0.528221  0.490674  0.079645  1
  O  O113  1  0.981127  0.309767  0.320101  1
  O  O114  1  0.005021  0.502640  0.289266  1
  O  O115  1  0.480272  0.685577  0.107569  1
  O  O116  1  0.226766  0.570623  0.070324  1
  O  O117  1  0.486560  0.507746  0.711430  1
  O  O118  1  0.978522  0.866651  0.284504  1
  O  O119  1  0.986560  0.992254  0.211430  1
  O  O120  1  0.513304  0.362817  0.793215  1
  O  O121  1  0.481127  0.809767  0.179899  1
  O  O122  1  0.980272  0.814423  0.607569  1
  O  O123  1  0.505021  0.002640  0.210734  1
  O  O124  1  0.460896  0.372200  0.005041  1
  O  O125  1  0.024259  0.632603  0.005082  1
  O  O126  1  0.227008  0.873087  0.453673  1
  O  O127  1  0.726370  0.773418  0.336278  1
  O  O128  1  0.513304  0.637183  0.206785  1
  O  O129  1  0.460896  0.627800  0.994959  1
  O  O130  1  0.481127  0.190233  0.820101  1
  O  O131  1  0.226766  0.429377  0.929676  1
  O  O132  1  0.000801  0.640408  0.794224  1
  O  O133  1  0.028221  0.009326  0.579645  1
  O  O134  1  0.226561  0.776946  0.657036  1
  O  O135  1  0.476861  0.313540  0.679095  1
  O  O136  1  0.960896  0.872200  0.494959  1
  O  O137  1  0.013304  0.137183  0.293215  1
  O  O138  1  0.508043  0.171984  0.181448  1
  O  O139  1  0.980272  0.185577  0.392431  1
  O  O140  1  0.955589  0.491757  0.923364  1
  O  O141  1  0.726766  0.929377  0.570324  1
  O  O142  1  0.726561  0.723054  0.157036  1
  O  O143  1  0.227008  0.126913  0.546327  1
