# generated using pymatgen
data_Yb11GaSb9
_symmetry_space_group_name_H-M   'P 1'
_cell_length_a   11.98589682
_cell_length_b   11.98589682
_cell_length_c   11.98589682
_cell_angle_alpha   120.94365420
_cell_angle_beta   117.73512776
_cell_angle_gamma   91.17008066
_symmetry_Int_Tables_number   1
_chemical_formula_structural   Yb11GaSb9
_chemical_formula_sum   'Yb22 Ga2 Sb18'
_cell_volume   1228.28227548
_cell_formula_units_Z   2
loop_
 _symmetry_equiv_pos_site_id
 _symmetry_equiv_pos_as_xyz
  1  'x, y, z'
loop_
 _atom_site_type_symbol
 _atom_site_label
 _atom_site_symmetry_multiplicity
 _atom_site_fract_x
 _atom_site_fract_y
 _atom_site_fract_z
 _atom_site_occupancy
  Yb  Yb0  1  0.189226  0.444487  0.375636  1
  Yb  Yb1  1  0.322898  0.322898  0.000000  1
  Yb  Yb2  1  0.887268  0.069924  0.639358  1
  Yb  Yb3  1  0.068851  0.813590  0.624364  1
  Yb  Yb4  1  0.672635  0.662009  0.332024  1
  Yb  Yb5  1  0.387268  0.747910  0.817344  1
  Yb  Yb6  1  0.172635  0.840611  0.010626  1
  Yb  Yb7  1  0.329985  0.340611  0.667976  1
  Yb  Yb8  1  0.822898  0.822898  0.000000  1
  Yb  Yb9  1  0.064062  0.410226  0.792434  1
  Yb  Yb10  1  0.568851  0.944487  0.255261  1
  Yb  Yb11  1  0.425056  0.055275  0.736826  1
  Yb  Yb12  1  0.430566  0.247910  0.360642  1
  Yb  Yb13  1  0.318449  0.688229  0.263174  1
  Yb  Yb14  1  0.117793  0.910226  0.346164  1
  Yb  Yb15  1  0.829985  0.162009  0.989374  1
  Yb  Yb16  1  0.818449  0.555275  0.630219  1
  Yb  Yb17  1  0.689226  0.313590  0.744739  1
  Yb  Yb18  1  0.617793  0.271628  0.207566  1
  Yb  Yb19  1  0.930566  0.569924  0.182656  1
  Yb  Yb20  1  0.564062  0.771628  0.653836  1
  Yb  Yb21  1  0.925056  0.188229  0.369781  1
  Ga  Ga22  1  0.607786  0.607786  0.000000  1
  Ga  Ga23  1  0.107786  0.107786  0.000000  1
  Sb  Sb24  1  0.882386  0.867289  0.756766  1
  Sb  Sb25  1  0.551440  0.542047  0.713107  1
  Sb  Sb26  1  0.382386  0.625620  0.015097  1
  Sb  Sb27  1  0.392347  0.038418  0.425167  1
  Sb  Sb28  1  0.248388  0.748388  0.500000  1
  Sb  Sb29  1  0.613251  0.967179  0.574833  1
  Sb  Sb30  1  0.328940  0.042047  0.990607  1
  Sb  Sb31  1  0.748388  0.248388  0.500000  1
  Sb  Sb32  1  0.828940  0.838333  0.286893  1
  Sb  Sb33  1  0.113251  0.538418  0.646072  1
  Sb  Sb34  1  0.110524  0.125620  0.243234  1
  Sb  Sb35  1  0.051440  0.338333  0.009393  1
  Sb  Sb36  1  0.892347  0.467179  0.353928  1
  Sb  Sb37  1  0.139433  0.138291  0.642485  1
  Sb  Sb38  1  0.639433  0.996949  0.001143  1
  Sb  Sb39  1  0.995806  0.638291  0.998857  1
  Sb  Sb40  1  0.610524  0.367289  0.984903  1
  Sb  Sb41  1  0.495806  0.496949  0.357515  1
