# generated using pymatgen
data_Li2CoP2O7
_symmetry_space_group_name_H-M   'P 1'
_cell_length_a   8.17159978
_cell_length_b   8.17159978
_cell_length_c   8.85135785
_cell_angle_alpha   66.55431010
_cell_angle_beta   113.44568990
_cell_angle_gamma   144.34562432
_symmetry_Int_Tables_number   1
_chemical_formula_structural   Li2CoP2O7
_chemical_formula_sum   'Li4 Co2 P4 O14'
_cell_volume   312.98609704
_cell_formula_units_Z   2
loop_
 _symmetry_equiv_pos_site_id
 _symmetry_equiv_pos_as_xyz
  1  'x, y, z'
loop_
 _atom_site_type_symbol
 _atom_site_label
 _atom_site_symmetry_multiplicity
 _atom_site_fract_x
 _atom_site_fract_y
 _atom_site_fract_z
 _atom_site_occupancy
  Li  Li0  1  0.551948  0.172474  0.053444  1
  Li  Li1  1  0.172474  0.551948  0.446556  1
  Li  Li2  1  0.448052  0.827526  0.946556  1
  Li  Li3  1  0.827526  0.448052  0.553444  1
  Co  Co4  1  0.500000  0.500000  0.500000  1
  Co  Co5  1  0.500000  0.500000  0.000000  1
  P  P6  1  0.031876  0.235469  0.185052  1
  P  P7  1  0.764531  0.968124  0.685052  1
  P  P8  1  0.968124  0.764531  0.814948  1
  P  P9  1  0.235469  0.031876  0.314948  1
  O  O10  1  0.375216  0.167698  0.160095  1
  O  O11  1  0.975044  0.975044  0.250000  1
  O  O12  1  0.555575  0.755007  0.559202  1
  O  O13  1  0.444425  0.244993  0.440798  1
  O  O14  1  0.747318  0.102175  0.111160  1
  O  O15  1  0.167698  0.375216  0.339905  1
  O  O16  1  0.832302  0.624784  0.660095  1
  O  O17  1  0.624784  0.832302  0.839905  1
  O  O18  1  0.252682  0.897825  0.888840  1
  O  O19  1  0.897825  0.252682  0.611160  1
  O  O20  1  0.102175  0.747318  0.388840  1
  O  O21  1  0.024956  0.024956  0.750000  1
  O  O22  1  0.755007  0.555575  0.940798  1
  O  O23  1  0.244993  0.444425  0.059202  1
