# generated using pymatgen
data_UAg2(SeO4)2
_symmetry_space_group_name_H-M   'P 1'
_cell_length_a   5.99861134
_cell_length_b   6.63315731
_cell_length_c   21.68985905
_cell_angle_alpha   90.00000000
_cell_angle_beta   99.50622179
_cell_angle_gamma   90.00000000
_symmetry_Int_Tables_number   1
_chemical_formula_structural   UAg2(SeO4)2
_chemical_formula_sum   'U4 Ag8 Se8 O32'
_cell_volume   851.18223248
_cell_formula_units_Z   4
loop_
 _symmetry_equiv_pos_site_id
 _symmetry_equiv_pos_as_xyz
  1  'x, y, z'
loop_
 _atom_site_type_symbol
 _atom_site_label
 _atom_site_symmetry_multiplicity
 _atom_site_fract_x
 _atom_site_fract_y
 _atom_site_fract_z
 _atom_site_occupancy
  U  U0  1  0.722246  0.089372  0.645171  1
  U  U1  1  0.277754  0.589372  0.854829  1
  U  U2  1  0.277754  0.910628  0.354829  1
  U  U3  1  0.722246  0.410628  0.145171  1
  Ag  Ag4  1  0.730601  0.096384  0.839508  1
  Ag  Ag5  1  0.269399  0.596384  0.660492  1
  Ag  Ag6  1  0.238550  0.104064  0.958479  1
  Ag  Ag7  1  0.761450  0.604064  0.541521  1
  Ag  Ag8  1  0.761450  0.895936  0.041521  1
  Ag  Ag9  1  0.269399  0.903616  0.160492  1
  Ag  Ag10  1  0.238550  0.395936  0.458479  1
  Ag  Ag11  1  0.730601  0.403616  0.339508  1
  Se  Se12  1  0.195689  0.061486  0.775110  1
  Se  Se13  1  0.262223  0.655213  0.023795  1
  Se  Se14  1  0.804311  0.938514  0.224890  1
  Se  Se15  1  0.737777  0.155213  0.476205  1
  Se  Se16  1  0.737777  0.344787  0.976205  1
  Se  Se17  1  0.804311  0.561486  0.724890  1
  Se  Se18  1  0.195689  0.438514  0.275110  1
  Se  Se19  1  0.262223  0.844787  0.523795  1
  O  O20  1  0.667142  0.248373  0.045069  1
  O  O21  1  0.459751  0.308683  0.164421  1
  O  O22  1  0.913733  0.140205  0.750874  1
  O  O23  1  0.467146  0.139685  0.432262  1
  O  O24  1  0.540249  0.808683  0.335579  1
  O  O25  1  0.337792  0.221324  0.303515  1
  O  O26  1  0.848740  0.058464  0.156778  1
  O  O27  1  0.151260  0.558464  0.343222  1
  O  O28  1  0.833074  0.123485  0.948076  1
  O  O29  1  0.987825  0.992332  0.627008  1
  O  O30  1  0.012175  0.492332  0.872992  1
  O  O31  1  0.012175  0.007668  0.372992  1
  O  O32  1  0.667142  0.251627  0.545069  1
  O  O33  1  0.833074  0.376515  0.448076  1
  O  O34  1  0.532854  0.860315  0.567738  1
  O  O35  1  0.662208  0.778676  0.696485  1
  O  O36  1  0.662208  0.721324  0.196485  1
  O  O37  1  0.151260  0.941536  0.843222  1
  O  O38  1  0.332858  0.748373  0.454931  1
  O  O39  1  0.459751  0.191317  0.664421  1
  O  O40  1  0.337792  0.278676  0.803515  1
  O  O41  1  0.467146  0.360315  0.932262  1
  O  O42  1  0.332858  0.751627  0.954931  1
  O  O43  1  0.086267  0.640205  0.749126  1
  O  O44  1  0.987825  0.507668  0.127008  1
  O  O45  1  0.086267  0.859795  0.249126  1
  O  O46  1  0.848740  0.441536  0.656778  1
  O  O47  1  0.913733  0.359795  0.250874  1
  O  O48  1  0.532854  0.639685  0.067738  1
  O  O49  1  0.166926  0.623485  0.551924  1
  O  O50  1  0.540249  0.691317  0.835579  1
  O  O51  1  0.166926  0.876515  0.051924  1
