# generated using pymatgen
data_K4Ti3S14
_symmetry_space_group_name_H-M   'P 1'
_cell_length_a   11.39738921
_cell_length_b   11.39738921
_cell_length_c   13.26820493
_cell_angle_alpha   68.47746893
_cell_angle_beta   111.52253107
_cell_angle_gamma   138.33592358
_symmetry_Int_Tables_number   1
_chemical_formula_structural   K4Ti3S14
_chemical_formula_sum   'K8 Ti6 S28'
_cell_volume   1053.79058612
_cell_formula_units_Z   2
loop_
 _symmetry_equiv_pos_site_id
 _symmetry_equiv_pos_as_xyz
  1  'x, y, z'
loop_
 _atom_site_type_symbol
 _atom_site_label
 _atom_site_symmetry_multiplicity
 _atom_site_fract_x
 _atom_site_fract_y
 _atom_site_fract_z
 _atom_site_occupancy
  K  K0  1  0.024008  0.620945  0.112823  1
  K  K1  1  0.620945  0.024008  0.387177  1
  K  K2  1  0.975992  0.379055  0.887177  1
  K  K3  1  0.379055  0.975992  0.612823  1
  K  K4  1  0.189575  0.330542  0.352675  1
  K  K5  1  0.330542  0.189575  0.147325  1
  K  K6  1  0.810425  0.669458  0.647325  1
  K  K7  1  0.669458  0.810425  0.852675  1
  Ti  Ti8  1  0.922136  0.587405  0.416099  1
  Ti  Ti9  1  0.587405  0.922136  0.083901  1
  Ti  Ti10  1  0.077864  0.412595  0.583901  1
  Ti  Ti11  1  0.412595  0.077864  0.916099  1
  Ti  Ti12  1  0.763360  0.763360  0.250000  1
  Ti  Ti13  1  0.236640  0.236640  0.750000  1
  S  S14  1  0.988499  0.431392  0.397644  1
  S  S15  1  0.431392  0.988499  0.102356  1
  S  S16  1  0.011501  0.568608  0.602356  1
  S  S17  1  0.568608  0.011501  0.897644  1
  S  S18  1  0.658943  0.519886  0.418892  1
  S  S19  1  0.519886  0.658943  0.081108  1
  S  S20  1  0.341057  0.480114  0.581108  1
  S  S21  1  0.480114  0.341057  0.918892  1
  S  S22  1  0.756100  0.565649  0.209026  1
  S  S23  1  0.565649  0.756100  0.290974  1
  S  S24  1  0.243900  0.434351  0.790974  1
  S  S25  1  0.434351  0.243900  0.709026  1
  S  S26  1  0.070834  0.899247  0.368754  1
  S  S27  1  0.899247  0.070834  0.131246  1
  S  S28  1  0.929166  0.100753  0.631246  1
  S  S29  1  0.100753  0.929166  0.868754  1
  S  S30  1  0.882677  0.806685  0.103697  1
  S  S31  1  0.806685  0.882677  0.396303  1
  S  S32  1  0.117323  0.193315  0.896303  1
  S  S33  1  0.193315  0.117323  0.603697  1
  S  S34  1  0.845496  0.189820  0.165090  1
  S  S35  1  0.189820  0.845496  0.334910  1
  S  S36  1  0.154504  0.810180  0.834910  1
  S  S37  1  0.810180  0.154504  0.665090  1
  S  S38  1  0.307119  0.599915  0.101590  1
  S  S39  1  0.599915  0.307119  0.398410  1
  S  S40  1  0.692881  0.400085  0.898410  1
  S  S41  1  0.400085  0.692881  0.601590  1
