# generated using pymatgen
data_UAl4
_symmetry_space_group_name_H-M   'P 1'
_cell_length_a   7.88678263
_cell_length_b   7.88678263
_cell_length_c   7.88678263
_cell_angle_alpha   147.98307289
_cell_angle_beta   133.38091043
_cell_angle_gamma   57.67392971
_symmetry_Int_Tables_number   1
_chemical_formula_structural   UAl4
_chemical_formula_sum   'U2 Al8'
_cell_volume   187.58051247
_cell_formula_units_Z   2
loop_
 _symmetry_equiv_pos_site_id
 _symmetry_equiv_pos_as_xyz
  1  'x, y, z'
loop_
 _atom_site_type_symbol
 _atom_site_label
 _atom_site_symmetry_multiplicity
 _atom_site_fract_x
 _atom_site_fract_y
 _atom_site_fract_z
 _atom_site_occupancy
  U  U0  1  0.363672  0.113672  0.250000  1
  U  U1  1  0.636328  0.886328  0.750000  1
  Al  Al2  1  0.274434  0.302135  0.972299  1
  Al  Al3  1  0.170164  0.697865  0.472299  1
  Al  Al4  1  0.829836  0.302135  0.527701  1
  Al  Al5  1  0.500000  0.500000  0.000000  1
  Al  Al6  1  0.725566  0.697865  0.027701  1
  Al  Al7  1  0.859199  0.109199  0.750000  1
  Al  Al8  1  0.140801  0.890801  0.250000  1
  Al  Al9  1  0.000000  0.500000  0.500000  1
