# generated using pymatgen
data_Ca2BiAsO6
_symmetry_space_group_name_H-M   'P 1'
_cell_length_a   7.56076889
_cell_length_b   7.56076889
_cell_length_c   5.60745566
_cell_angle_alpha   90.00000000
_cell_angle_beta   90.00000000
_cell_angle_gamma   106.70395138
_symmetry_Int_Tables_number   1
_chemical_formula_structural   Ca2BiAsO6
_chemical_formula_sum   'Ca4 Bi2 As2 O12'
_cell_volume   307.02505682
_cell_formula_units_Z   2
loop_
 _symmetry_equiv_pos_site_id
 _symmetry_equiv_pos_as_xyz
  1  'x, y, z'
loop_
 _atom_site_type_symbol
 _atom_site_label
 _atom_site_symmetry_multiplicity
 _atom_site_fract_x
 _atom_site_fract_y
 _atom_site_fract_z
 _atom_site_occupancy
  Ca  Ca0  1  0.907770  0.693972  0.238038  1
  Ca  Ca1  1  0.306028  0.092230  0.238038  1
  Ca  Ca2  1  0.693972  0.907770  0.738038  1
  Ca  Ca3  1  0.092230  0.306028  0.738038  1
  Bi  Bi4  1  0.589188  0.410812  0.748107  1
  Bi  Bi5  1  0.410812  0.589188  0.248107  1
  As  As6  1  0.817741  0.182259  0.195348  1
  As  As7  1  0.182259  0.817741  0.695348  1
  O  O8  1  0.656003  0.650337  0.488204  1
  O  O9  1  0.911209  0.402050  0.082008  1
  O  O10  1  0.402050  0.911209  0.582008  1
  O  O11  1  0.349663  0.343997  0.488204  1
  O  O12  1  0.181833  0.818167  0.002788  1
  O  O13  1  0.343997  0.349663  0.988204  1
  O  O14  1  0.818167  0.181833  0.502788  1
  O  O15  1  0.650337  0.656003  0.988204  1
  O  O16  1  0.052983  0.947017  0.563259  1
  O  O17  1  0.088791  0.597950  0.582008  1
  O  O18  1  0.947017  0.052983  0.063259  1
  O  O19  1  0.597950  0.088791  0.082008  1
