# generated using pymatgen
data_V2Ni3O8
_symmetry_space_group_name_H-M   'P 1'
_cell_length_a   6.50798337
_cell_length_b   6.50798337
_cell_length_c   8.35516395
_cell_angle_alpha   90.00000000
_cell_angle_beta   90.00000000
_cell_angle_gamma   125.05237136
_symmetry_Int_Tables_number   1
_chemical_formula_structural   V2Ni3O8
_chemical_formula_sum   'V4 Ni6 O16'
_cell_volume   289.69042087
_cell_formula_units_Z   2
loop_
 _symmetry_equiv_pos_site_id
 _symmetry_equiv_pos_as_xyz
  1  'x, y, z'
loop_
 _atom_site_type_symbol
 _atom_site_label
 _atom_site_symmetry_multiplicity
 _atom_site_fract_x
 _atom_site_fract_y
 _atom_site_fract_z
 _atom_site_occupancy
  V  V0  1  0.123433  0.876567  0.618876  1
  V  V1  1  0.876567  0.123433  0.381124  1
  V  V2  1  0.376567  0.623433  0.118876  1
  V  V3  1  0.623433  0.376567  0.881124  1
  Ni  Ni4  1  0.119431  0.380569  0.750000  1
  Ni  Ni5  1  0.380569  0.119431  0.250000  1
  Ni  Ni6  1  0.880569  0.619431  0.250000  1
  Ni  Ni7  1  0.619431  0.880569  0.750000  1
  Ni  Ni8  1  0.500000  0.500000  0.500000  1
  Ni  Ni9  1  0.000000  0.000000  0.000000  1
  O  O10  1  0.352553  0.116016  0.498404  1
  O  O11  1  0.116016  0.352553  0.501596  1
  O  O12  1  0.147447  0.383984  0.998404  1
  O  O13  1  0.383984  0.147447  0.001596  1
  O  O14  1  0.647447  0.883984  0.501596  1
  O  O15  1  0.883984  0.647447  0.498404  1
  O  O16  1  0.852553  0.616016  0.001596  1
  O  O17  1  0.616016  0.852553  0.998404  1
  O  O18  1  0.499706  0.500294  0.744749  1
  O  O19  1  0.500294  0.499706  0.255251  1
  O  O20  1  0.751779  0.248221  0.770831  1
  O  O21  1  0.248221  0.751779  0.229169  1
  O  O22  1  0.748221  0.251779  0.270831  1
  O  O23  1  0.251779  0.748221  0.729169  1
  O  O24  1  0.999706  0.000294  0.755251  1
  O  O25  1  0.000294  0.999706  0.244749  1
