# generated using pymatgen
data_Cs4IrO4
_symmetry_space_group_name_H-M   'P 1'
_cell_length_a   6.29244354
_cell_length_b   6.29244354
_cell_length_c   6.78438269
_cell_angle_alpha   74.16677001
_cell_angle_beta   105.83322999
_cell_angle_gamma   114.39819181
_symmetry_Int_Tables_number   1
_chemical_formula_structural   Cs4IrO4
_chemical_formula_sum   'Cs4 Ir1 O4'
_cell_volume   231.39125876
_cell_formula_units_Z   1
loop_
 _symmetry_equiv_pos_site_id
 _symmetry_equiv_pos_as_xyz
  1  'x, y, z'
loop_
 _atom_site_type_symbol
 _atom_site_label
 _atom_site_symmetry_multiplicity
 _atom_site_fract_x
 _atom_site_fract_y
 _atom_site_fract_z
 _atom_site_occupancy
  Cs  Cs0  1  0.190555  0.809445  0.590975  1
  Cs  Cs1  1  0.385002  0.614998  0.157916  1
  Cs  Cs2  1  0.614998  0.385002  0.842084  1
  Cs  Cs3  1  0.809445  0.190555  0.409025  1
  Ir  Ir4  1  0.000000  0.000000  0.000000  1
  O  O5  1  0.692546  0.904555  0.817229  1
  O  O6  1  0.307454  0.095445  0.182771  1
  O  O7  1  0.095445  0.307454  0.817229  1
  O  O8  1  0.904555  0.692546  0.182771  1
