# generated using pymatgen
data_Pr2Co3Ge5
_symmetry_space_group_name_H-M   'P 1'
_cell_length_a   8.27710090
_cell_length_b   8.27710090
_cell_length_c   8.27710090
_cell_angle_alpha   137.95027745
_cell_angle_beta   106.91937882
_cell_angle_gamma   88.07509252
_symmetry_Int_Tables_number   1
_chemical_formula_structural   Pr2Co3Ge5
_chemical_formula_sum   'Pr4 Co6 Ge10'
_cell_volume   348.31629960
_cell_formula_units_Z   2
loop_
 _symmetry_equiv_pos_site_id
 _symmetry_equiv_pos_as_xyz
  1  'x, y, z'
loop_
 _atom_site_type_symbol
 _atom_site_label
 _atom_site_symmetry_multiplicity
 _atom_site_fract_x
 _atom_site_fract_y
 _atom_site_fract_z
 _atom_site_occupancy
  Pr  Pr0  1  0.128491  0.366658  0.761833  1
  Pr  Pr1  1  0.871509  0.633342  0.238167  1
  Pr  Pr2  1  0.395175  0.133342  0.261833  1
  Pr  Pr3  1  0.604825  0.866658  0.738167  1
  Co  Co4  1  0.744660  0.135645  0.609016  1
  Co  Co5  1  0.255340  0.864355  0.390984  1
  Co  Co6  1  0.473371  0.364355  0.109016  1
  Co  Co7  1  0.526629  0.635645  0.890984  1
  Co  Co8  1  1.000000  0.250000  0.250000  1
  Co  Co9  1  1.000000  0.750000  0.750000  1
  Ge  Ge10  1  0.764100  0.014100  0.250000  1
  Ge  Ge11  1  0.235900  0.485900  0.250000  1
  Ge  Ge12  1  0.235900  0.985900  0.750000  1
  Ge  Ge13  1  0.764100  0.514100  0.750000  1
  Ge  Ge14  1  0.942743  0.098614  0.844129  1
  Ge  Ge15  1  0.057257  0.901386  0.155871  1
  Ge  Ge16  1  0.745515  0.401386  0.344129  1
  Ge  Ge17  1  0.254485  0.598614  0.655871  1
  Ge  Ge18  1  0.500000  0.250000  0.750000  1
  Ge  Ge19  1  0.500000  0.750000  0.250000  1
