# generated using pymatgen
data_Ta3SiTe6
_symmetry_space_group_name_H-M   'P 1'
_cell_length_a   6.40951643
_cell_length_b   11.57344053
_cell_length_c   15.02544410
_cell_angle_alpha   90.00000000
_cell_angle_beta   90.00000000
_cell_angle_gamma   90.00000000
_symmetry_Int_Tables_number   1
_chemical_formula_structural   Ta3SiTe6
_chemical_formula_sum   'Ta12 Si4 Te24'
_cell_volume   1114.58980577
_cell_formula_units_Z   4
loop_
 _symmetry_equiv_pos_site_id
 _symmetry_equiv_pos_as_xyz
  1  'x, y, z'
loop_
 _atom_site_type_symbol
 _atom_site_label
 _atom_site_symmetry_multiplicity
 _atom_site_fract_x
 _atom_site_fract_y
 _atom_site_fract_z
 _atom_site_occupancy
  Ta  Ta0  1  0.666202  0.335511  0.250000  1
  Ta  Ta1  1  0.166202  0.164489  0.250000  1
  Ta  Ta2  1  0.833798  0.835511  0.750000  1
  Ta  Ta3  1  0.333798  0.664489  0.750000  1
  Ta  Ta4  1  0.968342  0.687801  0.250000  1
  Ta  Ta5  1  0.468342  0.812199  0.250000  1
  Ta  Ta6  1  0.531658  0.187801  0.750000  1
  Ta  Ta7  1  0.031658  0.312199  0.750000  1
  Ta  Ta8  1  0.697648  0.032784  0.250000  1
  Ta  Ta9  1  0.197648  0.467216  0.250000  1
  Ta  Ta10  1  0.802352  0.532784  0.750000  1
  Ta  Ta11  1  0.302352  0.967216  0.750000  1
  Si  Si12  1  0.575369  0.575297  0.250000  1
  Si  Si13  1  0.075369  0.924703  0.250000  1
  Si  Si14  1  0.924631  0.075297  0.750000  1
  Si  Si15  1  0.424631  0.424703  0.750000  1
  Te  Te16  1  0.796140  0.843538  0.124678  1
  Te  Te17  1  0.296140  0.656462  0.375322  1
  Te  Te18  1  0.703860  0.343538  0.875322  1
  Te  Te19  1  0.203860  0.156462  0.624678  1
  Te  Te20  1  0.203860  0.156462  0.875322  1
  Te  Te21  1  0.703860  0.343538  0.624678  1
  Te  Te22  1  0.296140  0.656462  0.124678  1
  Te  Te23  1  0.796140  0.843538  0.375322  1
  Te  Te24  1  0.855123  0.497214  0.128465  1
  Te  Te25  1  0.355123  0.002786  0.371535  1
  Te  Te26  1  0.644877  0.997214  0.871535  1
  Te  Te27  1  0.144877  0.502786  0.628465  1
  Te  Te28  1  0.144877  0.502786  0.871535  1
  Te  Te29  1  0.644877  0.997214  0.628465  1
  Te  Te30  1  0.355123  0.002786  0.128465  1
  Te  Te31  1  0.855123  0.497214  0.371535  1
  Te  Te32  1  0.848610  0.182102  0.122474  1
  Te  Te33  1  0.348610  0.317898  0.377526  1
  Te  Te34  1  0.651390  0.682102  0.877526  1
  Te  Te35  1  0.151390  0.817898  0.622474  1
  Te  Te36  1  0.151390  0.817898  0.877526  1
  Te  Te37  1  0.651390  0.682102  0.622474  1
  Te  Te38  1  0.348610  0.317898  0.122474  1
  Te  Te39  1  0.848610  0.182102  0.377526  1
