# generated using pymatgen
data_Pr2B2MoO9
_symmetry_space_group_name_H-M   'P 1'
_cell_length_a   5.36242954
_cell_length_b   7.11285080
_cell_length_c   10.75309592
_cell_angle_alpha   74.46059106
_cell_angle_beta   76.14233112
_cell_angle_gamma   73.00953831
_symmetry_Int_Tables_number   1
_chemical_formula_structural   Pr2B2MoO9
_chemical_formula_sum   'Pr4 B4 Mo2 O18'
_cell_volume   372.07645331
_cell_formula_units_Z   2
loop_
 _symmetry_equiv_pos_site_id
 _symmetry_equiv_pos_as_xyz
  1  'x, y, z'
loop_
 _atom_site_type_symbol
 _atom_site_label
 _atom_site_symmetry_multiplicity
 _atom_site_fract_x
 _atom_site_fract_y
 _atom_site_fract_z
 _atom_site_occupancy
  Pr  Pr0  1  0.842672  0.793628  0.953793  1
  Pr  Pr1  1  0.369884  0.077637  0.686330  1
  Pr  Pr2  1  0.630116  0.922363  0.313670  1
  Pr  Pr3  1  0.157328  0.206372  0.046207  1
  B  B4  1  0.737254  0.245627  0.844220  1
  B  B5  1  0.459724  0.587869  0.863498  1
  B  B6  1  0.540276  0.412131  0.136502  1
  B  B7  1  0.262746  0.754373  0.155780  1
  Mo  Mo8  1  0.037581  0.709614  0.581071  1
  Mo  Mo9  1  0.962419  0.290386  0.418929  1
  O  O10  1  0.917817  0.172577  0.298228  1
  O  O11  1  0.082183  0.827423  0.701772  1
  O  O12  1  0.515873  0.220397  0.147017  1
  O  O13  1  0.765545  0.472343  0.073298  1
  O  O14  1  0.454007  0.858193  0.139242  1
  O  O15  1  0.234455  0.527657  0.926702  1
  O  O16  1  0.988976  0.133917  0.865582  1
  O  O17  1  0.855371  0.557670  0.376270  1
  O  O18  1  0.240076  0.790213  0.429808  1
  O  O19  1  0.694926  0.819358  0.554452  1
  O  O20  1  0.011024  0.866083  0.134418  1
  O  O21  1  0.545993  0.141807  0.860758  1
  O  O22  1  0.144629  0.442330  0.623730  1
  O  O23  1  0.687120  0.453619  0.814268  1
  O  O24  1  0.484127  0.779603  0.852983  1
  O  O25  1  0.305074  0.180642  0.445548  1
  O  O26  1  0.759924  0.209787  0.570192  1
  O  O27  1  0.312880  0.546381  0.185732  1
