# generated using pymatgen
data_MgSiO3
_symmetry_space_group_name_H-M   'P 1'
_cell_length_a   10.04867280
_cell_length_b   10.04867280
_cell_length_c   16.39652211
_cell_angle_alpha   89.97774541
_cell_angle_beta   90.02225459
_cell_angle_gamma   109.76878127
_symmetry_Int_Tables_number   1
_chemical_formula_structural   MgSiO3
_chemical_formula_sum   'Mg32 Si32 O96'
_cell_volume   1558.07662803
_cell_formula_units_Z   32
loop_
 _symmetry_equiv_pos_site_id
 _symmetry_equiv_pos_as_xyz
  1  'x, y, z'
loop_
 _atom_site_type_symbol
 _atom_site_label
 _atom_site_symmetry_multiplicity
 _atom_site_fract_x
 _atom_site_fract_y
 _atom_site_fract_z
 _atom_site_occupancy
  Mg  Mg0  1  0.749235  0.498411  0.377090  1
  Mg  Mg1  1  0.752288  0.999957  0.376246  1
  Mg  Mg2  1  0.502388  0.502388  0.500000  1
  Mg  Mg3  1  0.498411  0.749235  0.622910  1
  Mg  Mg4  1  0.459520  0.825684  0.444263  1
  Mg  Mg5  1  0.587874  0.194616  0.431190  1
  Mg  Mg6  1  0.690014  0.551154  0.191975  1
  Mg  Mg7  1  0.502186  0.004461  0.249377  1
  Mg  Mg8  1  0.247203  0.499526  0.873921  1
  Mg  Mg9  1  0.994476  0.994476  0.000000  1
  Mg  Mg10  1  0.194616  0.587874  0.568810  1
  Mg  Mg11  1  0.942110  0.308939  0.937771  1
  Mg  Mg12  1  0.063845  0.683728  0.938449  1
  Mg  Mg13  1  0.180824  0.047174  0.691267  1
  Mg  Mg14  1  0.316257  0.427522  0.183386  1
  Mg  Mg15  1  0.004461  0.502186  0.750623  1
  Mg  Mg16  1  0.751697  0.002116  0.878024  1
  Mg  Mg17  1  0.002116  0.751697  0.121976  1
  Mg  Mg18  1  0.999957  0.752288  0.623754  1
  Mg  Mg19  1  0.997839  0.997839  0.500000  1
  Mg  Mg20  1  0.683728  0.063845  0.061551  1
  Mg  Mg21  1  0.825684  0.459520  0.555737  1
  Mg  Mg22  1  0.913012  0.802621  0.313943  1
  Mg  Mg23  1  0.047174  0.180824  0.308733  1
  Mg  Mg24  1  0.802621  0.913012  0.686057  1
  Mg  Mg25  1  0.993003  0.513524  0.248909  1
  Mg  Mg26  1  0.499526  0.247203  0.126079  1
  Mg  Mg27  1  0.495529  0.495529  0.000000  1
  Mg  Mg28  1  0.308939  0.942110  0.062229  1
  Mg  Mg29  1  0.427522  0.316257  0.816614  1
  Mg  Mg30  1  0.551154  0.690014  0.808025  1
  Mg  Mg31  1  0.513524  0.993003  0.751091  1
  Si  Si32  1  0.810505  0.935089  0.184726  1
  Si  Si33  1  0.751630  0.250546  0.245476  1
  Si  Si34  1  0.555910  0.686683  0.308102  1
  Si  Si35  1  0.313751  0.429963  0.682226  1
  Si  Si36  1  0.249815  0.497705  0.372758  1
  Si  Si37  1  0.497705  0.249815  0.627242  1
  Si  Si38  1  0.250546  0.751630  0.754524  1
  Si  Si39  1  0.254179  0.751355  0.252302  1
  Si  Si40  1  0.312966  0.948242  0.556836  1
  Si  Si41  1  0.058935  0.184391  0.811078  1
  Si  Si42  1  0.429963  0.313751  0.317774  1
  Si  Si43  1  0.001435  0.249917  0.126102  1
  Si  Si44  1  0.253663  0.002048  0.374057  1
  Si  Si45  1  0.073727  0.687880  0.431116  1
  Si  Si46  1  0.184391  0.058935  0.188922  1
  Si  Si47  1  0.249804  0.249804  0.500000  1
  Si  Si48  1  0.751355  0.254179  0.747698  1
  Si  Si49  1  0.815634  0.436383  0.061081  1
  Si  Si50  1  0.935089  0.810505  0.815274  1
  Si  Si51  1  0.746756  0.498525  0.875777  1
  Si  Si52  1  0.002048  0.253663  0.625943  1
  Si  Si53  1  0.560916  0.187210  0.936811  1
  Si  Si54  1  0.948242  0.312966  0.443164  1
  Si  Si55  1  0.686683  0.555910  0.691898  1
  Si  Si56  1  0.745862  0.745862  0.000000  1
  Si  Si57  1  0.750546  0.750546  0.500000  1
  Si  Si58  1  0.687880  0.073727  0.568884  1
  Si  Si59  1  0.249917  0.001435  0.873898  1
  Si  Si60  1  0.498525  0.746756  0.124223  1
  Si  Si61  1  0.436383  0.815634  0.938919  1
  Si  Si62  1  0.247157  0.247157  0.000000  1
  Si  Si63  1  0.187210  0.560916  0.063190  1
  O  O64  1  0.843669  0.787444  0.182999  1
  O  O65  1  0.699563  0.646567  0.312608  1
  O  O66  1  0.898299  0.545374  0.131863  1
  O  O67  1  0.581646  0.732476  0.509664  1
  O  O68  1  0.640530  0.901495  0.159011  1
  O  O69  1  0.640271  0.019477  0.475876  1
  O  O70  1  0.770729  0.415387  0.265231  1
  O  O71  1  0.676752  0.145303  0.321773  1
  O  O72  1  0.571496  0.849169  0.332048  1
  O  O73  1  0.355653  0.280115  0.684948  1
  O  O74  1  0.646635  0.169755  0.171010  1
  O  O75  1  0.434322  0.594141  0.374551  1
  O  O76  1  0.375810  0.540569  0.606959  1
  O  O77  1  0.202665  0.132531  0.813611  1
  O  O78  1  0.272176  0.410118  0.465301  1
  O  O79  1  0.378652  0.811079  0.181208  1
  O  O80  1  0.348076  0.801089  0.558764  1
  O  O81  1  0.540569  0.375810  0.393041  1
  O  O82  1  0.398310  0.063474  0.629571  1
  O  O83  1  0.487469  0.366337  0.226048  1
  O  O84  1  0.365931  0.999225  0.460910  1
  O  O85  1  0.318966  0.879194  0.321109  1
  O  O86  1  0.398100  0.141360  0.332794  1
  O  O87  1  0.081089  0.222425  0.030884  1
  O  O88  1  0.141360  0.398100  0.667206  1
  O  O89  1  0.217488  0.636610  0.429932  1
  O  O90  1  0.348943  0.072468  0.172203  1
  O  O91  1  0.410118  0.272176  0.534699  1
  O  O92  1  0.126614  0.495748  0.974330  1
  O  O93  1  0.272472  0.923445  0.776884  1
  O  O94  1  0.511295  0.642569  0.210479  1
  O  O95  1  0.169755  0.646635  0.828990  1
  O  O96  1  0.072468  0.348943  0.827797  1
  O  O97  1  0.145303  0.676752  0.678227  1
  O  O98  1  0.959759  0.108282  0.888301  1
  O  O99  1  0.999225  0.365931  0.539090  1
  O  O100  1  0.884868  0.067159  0.118077  1
  O  O101  1  0.095200  0.735083  0.226965  1
  O  O102  1  0.150712  0.934579  0.580362  1
  O  O103  1  0.280115  0.355653  0.315052  1
  O  O104  1  0.111813  0.860757  0.414915  1
  O  O105  1  0.191188  0.124370  0.430327  1
  O  O106  1  0.142272  0.016600  0.287570  1
  O  O107  1  0.019477  0.640271  0.524124  1
  O  O108  1  0.761135  0.911664  0.987167  1
  O  O109  1  0.879194  0.318966  0.678891  1
  O  O110  1  0.874095  0.297594  0.065643  1
  O  O111  1  0.067159  0.884868  0.881923  1
  O  O112  1  0.956029  0.621460  0.360380  1
  O  O113  1  0.132531  0.202665  0.186389  1
  O  O114  1  0.124370  0.191188  0.569673  1
  O  O115  1  0.232879  0.583621  0.278163  1
  O  O116  1  0.994345  0.865000  0.724291  1
  O  O117  1  0.851431  0.476596  0.961810  1
  O  O118  1  0.811079  0.378652  0.818792  1
  O  O119  1  0.901495  0.640530  0.840989  1
  O  O120  1  0.712830  0.161164  0.940076  1
  O  O121  1  0.849169  0.571496  0.667952  1
  O  O122  1  0.911664  0.761135  0.012833  1
  O  O123  1  0.118406  0.433703  0.134311  1
  O  O124  1  0.016600  0.142272  0.712430  1
  O  O125  1  0.063474  0.398310  0.370429  1
  O  O126  1  0.854873  0.834279  0.575384  1
  O  O127  1  0.934579  0.150712  0.419638  1
  O  O128  1  0.834279  0.854873  0.424616  1
  O  O129  1  0.476596  0.851431  0.038190  1
  O  O130  1  0.732476  0.581646  0.490336  1
  O  O131  1  0.865000  0.994345  0.275709  1
  O  O132  1  0.583621  0.232879  0.721837  1
  O  O133  1  0.650786  0.419004  0.079326  1
  O  O134  1  0.787444  0.843669  0.817001  1
  O  O135  1  0.860757  0.111813  0.585085  1
  O  O136  1  0.923445  0.272472  0.223116  1
  O  O137  1  0.591400  0.356772  0.911293  1
  O  O138  1  0.679029  0.618097  0.930210  1
  O  O139  1  0.642569  0.511295  0.789521  1
  O  O140  1  0.495748  0.126614  0.025670  1
  O  O141  1  0.594141  0.434322  0.625449  1
  O  O142  1  0.433703  0.118406  0.865689  1
  O  O143  1  0.646567  0.699563  0.687392  1
  O  O144  1  0.618097  0.679029  0.069790  1
  O  O145  1  0.735083  0.095200  0.773035  1
  O  O146  1  0.801089  0.348076  0.441236  1
  O  O147  1  0.621460  0.956029  0.639620  1
  O  O148  1  0.545374  0.898299  0.868137  1
  O  O149  1  0.353964  0.320779  0.074852  1
  O  O150  1  0.636610  0.217488  0.570068  1
  O  O151  1  0.419004  0.650786  0.920674  1
  O  O152  1  0.320779  0.353964  0.925148  1
  O  O153  1  0.222425  0.081089  0.969116  1
  O  O154  1  0.366337  0.487469  0.773952  1
  O  O155  1  0.356772  0.591400  0.088707  1
  O  O156  1  0.415387  0.770729  0.734769  1
  O  O157  1  0.108282  0.959759  0.111699  1
  O  O158  1  0.297594  0.874095  0.934357  1
  O  O159  1  0.161164  0.712830  0.059924  1
