# generated using pymatgen
data_Ba3BiRu2O9
_symmetry_space_group_name_H-M   'P 1'
_cell_length_a   6.02182212
_cell_length_b   6.02182212
_cell_length_c   14.85538271
_cell_angle_alpha   89.17739993
_cell_angle_beta   90.82260007
_cell_angle_gamma   59.90616834
_symmetry_Int_Tables_number   1
_chemical_formula_structural   Ba3BiRu2O9
_chemical_formula_sum   'Ba6 Bi2 Ru4 O18'
_cell_volume   465.88561926
_cell_formula_units_Z   2
loop_
 _symmetry_equiv_pos_site_id
 _symmetry_equiv_pos_as_xyz
  1  'x, y, z'
loop_
 _atom_site_type_symbol
 _atom_site_label
 _atom_site_symmetry_multiplicity
 _atom_site_fract_x
 _atom_site_fract_y
 _atom_site_fract_z
 _atom_site_occupancy
  Ba  Ba0  1  0.997404  0.997404  0.250000  1
  Ba  Ba1  1  0.661410  0.669776  0.904326  1
  Ba  Ba2  1  0.669776  0.661410  0.595674  1
  Ba  Ba3  1  0.338590  0.330224  0.095674  1
  Ba  Ba4  1  0.002596  0.002596  0.750000  1
  Ba  Ba5  1  0.330224  0.338590  0.404326  1
  Bi  Bi6  1  0.000000  0.000000  0.000000  1
  Bi  Bi7  1  0.000000  0.000000  0.500000  1
  Ru  Ru8  1  0.678011  0.653868  0.165924  1
  Ru  Ru9  1  0.653868  0.678011  0.334076  1
  Ru  Ru10  1  0.346132  0.321989  0.665924  1
  Ru  Ru11  1  0.321989  0.346132  0.834076  1
  O  O12  1  0.502224  0.973840  0.239860  1
  O  O13  1  0.853477  0.801545  0.096116  1
  O  O14  1  0.801545  0.853477  0.403884  1
  O  O15  1  0.146523  0.198455  0.903884  1
  O  O16  1  0.671452  0.135522  0.600161  1
  O  O17  1  0.328548  0.864478  0.399839  1
  O  O18  1  0.135522  0.671452  0.899839  1
  O  O19  1  0.220114  0.604579  0.575522  1
  O  O20  1  0.198455  0.146523  0.596116  1
  O  O21  1  0.864478  0.328548  0.100161  1
  O  O22  1  0.508936  0.508936  0.250000  1
  O  O23  1  0.973840  0.502224  0.260140  1
  O  O24  1  0.026160  0.497776  0.739860  1
  O  O25  1  0.491064  0.491064  0.750000  1
  O  O26  1  0.779886  0.395421  0.424478  1
  O  O27  1  0.395421  0.779886  0.075522  1
  O  O28  1  0.604579  0.220114  0.924478  1
  O  O29  1  0.497776  0.026160  0.760140  1
