# generated using pymatgen
data_Rb2In3
_symmetry_space_group_name_H-M   'P 1'
_cell_length_a   9.47583779
_cell_length_b   9.47583779
_cell_length_c   9.47583779
_cell_angle_alpha   136.55640295
_cell_angle_beta   136.55640295
_cell_angle_gamma   63.12129054
_symmetry_Int_Tables_number   1
_chemical_formula_structural   Rb2In3
_chemical_formula_sum   'Rb4 In6'
_cell_volume   397.22383428
_cell_formula_units_Z   2
loop_
 _symmetry_equiv_pos_site_id
 _symmetry_equiv_pos_as_xyz
  1  'x, y, z'
loop_
 _atom_site_type_symbol
 _atom_site_label
 _atom_site_symmetry_multiplicity
 _atom_site_fract_x
 _atom_site_fract_y
 _atom_site_fract_z
 _atom_site_occupancy
  Rb  Rb0  1  0.610012  0.610012  0.000000  1
  Rb  Rb1  1  0.389988  0.389988  0.000000  1
  Rb  Rb2  1  0.250000  0.750000  0.500000  1
  Rb  Rb3  1  0.750000  0.250000  0.500000  1
  In  In4  1  0.704465  0.000000  0.704465  1
  In  In5  1  0.852755  0.852755  0.000000  1
  In  In6  1  0.147245  0.147245  0.000000  1
  In  In7  1  0.000000  0.704465  0.704465  1
  In  In8  1  0.295535  1.000000  0.295535  1
  In  In9  1  0.000000  0.295535  0.295535  1
