# generated using pymatgen
data_BaCrO3
_symmetry_space_group_name_H-M   'P 1'
_cell_length_a   5.74069390
_cell_length_b   5.74069390
_cell_length_c   32.84612413
_cell_angle_alpha   90.00000000
_cell_angle_beta   90.00000000
_cell_angle_gamma   120.00000000
_symmetry_Int_Tables_number   1
_chemical_formula_structural   BaCrO3
_chemical_formula_sum   'Ba14 Cr14 O42'
_cell_volume   937.44013420
_cell_formula_units_Z   14
loop_
 _symmetry_equiv_pos_site_id
 _symmetry_equiv_pos_as_xyz
  1  'x, y, z'
loop_
 _atom_site_type_symbol
 _atom_site_label
 _atom_site_symmetry_multiplicity
 _atom_site_fract_x
 _atom_site_fract_y
 _atom_site_fract_z
 _atom_site_occupancy
  Ba  Ba0  1  0.000000  0.000000  0.605833  1
  Ba  Ba1  1  0.000000  0.000000  0.105833  1
  Ba  Ba2  1  0.333333  0.666667  0.321158  1
  Ba  Ba3  1  0.666667  0.333333  0.678842  1
  Ba  Ba4  1  0.000000  0.000000  0.394167  1
  Ba  Ba5  1  0.333333  0.666667  0.039017  1
  Ba  Ba6  1  0.333333  0.666667  0.178842  1
  Ba  Ba7  1  0.666667  0.333333  0.539017  1
  Ba  Ba8  1  0.666667  0.333333  0.960983  1
  Ba  Ba9  1  0.666667  0.333333  0.821158  1
  Ba  Ba10  1  0.666667  0.333333  0.250000  1
  Ba  Ba11  1  0.000000  0.000000  0.894167  1
  Ba  Ba12  1  0.333333  0.666667  0.460983  1
  Ba  Ba13  1  0.333333  0.666667  0.750000  1
  Cr  Cr14  1  0.333333  0.666667  0.645512  1
  Cr  Cr15  1  0.666667  0.333333  0.354488  1
  Cr  Cr16  1  0.333333  0.666667  0.565120  1
  Cr  Cr17  1  0.666667  0.333333  0.434880  1
  Cr  Cr18  1  0.000000  0.000000  0.209982  1
  Cr  Cr19  1  0.000000  0.000000  0.290018  1
  Cr  Cr20  1  0.666667  0.333333  0.145512  1
  Cr  Cr21  1  0.000000  0.000000  0.709982  1
  Cr  Cr22  1  0.000000  0.000000  0.500000  1
  Cr  Cr23  1  0.000000  0.000000  0.790018  1
  Cr  Cr24  1  0.333333  0.666667  0.934880  1
  Cr  Cr25  1  0.666667  0.333333  0.065120  1
  Cr  Cr26  1  0.333333  0.666667  0.854488  1
  Cr  Cr27  1  0.000000  0.000000  0.000000  1
  O  O28  1  0.294034  0.147017  0.750000  1
  O  O29  1  0.852983  0.705966  0.750000  1
  O  O30  1  0.329052  0.164526  0.321805  1
  O  O31  1  0.852983  0.147017  0.750000  1
  O  O32  1  0.479644  0.520356  0.606471  1
  O  O33  1  0.169962  0.339925  0.534742  1
  O  O34  1  0.164526  0.329052  0.821805  1
  O  O35  1  0.959287  0.479644  0.106471  1
  O  O36  1  0.040713  0.520356  0.606471  1
  O  O37  1  0.479644  0.959287  0.893529  1
  O  O38  1  0.147017  0.294034  0.250000  1
  O  O39  1  0.339925  0.169962  0.034742  1
  O  O40  1  0.169962  0.830038  0.965258  1
  O  O41  1  0.329052  0.164526  0.178195  1
  O  O42  1  0.830038  0.169962  0.465258  1
  O  O43  1  0.660075  0.830038  0.965258  1
  O  O44  1  0.670948  0.835474  0.821805  1
  O  O45  1  0.164526  0.835474  0.678195  1
  O  O46  1  0.040713  0.520356  0.893529  1
  O  O47  1  0.164526  0.835474  0.821805  1
  O  O48  1  0.830038  0.169962  0.034742  1
  O  O49  1  0.660075  0.830038  0.534742  1
  O  O50  1  0.169962  0.830038  0.534742  1
  O  O51  1  0.835474  0.670948  0.178195  1
  O  O52  1  0.959287  0.479644  0.393529  1
  O  O53  1  0.479644  0.959287  0.606471  1
  O  O54  1  0.339925  0.169962  0.465258  1
  O  O55  1  0.520356  0.040713  0.393529  1
  O  O56  1  0.164526  0.329052  0.678195  1
  O  O57  1  0.520356  0.479644  0.106471  1
  O  O58  1  0.705966  0.852983  0.250000  1
  O  O59  1  0.147017  0.852983  0.250000  1
  O  O60  1  0.830038  0.660075  0.034742  1
  O  O61  1  0.830038  0.660075  0.465258  1
  O  O62  1  0.169962  0.339925  0.965258  1
  O  O63  1  0.520356  0.479644  0.393529  1
  O  O64  1  0.835474  0.164526  0.178195  1
  O  O65  1  0.670948  0.835474  0.678195  1
  O  O66  1  0.479644  0.520356  0.893529  1
  O  O67  1  0.835474  0.670948  0.321805  1
  O  O68  1  0.835474  0.164526  0.321805  1
  O  O69  1  0.520356  0.040713  0.106471  1
