# generated using pymatgen
data_SbSO2F5
_symmetry_space_group_name_H-M   'P 1'
_cell_length_a   5.95643018
_cell_length_b   10.74275390
_cell_length_c   10.77842106
_cell_angle_alpha   90.00000000
_cell_angle_beta   110.20600065
_cell_angle_gamma   90.00000000
_symmetry_Int_Tables_number   1
_chemical_formula_structural   SbSO2F5
_chemical_formula_sum   'Sb4 S4 O8 F20'
_cell_volume   647.24862753
_cell_formula_units_Z   4
loop_
 _symmetry_equiv_pos_site_id
 _symmetry_equiv_pos_as_xyz
  1  'x, y, z'
loop_
 _atom_site_type_symbol
 _atom_site_label
 _atom_site_symmetry_multiplicity
 _atom_site_fract_x
 _atom_site_fract_y
 _atom_site_fract_z
 _atom_site_occupancy
  Sb  Sb0  1  0.922192  0.458624  0.230461  1
  Sb  Sb1  1  0.922192  0.041376  0.730461  1
  Sb  Sb2  1  0.077808  0.541376  0.769539  1
  Sb  Sb3  1  0.077808  0.958624  0.269539  1
  S  S4  1  0.523271  0.747525  0.935146  1
  S  S5  1  0.476729  0.252475  0.064854  1
  S  S6  1  0.523271  0.752475  0.435146  1
  S  S7  1  0.476729  0.247525  0.564854  1
  O  O8  1  0.569452  0.238291  0.959587  1
  O  O9  1  0.430548  0.738291  0.540413  1
  O  O10  1  0.388621  0.836995  0.324344  1
  O  O11  1  0.569452  0.261709  0.459587  1
  O  O12  1  0.430548  0.761709  0.040413  1
  O  O13  1  0.388621  0.663005  0.824344  1
  O  O14  1  0.611379  0.163005  0.675656  1
  O  O15  1  0.611379  0.336995  0.175656  1
  F  F16  1  0.931360  0.663551  0.844267  1
  F  F17  1  0.780415  0.532728  0.059520  1
  F  F18  1  0.191115  0.933009  0.781666  1
  F  F19  1  0.808885  0.433009  0.718334  1
  F  F20  1  0.068640  0.163551  0.655733  1
  F  F21  1  0.728858  0.562716  0.294737  1
  F  F22  1  0.808885  0.066991  0.218334  1
  F  F23  1  0.780415  0.967272  0.559520  1
  F  F24  1  0.975478  0.869019  0.107300  1
  F  F25  1  0.024522  0.130981  0.892700  1
  F  F26  1  0.068640  0.336449  0.155733  1
  F  F27  1  0.728858  0.937284  0.794737  1
  F  F28  1  0.975478  0.630981  0.607300  1
  F  F29  1  0.219585  0.467272  0.940480  1
  F  F30  1  0.191115  0.566991  0.281666  1
  F  F31  1  0.024522  0.369019  0.392700  1
  F  F32  1  0.931360  0.836449  0.344267  1
  F  F33  1  0.271142  0.062716  0.205263  1
  F  F34  1  0.219585  0.032728  0.440480  1
  F  F35  1  0.271142  0.437284  0.705263  1
