# generated using pymatgen
data_CsAgSb4S7
_symmetry_space_group_name_H-M   'P 1'
_cell_length_a   13.97243496
_cell_length_b   13.97243496
_cell_length_c   12.53954332
_cell_angle_alpha   83.16528417
_cell_angle_beta   96.83471583
_cell_angle_gamma   142.50844941
_symmetry_Int_Tables_number   1
_chemical_formula_structural   CsAgSb4S7
_chemical_formula_sum   'Cs4 Ag4 Sb16 S28'
_cell_volume   1478.19826295
_cell_formula_units_Z   4
loop_
 _symmetry_equiv_pos_site_id
 _symmetry_equiv_pos_as_xyz
  1  'x, y, z'
loop_
 _atom_site_type_symbol
 _atom_site_label
 _atom_site_symmetry_multiplicity
 _atom_site_fract_x
 _atom_site_fract_y
 _atom_site_fract_z
 _atom_site_occupancy
  Cs  Cs0  1  0.000000  0.500000  0.500000  1
  Cs  Cs1  1  0.335493  0.335493  0.250000  1
  Cs  Cs2  1  0.500000  0.000000  0.000000  1
  Cs  Cs3  1  0.664507  0.664507  0.750000  1
  Ag  Ag4  1  0.640681  0.156425  0.312921  1
  Ag  Ag5  1  0.359319  0.843575  0.687079  1
  Ag  Ag6  1  0.843575  0.359319  0.812921  1
  Ag  Ag7  1  0.156425  0.640681  0.187079  1
  Sb  Sb8  1  0.955228  0.250747  0.176220  1
  Sb  Sb9  1  0.727233  0.444247  0.061376  1
  Sb  Sb10  1  0.555753  0.272767  0.561376  1
  Sb  Sb11  1  0.749253  0.044772  0.676220  1
  Sb  Sb12  1  0.127096  0.980740  0.576343  1
  Sb  Sb13  1  0.786693  0.627550  0.374635  1
  Sb  Sb14  1  0.272767  0.555753  0.938624  1
  Sb  Sb15  1  0.250747  0.955228  0.323780  1
  Sb  Sb16  1  0.444247  0.727233  0.438624  1
  Sb  Sb17  1  0.019260  0.872904  0.076343  1
  Sb  Sb18  1  0.872904  0.019260  0.423657  1
  Sb  Sb19  1  0.627550  0.786693  0.125365  1
  Sb  Sb20  1  0.044772  0.749253  0.823780  1
  Sb  Sb21  1  0.213307  0.372450  0.625365  1
  Sb  Sb22  1  0.372450  0.213307  0.874635  1
  Sb  Sb23  1  0.980740  0.127096  0.923657  1
  S  S24  1  0.972388  0.670368  0.293988  1
  S  S25  1  0.933274  0.261729  0.973988  1
  S  S26  1  0.271448  0.372381  0.951575  1
  S  S27  1  0.353244  0.876258  0.303975  1
  S  S28  1  0.876258  0.353244  0.196025  1
  S  S29  1  0.416061  0.196571  0.067666  1
  S  S30  1  0.583939  0.803429  0.932334  1
  S  S31  1  0.011733  0.934235  0.390076  1
  S  S32  1  0.372381  0.271448  0.548425  1
  S  S33  1  0.627619  0.728552  0.451575  1
  S  S34  1  0.646756  0.123742  0.696025  1
  S  S35  1  0.123742  0.646756  0.803975  1
  S  S36  1  0.934235  0.011733  0.109924  1
  S  S37  1  0.670368  0.972388  0.206012  1
  S  S38  1  0.988267  0.065765  0.609924  1
  S  S39  1  0.596542  0.299436  0.369451  1
  S  S40  1  0.196571  0.416061  0.432334  1
  S  S41  1  0.403458  0.700564  0.630549  1
  S  S42  1  0.261729  0.933274  0.526012  1
  S  S43  1  0.738271  0.066726  0.473988  1
  S  S44  1  0.728552  0.627619  0.048425  1
  S  S45  1  0.299436  0.596542  0.130549  1
  S  S46  1  0.065765  0.988267  0.890076  1
  S  S47  1  0.700564  0.403458  0.869451  1
  S  S48  1  0.329632  0.027612  0.793988  1
  S  S49  1  0.027612  0.329632  0.706012  1
  S  S50  1  0.803429  0.583939  0.567666  1
  S  S51  1  0.066726  0.738271  0.026012  1
