# generated using pymatgen
data_BaNaFe2F9
_symmetry_space_group_name_H-M   'P 1'
_cell_length_a   5.58282237
_cell_length_b   17.76703514
_cell_length_c   9.12518182
_cell_angle_alpha   90.00000000
_cell_angle_beta   125.38997820
_cell_angle_gamma   90.00000000
_symmetry_Int_Tables_number   1
_chemical_formula_structural   BaNaFe2F9
_chemical_formula_sum   'Ba4 Na4 Fe8 F36'
_cell_volume   737.88719785
_cell_formula_units_Z   4
loop_
 _symmetry_equiv_pos_site_id
 _symmetry_equiv_pos_as_xyz
  1  'x, y, z'
loop_
 _atom_site_type_symbol
 _atom_site_label
 _atom_site_symmetry_multiplicity
 _atom_site_fract_x
 _atom_site_fract_y
 _atom_site_fract_z
 _atom_site_occupancy
  Ba  Ba0  1  0.347118  0.713790  0.063940  1
  Ba  Ba1  1  0.652882  0.213790  0.436060  1
  Ba  Ba2  1  0.652882  0.286210  0.936060  1
  Ba  Ba3  1  0.347118  0.786210  0.563940  1
  Na  Na4  1  0.533784  0.962811  0.297009  1
  Na  Na5  1  0.466216  0.462811  0.202991  1
  Na  Na6  1  0.533784  0.537189  0.797009  1
  Na  Na7  1  0.466216  0.037189  0.702991  1
  Fe  Fe8  1  0.013031  0.581325  0.270124  1
  Fe  Fe9  1  0.188006  0.123294  0.910273  1
  Fe  Fe10  1  0.811994  0.876706  0.089727  1
  Fe  Fe11  1  0.188006  0.376706  0.410273  1
  Fe  Fe12  1  0.013031  0.918675  0.770124  1
  Fe  Fe13  1  0.986969  0.418675  0.729876  1
  Fe  Fe14  1  0.811994  0.623294  0.589727  1
  Fe  Fe15  1  0.986969  0.081325  0.229876  1
  F  F16  1  0.825498  0.931671  0.904154  1
  F  F17  1  0.174502  0.431671  0.595846  1
  F  F18  1  0.174502  0.068329  0.095846  1
  F  F19  1  0.825498  0.568329  0.404154  1
  F  F20  1  0.609989  0.793129  0.931210  1
  F  F21  1  0.390011  0.293129  0.568790  1
  F  F22  1  0.390011  0.206871  0.068790  1
  F  F23  1  0.609989  0.706871  0.431210  1
  F  F24  1  0.995845  0.531120  0.739843  1
  F  F25  1  0.004155  0.031120  0.760157  1
  F  F26  1  0.004155  0.468880  0.260157  1
  F  F27  1  0.995845  0.968880  0.239843  1
  F  F28  1  0.194471  0.665763  0.697435  1
  F  F29  1  0.805529  0.165763  0.802565  1
  F  F30  1  0.805529  0.334237  0.302565  1
  F  F31  1  0.194471  0.834237  0.197435  1
  F  F32  1  0.186507  0.580870  0.141535  1
  F  F33  1  0.813493  0.080870  0.358465  1
  F  F34  1  0.813493  0.419130  0.858465  1
  F  F35  1  0.186507  0.919130  0.641535  1
  F  F36  1  0.584760  0.076350  0.997389  1
  F  F37  1  0.415240  0.576350  0.502611  1
  F  F38  1  0.415240  0.923650  0.002611  1
  F  F39  1  0.584760  0.423650  0.497389  1
  F  F40  1  0.992390  0.688063  0.285532  1
  F  F41  1  0.007610  0.188063  0.214468  1
  F  F42  1  0.007610  0.311937  0.714468  1
  F  F43  1  0.992390  0.811937  0.785532  1
  F  F44  1  0.381379  0.082879  0.445119  1
  F  F45  1  0.618621  0.582879  0.054881  1
  F  F46  1  0.618621  0.917121  0.554881  1
  F  F47  1  0.381379  0.417121  0.945119  1
  F  F48  1  0.790172  0.835484  0.276464  1
  F  F49  1  0.209828  0.335484  0.223536  1
  F  F50  1  0.209828  0.164516  0.723536  1
  F  F51  1  0.790172  0.664516  0.776464  1
