# generated using pymatgen
data_SnICl
_symmetry_space_group_name_H-M   'P 1'
_cell_length_a   4.43198500
_cell_length_b   9.01465321
_cell_length_c   10.51022351
_cell_angle_alpha   90.00000000
_cell_angle_beta   90.00000000
_cell_angle_gamma   90.00000000
_symmetry_Int_Tables_number   1
_chemical_formula_structural   SnICl
_chemical_formula_sum   'Sn4 I4 Cl4'
_cell_volume   419.91293990
_cell_formula_units_Z   4
loop_
 _symmetry_equiv_pos_site_id
 _symmetry_equiv_pos_as_xyz
  1  'x, y, z'
loop_
 _atom_site_type_symbol
 _atom_site_label
 _atom_site_symmetry_multiplicity
 _atom_site_fract_x
 _atom_site_fract_y
 _atom_site_fract_z
 _atom_site_occupancy
  Sn  Sn0  1  0.750000  0.634512  0.145293  1
  Sn  Sn1  1  0.250000  0.365488  0.854707  1
  Sn  Sn2  1  0.750000  0.134512  0.354707  1
  Sn  Sn3  1  0.250000  0.865488  0.645293  1
  I  I4  1  0.750000  0.982831  0.824460  1
  I  I5  1  0.250000  0.517169  0.324460  1
  I  I6  1  0.750000  0.482831  0.675540  1
  I  I7  1  0.250000  0.017169  0.175540  1
  Cl  Cl8  1  0.250000  0.637179  0.946919  1
  Cl  Cl9  1  0.750000  0.862821  0.446919  1
  Cl  Cl10  1  0.250000  0.137179  0.553081  1
  Cl  Cl11  1  0.750000  0.362821  0.053081  1
