# generated using pymatgen
data_BaYbSn3
_symmetry_space_group_name_H-M   'P 1'
_cell_length_a   9.32101971
_cell_length_b   9.32101971
_cell_length_c   17.42966827
_cell_angle_alpha   90.00000000
_cell_angle_beta   90.00000000
_cell_angle_gamma   118.72952396
_symmetry_Int_Tables_number   1
_chemical_formula_structural   BaYbSn3
_chemical_formula_sum   'Ba8 Yb8 Sn24'
_cell_volume   1327.89992670
_cell_formula_units_Z   8
loop_
 _symmetry_equiv_pos_site_id
 _symmetry_equiv_pos_as_xyz
  1  'x, y, z'
loop_
 _atom_site_type_symbol
 _atom_site_label
 _atom_site_symmetry_multiplicity
 _atom_site_fract_x
 _atom_site_fract_y
 _atom_site_fract_z
 _atom_site_occupancy
  Ba  Ba0  1  0.215687  0.784313  0.000000  1
  Ba  Ba1  1  0.784313  0.215687  0.000000  1
  Ba  Ba2  1  0.324920  0.324920  0.913903  1
  Ba  Ba3  1  0.715687  0.284313  0.500000  1
  Ba  Ba4  1  0.675080  0.675080  0.086097  1
  Ba  Ba5  1  0.284313  0.715687  0.500000  1
  Ba  Ba6  1  0.824920  0.824920  0.586097  1
  Ba  Ba7  1  0.175080  0.175080  0.413903  1
  Yb  Yb8  1  0.622324  0.353704  0.727505  1
  Yb  Yb9  1  0.853704  0.122324  0.772495  1
  Yb  Yb10  1  0.353704  0.622323  0.727505  1
  Yb  Yb11  1  0.122323  0.853704  0.772495  1
  Yb  Yb12  1  0.877677  0.146296  0.227505  1
  Yb  Yb13  1  0.146296  0.877676  0.227505  1
  Yb  Yb14  1  0.646296  0.377677  0.272495  1
  Yb  Yb15  1  0.377677  0.646296  0.272495  1
  Sn  Sn16  1  0.434396  0.197536  0.092956  1
  Sn  Sn17  1  0.458113  0.012377  0.335619  1
  Sn  Sn18  1  0.958113  0.512377  0.164381  1
  Sn  Sn19  1  0.218285  0.218285  0.720304  1
  Sn  Sn20  1  0.935125  0.935125  0.913618  1
  Sn  Sn21  1  0.487623  0.041887  0.835619  1
  Sn  Sn22  1  0.512377  0.958113  0.164381  1
  Sn  Sn23  1  0.041887  0.487623  0.835619  1
  Sn  Sn24  1  0.064875  0.064875  0.086382  1
  Sn  Sn25  1  0.781715  0.781715  0.279696  1
  Sn  Sn26  1  0.934396  0.697536  0.407044  1
  Sn  Sn27  1  0.697536  0.934396  0.407044  1
  Sn  Sn28  1  0.718285  0.718285  0.779696  1
  Sn  Sn29  1  0.565604  0.802464  0.907044  1
  Sn  Sn30  1  0.564875  0.564875  0.413618  1
  Sn  Sn31  1  0.065604  0.302464  0.592956  1
  Sn  Sn32  1  0.802464  0.565604  0.907044  1
  Sn  Sn33  1  0.302464  0.065604  0.592956  1
  Sn  Sn34  1  0.541887  0.987623  0.664381  1
  Sn  Sn35  1  0.012377  0.458113  0.335619  1
  Sn  Sn36  1  0.435125  0.435125  0.586382  1
  Sn  Sn37  1  0.987623  0.541887  0.664381  1
  Sn  Sn38  1  0.281715  0.281715  0.220304  1
  Sn  Sn39  1  0.197536  0.434396  0.092956  1
