# generated using pymatgen
data_Dy2TiO5
_symmetry_space_group_name_H-M   'P 1'
_cell_length_a   7.25505298
_cell_length_b   7.49984663
_cell_length_c   17.73038788
_cell_angle_alpha   91.74202177
_cell_angle_beta   89.79641593
_cell_angle_gamma   118.85743450
_symmetry_Int_Tables_number   1
_chemical_formula_structural   Dy2TiO5
_chemical_formula_sum   'Dy16 Ti8 O40'
_cell_volume   844.48495763
_cell_formula_units_Z   8
loop_
 _symmetry_equiv_pos_site_id
 _symmetry_equiv_pos_as_xyz
  1  'x, y, z'
loop_
 _atom_site_type_symbol
 _atom_site_label
 _atom_site_symmetry_multiplicity
 _atom_site_fract_x
 _atom_site_fract_y
 _atom_site_fract_z
 _atom_site_occupancy
  Dy  Dy0  1  0.984709  0.467763  0.001029  1
  Dy  Dy1  1  0.337461  0.694222  0.656299  1
  Dy  Dy2  1  0.153705  0.818668  0.827346  1
  Dy  Dy3  1  0.538668  0.548874  0.000005  1
  Dy  Dy4  1  0.305535  0.162840  0.669226  1
  Dy  Dy5  1  0.611340  0.289057  0.844783  1
  Dy  Dy6  1  0.484847  0.008700  0.494868  1
  Dy  Dy7  1  0.674978  0.843575  0.841577  1
  Dy  Dy8  1  0.485777  0.491239  0.479433  1
  Dy  Dy9  1  0.840556  0.204991  0.682070  1
  Dy  Dy10  1  0.004985  0.020615  0.495411  1
  Dy  Dy11  1  0.810183  0.620120  0.172026  1
  Dy  Dy12  1  0.006707  0.531286  0.498370  1
  Dy  Dy13  1  0.316561  0.143375  0.149422  1
  Dy  Dy14  1  0.145305  0.807354  0.327357  1
  Dy  Dy15  1  0.304541  0.623449  0.174619  1
  Ti  Ti16  1  0.988197  0.983155  0.997378  1
  Ti  Ti17  1  0.483282  0.973745  0.004010  1
  Ti  Ti18  1  0.168367  0.344191  0.836312  1
  Ti  Ti19  1  0.826671  0.651617  0.662639  1
  Ti  Ti20  1  0.655185  0.314320  0.335779  1
  Ti  Ti21  1  0.834844  0.164749  0.168800  1
  Ti  Ti22  1  0.661959  0.829777  0.325573  1
  Ti  Ti23  1  0.144442  0.318296  0.335408  1
  O  O24  1  0.463589  0.513373  0.871881  1
  O  O25  1  0.099093  0.240699  0.950472  1
  O  O26  1  0.274348  0.148263  0.803667  1
  O  O27  1  0.690480  0.897483  0.976172  1
  O  O28  1  0.455665  0.955713  0.881476  1
  O  O29  1  0.690954  0.334623  0.450302  1
  O  O30  1  0.672590  0.407179  0.717775  1
  O  O31  1  0.515714  0.026833  0.631850  1
  O  O32  1  0.113333  0.816121  0.702441  1
  O  O33  1  0.646718  0.309717  0.966996  1
  O  O34  1  0.666914  0.765611  0.713356  1
  O  O35  1  0.672397  0.842744  0.434621  1
  O  O36  1  0.061992  0.520265  0.874028  1
  O  O37  1  0.844505  0.162658  0.805778  1
  O  O38  1  0.983849  0.486939  0.618835  1
  O  O39  1  0.774266  0.658022  0.561881  1
  O  O40  1  0.976595  0.088563  0.096452  1
  O  O41  1  0.996113  0.040352  0.341972  1
  O  O42  1  0.772698  0.654089  0.303850  1
  O  O43  1  0.929395  0.823776  0.897977  1
  O  O44  1  0.209858  0.419151  0.733686  1
  O  O45  1  0.124918  0.331234  0.450299  1
  O  O46  1  0.992842  0.070367  0.616643  1
  O  O47  1  0.973130  0.448535  0.128893  1
  O  O48  1  0.163393  0.838548  0.202879  1
  O  O49  1  0.969842  0.453881  0.339188  1
  O  O50  1  0.349934  0.205921  0.542685  1
  O  O51  1  0.415490  0.347505  0.356021  1
  O  O52  1  0.154239  0.842731  0.452979  1
  O  O53  1  0.124687  0.288522  0.224031  1
  O  O54  1  0.322282  0.694482  0.033548  1
  O  O55  1  0.356600  0.678380  0.537990  1
  O  O56  1  0.521838  0.036168  0.347220  1
  O  O57  1  0.593258  0.080554  0.098674  1
  O  O58  1  0.368101  0.655196  0.303109  1
  O  O59  1  0.259776  0.029469  0.025805  1
  O  O60  1  0.698643  0.906657  0.216330  1
  O  O61  1  0.479754  0.475701  0.122551  1
  O  O62  1  0.866858  0.694041  0.044257  1
  O  O63  1  0.651214  0.287289  0.225021  1
