# generated using pymatgen
data_Na2Zr(MoO4)3
_symmetry_space_group_name_H-M   'P 1'
_cell_length_a   10.15289852
_cell_length_b   10.15289852
_cell_length_c   5.16865973
_cell_angle_alpha   80.67072478
_cell_angle_beta   99.32927522
_cell_angle_gamma   111.59296349
_symmetry_Int_Tables_number   1
_chemical_formula_structural   Na2Zr(MoO4)3
_chemical_formula_sum   'Na4 Zr2 Mo6 O24'
_cell_volume   485.79223571
_cell_formula_units_Z   2
loop_
 _symmetry_equiv_pos_site_id
 _symmetry_equiv_pos_as_xyz
  1  'x, y, z'
loop_
 _atom_site_type_symbol
 _atom_site_label
 _atom_site_symmetry_multiplicity
 _atom_site_fract_x
 _atom_site_fract_y
 _atom_site_fract_z
 _atom_site_occupancy
  Na  Na0  1  0.713548  0.030713  0.626129  1
  Na  Na1  1  0.030713  0.713548  0.873871  1
  Na  Na2  1  0.286452  0.969287  0.373871  1
  Na  Na3  1  0.969287  0.286452  0.126129  1
  Zr  Zr4  1  0.624081  0.624081  0.750000  1
  Zr  Zr5  1  0.375919  0.375919  0.250000  1
  Mo  Mo6  1  0.233751  0.549997  0.634794  1
  Mo  Mo7  1  0.549997  0.233751  0.865206  1
  Mo  Mo8  1  0.766249  0.450003  0.365206  1
  Mo  Mo9  1  0.450003  0.766249  0.134794  1
  Mo  Mo10  1  0.140437  0.140437  0.750000  1
  Mo  Mo11  1  0.859563  0.859563  0.250000  1
  O  O12  1  0.209433  0.419182  0.405853  1
  O  O13  1  0.419182  0.209433  0.094147  1
  O  O14  1  0.790567  0.580818  0.594147  1
  O  O15  1  0.580818  0.790567  0.905853  1
  O  O16  1  0.071989  0.500492  0.763554  1
  O  O17  1  0.500492  0.071989  0.736446  1
  O  O18  1  0.928011  0.499508  0.236446  1
  O  O19  1  0.499508  0.928011  0.263554  1
  O  O20  1  0.389897  0.526524  0.884227  1
  O  O21  1  0.526524  0.389897  0.615773  1
  O  O22  1  0.610103  0.473476  0.115773  1
  O  O23  1  0.473476  0.610103  0.384227  1
  O  O24  1  0.868231  0.024825  0.069589  1
  O  O25  1  0.024825  0.868231  0.430411  1
  O  O26  1  0.131769  0.975175  0.930411  1
  O  O27  1  0.975175  0.131769  0.569589  1
  O  O28  1  0.724534  0.815493  0.482851  1
  O  O29  1  0.815493  0.724534  0.017149  1
  O  O30  1  0.262828  0.712139  0.421055  1
  O  O31  1  0.184507  0.275466  0.982851  1
  O  O32  1  0.287861  0.737172  0.921055  1
  O  O33  1  0.737172  0.287861  0.578945  1
  O  O34  1  0.712139  0.262828  0.078945  1
  O  O35  1  0.275466  0.184507  0.517149  1
