# generated using pymatgen
data_KHoBeF6
_symmetry_space_group_name_H-M   'P 1'
_cell_length_a   6.42386353
_cell_length_b   5.84194061
_cell_length_c   7.08613746
_cell_angle_alpha   90.00000000
_cell_angle_beta   113.01134697
_cell_angle_gamma   90.00000000
_symmetry_Int_Tables_number   1
_chemical_formula_structural   KHoBeF6
_chemical_formula_sum   'K2 Ho2 Be2 F12'
_cell_volume   244.76683952
_cell_formula_units_Z   2
loop_
 _symmetry_equiv_pos_site_id
 _symmetry_equiv_pos_as_xyz
  1  'x, y, z'
loop_
 _atom_site_type_symbol
 _atom_site_label
 _atom_site_symmetry_multiplicity
 _atom_site_fract_x
 _atom_site_fract_y
 _atom_site_fract_z
 _atom_site_occupancy
  K  K0  1  0.571397  0.250000  0.204560  1
  K  K1  1  0.428603  0.750000  0.795440  1
  Ho  Ho2  1  0.888108  0.250000  0.819765  1
  Ho  Ho3  1  0.111892  0.750000  0.180235  1
  Be  Be4  1  0.266895  0.250000  0.535952  1
  Be  Be5  1  0.733105  0.750000  0.464048  1
  F  F6  1  0.488619  0.250000  0.737361  1
  F  F7  1  0.732736  0.534463  0.595455  1
  F  F8  1  0.267264  0.465537  0.404545  1
  F  F9  1  0.821791  0.501523  0.034767  1
  F  F10  1  0.178209  0.498477  0.965233  1
  F  F11  1  0.178209  0.001523  0.965233  1
  F  F12  1  0.821791  0.998477  0.034767  1
  F  F13  1  0.942783  0.750000  0.408836  1
  F  F14  1  0.732736  0.965537  0.595455  1
  F  F15  1  0.267264  0.034463  0.404545  1
  F  F16  1  0.057217  0.250000  0.591164  1
  F  F17  1  0.511381  0.750000  0.262639  1
