# generated using pymatgen
data_Ca3Cr3(PO4)4
_symmetry_space_group_name_H-M   'P 1'
_cell_length_a   9.09631155
_cell_length_b   9.14079442
_cell_length_c   10.02109028
_cell_angle_alpha   104.82262858
_cell_angle_beta   106.23175368
_cell_angle_gamma   109.88760392
_symmetry_Int_Tables_number   1
_chemical_formula_structural   Ca3Cr3(PO4)4
_chemical_formula_sum   'Ca6 Cr6 P8 O32'
_cell_volume   693.15787097
_cell_formula_units_Z   2
loop_
 _symmetry_equiv_pos_site_id
 _symmetry_equiv_pos_as_xyz
  1  'x, y, z'
loop_
 _atom_site_type_symbol
 _atom_site_label
 _atom_site_symmetry_multiplicity
 _atom_site_fract_x
 _atom_site_fract_y
 _atom_site_fract_z
 _atom_site_occupancy
  Ca  Ca0  1  0.677508  0.650503  0.210932  1
  Ca  Ca1  1  0.520478  0.000086  0.800319  1
  Ca  Ca2  1  0.322492  0.349497  0.789068  1
  Ca  Ca3  1  0.479522  0.999914  0.199681  1
  Ca  Ca4  1  0.271468  0.284455  0.292377  1
  Ca  Ca5  1  0.728532  0.715545  0.707623  1
  Cr  Cr6  1  0.941730  0.189805  0.416477  1
  Cr  Cr7  1  0.049579  0.803358  0.111894  1
  Cr  Cr8  1  0.058270  0.810195  0.583523  1
  Cr  Cr9  1  0.046935  0.517442  0.269993  1
  Cr  Cr10  1  0.950421  0.196642  0.888107  1
  Cr  Cr11  1  0.953065  0.482558  0.730007  1
  P  P12  1  0.732631  0.420525  0.391124  1
  P  P13  1  0.267369  0.579475  0.608876  1
  P  P14  1  0.812010  0.989153  0.074902  1
  P  P15  1  0.759170  0.440856  0.943028  1
  P  P16  1  0.240830  0.559144  0.056972  1
  P  P17  1  0.262918  0.062368  0.483850  1
  P  P18  1  0.187990  0.010847  0.925098  1
  P  P19  1  0.737082  0.937632  0.516150  1
  O  O20  1  0.367918  0.033644  0.946755  1
  O  O21  1  0.627517  0.885062  0.346905  1
  O  O22  1  0.557364  0.409134  0.303961  1
  O  O23  1  0.087916  0.435084  0.898888  1
  O  O24  1  0.824796  0.814999  0.514922  1
  O  O25  1  0.124727  0.874624  0.414619  1
  O  O26  1  0.595480  0.430800  0.959976  1
  O  O27  1  0.759901  0.265690  0.901112  1
  O  O28  1  0.841291  0.843179  0.113334  1
  O  O29  1  0.130747  0.460703  0.648144  1
  O  O30  1  0.869253  0.539297  0.351856  1
  O  O31  1  0.785536  0.505441  0.563757  1
  O  O32  1  0.175204  0.185001  0.485078  1
  O  O33  1  0.206073  0.476738  0.169508  1
  O  O34  1  0.793927  0.523262  0.830492  1
  O  O35  1  0.214464  0.494559  0.436243  1
  O  O36  1  0.912084  0.564916  0.101112  1
  O  O37  1  0.632082  0.966356  0.053245  1
  O  O38  1  0.174327  0.020515  0.080186  1
  O  O39  1  0.954249  0.162380  0.202427  1
  O  O40  1  0.372483  0.114938  0.653095  1
  O  O41  1  0.825673  0.979485  0.919814  1
  O  O42  1  0.265973  0.753947  0.647272  1
  O  O43  1  0.637232  0.907693  0.616289  1
  O  O44  1  0.240099  0.734309  0.098888  1
  O  O45  1  0.045751  0.837620  0.797573  1
  O  O46  1  0.442636  0.590866  0.696039  1
  O  O47  1  0.734027  0.246053  0.352728  1
  O  O48  1  0.158709  0.156821  0.886666  1
  O  O49  1  0.404520  0.569200  0.040024  1
  O  O50  1  0.362768  0.092307  0.383711  1
  O  O51  1  0.875273  0.125376  0.585381  1
