# generated using pymatgen
data_Ag10Te4Br3
_symmetry_space_group_name_H-M   'P 1'
_cell_length_a   11.18626626
_cell_length_b   11.18626626
_cell_length_c   13.95531255
_cell_angle_alpha   90.00000000
_cell_angle_beta   90.00000000
_cell_angle_gamma   91.31675692
_symmetry_Int_Tables_number   1
_chemical_formula_structural   Ag10Te4Br3
_chemical_formula_sum   'Ag40 Te16 Br12'
_cell_volume   1745.80275238
_cell_formula_units_Z   4
loop_
 _symmetry_equiv_pos_site_id
 _symmetry_equiv_pos_as_xyz
  1  'x, y, z'
loop_
 _atom_site_type_symbol
 _atom_site_label
 _atom_site_symmetry_multiplicity
 _atom_site_fract_x
 _atom_site_fract_y
 _atom_site_fract_z
 _atom_site_occupancy
  Ag  Ag0  1  0.360648  0.832111  0.399818  1
  Ag  Ag1  1  0.625579  0.374421  0.250000  1
  Ag  Ag2  1  0.370834  0.848615  0.865449  1
  Ag  Ag3  1  0.370834  0.848615  0.634551  1
  Ag  Ag4  1  0.325217  0.398530  0.855120  1
  Ag  Ag5  1  0.398530  0.325217  0.355120  1
  Ag  Ag6  1  0.877800  0.937354  0.750000  1
  Ag  Ag7  1  0.639352  0.167889  0.600182  1
  Ag  Ag8  1  0.167889  0.639352  0.100182  1
  Ag  Ag9  1  0.141232  0.858768  0.750000  1
  Ag  Ag10  1  0.832111  0.360648  0.899818  1
  Ag  Ag11  1  0.018175  0.179777  0.426171  1
  Ag  Ag12  1  0.820223  0.981825  0.073829  1
  Ag  Ag13  1  0.325217  0.398530  0.644880  1
  Ag  Ag14  1  0.832111  0.360648  0.600182  1
  Ag  Ag15  1  0.629166  0.151385  0.365449  1
  Ag  Ag16  1  0.374421  0.625579  0.750000  1
  Ag  Ag17  1  0.981825  0.820223  0.926171  1
  Ag  Ag18  1  0.062646  0.122200  0.750000  1
  Ag  Ag19  1  0.858768  0.141232  0.250000  1
  Ag  Ag20  1  0.848615  0.370834  0.134551  1
  Ag  Ag21  1  0.179777  0.018175  0.926171  1
  Ag  Ag22  1  0.151385  0.629166  0.634551  1
  Ag  Ag23  1  0.820223  0.981825  0.426171  1
  Ag  Ag24  1  0.937354  0.877800  0.250000  1
  Ag  Ag25  1  0.848615  0.370834  0.365449  1
  Ag  Ag26  1  0.674783  0.601470  0.144880  1
  Ag  Ag27  1  0.629166  0.151385  0.134551  1
  Ag  Ag28  1  0.398530  0.325217  0.144880  1
  Ag  Ag29  1  0.639352  0.167889  0.899818  1
  Ag  Ag30  1  0.018175  0.179777  0.073829  1
  Ag  Ag31  1  0.151385  0.629166  0.865449  1
  Ag  Ag32  1  0.981825  0.820223  0.573829  1
  Ag  Ag33  1  0.601470  0.674783  0.855120  1
  Ag  Ag34  1  0.167889  0.639352  0.399818  1
  Ag  Ag35  1  0.122200  0.062646  0.250000  1
  Ag  Ag36  1  0.601470  0.674783  0.644880  1
  Ag  Ag37  1  0.179777  0.018175  0.573829  1
  Ag  Ag38  1  0.360648  0.832111  0.100182  1
  Ag  Ag39  1  0.674783  0.601470  0.355120  1
  Te  Te40  1  0.951746  0.690556  0.750000  1
  Te  Te41  1  0.524442  0.291731  0.750000  1
  Te  Te42  1  0.620370  0.379630  0.049395  1
  Te  Te43  1  0.113518  0.886482  0.090145  1
  Te  Te44  1  0.690556  0.951746  0.250000  1
  Te  Te45  1  0.309444  0.048254  0.750000  1
  Te  Te46  1  0.708269  0.475558  0.750000  1
  Te  Te47  1  0.048254  0.309444  0.250000  1
  Te  Te48  1  0.379630  0.620370  0.950605  1
  Te  Te49  1  0.291731  0.524442  0.250000  1
  Te  Te50  1  0.113518  0.886482  0.409855  1
  Te  Te51  1  0.620370  0.379630  0.450605  1
  Te  Te52  1  0.886482  0.113518  0.590145  1
  Te  Te53  1  0.886482  0.113518  0.909855  1
  Te  Te54  1  0.379630  0.620370  0.549395  1
  Te  Te55  1  0.475558  0.708269  0.250000  1
  Br  Br56  1  0.249583  0.249583  1.000000  1
  Br  Br57  1  0.635828  0.890998  0.750000  1
  Br  Br58  1  0.249583  0.249583  0.500000  1
  Br  Br59  1  0.750417  0.750417  1.000000  1
  Br  Br60  1  0.364172  0.109002  0.250000  1
  Br  Br61  1  0.500000  0.000000  1.000000  1
  Br  Br62  1  0.750417  0.750417  0.500000  1
  Br  Br63  1  0.109002  0.364172  0.750000  1
  Br  Br64  1  0.500000  0.000000  0.500000  1
  Br  Br65  1  0.890998  0.635828  0.250000  1
  Br  Br66  1  0.000000  0.500000  0.000000  1
  Br  Br67  1  0.000000  0.500000  0.500000  1
