# generated using pymatgen
data_KRb3CdCl6
_symmetry_space_group_name_H-M   'P 1'
_cell_length_a   8.95726219
_cell_length_b   8.95726219
_cell_length_c   8.95726219
_cell_angle_alpha   90.63577711
_cell_angle_beta   90.63577711
_cell_angle_gamma   90.63577711
_symmetry_Int_Tables_number   1
_chemical_formula_structural   KRb3CdCl6
_chemical_formula_sum   'K2 Rb6 Cd2 Cl12'
_cell_volume   718.53022734
_cell_formula_units_Z   2
loop_
 _symmetry_equiv_pos_site_id
 _symmetry_equiv_pos_as_xyz
  1  'x, y, z'
loop_
 _atom_site_type_symbol
 _atom_site_label
 _atom_site_symmetry_multiplicity
 _atom_site_fract_x
 _atom_site_fract_y
 _atom_site_fract_z
 _atom_site_occupancy
  K  K0  1  0.250000  0.250000  0.250000  1
  K  K1  1  0.750000  0.750000  0.750000  1
  Rb  Rb2  1  0.750000  0.372312  0.127688  1
  Rb  Rb3  1  0.372312  0.127688  0.750000  1
  Rb  Rb4  1  0.127688  0.750000  0.372312  1
  Rb  Rb5  1  0.250000  0.627688  0.872312  1
  Rb  Rb6  1  0.872312  0.250000  0.627688  1
  Rb  Rb7  1  0.627688  0.872312  0.250000  1
  Cd  Cd8  1  0.000000  0.000000  0.000000  1
  Cd  Cd9  1  0.500000  0.500000  0.500000  1
  Cl  Cl10  1  0.288944  0.950020  0.075970  1
  Cl  Cl11  1  0.950020  0.075970  0.288944  1
  Cl  Cl12  1  0.075970  0.288944  0.950020  1
  Cl  Cl13  1  0.788944  0.575970  0.450020  1
  Cl  Cl14  1  0.450020  0.788944  0.575970  1
  Cl  Cl15  1  0.575970  0.450020  0.788944  1
  Cl  Cl16  1  0.549980  0.211056  0.424030  1
  Cl  Cl17  1  0.211056  0.424030  0.549980  1
  Cl  Cl18  1  0.424030  0.549980  0.211056  1
  Cl  Cl19  1  0.049980  0.924030  0.711056  1
  Cl  Cl20  1  0.711056  0.049980  0.924030  1
  Cl  Cl21  1  0.924030  0.711056  0.049980  1
