# generated using pymatgen
data_Ce3CuGeSe7
_symmetry_space_group_name_H-M   'P 1'
_cell_length_a   10.63026360
_cell_length_b   10.63026360
_cell_length_c   6.16822306
_cell_angle_alpha   90.00000000
_cell_angle_beta   90.00000000
_cell_angle_gamma   120.00000000
_symmetry_Int_Tables_number   1
_chemical_formula_structural   Ce3CuGeSe7
_chemical_formula_sum   'Ce6 Cu2 Ge2 Se14'
_cell_volume   603.64105613
_cell_formula_units_Z   2
loop_
 _symmetry_equiv_pos_site_id
 _symmetry_equiv_pos_as_xyz
  1  'x, y, z'
loop_
 _atom_site_type_symbol
 _atom_site_label
 _atom_site_symmetry_multiplicity
 _atom_site_fract_x
 _atom_site_fract_y
 _atom_site_fract_z
 _atom_site_occupancy
  Ce  Ce0  1  0.643115  0.773187  0.748810  1
  Ce  Ce1  1  0.773187  0.130072  0.248810  1
  Ce  Ce2  1  0.130072  0.356885  0.748810  1
  Ce  Ce3  1  0.356885  0.226813  0.248810  1
  Ce  Ce4  1  0.869928  0.643115  0.248810  1
  Ce  Ce5  1  0.226813  0.869928  0.748810  1
  Cu  Cu6  1  0.000000  0.000000  0.719758  1
  Cu  Cu7  1  0.000000  0.000000  0.219758  1
  Ge  Ge8  1  0.666667  0.333333  0.830691  1
  Ge  Ge9  1  0.333333  0.666667  0.330691  1
  Se  Se10  1  0.421253  0.516793  0.491243  1
  Se  Se11  1  0.254868  0.161799  0.731676  1
  Se  Se12  1  0.093068  0.254868  0.231676  1
  Se  Se13  1  0.516793  0.095540  0.991243  1
  Se  Se14  1  0.838201  0.093068  0.731676  1
  Se  Se15  1  0.666667  0.333333  0.443765  1
  Se  Se16  1  0.095540  0.578747  0.491243  1
  Se  Se17  1  0.904460  0.421253  0.991243  1
  Se  Se18  1  0.745132  0.838201  0.231676  1
  Se  Se19  1  0.578747  0.483207  0.991243  1
  Se  Se20  1  0.483207  0.904460  0.491243  1
  Se  Se21  1  0.161799  0.906932  0.231676  1
  Se  Se22  1  0.333333  0.666667  0.943765  1
  Se  Se23  1  0.906932  0.745132  0.731676  1
