# generated using pymatgen
data_SrHo2O4
_symmetry_space_group_name_H-M   'P 1'
_cell_length_a   3.41378057
_cell_length_b   10.11533039
_cell_length_c   11.95325574
_cell_angle_alpha   90.00000000
_cell_angle_beta   90.00000000
_cell_angle_gamma   90.00000000
_symmetry_Int_Tables_number   1
_chemical_formula_structural   SrHo2O4
_chemical_formula_sum   'Sr4 Ho8 O16'
_cell_volume   412.76406986
_cell_formula_units_Z   4
loop_
 _symmetry_equiv_pos_site_id
 _symmetry_equiv_pos_as_xyz
  1  'x, y, z'
loop_
 _atom_site_type_symbol
 _atom_site_label
 _atom_site_symmetry_multiplicity
 _atom_site_fract_x
 _atom_site_fract_y
 _atom_site_fract_z
 _atom_site_occupancy
  Sr  Sr0  1  0.250000  0.747368  0.149197  1
  Sr  Sr1  1  0.250000  0.247368  0.350803  1
  Sr  Sr2  1  0.750000  0.752632  0.649197  1
  Sr  Sr3  1  0.750000  0.252632  0.850803  1
  Ho  Ho4  1  0.750000  0.423252  0.110614  1
  Ho  Ho5  1  0.250000  0.076972  0.112087  1
  Ho  Ho6  1  0.750000  0.423028  0.612087  1
  Ho  Ho7  1  0.250000  0.076748  0.610614  1
  Ho  Ho8  1  0.750000  0.923252  0.389386  1
  Ho  Ho9  1  0.750000  0.923028  0.887913  1
  Ho  Ho10  1  0.250000  0.576748  0.889386  1
  Ho  Ho11  1  0.250000  0.576972  0.387913  1
  O  O12  1  0.250000  0.573982  0.577213  1
  O  O13  1  0.750000  0.124932  0.480480  1
  O  O14  1  0.250000  0.485568  0.216211  1
  O  O15  1  0.750000  0.514432  0.783789  1
  O  O16  1  0.750000  0.014432  0.716211  1
  O  O17  1  0.750000  0.624932  0.019520  1
  O  O18  1  0.250000  0.288327  0.674057  1
  O  O19  1  0.750000  0.926018  0.077213  1
  O  O20  1  0.750000  0.211673  0.174057  1
  O  O21  1  0.250000  0.875068  0.519520  1
  O  O22  1  0.750000  0.711673  0.325943  1
  O  O23  1  0.250000  0.788327  0.825943  1
  O  O24  1  0.250000  0.985568  0.283789  1
  O  O25  1  0.750000  0.426018  0.422787  1
  O  O26  1  0.250000  0.073982  0.922787  1
  O  O27  1  0.250000  0.375068  0.980480  1
