# generated using pymatgen
data_LiNi2(PO4)3
_symmetry_space_group_name_H-M   'P 1'
_cell_length_a   8.33663783
_cell_length_b   8.40891548
_cell_length_c   8.89487872
_cell_angle_alpha   90.58711377
_cell_angle_beta   117.79116004
_cell_angle_gamma   119.62661553
_symmetry_Int_Tables_number   1
_chemical_formula_structural   LiNi2(PO4)3
_chemical_formula_sum   'Li2 Ni4 P6 O24'
_cell_volume   455.40657640
_cell_formula_units_Z   2
loop_
 _symmetry_equiv_pos_site_id
 _symmetry_equiv_pos_as_xyz
  1  'x, y, z'
loop_
 _atom_site_type_symbol
 _atom_site_label
 _atom_site_symmetry_multiplicity
 _atom_site_fract_x
 _atom_site_fract_y
 _atom_site_fract_z
 _atom_site_occupancy
  Li  Li0  1  0.817517  0.072772  0.135516  1
  Li  Li1  1  0.182483  0.927228  0.864484  1
  Ni  Ni2  1  0.713855  0.855674  0.574076  1
  Ni  Ni3  1  0.702561  0.353146  0.054696  1
  Ni  Ni4  1  0.286145  0.144326  0.425924  1
  Ni  Ni5  1  0.297439  0.646854  0.945304  1
  P  P6  1  0.214732  0.254537  0.751003  1
  P  P7  1  0.503423  0.039629  0.248913  1
  P  P8  1  0.209972  0.465229  0.246596  1
  P  P9  1  0.790028  0.534771  0.753404  1
  P  P10  1  0.496577  0.960371  0.751087  1
  P  P11  1  0.785268  0.745463  0.248997  1
  O  O12  1  0.706647  0.534222  0.205520  1
  O  O13  1  0.374180  0.210412  0.893748  1
  O  O14  1  0.736254  0.516981  0.899565  1
  O  O15  1  0.966070  0.496866  0.793488  1
  O  O16  1  0.999199  0.116772  0.741421  1
  O  O17  1  0.033930  0.503134  0.206512  1
  O  O18  1  0.313796  0.853146  0.084966  1
  O  O19  1  0.680244  0.171178  0.209408  1
  O  O20  1  0.824107  0.802742  0.434324  1
  O  O21  1  0.612992  0.001630  0.424251  1
  O  O22  1  0.175893  0.197258  0.565676  1
  O  O23  1  0.293353  0.465778  0.794480  1
  O  O24  1  0.869194  0.742288  0.746106  1
  O  O25  1  0.388146  0.130972  0.262092  1
  O  O26  1  0.581915  0.392416  0.570967  1
  O  O27  1  0.625820  0.789588  0.106252  1
  O  O28  1  0.263746  0.483019  0.100435  1
  O  O29  1  0.611854  0.869028  0.737908  1
  O  O30  1  0.686204  0.146854  0.915034  1
  O  O31  1  0.130806  0.257712  0.253894  1
  O  O32  1  0.319756  0.828822  0.790592  1
  O  O33  1  0.000801  0.883228  0.258579  1
  O  O34  1  0.418085  0.607584  0.429033  1
  O  O35  1  0.387008  0.998370  0.575749  1
