# generated using pymatgen
data_Cu7As6Se13
_symmetry_space_group_name_H-M   'P 1'
_cell_length_a   8.76688518
_cell_length_b   8.76688518
_cell_length_c   8.76688518
_cell_angle_alpha   102.36283866
_cell_angle_beta   102.36283866
_cell_angle_gamma   102.36283866
_symmetry_Int_Tables_number   1
_chemical_formula_structural   Cu7As6Se13
_chemical_formula_sum   'Cu7 As6 Se13'
_cell_volume   618.60262444
_cell_formula_units_Z   1
loop_
 _symmetry_equiv_pos_site_id
 _symmetry_equiv_pos_as_xyz
  1  'x, y, z'
loop_
 _atom_site_type_symbol
 _atom_site_label
 _atom_site_symmetry_multiplicity
 _atom_site_fract_x
 _atom_site_fract_y
 _atom_site_fract_z
 _atom_site_occupancy
  Cu  Cu0  1  0.206197  0.935914  0.143925  1
  Cu  Cu1  1  0.935914  0.143925  0.206197  1
  Cu  Cu2  1  0.143925  0.206197  0.935914  1
  Cu  Cu3  1  0.587226  0.371911  0.277685  1
  Cu  Cu4  1  0.371911  0.277685  0.587226  1
  Cu  Cu5  1  0.277685  0.587226  0.371911  1
  Cu  Cu6  1  0.753897  0.753897  0.753897  1
  As  As7  1  0.497281  0.986402  0.844057  1
  As  As8  1  0.986402  0.844057  0.497281  1
  As  As9  1  0.844057  0.497281  0.986402  1
  As  As10  1  0.526872  0.643135  0.058621  1
  As  As11  1  0.643135  0.058621  0.526872  1
  As  As12  1  0.058621  0.526872  0.643135  1
  Se  Se13  1  0.740892  0.281225  0.097437  1
  Se  Se14  1  0.281225  0.097437  0.740892  1
  Se  Se15  1  0.097437  0.740892  0.281225  1
  Se  Se16  1  0.786862  0.952259  0.327704  1
  Se  Se17  1  0.952259  0.327704  0.786862  1
  Se  Se18  1  0.327704  0.786862  0.952259  1
  Se  Se19  1  0.441110  0.143036  0.349803  1
  Se  Se20  1  0.143036  0.349803  0.441110  1
  Se  Se21  1  0.349803  0.441110  0.143036  1
  Se  Se22  1  0.796030  0.574425  0.509700  1
  Se  Se23  1  0.574425  0.509700  0.796030  1
  Se  Se24  1  0.509700  0.796030  0.574425  1
  Se  Se25  1  0.969965  0.969965  0.969965  1
