# generated using pymatgen
data_Pr5O9
_symmetry_space_group_name_H-M   'P 1'
_cell_length_a   6.73584942
_cell_length_b   21.04667762
_cell_length_c   13.74959261
_cell_angle_alpha   90.00000000
_cell_angle_beta   108.07804899
_cell_angle_gamma   90.00000000
_symmetry_Int_Tables_number   1
_chemical_formula_structural   Pr5O9
_chemical_formula_sum   'Pr40 O72'
_cell_volume   1853.01701300
_cell_formula_units_Z   8
loop_
 _symmetry_equiv_pos_site_id
 _symmetry_equiv_pos_as_xyz
  1  'x, y, z'
loop_
 _atom_site_type_symbol
 _atom_site_label
 _atom_site_symmetry_multiplicity
 _atom_site_fract_x
 _atom_site_fract_y
 _atom_site_fract_z
 _atom_site_occupancy
  Pr  Pr0  1  0.192524  0.292070  0.254688  1
  Pr  Pr1  1  0.500000  0.500000  0.000000  1
  Pr  Pr2  1  0.294542  0.491803  0.269099  1
  Pr  Pr3  1  0.738090  0.908195  0.756945  1
  Pr  Pr4  1  0.024239  0.110854  0.523783  1
  Pr  Pr5  1  0.501253  0.613757  0.480255  1
  Pr  Pr6  1  0.807476  0.707930  0.745312  1
  Pr  Pr7  1  0.261910  0.091805  0.243055  1
  Pr  Pr8  1  0.020390  0.205300  0.989773  1
  Pr  Pr9  1  0.807476  0.792070  0.245312  1
  Pr  Pr10  1  0.294542  0.008197  0.769099  1
  Pr  Pr11  1  0.699263  0.205183  0.261362  1
  Pr  Pr12  1  0.483277  0.188180  0.480342  1
  Pr  Pr13  1  0.501253  0.886243  0.980255  1
  Pr  Pr14  1  0.979610  0.794700  0.010227  1
  Pr  Pr15  1  0.788776  0.412400  0.241606  1
  Pr  Pr16  1  0.498747  0.386243  0.519745  1
  Pr  Pr17  1  0.975761  0.889146  0.476217  1
  Pr  Pr18  1  0.020390  0.294700  0.489773  1
  Pr  Pr19  1  0.516723  0.811820  0.519658  1
  Pr  Pr20  1  0.699263  0.294817  0.761362  1
  Pr  Pr21  1  0.500000  0.000000  0.500000  1
  Pr  Pr22  1  0.000000  0.000000  0.000000  1
  Pr  Pr23  1  0.211224  0.912400  0.258394  1
  Pr  Pr24  1  0.498747  0.113757  0.019745  1
  Pr  Pr25  1  0.483277  0.311820  0.980342  1
  Pr  Pr26  1  0.300737  0.794817  0.738638  1
  Pr  Pr27  1  0.705458  0.508197  0.730901  1
  Pr  Pr28  1  0.024239  0.389146  0.023783  1
  Pr  Pr29  1  0.705458  0.991803  0.230901  1
  Pr  Pr30  1  0.000000  0.500000  0.500000  1
  Pr  Pr31  1  0.192524  0.207930  0.754688  1
  Pr  Pr32  1  0.788776  0.087600  0.741606  1
  Pr  Pr33  1  0.738090  0.591805  0.256945  1
  Pr  Pr34  1  0.979610  0.705300  0.510227  1
  Pr  Pr35  1  0.211224  0.587600  0.758394  1
  Pr  Pr36  1  0.975761  0.610854  0.976217  1
  Pr  Pr37  1  0.261910  0.408195  0.743055  1
  Pr  Pr38  1  0.516723  0.688180  0.019658  1
  Pr  Pr39  1  0.300737  0.705183  0.238638  1
  O  O40  1  0.674358  0.704280  0.562499  1
  O  O41  1  0.325642  0.204280  0.937501  1
  O  O42  1  0.894548  0.495708  0.957681  1
  O  O43  1  0.250899  0.293862  0.086879  1
  O  O44  1  0.179333  0.696137  0.065761  1
  O  O45  1  0.739945  0.599379  0.079184  1
  O  O46  1  0.402649  0.600414  0.297770  1
  O  O47  1  0.747166  0.291978  0.587863  1
  O  O48  1  0.757989  0.096499  0.922776  1
  O  O49  1  0.173847  0.398493  0.552656  1
  O  O50  1  0.389677  0.497868  0.462467  1
  O  O51  1  0.757989  0.403501  0.422776  1
  O  O52  1  0.310002  0.600469  0.935549  1
  O  O53  1  0.456067  0.500051  0.817781  1
  O  O54  1  0.459548  0.599875  0.656065  1
  O  O55  1  0.402649  0.899586  0.797770  1
  O  O56  1  0.820667  0.196137  0.434239  1
  O  O57  1  0.387569  0.197385  0.296388  1
  O  O58  1  0.749101  0.706138  0.913121  1
  O  O59  1  0.325642  0.295720  0.437501  1
  O  O60  1  0.115643  0.697099  0.700883  1
  O  O61  1  0.543933  0.000051  0.682219  1
  O  O62  1  0.963158  0.303240  0.664264  1
  O  O63  1  0.983146  0.504271  0.320393  1
  O  O64  1  0.674358  0.795720  0.062499  1
  O  O65  1  0.036842  0.696760  0.335736  1
  O  O66  1  0.115643  0.802901  0.200883  1
  O  O67  1  0.610323  0.997868  0.037533  1
  O  O68  1  0.459548  0.900125  0.156065  1
  O  O69  1  0.252834  0.791978  0.912137  1
  O  O70  1  0.983146  0.995729  0.820393  1
  O  O71  1  0.016854  0.004271  0.179607  1
  O  O72  1  0.689998  0.399531  0.064451  1
  O  O73  1  0.597351  0.399586  0.702230  1
  O  O74  1  0.456067  0.999949  0.317781  1
  O  O75  1  0.179333  0.803863  0.565761  1
  O  O76  1  0.540452  0.099875  0.843935  1
  O  O77  1  0.389677  0.002132  0.962467  1
  O  O78  1  0.885021  0.601414  0.794629  1
  O  O79  1  0.885021  0.898586  0.294629  1
  O  O80  1  0.310002  0.899531  0.435549  1
  O  O81  1  0.016854  0.495729  0.679607  1
  O  O82  1  0.114979  0.101414  0.705371  1
  O  O83  1  0.820667  0.303863  0.934239  1
  O  O84  1  0.884357  0.302901  0.299117  1
  O  O85  1  0.260055  0.400621  0.920816  1
  O  O86  1  0.689998  0.100469  0.564451  1
  O  O87  1  0.173847  0.101507  0.052656  1
  O  O88  1  0.543933  0.499949  0.182219  1
  O  O89  1  0.610323  0.502132  0.537533  1
  O  O90  1  0.612431  0.802615  0.703612  1
  O  O91  1  0.387569  0.302615  0.796388  1
  O  O92  1  0.242011  0.903501  0.077224  1
  O  O93  1  0.884357  0.197099  0.799117  1
  O  O94  1  0.242011  0.596499  0.577224  1
  O  O95  1  0.749101  0.793862  0.413121  1
  O  O96  1  0.826153  0.601507  0.447344  1
  O  O97  1  0.597351  0.100414  0.202230  1
  O  O98  1  0.540452  0.400125  0.343935  1
  O  O99  1  0.036842  0.803240  0.835736  1
  O  O100  1  0.963158  0.196760  0.164264  1
  O  O101  1  0.747166  0.208022  0.087863  1
  O  O102  1  0.739945  0.900621  0.579184  1
  O  O103  1  0.894548  0.004292  0.457681  1
  O  O104  1  0.826153  0.898493  0.947344  1
  O  O105  1  0.250899  0.206138  0.586879  1
  O  O106  1  0.105452  0.504292  0.042319  1
  O  O107  1  0.612431  0.697385  0.203612  1
  O  O108  1  0.252834  0.708022  0.412137  1
  O  O109  1  0.260055  0.099379  0.420816  1
  O  O110  1  0.114979  0.398586  0.205371  1
  O  O111  1  0.105452  0.995708  0.542319  1
