# generated using pymatgen
data_Ba2Nd2Si4O13
_symmetry_space_group_name_H-M   'P 1'
_cell_length_a   6.72460255
_cell_length_b   9.03183639
_cell_length_c   10.22836398
_cell_angle_alpha   86.48489004
_cell_angle_beta   73.58255480
_cell_angle_gamma   86.45483570
_symmetry_Int_Tables_number   1
_chemical_formula_structural   Ba2Nd2Si4O13
_chemical_formula_sum   'Ba4 Nd4 Si8 O26'
_cell_volume   594.13223785
_cell_formula_units_Z   2
loop_
 _symmetry_equiv_pos_site_id
 _symmetry_equiv_pos_as_xyz
  1  'x, y, z'
loop_
 _atom_site_type_symbol
 _atom_site_label
 _atom_site_symmetry_multiplicity
 _atom_site_fract_x
 _atom_site_fract_y
 _atom_site_fract_z
 _atom_site_occupancy
  Ba  Ba0  1  0.270780  0.170330  0.443995  1
  Ba  Ba1  1  0.744554  0.672686  0.925517  1
  Ba  Ba2  1  0.255446  0.327314  0.074483  1
  Ba  Ba3  1  0.729220  0.829670  0.556005  1
  Nd  Nd4  1  0.194039  0.879776  0.101651  1
  Nd  Nd5  1  0.805961  0.120224  0.898349  1
  Nd  Nd6  1  0.310693  0.608084  0.395777  1
  Nd  Nd7  1  0.689307  0.391916  0.604223  1
  Si  Si8  1  0.105020  0.439831  0.687090  1
  Si  Si9  1  0.301611  0.622230  0.844889  1
  Si  Si10  1  0.822568  0.113957  0.323816  1
  Si  Si11  1  0.894980  0.560169  0.312910  1
  Si  Si12  1  0.389156  0.066908  0.823411  1
  Si  Si13  1  0.177432  0.886043  0.676184  1
  Si  Si14  1  0.698389  0.377770  0.155111  1
  Si  Si15  1  0.610844  0.933092  0.176589  1
  O  O16  1  0.168049  0.773094  0.811741  1
  O  O17  1  0.838091  0.904975  0.064731  1
  O  O18  1  0.849923  0.515852  0.165668  1
  O  O19  1  0.530537  0.603503  0.740205  1
  O  O20  1  0.053394  0.038348  0.296476  1
  O  O21  1  0.946606  0.961652  0.703524  1
  O  O22  1  0.651970  0.984353  0.321638  1
  O  O23  1  0.028926  0.425063  0.368518  1
  O  O24  1  0.831951  0.226906  0.188259  1
  O  O25  1  0.304003  0.630290  0.001979  1
  O  O26  1  0.330808  0.414012  0.574309  1
  O  O27  1  0.528407  0.213959  0.795777  1
  O  O28  1  0.469463  0.396497  0.259795  1
  O  O29  1  0.720656  0.184304  0.469755  1
  O  O30  1  0.471593  0.786041  0.204223  1
  O  O31  1  0.279344  0.815696  0.530245  1
  O  O32  1  0.483141  0.070875  0.119505  1
  O  O33  1  0.150077  0.484148  0.834332  1
  O  O34  1  0.161909  0.095025  0.935269  1
  O  O35  1  0.968350  0.292209  0.708432  1
  O  O36  1  0.971074  0.574937  0.631482  1
  O  O37  1  0.348030  0.015647  0.678362  1
  O  O38  1  0.669192  0.585988  0.425691  1
  O  O39  1  0.695997  0.369710  0.998021  1
  O  O40  1  0.031650  0.707791  0.291568  1
  O  O41  1  0.516859  0.929125  0.880495  1
