# generated using pymatgen
data_Er2MoO6
_symmetry_space_group_name_H-M   'P 1'
_cell_length_a   9.88629001
_cell_length_b   9.88629001
_cell_length_c   5.35699357
_cell_angle_alpha   74.92655671
_cell_angle_beta   105.07344329
_cell_angle_gamma   112.07472992
_symmetry_Int_Tables_number   1
_chemical_formula_structural   Er2MoO6
_chemical_formula_sum   'Er8 Mo4 O24'
_cell_volume   460.73639526
_cell_formula_units_Z   4
loop_
 _symmetry_equiv_pos_site_id
 _symmetry_equiv_pos_as_xyz
  1  'x, y, z'
loop_
 _atom_site_type_symbol
 _atom_site_label
 _atom_site_symmetry_multiplicity
 _atom_site_fract_x
 _atom_site_fract_y
 _atom_site_fract_z
 _atom_site_occupancy
  Er  Er0  1  0.217157  0.551546  0.122685  1
  Er  Er1  1  0.448454  0.782843  0.622685  1
  Er  Er2  1  0.782843  0.448454  0.877315  1
  Er  Er3  1  0.551546  0.217157  0.377315  1
  Er  Er4  1  0.862920  0.862920  0.750000  1
  Er  Er5  1  0.137080  0.137080  0.250000  1
  Er  Er6  1  0.394176  0.394176  0.750000  1
  Er  Er7  1  0.605824  0.605824  0.250000  1
  Mo  Mo8  1  0.987267  0.295681  0.560940  1
  Mo  Mo9  1  0.295681  0.987267  0.939060  1
  Mo  Mo10  1  0.012733  0.704319  0.439060  1
  Mo  Mo11  1  0.704319  0.012733  0.060940  1
  O  O12  1  0.427582  0.609742  0.421926  1
  O  O13  1  0.609742  0.427582  0.078074  1
  O  O14  1  0.572418  0.390258  0.578074  1
  O  O15  1  0.390258  0.572418  0.921926  1
  O  O16  1  0.193976  0.337468  0.418250  1
  O  O17  1  0.337468  0.193976  0.081750  1
  O  O18  1  0.806024  0.662532  0.581750  1
  O  O19  1  0.662532  0.806024  0.918250  1
  O  O20  1  0.115795  0.326148  0.874551  1
  O  O21  1  0.326148  0.115795  0.625449  1
  O  O22  1  0.884205  0.673852  0.125449  1
  O  O23  1  0.673852  0.884205  0.374551  1
  O  O24  1  0.710661  0.185608  0.136601  1
  O  O25  1  0.185608  0.710661  0.363399  1
  O  O26  1  0.289339  0.814392  0.863399  1
  O  O27  1  0.814392  0.289339  0.636601  1
  O  O28  1  0.890980  0.048898  0.013666  1
  O  O29  1  0.048898  0.890980  0.486334  1
  O  O30  1  0.975566  0.432686  0.252743  1
  O  O31  1  0.951102  0.109020  0.513666  1
  O  O32  1  0.567314  0.024434  0.752743  1
  O  O33  1  0.024434  0.567314  0.747257  1
  O  O34  1  0.432686  0.975566  0.247257  1
  O  O35  1  0.109020  0.951102  0.986334  1
