# generated using pymatgen
data_Y3Si2Cl5O6
_symmetry_space_group_name_H-M   'P 1'
_cell_length_a   7.47494232
_cell_length_b   7.47494232
_cell_length_c   11.73300378
_cell_angle_alpha   80.60674704
_cell_angle_beta   99.39325296
_cell_angle_gamma   91.33899052
_symmetry_Int_Tables_number   1
_chemical_formula_structural   Y3Si2Cl5O6
_chemical_formula_sum   'Y6 Si4 Cl10 O12'
_cell_volume   638.11226441
_cell_formula_units_Z   2
loop_
 _symmetry_equiv_pos_site_id
 _symmetry_equiv_pos_as_xyz
  1  'x, y, z'
loop_
 _atom_site_type_symbol
 _atom_site_label
 _atom_site_symmetry_multiplicity
 _atom_site_fract_x
 _atom_site_fract_y
 _atom_site_fract_z
 _atom_site_occupancy
  Y  Y0  1  0.081946  0.416583  0.830366  1
  Y  Y1  1  0.918054  0.583417  0.169634  1
  Y  Y2  1  0.500000  0.000000  0.500000  1
  Y  Y3  1  0.583417  0.918054  0.830366  1
  Y  Y4  1  0.416583  0.081946  0.169634  1
  Y  Y5  1  0.000000  0.500000  0.500000  1
  Si  Si6  1  0.818004  0.889986  0.355678  1
  Si  Si7  1  0.889986  0.818004  0.644322  1
  Si  Si8  1  0.110014  0.181996  0.355678  1
  Si  Si9  1  0.181996  0.110014  0.644322  1
  Cl  Cl10  1  0.314983  0.685017  0.501595  1
  Cl  Cl11  1  0.379140  0.620860  0.855336  1
  Cl  Cl12  1  0.669844  0.881041  0.078819  1
  Cl  Cl13  1  0.881041  0.669844  0.921181  1
  Cl  Cl14  1  0.216205  0.783795  0.161705  1
  Cl  Cl15  1  0.685017  0.314983  0.498405  1
  Cl  Cl16  1  0.118959  0.330156  0.078819  1
  Cl  Cl17  1  0.783795  0.216205  0.838295  1
  Cl  Cl18  1  0.330156  0.118959  0.921181  1
  Cl  Cl19  1  0.620860  0.379140  0.144664  1
  O  O20  1  0.953108  0.046892  0.305500  1
  O  O21  1  0.867657  0.692228  0.328089  1
  O  O22  1  0.307772  0.132343  0.328089  1
  O  O23  1  0.046892  0.953108  0.694500  1
  O  O24  1  0.607410  0.956148  0.328114  1
  O  O25  1  0.132343  0.307772  0.671911  1
  O  O26  1  0.043852  0.392590  0.328114  1
  O  O27  1  0.956148  0.607410  0.671886  1
  O  O28  1  0.142467  0.142467  0.500000  1
  O  O29  1  0.392590  0.043852  0.671886  1
  O  O30  1  0.857533  0.857533  0.500000  1
  O  O31  1  0.692228  0.867657  0.671911  1
