# generated using pymatgen
data_Sm26Ga6Co11
_symmetry_space_group_name_H-M   'P 1'
_cell_length_a   11.65664103
_cell_length_b   11.65664103
_cell_length_c   15.24040098
_cell_angle_alpha   90.00000000
_cell_angle_beta   90.00000000
_cell_angle_gamma   90.00000000
_symmetry_Int_Tables_number   1
_chemical_formula_structural   Sm26Ga6Co11
_chemical_formula_sum   'Sm52 Ga12 Co22'
_cell_volume   2070.82423283
_cell_formula_units_Z   2
loop_
 _symmetry_equiv_pos_site_id
 _symmetry_equiv_pos_as_xyz
  1  'x, y, z'
loop_
 _atom_site_type_symbol
 _atom_site_label
 _atom_site_symmetry_multiplicity
 _atom_site_fract_x
 _atom_site_fract_y
 _atom_site_fract_z
 _atom_site_occupancy
  Sm  Sm0  1  0.920420  0.794987  0.311262  1
  Sm  Sm1  1  0.205013  0.920420  0.311262  1
  Sm  Sm2  1  0.657597  0.157597  0.000000  1
  Sm  Sm3  1  0.927628  0.201086  0.884896  1
  Sm  Sm4  1  0.342403  0.842403  0.000000  1
  Sm  Sm5  1  0.572372  0.701086  0.884896  1
  Sm  Sm6  1  0.579580  0.294987  0.688738  1
  Sm  Sm7  1  0.427628  0.298914  0.884896  1
  Sm  Sm8  1  0.296035  0.583718  0.500000  1
  Sm  Sm9  1  0.416282  0.296035  0.500000  1
  Sm  Sm10  1  0.205013  0.920420  0.688738  1
  Sm  Sm11  1  0.583718  0.703965  0.500000  1
  Sm  Sm12  1  0.500000  0.000000  0.157055  1
  Sm  Sm13  1  0.420420  0.705013  0.311262  1
  Sm  Sm14  1  0.500000  0.000000  0.842945  1
  Sm  Sm15  1  0.000000  0.500000  0.383944  1
  Sm  Sm16  1  0.083718  0.796035  0.500000  1
  Sm  Sm17  1  0.794987  0.079580  0.311262  1
  Sm  Sm18  1  0.294987  0.420420  0.688738  1
  Sm  Sm19  1  0.842403  0.657597  0.000000  1
  Sm  Sm20  1  0.079580  0.205013  0.688738  1
  Sm  Sm21  1  0.000000  0.500000  0.157055  1
  Sm  Sm22  1  0.701086  0.427628  0.115104  1
  Sm  Sm23  1  0.000000  0.500000  0.616056  1
  Sm  Sm24  1  0.072372  0.798914  0.115104  1
  Sm  Sm25  1  0.916282  0.203965  0.500000  1
  Sm  Sm26  1  0.705013  0.579580  0.311262  1
  Sm  Sm27  1  0.427628  0.298914  0.115104  1
  Sm  Sm28  1  0.201086  0.072372  0.115104  1
  Sm  Sm29  1  0.705013  0.579580  0.688738  1
  Sm  Sm30  1  0.927628  0.201086  0.115104  1
  Sm  Sm31  1  0.796035  0.916282  0.500000  1
  Sm  Sm32  1  0.579580  0.294987  0.311262  1
  Sm  Sm33  1  0.201086  0.072372  0.884896  1
  Sm  Sm34  1  0.703965  0.416282  0.500000  1
  Sm  Sm35  1  0.072372  0.798914  0.884896  1
  Sm  Sm36  1  0.000000  0.500000  0.842945  1
  Sm  Sm37  1  0.798914  0.927628  0.884896  1
  Sm  Sm38  1  0.572372  0.701086  0.115104  1
  Sm  Sm39  1  0.500000  0.000000  0.383944  1
  Sm  Sm40  1  0.298914  0.572372  0.115104  1
  Sm  Sm41  1  0.079580  0.205013  0.311262  1
  Sm  Sm42  1  0.294987  0.420420  0.311262  1
  Sm  Sm43  1  0.794987  0.079580  0.688738  1
  Sm  Sm44  1  0.920420  0.794987  0.688738  1
  Sm  Sm45  1  0.701086  0.427628  0.884896  1
  Sm  Sm46  1  0.157597  0.342403  0.000000  1
  Sm  Sm47  1  0.203965  0.083718  0.500000  1
  Sm  Sm48  1  0.500000  0.000000  0.616056  1
  Sm  Sm49  1  0.420420  0.705013  0.688738  1
  Sm  Sm50  1  0.298914  0.572372  0.884896  1
  Sm  Sm51  1  0.798914  0.927628  0.115104  1
  Ga  Ga52  1  0.837563  0.337563  0.290707  1
  Ga  Ga53  1  0.151646  0.348354  0.500000  1
  Ga  Ga54  1  0.337563  0.162437  0.290707  1
  Ga  Ga55  1  0.162437  0.662437  0.290707  1
  Ga  Ga56  1  0.162437  0.662437  0.709293  1
  Ga  Ga57  1  0.337563  0.162437  0.709293  1
  Ga  Ga58  1  0.348354  0.848354  0.500000  1
  Ga  Ga59  1  0.651646  0.151646  0.500000  1
  Ga  Ga60  1  0.662437  0.837563  0.709293  1
  Ga  Ga61  1  0.662437  0.837563  0.290707  1
  Ga  Ga62  1  0.848354  0.651646  0.500000  1
  Ga  Ga63  1  0.837563  0.337563  0.709293  1
  Co  Co64  1  0.094368  0.594368  0.000000  1
  Co  Co65  1  0.806454  0.693546  0.179408  1
  Co  Co66  1  0.594368  0.905632  0.000000  1
  Co  Co67  1  0.500000  0.500000  0.589443  1
  Co  Co68  1  0.500000  0.500000  0.225820  1
  Co  Co69  1  0.000000  0.000000  0.589443  1
  Co  Co70  1  0.000000  0.000000  0.410557  1
  Co  Co71  1  0.000000  0.000000  0.225820  1
  Co  Co72  1  0.500000  0.500000  0.410557  1
  Co  Co73  1  0.500000  0.500000  0.774180  1
  Co  Co74  1  0.693546  0.193546  0.820592  1
  Co  Co75  1  0.693546  0.193546  0.179408  1
  Co  Co76  1  0.405632  0.094368  0.000000  1
  Co  Co77  1  0.000000  0.000000  0.000000  1
  Co  Co78  1  0.193546  0.306454  0.820592  1
  Co  Co79  1  0.000000  0.000000  0.774180  1
  Co  Co80  1  0.905632  0.405632  0.000000  1
  Co  Co81  1  0.193546  0.306454  0.179408  1
  Co  Co82  1  0.500000  0.500000  0.000000  1
  Co  Co83  1  0.306454  0.806454  0.820592  1
  Co  Co84  1  0.806454  0.693546  0.820592  1
  Co  Co85  1  0.306454  0.806454  0.179408  1
