# generated using pymatgen
data_SnP2Cl8O3
_symmetry_space_group_name_H-M   'P 1'
_cell_length_a   8.98035521
_cell_length_b   9.24278057
_cell_length_c   11.04151332
_cell_angle_alpha   69.90646892
_cell_angle_beta   71.26402930
_cell_angle_gamma   65.38708949
_symmetry_Int_Tables_number   1
_chemical_formula_structural   SnP2Cl8O3
_chemical_formula_sum   'Sn2 P4 Cl16 O6'
_cell_volume   765.28111444
_cell_formula_units_Z   2
loop_
 _symmetry_equiv_pos_site_id
 _symmetry_equiv_pos_as_xyz
  1  'x, y, z'
loop_
 _atom_site_type_symbol
 _atom_site_label
 _atom_site_symmetry_multiplicity
 _atom_site_fract_x
 _atom_site_fract_y
 _atom_site_fract_z
 _atom_site_occupancy
  Sn  Sn0  1  0.909889  0.795078  0.231593  1
  Sn  Sn1  1  0.090111  0.204922  0.768407  1
  P  P2  1  0.792447  0.204676  0.064046  1
  P  P3  1  0.222208  0.806856  0.363629  1
  P  P4  1  0.207553  0.795324  0.935954  1
  P  P5  1  0.777792  0.193144  0.636371  1
  Cl  Cl6  1  0.543692  0.265455  0.089045  1
  Cl  Cl7  1  0.788016  0.207228  0.450794  1
  Cl  Cl8  1  0.041101  0.506156  0.292805  1
  Cl  Cl9  1  0.456308  0.734545  0.910955  1
  Cl  Cl10  1  0.240001  0.187176  0.919611  1
  Cl  Cl11  1  0.285510  0.001402  0.256877  1
  Cl  Cl12  1  0.313834  0.168842  0.582921  1
  Cl  Cl13  1  0.813701  0.396370  0.094917  1
  Cl  Cl14  1  0.413036  0.612668  0.317095  1
  Cl  Cl15  1  0.186299  0.603630  0.905083  1
  Cl  Cl16  1  0.714490  0.998598  0.743123  1
  Cl  Cl17  1  0.586964  0.387332  0.682905  1
  Cl  Cl18  1  0.686166  0.831158  0.417079  1
  Cl  Cl19  1  0.759999  0.812824  0.080389  1
  Cl  Cl20  1  0.211984  0.792772  0.549206  1
  Cl  Cl21  1  0.958899  0.493844  0.707195  1
  O  O22  1  0.940992  0.182348  0.652340  1
  O  O23  1  0.856689  0.058105  0.173179  1
  O  O24  1  0.143311  0.941895  0.826821  1
  O  O25  1  0.059008  0.817652  0.347660  1
  O  O26  1  0.132368  0.806215  0.077746  1
  O  O27  1  0.867632  0.193785  0.922254  1
