# generated using pymatgen
data_Rb2AgSbS4
_symmetry_space_group_name_H-M   'P 1'
_cell_length_a   8.38154325
_cell_length_b   10.99247265
_cell_length_c   13.37265544
_cell_angle_alpha   90.00000000
_cell_angle_beta   127.33119759
_cell_angle_gamma   90.00000000
_symmetry_Int_Tables_number   1
_chemical_formula_structural   Rb2AgSbS4
_chemical_formula_sum   'Rb8 Ag4 Sb4 S16'
_cell_volume   979.67606691
_cell_formula_units_Z   4
loop_
 _symmetry_equiv_pos_site_id
 _symmetry_equiv_pos_as_xyz
  1  'x, y, z'
loop_
 _atom_site_type_symbol
 _atom_site_label
 _atom_site_symmetry_multiplicity
 _atom_site_fract_x
 _atom_site_fract_y
 _atom_site_fract_z
 _atom_site_occupancy
  Rb  Rb0  1  0.612505  0.991999  0.237408  1
  Rb  Rb1  1  0.129873  0.728828  0.489405  1
  Rb  Rb2  1  0.129873  0.771172  0.989405  1
  Rb  Rb3  1  0.612505  0.508001  0.737408  1
  Rb  Rb4  1  0.870127  0.228828  0.010595  1
  Rb  Rb5  1  0.870127  0.271172  0.510595  1
  Rb  Rb6  1  0.387495  0.008001  0.762592  1
  Rb  Rb7  1  0.387495  0.491999  0.262592  1
  Ag  Ag8  1  0.849497  0.032370  0.720177  1
  Ag  Ag9  1  0.150503  0.967630  0.279823  1
  Ag  Ag10  1  0.849497  0.467630  0.220177  1
  Ag  Ag11  1  0.150503  0.532370  0.779823  1
  Sb  Sb12  1  0.684218  0.723978  0.040179  1
  Sb  Sb13  1  0.315782  0.276022  0.959821  1
  Sb  Sb14  1  0.684218  0.776022  0.540179  1
  Sb  Sb15  1  0.315782  0.223978  0.459821  1
  S  S16  1  0.359977  0.724794  0.843436  1
  S  S17  1  0.820662  0.922136  0.062309  1
  S  S18  1  0.820662  0.577864  0.562309  1
  S  S19  1  0.110665  0.431541  0.949037  1
  S  S20  1  0.640023  0.275206  0.156564  1
  S  S21  1  0.889335  0.568459  0.050963  1
  S  S22  1  0.667653  0.683323  0.207596  1
  S  S23  1  0.179338  0.422136  0.437691  1
  S  S24  1  0.110665  0.068459  0.449037  1
  S  S25  1  0.359977  0.775206  0.343436  1
  S  S26  1  0.640023  0.224794  0.656564  1
  S  S27  1  0.332347  0.183323  0.292404  1
  S  S28  1  0.179338  0.077864  0.937691  1
  S  S29  1  0.667653  0.816677  0.707596  1
  S  S30  1  0.332347  0.316677  0.792404  1
  S  S31  1  0.889335  0.931541  0.550963  1
