# generated using pymatgen
data_Sr2ZnReO6
_symmetry_space_group_name_H-M   'P 1'
_cell_length_a   5.68403591
_cell_length_b   5.68403591
_cell_length_c   5.68403591
_cell_angle_alpha   120.45986457
_cell_angle_beta   120.45986457
_cell_angle_gamma   89.20531974
_symmetry_Int_Tables_number   1
_chemical_formula_structural   Sr2ZnReO6
_chemical_formula_sum   'Sr2 Zn1 Re1 O6'
_cell_volume   128.93799080
_cell_formula_units_Z   1
loop_
 _symmetry_equiv_pos_site_id
 _symmetry_equiv_pos_as_xyz
  1  'x, y, z'
loop_
 _atom_site_type_symbol
 _atom_site_label
 _atom_site_symmetry_multiplicity
 _atom_site_fract_x
 _atom_site_fract_y
 _atom_site_fract_z
 _atom_site_occupancy
  Sr  Sr0  1  0.250000  0.750000  0.500000  1
  Sr  Sr1  1  0.750000  0.250000  0.500000  1
  Zn  Zn2  1  0.000000  0.000000  0.000000  1
  Re  Re3  1  0.500000  0.500000  0.000000  1
  O  O4  1  0.259872  0.259872  0.000000  1
  O  O5  1  0.740128  0.740128  0.000000  1
  O  O6  1  0.222840  0.297737  0.520576  1
  O  O7  1  0.777160  0.702263  0.479424  1
  O  O8  1  0.702263  0.222840  0.925103  1
  O  O9  1  0.297737  0.777160  0.074897  1
