# generated using pymatgen
data_SmNiSb3
_symmetry_space_group_name_H-M   'P 1'
_cell_length_a   6.26567776
_cell_length_b   12.50561723
_cell_length_c   18.18922436
_cell_angle_alpha   90.00000000
_cell_angle_beta   90.00000000
_cell_angle_gamma   90.00000000
_symmetry_Int_Tables_number   1
_chemical_formula_structural   SmNiSb3
_chemical_formula_sum   'Sm12 Ni12 Sb36'
_cell_volume   1425.23791525
_cell_formula_units_Z   12
loop_
 _symmetry_equiv_pos_site_id
 _symmetry_equiv_pos_as_xyz
  1  'x, y, z'
loop_
 _atom_site_type_symbol
 _atom_site_label
 _atom_site_symmetry_multiplicity
 _atom_site_fract_x
 _atom_site_fract_y
 _atom_site_fract_z
 _atom_site_occupancy
  Sm  Sm0  1  0.972596  0.701404  0.583623  1
  Sm  Sm1  1  0.559956  0.304506  0.250000  1
  Sm  Sm2  1  0.940044  0.304506  0.750000  1
  Sm  Sm3  1  0.527404  0.701404  0.083623  1
  Sm  Sm4  1  0.472596  0.298596  0.583623  1
  Sm  Sm5  1  0.440044  0.695494  0.750000  1
  Sm  Sm6  1  0.027404  0.298596  0.083623  1
  Sm  Sm7  1  0.027404  0.298596  0.416377  1
  Sm  Sm8  1  0.972596  0.701404  0.916377  1
  Sm  Sm9  1  0.527404  0.701404  0.416377  1
  Sm  Sm10  1  0.472596  0.298596  0.916377  1
  Sm  Sm11  1  0.059956  0.695494  0.250000  1
  Ni  Ni12  1  0.750000  0.105298  0.500000  1
  Ni  Ni13  1  0.828758  0.898720  0.323953  1
  Ni  Ni14  1  0.171242  0.101280  0.823953  1
  Ni  Ni15  1  0.250000  0.894702  0.500000  1
  Ni  Ni16  1  0.671242  0.898720  0.676047  1
  Ni  Ni17  1  0.328758  0.101280  0.323953  1
  Ni  Ni18  1  0.171242  0.101280  0.676047  1
  Ni  Ni19  1  0.671242  0.898720  0.823953  1
  Ni  Ni20  1  0.328758  0.101280  0.176047  1
  Ni  Ni21  1  0.750000  0.105298  0.000000  1
  Ni  Ni22  1  0.250000  0.894702  0.000000  1
  Ni  Ni23  1  0.828758  0.898720  0.176047  1
  Sb  Sb24  1  0.542936  0.973639  0.413384  1
  Sb  Sb25  1  0.042936  0.026361  0.086616  1
  Sb  Sb26  1  0.474209  0.770696  0.915725  1
  Sb  Sb27  1  0.525791  0.229304  0.084275  1
  Sb  Sb28  1  0.446062  0.225431  0.750000  1
  Sb  Sb29  1  0.705547  0.503870  0.834137  1
  Sb  Sb30  1  0.750000  0.495916  0.500000  1
  Sb  Sb31  1  0.750000  0.495916  0.000000  1
  Sb  Sb32  1  0.457064  0.026361  0.913384  1
  Sb  Sb33  1  0.474209  0.770696  0.584275  1
  Sb  Sb34  1  0.205547  0.496130  0.665863  1
  Sb  Sb35  1  0.294453  0.496130  0.334137  1
  Sb  Sb36  1  0.186964  0.941583  0.250000  1
  Sb  Sb37  1  0.025791  0.770696  0.415725  1
  Sb  Sb38  1  0.313036  0.941583  0.750000  1
  Sb  Sb39  1  0.813036  0.058417  0.750000  1
  Sb  Sb40  1  0.974209  0.229304  0.584275  1
  Sb  Sb41  1  0.053938  0.225431  0.250000  1
  Sb  Sb42  1  0.794453  0.503870  0.334137  1
  Sb  Sb43  1  0.957064  0.973639  0.913384  1
  Sb  Sb44  1  0.794453  0.503870  0.165863  1
  Sb  Sb45  1  0.553938  0.774569  0.250000  1
  Sb  Sb46  1  0.250000  0.504084  0.500000  1
  Sb  Sb47  1  0.250000  0.504084  0.000000  1
  Sb  Sb48  1  0.025791  0.770696  0.084275  1
  Sb  Sb49  1  0.205547  0.496130  0.834137  1
  Sb  Sb50  1  0.294453  0.496130  0.165863  1
  Sb  Sb51  1  0.042936  0.026361  0.413384  1
  Sb  Sb52  1  0.457064  0.026361  0.586616  1
  Sb  Sb53  1  0.974209  0.229304  0.915725  1
  Sb  Sb54  1  0.705547  0.503870  0.665863  1
  Sb  Sb55  1  0.686964  0.058417  0.250000  1
  Sb  Sb56  1  0.525791  0.229304  0.415725  1
  Sb  Sb57  1  0.946062  0.774569  0.750000  1
  Sb  Sb58  1  0.542936  0.973639  0.086616  1
  Sb  Sb59  1  0.957064  0.973639  0.586616  1
