# generated using pymatgen
data_Dy2Mn3Si5
_symmetry_space_group_name_H-M   'P 1'
_cell_length_a   10.56816065
_cell_length_b   10.56816065
_cell_length_c   5.42832521
_cell_angle_alpha   90.00000000
_cell_angle_beta   90.00000000
_cell_angle_gamma   90.00000000
_symmetry_Int_Tables_number   1
_chemical_formula_structural   Dy2Mn3Si5
_chemical_formula_sum   'Dy8 Mn12 Si20'
_cell_volume   606.26803539
_cell_formula_units_Z   4
loop_
 _symmetry_equiv_pos_site_id
 _symmetry_equiv_pos_as_xyz
  1  'x, y, z'
loop_
 _atom_site_type_symbol
 _atom_site_label
 _atom_site_symmetry_multiplicity
 _atom_site_fract_x
 _atom_site_fract_y
 _atom_site_fract_z
 _atom_site_occupancy
  Dy  Dy0  1  0.236952  0.074302  0.000000  1
  Dy  Dy1  1  0.074302  0.763048  0.000000  1
  Dy  Dy2  1  0.925698  0.236952  0.000000  1
  Dy  Dy3  1  0.763048  0.925698  0.000000  1
  Dy  Dy4  1  0.263048  0.574302  0.500000  1
  Dy  Dy5  1  0.736952  0.425698  0.500000  1
  Dy  Dy6  1  0.574302  0.736952  0.500000  1
  Dy  Dy7  1  0.425698  0.263048  0.500000  1
  Mn  Mn8  1  0.500000  0.000000  0.250000  1
  Mn  Mn9  1  0.000000  0.500000  0.250000  1
  Mn  Mn10  1  0.500000  0.000000  0.750000  1
  Mn  Mn11  1  0.000000  0.500000  0.750000  1
  Mn  Mn12  1  0.355484  0.378940  0.000000  1
  Mn  Mn13  1  0.378940  0.644516  0.000000  1
  Mn  Mn14  1  0.621060  0.355484  0.000000  1
  Mn  Mn15  1  0.644516  0.621060  0.000000  1
  Mn  Mn16  1  0.144516  0.878940  0.500000  1
  Mn  Mn17  1  0.855484  0.121060  0.500000  1
  Mn  Mn18  1  0.878940  0.855484  0.500000  1
  Mn  Mn19  1  0.121060  0.144516  0.500000  1
  Si  Si20  1  0.000000  0.000000  0.258148  1
  Si  Si21  1  0.500000  0.500000  0.241852  1
  Si  Si22  1  0.000000  0.000000  0.741852  1
  Si  Si23  1  0.500000  0.500000  0.758148  1
  Si  Si24  1  0.675541  0.175541  0.250000  1
  Si  Si25  1  0.175541  0.324459  0.250000  1
  Si  Si26  1  0.824459  0.675541  0.250000  1
  Si  Si27  1  0.324459  0.824459  0.250000  1
  Si  Si28  1  0.324459  0.824459  0.750000  1
  Si  Si29  1  0.824459  0.675541  0.750000  1
  Si  Si30  1  0.175541  0.324459  0.750000  1
  Si  Si31  1  0.675541  0.175541  0.750000  1
  Si  Si32  1  0.476571  0.184835  0.000000  1
  Si  Si33  1  0.184835  0.523429  0.000000  1
  Si  Si34  1  0.815165  0.476571  0.000000  1
  Si  Si35  1  0.523429  0.815165  0.000000  1
  Si  Si36  1  0.023429  0.684835  0.500000  1
  Si  Si37  1  0.976571  0.315165  0.500000  1
  Si  Si38  1  0.684835  0.976571  0.500000  1
  Si  Si39  1  0.315165  0.023429  0.500000  1
