# generated using pymatgen
data_K2PuCl6
_symmetry_space_group_name_H-M   'P 1'
_cell_length_a   7.40889669
_cell_length_b   7.40889669
_cell_length_c   7.45740993
_cell_angle_alpha   59.98567411
_cell_angle_beta   120.01432589
_cell_angle_gamma   119.68700302
_symmetry_Int_Tables_number   1
_chemical_formula_structural   K2PuCl6
_chemical_formula_sum   'K2 Pu1 Cl6'
_cell_volume   290.06970058
_cell_formula_units_Z   1
loop_
 _symmetry_equiv_pos_site_id
 _symmetry_equiv_pos_as_xyz
  1  'x, y, z'
loop_
 _atom_site_type_symbol
 _atom_site_label
 _atom_site_symmetry_multiplicity
 _atom_site_fract_x
 _atom_site_fract_y
 _atom_site_fract_z
 _atom_site_occupancy
  K  K0  1  0.727373  0.272627  0.218183  1
  K  K1  1  0.272627  0.727373  0.781817  1
  Pu  Pu2  1  0.000000  0.000000  0.000000  1
  Cl  Cl3  1  0.752340  0.247660  0.761656  1
  Cl  Cl4  1  0.247660  0.752340  0.238344  1
  Cl  Cl5  1  0.752619  0.747377  0.244337  1
  Cl  Cl6  1  0.747376  0.752619  0.755663  1
  Cl  Cl7  1  0.247381  0.252623  0.755663  1
  Cl  Cl8  1  0.252624  0.247381  0.244337  1
