# generated using pymatgen
data_BaCaCrF7
_symmetry_space_group_name_H-M   'P 1'
_cell_length_a   5.50645621
_cell_length_b   5.54823931
_cell_length_c   19.98105693
_cell_angle_alpha   90.00000000
_cell_angle_beta   104.01264123
_cell_angle_gamma   90.00000000
_symmetry_Int_Tables_number   1
_chemical_formula_structural   BaCaCrF7
_chemical_formula_sum   'Ba4 Ca4 Cr4 F28'
_cell_volume   592.27861111
_cell_formula_units_Z   4
loop_
 _symmetry_equiv_pos_site_id
 _symmetry_equiv_pos_as_xyz
  1  'x, y, z'
loop_
 _atom_site_type_symbol
 _atom_site_label
 _atom_site_symmetry_multiplicity
 _atom_site_fract_x
 _atom_site_fract_y
 _atom_site_fract_z
 _atom_site_occupancy
  Ba  Ba0  1  0.685248  0.246821  0.931459  1
  Ba  Ba1  1  0.314752  0.753179  0.068541  1
  Ba  Ba2  1  0.685248  0.753179  0.431459  1
  Ba  Ba3  1  0.314752  0.246821  0.568541  1
  Ca  Ca4  1  0.500000  0.327854  0.250000  1
  Ca  Ca5  1  0.500000  0.672146  0.750000  1
  Ca  Ca6  1  0.000000  0.792216  0.250000  1
  Ca  Ca7  1  0.000000  0.207784  0.750000  1
  Cr  Cr8  1  0.817875  0.223858  0.119622  1
  Cr  Cr9  1  0.817875  0.776142  0.619622  1
  Cr  Cr10  1  0.182125  0.223858  0.380378  1
  Cr  Cr11  1  0.182125  0.776142  0.880378  1
  F  F12  1  0.152486  0.053956  0.936684  1
  F  F13  1  0.847514  0.053956  0.563316  1
  F  F14  1  0.847514  0.946044  0.063316  1
  F  F15  1  0.152486  0.946044  0.436684  1
  F  F16  1  0.648420  0.023701  0.176534  1
  F  F17  1  0.351580  0.023701  0.323466  1
  F  F18  1  0.351580  0.976299  0.823466  1
  F  F19  1  0.648420  0.976299  0.676534  1
  F  F20  1  0.498148  0.286014  0.055436  1
  F  F21  1  0.501852  0.286014  0.444564  1
  F  F22  1  0.501852  0.713986  0.944564  1
  F  F23  1  0.498148  0.713986  0.555436  1
  F  F24  1  0.971352  0.591060  0.560750  1
  F  F25  1  0.028648  0.591060  0.939250  1
  F  F26  1  0.028648  0.408940  0.439250  1
  F  F27  1  0.971352  0.408940  0.060750  1
  F  F28  1  0.127353  0.869361  0.685765  1
  F  F29  1  0.872647  0.869361  0.814235  1
  F  F30  1  0.872647  0.130639  0.314235  1
  F  F31  1  0.127353  0.130639  0.185765  1
  F  F32  1  0.251389  0.495866  0.324942  1
  F  F33  1  0.748611  0.495866  0.175058  1
  F  F34  1  0.748611  0.504134  0.675058  1
  F  F35  1  0.251389  0.504134  0.824942  1
  F  F36  1  0.263753  0.370458  0.691426  1
  F  F37  1  0.736247  0.370458  0.808574  1
  F  F38  1  0.736247  0.629542  0.308574  1
  F  F39  1  0.263753  0.629542  0.191426  1
