# generated using pymatgen
data_Cs3Mo2I9
_symmetry_space_group_name_H-M   'P 1'
_cell_length_a   8.44487438
_cell_length_b   8.44487438
_cell_length_c   20.45873420
_cell_angle_alpha   90.00000000
_cell_angle_beta   90.00000000
_cell_angle_gamma   120.00000000
_symmetry_Int_Tables_number   1
_chemical_formula_structural   Cs3Mo2I9
_chemical_formula_sum   'Cs6 Mo4 I18'
_cell_volume   1263.55973709
_cell_formula_units_Z   2
loop_
 _symmetry_equiv_pos_site_id
 _symmetry_equiv_pos_as_xyz
  1  'x, y, z'
loop_
 _atom_site_type_symbol
 _atom_site_label
 _atom_site_symmetry_multiplicity
 _atom_site_fract_x
 _atom_site_fract_y
 _atom_site_fract_z
 _atom_site_occupancy
  Cs  Cs0  1  0.666667  0.333333  0.934222  1
  Cs  Cs1  1  0.333333  0.666667  0.434222  1
  Cs  Cs2  1  0.000000  0.000000  0.250000  1
  Cs  Cs3  1  0.666667  0.333333  0.565778  1
  Cs  Cs4  1  0.333333  0.666667  0.065778  1
  Cs  Cs5  1  0.000000  0.000000  0.750000  1
  Mo  Mo6  1  0.333333  0.666667  0.676984  1
  Mo  Mo7  1  0.666667  0.333333  0.176984  1
  Mo  Mo8  1  0.666667  0.333333  0.323016  1
  Mo  Mo9  1  0.333333  0.666667  0.823016  1
  I  I10  1  0.177996  0.822004  0.904396  1
  I  I11  1  0.822004  0.177996  0.095604  1
  I  I12  1  0.177996  0.355993  0.595604  1
  I  I13  1  0.822004  0.644007  0.095604  1
  I  I14  1  0.644007  0.822004  0.904396  1
  I  I15  1  0.495115  0.504885  0.750000  1
  I  I16  1  0.355993  0.177996  0.095604  1
  I  I17  1  0.822004  0.644007  0.404396  1
  I  I18  1  0.495115  0.990231  0.750000  1
  I  I19  1  0.355993  0.177996  0.404396  1
  I  I20  1  0.644007  0.822004  0.595604  1
  I  I21  1  0.990231  0.495115  0.250000  1
  I  I22  1  0.177996  0.355993  0.904396  1
  I  I23  1  0.504885  0.495115  0.250000  1
  I  I24  1  0.504885  0.009769  0.250000  1
  I  I25  1  0.822004  0.177996  0.404396  1
  I  I26  1  0.009769  0.504885  0.750000  1
  I  I27  1  0.177996  0.822004  0.595604  1
