# generated using pymatgen
data_Rb4Nb2Si8O23
_symmetry_space_group_name_H-M   'P 1'
_cell_length_a   6.99706434
_cell_length_b   7.92646763
_cell_length_c   11.18276561
_cell_angle_alpha   103.65246360
_cell_angle_beta   89.16789552
_cell_angle_gamma   108.42451806
_symmetry_Int_Tables_number   1
_chemical_formula_structural   Rb4Nb2Si8O23
_chemical_formula_sum   'Rb4 Nb2 Si8 O23'
_cell_volume   570.58557070
_cell_formula_units_Z   1
loop_
 _symmetry_equiv_pos_site_id
 _symmetry_equiv_pos_as_xyz
  1  'x, y, z'
loop_
 _atom_site_type_symbol
 _atom_site_label
 _atom_site_symmetry_multiplicity
 _atom_site_fract_x
 _atom_site_fract_y
 _atom_site_fract_z
 _atom_site_occupancy
  Rb  Rb0  1  0.318052  0.280713  0.644489  1
  Rb  Rb1  1  0.681948  0.719287  0.355511  1
  Rb  Rb2  1  0.289746  0.220204  0.990129  1
  Rb  Rb3  1  0.710254  0.779796  0.009871  1
  Nb  Nb4  1  0.785992  0.258712  0.816834  1
  Nb  Nb5  1  0.214008  0.741288  0.183166  1
  Si  Si6  1  0.498048  0.194074  0.300821  1
  Si  Si7  1  0.501952  0.805926  0.699179  1
  Si  Si8  1  0.948492  0.867369  0.714402  1
  Si  Si9  1  0.051508  0.132631  0.285598  1
  Si  Si10  1  0.843350  0.298368  0.500860  1
  Si  Si11  1  0.156650  0.701632  0.499140  1
  Si  Si12  1  0.167005  0.672492  0.869228  1
  Si  Si13  1  0.832995  0.327508  0.130772  1
  O  O14  1  0.455635  0.977882  0.245365  1
  O  O15  1  0.544365  0.022118  0.754635  1
  O  O16  1  0.623838  0.312251  0.205560  1
  O  O17  1  0.376162  0.687749  0.794440  1
  O  O18  1  0.623096  0.275432  0.436930  1
  O  O19  1  0.376904  0.724568  0.563070  1
  O  O20  1  0.292129  0.250451  0.325323  1
  O  O21  1  0.707871  0.749549  0.674677  1
  O  O22  1  0.980971  0.075819  0.782840  1
  O  O23  1  0.019029  0.924181  0.217160  1
  O  O24  1  0.027682  0.759723  0.801498  1
  O  O25  1  0.972318  0.240277  0.198502  1
  O  O26  1  0.067644  0.855503  0.585185  1
  O  O27  1  0.932356  0.144497  0.414815  1
  O  O28  1  0.000000  0.500000  0.500000  1
  O  O29  1  0.817125  0.268131  0.636858  1
  O  O30  1  0.182875  0.731869  0.363142  1
  O  O31  1  0.056475  0.455696  0.858278  1
  O  O32  1  0.943525  0.544304  0.141722  1
  O  O33  1  0.220424  0.791350  0.010743  1
  O  O34  1  0.779576  0.208650  0.989257  1
  O  O35  1  0.625484  0.399060  0.852264  1
  O  O36  1  0.374516  0.600940  0.147736  1
