# generated using pymatgen
data_KNaPrNbO5
_symmetry_space_group_name_H-M   'P 1'
_cell_length_a   5.81684550
_cell_length_b   5.81684550
_cell_length_c   8.39176171
_cell_angle_alpha   90.00000000
_cell_angle_beta   90.00000000
_cell_angle_gamma   90.00000000
_symmetry_Int_Tables_number   1
_chemical_formula_structural   KNaPrNbO5
_chemical_formula_sum   'K2 Na2 Pr2 Nb2 O10'
_cell_volume   283.94106096
_cell_formula_units_Z   2
loop_
 _symmetry_equiv_pos_site_id
 _symmetry_equiv_pos_as_xyz
  1  'x, y, z'
loop_
 _atom_site_type_symbol
 _atom_site_label
 _atom_site_symmetry_multiplicity
 _atom_site_fract_x
 _atom_site_fract_y
 _atom_site_fract_z
 _atom_site_occupancy
  K  K0  1  0.000000  0.000000  0.000000  1
  K  K1  1  0.500000  0.500000  0.000000  1
  Na  Na2  1  0.500000  0.000000  0.758905  1
  Na  Na3  1  0.000000  0.500000  0.241095  1
  Pr  Pr4  1  0.500000  0.500000  0.500000  1
  Pr  Pr5  1  0.000000  0.000000  0.500000  1
  Nb  Nb6  1  0.000000  0.500000  0.743702  1
  Nb  Nb7  1  0.500000  0.000000  0.256298  1
  O  O8  1  0.730143  0.230143  0.328265  1
  O  O9  1  0.769857  0.730143  0.671735  1
  O  O10  1  0.730143  0.769857  0.328265  1
  O  O11  1  0.769857  0.269857  0.671735  1
  O  O12  1  0.269857  0.230143  0.328265  1
  O  O13  1  0.500000  0.000000  0.033598  1
  O  O14  1  0.000000  0.500000  0.966402  1
  O  O15  1  0.269857  0.769857  0.328265  1
  O  O16  1  0.230143  0.269857  0.671735  1
  O  O17  1  0.230143  0.730143  0.671735  1
