# generated using pymatgen
data_Dy3CuGeS7
_symmetry_space_group_name_H-M   'P 1'
_cell_length_a   9.88426740
_cell_length_b   9.88426740
_cell_length_c   5.81478892
_cell_angle_alpha   90.00000000
_cell_angle_beta   90.00000000
_cell_angle_gamma   120.00000000
_symmetry_Int_Tables_number   1
_chemical_formula_structural   Dy3CuGeS7
_chemical_formula_sum   'Dy6 Cu2 Ge2 S14'
_cell_volume   491.98692125
_cell_formula_units_Z   2
loop_
 _symmetry_equiv_pos_site_id
 _symmetry_equiv_pos_as_xyz
  1  'x, y, z'
loop_
 _atom_site_type_symbol
 _atom_site_label
 _atom_site_symmetry_multiplicity
 _atom_site_fract_x
 _atom_site_fract_y
 _atom_site_fract_z
 _atom_site_occupancy
  Dy  Dy0  1  0.356952  0.131055  0.254139  1
  Dy  Dy1  1  0.131055  0.774102  0.754139  1
  Dy  Dy2  1  0.225898  0.356952  0.754139  1
  Dy  Dy3  1  0.643048  0.868945  0.754139  1
  Dy  Dy4  1  0.868945  0.225898  0.254139  1
  Dy  Dy5  1  0.774102  0.643048  0.254139  1
  Cu  Cu6  1  0.000000  0.000000  0.695724  1
  Cu  Cu7  1  0.000000  0.000000  0.195724  1
  Ge  Ge8  1  0.666667  0.333333  0.836198  1
  Ge  Ge9  1  0.333333  0.666667  0.336198  1
  S  S10  1  0.419838  0.901514  0.499015  1
  S  S11  1  0.098001  0.839030  0.216903  1
  S  S12  1  0.481676  0.580162  0.499015  1
  S  S13  1  0.901514  0.481676  0.999015  1
  S  S14  1  0.098486  0.518324  0.499015  1
  S  S15  1  0.580162  0.098486  0.999015  1
  S  S16  1  0.518324  0.419838  0.999015  1
  S  S17  1  0.160970  0.258971  0.216903  1
  S  S18  1  0.741029  0.901999  0.216903  1
  S  S19  1  0.333333  0.666667  0.957208  1
  S  S20  1  0.666667  0.333333  0.457208  1
  S  S21  1  0.839030  0.741029  0.716903  1
  S  S22  1  0.901999  0.160970  0.716903  1
  S  S23  1  0.258971  0.098001  0.716903  1
