# generated using pymatgen
data_CuO
_symmetry_space_group_name_H-M   'P 1'
_cell_length_a   2.83003755
_cell_length_b   6.46151618
_cell_length_c   12.33154633
_cell_angle_alpha   90.00000000
_cell_angle_beta   90.00000000
_cell_angle_gamma   90.00000000
_symmetry_Int_Tables_number   1
_chemical_formula_structural   CuO
_chemical_formula_sum   'Cu8 O8'
_cell_volume   225.49876777
_cell_formula_units_Z   8
loop_
 _symmetry_equiv_pos_site_id
 _symmetry_equiv_pos_as_xyz
  1  'x, y, z'
loop_
 _atom_site_type_symbol
 _atom_site_label
 _atom_site_symmetry_multiplicity
 _atom_site_fract_x
 _atom_site_fract_y
 _atom_site_fract_z
 _atom_site_occupancy
  Cu  Cu0  1  0.750000  0.892384  0.254241  1
  Cu  Cu1  1  0.250000  0.607616  0.754241  1
  Cu  Cu2  1  0.750000  0.392384  0.245759  1
  Cu  Cu3  1  0.250000  0.107616  0.745759  1
  Cu  Cu4  1  0.750000  0.848766  0.598473  1
  Cu  Cu5  1  0.250000  0.651234  0.098473  1
  Cu  Cu6  1  0.750000  0.348766  0.901527  1
  Cu  Cu7  1  0.250000  0.151234  0.401527  1
  O  O8  1  0.750000  0.841790  0.109342  1
  O  O9  1  0.750000  0.956088  0.398349  1
  O  O10  1  0.250000  0.543912  0.898349  1
  O  O11  1  0.250000  0.658210  0.609342  1
  O  O12  1  0.750000  0.341790  0.390658  1
  O  O13  1  0.750000  0.456088  0.101651  1
  O  O14  1  0.250000  0.043912  0.601651  1
  O  O15  1  0.250000  0.158210  0.890658  1
