# generated using pymatgen
data_HoB6
_symmetry_space_group_name_H-M   'P 1'
_cell_length_a   4.09059258
_cell_length_b   4.09059258
_cell_length_c   4.09059258
_cell_angle_alpha   90.00000000
_cell_angle_beta   90.00000000
_cell_angle_gamma   90.00000000
_symmetry_Int_Tables_number   1
_chemical_formula_structural   HoB6
_chemical_formula_sum   'Ho1 B6'
_cell_volume   68.44767152
_cell_formula_units_Z   1
loop_
 _symmetry_equiv_pos_site_id
 _symmetry_equiv_pos_as_xyz
  1  'x, y, z'
loop_
 _atom_site_type_symbol
 _atom_site_label
 _atom_site_symmetry_multiplicity
 _atom_site_fract_x
 _atom_site_fract_y
 _atom_site_fract_z
 _atom_site_occupancy
  Ho  Ho0  1  0.000000  0.000000  0.000000  1
  B  B1  1  0.198783  0.500000  0.500000  1
  B  B2  1  0.500000  0.801217  0.500000  1
  B  B3  1  0.500000  0.198783  0.500000  1
  B  B4  1  0.801217  0.500000  0.500000  1
  B  B5  1  0.500000  0.500000  0.198783  1
  B  B6  1  0.500000  0.500000  0.801217  1
