# generated using pymatgen
data_K3NaUC3O11
_symmetry_space_group_name_H-M   'P 1'
_cell_length_a   9.41848754
_cell_length_b   9.41848754
_cell_length_c   8.33884249
_cell_angle_alpha   90.00000000
_cell_angle_beta   90.00000000
_cell_angle_gamma   120.00000000
_symmetry_Int_Tables_number   1
_chemical_formula_structural   K3NaUC3O11
_chemical_formula_sum   'K6 Na2 U2 C6 O22'
_cell_volume   640.61741063
_cell_formula_units_Z   2
loop_
 _symmetry_equiv_pos_site_id
 _symmetry_equiv_pos_as_xyz
  1  'x, y, z'
loop_
 _atom_site_type_symbol
 _atom_site_label
 _atom_site_symmetry_multiplicity
 _atom_site_fract_x
 _atom_site_fract_y
 _atom_site_fract_z
 _atom_site_occupancy
  K  K0  1  0.703036  0.703036  0.000000  1
  K  K1  1  0.703036  0.703036  0.500000  1
  K  K2  1  0.000000  0.296964  0.000000  1
  K  K3  1  0.296964  0.000000  0.500000  1
  K  K4  1  0.000000  0.296964  0.500000  1
  K  K5  1  0.296964  0.000000  0.000000  1
  Na  Na6  1  0.666667  0.333333  0.750000  1
  Na  Na7  1  0.333333  0.666667  0.250000  1
  U  U8  1  0.666667  0.333333  0.250000  1
  U  U9  1  0.333333  0.666667  0.750000  1
  C  C10  1  0.370733  0.358242  0.250000  1
  C  C11  1  0.629267  0.987509  0.750000  1
  C  C12  1  0.641758  0.012491  0.250000  1
  C  C13  1  0.358242  0.370733  0.750000  1
  C  C14  1  0.012491  0.641758  0.750000  1
  C  C15  1  0.987509  0.629267  0.250000  1
  O  O16  1  0.520226  0.486778  0.250000  1
  O  O17  1  0.756892  0.127108  0.750000  1
  O  O18  1  0.333333  0.666667  0.528803  1
  O  O19  1  0.151157  0.783114  0.750000  1
  O  O20  1  0.666667  0.333333  0.028803  1
  O  O21  1  0.033449  0.513222  0.750000  1
  O  O22  1  0.848843  0.631957  0.250000  1
  O  O23  1  0.127108  0.756892  0.250000  1
  O  O24  1  0.216886  0.368043  0.750000  1
  O  O25  1  0.513222  0.033449  0.250000  1
  O  O26  1  0.486778  0.520226  0.750000  1
  O  O27  1  0.783114  0.151157  0.250000  1
  O  O28  1  0.479774  0.966551  0.750000  1
  O  O29  1  0.368043  0.216886  0.250000  1
  O  O30  1  0.333333  0.666667  0.971197  1
  O  O31  1  0.666667  0.333333  0.471197  1
  O  O32  1  0.966551  0.479774  0.250000  1
  O  O33  1  0.631957  0.848843  0.750000  1
  O  O34  1  0.370216  0.243108  0.750000  1
  O  O35  1  0.243108  0.370216  0.250000  1
  O  O36  1  0.872892  0.629784  0.750000  1
  O  O37  1  0.629784  0.872892  0.250000  1
