# generated using pymatgen
data_SrV3O7
_symmetry_space_group_name_H-M   'P 1'
_cell_length_a   5.37594562
_cell_length_b   10.58123744
_cell_length_c   11.38875661
_cell_angle_alpha   90.00000000
_cell_angle_beta   90.00000000
_cell_angle_gamma   90.00000000
_symmetry_Int_Tables_number   1
_chemical_formula_structural   SrV3O7
_chemical_formula_sum   'Sr4 V12 O28'
_cell_volume   647.83981983
_cell_formula_units_Z   4
loop_
 _symmetry_equiv_pos_site_id
 _symmetry_equiv_pos_as_xyz
  1  'x, y, z'
loop_
 _atom_site_type_symbol
 _atom_site_label
 _atom_site_symmetry_multiplicity
 _atom_site_fract_x
 _atom_site_fract_y
 _atom_site_fract_z
 _atom_site_occupancy
  Sr  Sr0  1  0.756168  0.750000  0.572855  1
  Sr  Sr1  1  0.256168  0.250000  0.927145  1
  Sr  Sr2  1  0.243832  0.250000  0.427145  1
  Sr  Sr3  1  0.743832  0.750000  0.072855  1
  V  V4  1  0.754881  0.979743  0.808503  1
  V  V5  1  0.254881  0.020257  0.691497  1
  V  V6  1  0.245119  0.479743  0.191497  1
  V  V7  1  0.745119  0.520257  0.308503  1
  V  V8  1  0.245119  0.020257  0.191497  1
  V  V9  1  0.745119  0.979743  0.308503  1
  V  V10  1  0.754881  0.520257  0.808503  1
  V  V11  1  0.254881  0.479743  0.691497  1
  V  V12  1  0.254917  0.750000  0.788300  1
  V  V13  1  0.754917  0.250000  0.711700  1
  V  V14  1  0.745083  0.250000  0.211700  1
  V  V15  1  0.245083  0.750000  0.288300  1
  O  O16  1  0.491486  0.880685  0.725804  1
  O  O17  1  0.991486  0.119315  0.774196  1
  O  O18  1  0.508514  0.380685  0.274196  1
  O  O19  1  0.008514  0.619315  0.225804  1
  O  O20  1  0.508514  0.119315  0.274196  1
  O  O21  1  0.008514  0.880685  0.225804  1
  O  O22  1  0.491486  0.619315  0.725804  1
  O  O23  1  0.991486  0.380685  0.774196  1
  O  O24  1  0.018292  0.880727  0.725712  1
  O  O25  1  0.518292  0.119273  0.774288  1
  O  O26  1  0.981708  0.380727  0.274288  1
  O  O27  1  0.481708  0.619273  0.225712  1
  O  O28  1  0.981708  0.119273  0.274288  1
  O  O29  1  0.481708  0.880727  0.225712  1
  O  O30  1  0.018292  0.619273  0.725712  1
  O  O31  1  0.518292  0.380727  0.774288  1
  O  O32  1  0.754220  0.939279  0.949163  1
  O  O33  1  0.254220  0.060721  0.550837  1
  O  O34  1  0.245780  0.439279  0.050837  1
  O  O35  1  0.745780  0.560721  0.449163  1
  O  O36  1  0.245780  0.060721  0.050837  1
  O  O37  1  0.745780  0.939279  0.449163  1
  O  O38  1  0.754220  0.560721  0.949163  1
  O  O39  1  0.254220  0.439279  0.550837  1
  O  O40  1  0.255632  0.750000  0.933986  1
  O  O41  1  0.755632  0.250000  0.566014  1
  O  O42  1  0.744368  0.250000  0.066014  1
  O  O43  1  0.244368  0.750000  0.433986  1
