# generated using pymatgen
data_Y3Ni4B4C3
_symmetry_space_group_name_H-M   'P 1'
_cell_length_a   12.92810367
_cell_length_b   12.92810367
_cell_length_c   12.92810367
_cell_angle_alpha   164.07661038
_cell_angle_beta   164.07661038
_cell_angle_gamma   22.59275786
_symmetry_Int_Tables_number   1
_chemical_formula_structural   Y3Ni4B4C3
_chemical_formula_sum   'Y3 Ni4 B4 C3'
_cell_volume   162.60616861
_cell_formula_units_Z   1
loop_
 _symmetry_equiv_pos_site_id
 _symmetry_equiv_pos_as_xyz
  1  'x, y, z'
loop_
 _atom_site_type_symbol
 _atom_site_label
 _atom_site_symmetry_multiplicity
 _atom_site_fract_x
 _atom_site_fract_y
 _atom_site_fract_z
 _atom_site_occupancy
  Y  Y0  1  0.700716  0.700716  0.000000  1
  Y  Y1  1  0.299284  0.299284  0.000000  1
  Y  Y2  1  0.000000  0.000000  0.000000  1
  Ni  Ni3  1  0.399281  0.899281  0.500000  1
  Ni  Ni4  1  0.600719  0.100719  0.500000  1
  Ni  Ni5  1  0.100719  0.600719  0.500000  1
  Ni  Ni6  1  0.899281  0.399281  0.500000  1
  B  B7  1  0.855641  0.855641  0.000000  1
  B  B8  1  0.559075  0.559075  0.000000  1
  B  B9  1  0.144359  0.144359  0.000000  1
  B  B10  1  0.440925  0.440925  0.000000  1
  C  C11  1  0.796554  0.796554  0.000000  1
  C  C12  1  0.203446  0.203446  0.000000  1
  C  C13  1  0.500000  0.500000  0.000000  1
