# generated using pymatgen
data_AlS2NCl6
_symmetry_space_group_name_H-M   'P 1'
_cell_length_a   6.41149972
_cell_length_b   13.79691419
_cell_length_c   13.38840015
_cell_angle_alpha   90.00000000
_cell_angle_beta   95.49403568
_cell_angle_gamma   90.00000000
_symmetry_Int_Tables_number   1
_chemical_formula_structural   AlS2NCl6
_chemical_formula_sum   'Al4 S8 N4 Cl24'
_cell_volume   1178.88272337
_cell_formula_units_Z   4
loop_
 _symmetry_equiv_pos_site_id
 _symmetry_equiv_pos_as_xyz
  1  'x, y, z'
loop_
 _atom_site_type_symbol
 _atom_site_label
 _atom_site_symmetry_multiplicity
 _atom_site_fract_x
 _atom_site_fract_y
 _atom_site_fract_z
 _atom_site_occupancy
  Al  Al0  1  0.155192  0.750000  0.015890  1
  Al  Al1  1  0.006367  0.750000  0.533616  1
  Al  Al2  1  0.844808  0.250000  0.984110  1
  Al  Al3  1  0.993633  0.250000  0.466384  1
  S  S4  1  0.367267  0.406866  0.164096  1
  S  S5  1  0.744626  0.479708  0.657378  1
  S  S6  1  0.632733  0.593134  0.835904  1
  S  S7  1  0.744626  0.020292  0.657378  1
  S  S8  1  0.632733  0.906866  0.835904  1
  S  S9  1  0.255374  0.979708  0.342622  1
  S  S10  1  0.367267  0.093134  0.164096  1
  S  S11  1  0.255374  0.520292  0.342622  1
  N  N12  1  0.730613  0.948774  0.744519  1
  N  N13  1  0.269387  0.051226  0.255481  1
  N  N14  1  0.730613  0.551226  0.744519  1
  N  N15  1  0.269387  0.448774  0.255481  1
  Cl  Cl16  1  0.700007  0.750000  0.585595  1
  Cl  Cl17  1  0.946165  0.378940  0.912140  1
  Cl  Cl18  1  0.170199  0.880840  0.584768  1
  Cl  Cl19  1  0.028872  0.250000  0.629353  1
  Cl  Cl20  1  0.024029  0.750000  0.859747  1
  Cl  Cl21  1  0.170199  0.619160  0.584768  1
  Cl  Cl22  1  0.971128  0.750000  0.370647  1
  Cl  Cl23  1  0.624858  0.016274  0.136330  1
  Cl  Cl24  1  0.375142  0.983726  0.863670  1
  Cl  Cl25  1  0.975971  0.250000  0.140253  1
  Cl  Cl26  1  0.498816  0.885869  0.352099  1
  Cl  Cl27  1  0.053835  0.621060  0.087860  1
  Cl  Cl28  1  0.493310  0.750000  0.019019  1
  Cl  Cl29  1  0.053835  0.878940  0.087860  1
  Cl  Cl30  1  0.299993  0.250000  0.414405  1
  Cl  Cl31  1  0.498816  0.614131  0.352099  1
  Cl  Cl32  1  0.946165  0.121060  0.912140  1
  Cl  Cl33  1  0.506690  0.250000  0.980981  1
  Cl  Cl34  1  0.375142  0.516274  0.863670  1
  Cl  Cl35  1  0.624858  0.483726  0.136330  1
  Cl  Cl36  1  0.501184  0.385869  0.647901  1
  Cl  Cl37  1  0.829801  0.380840  0.415232  1
  Cl  Cl38  1  0.829801  0.119160  0.415232  1
  Cl  Cl39  1  0.501184  0.114131  0.647901  1
