# generated using pymatgen
data_CeTe3
_symmetry_space_group_name_H-M   'P 1'
_cell_length_a   13.13356492
_cell_length_b   13.13356492
_cell_length_c   4.41938879
_cell_angle_alpha   90.00000000
_cell_angle_beta   90.00000000
_cell_angle_gamma   160.65488642
_symmetry_Int_Tables_number   1
_chemical_formula_structural   CeTe3
_chemical_formula_sum   'Ce2 Te6'
_cell_volume   252.51842734
_cell_formula_units_Z   2
loop_
 _symmetry_equiv_pos_site_id
 _symmetry_equiv_pos_as_xyz
  1  'x, y, z'
loop_
 _atom_site_type_symbol
 _atom_site_label
 _atom_site_symmetry_multiplicity
 _atom_site_fract_x
 _atom_site_fract_y
 _atom_site_fract_z
 _atom_site_occupancy
  Ce  Ce0  1  0.331862  0.668138  0.250000  1
  Ce  Ce1  1  0.668138  0.331862  0.750000  1
  Te  Te2  1  0.426463  0.573537  0.750000  1
  Te  Te3  1  0.926447  0.073553  0.250000  1
  Te  Te4  1  0.795283  0.204717  0.750000  1
  Te  Te5  1  0.573537  0.426463  0.250000  1
  Te  Te6  1  0.073553  0.926447  0.750000  1
  Te  Te7  1  0.204717  0.795283  0.250000  1
