# generated using pymatgen
data_La6S4BrN3
_symmetry_space_group_name_H-M   'P 1'
_cell_length_a   4.11180023
_cell_length_b   11.70436022
_cell_length_c   27.89318874
_cell_angle_alpha   90.00000000
_cell_angle_beta   90.00000000
_cell_angle_gamma   90.00000000
_symmetry_Int_Tables_number   1
_chemical_formula_structural   La6S4BrN3
_chemical_formula_sum   'La24 S16 Br4 N12'
_cell_volume   1342.38735151
_cell_formula_units_Z   4
loop_
 _symmetry_equiv_pos_site_id
 _symmetry_equiv_pos_as_xyz
  1  'x, y, z'
loop_
 _atom_site_type_symbol
 _atom_site_label
 _atom_site_symmetry_multiplicity
 _atom_site_fract_x
 _atom_site_fract_y
 _atom_site_fract_z
 _atom_site_occupancy
  La  La0  1  0.750000  0.600030  0.463941  1
  La  La1  1  0.250000  0.746567  0.828466  1
  La  La2  1  0.750000  0.255011  0.436143  1
  La  La3  1  0.750000  0.100030  0.036059  1
  La  La4  1  0.250000  0.875630  0.217092  1
  La  La5  1  0.250000  0.941766  0.422255  1
  La  La6  1  0.750000  0.058234  0.577745  1
  La  La7  1  0.250000  0.939036  0.691655  1
  La  La8  1  0.250000  0.744989  0.563857  1
  La  La9  1  0.750000  0.755011  0.063857  1
  La  La10  1  0.250000  0.246567  0.671534  1
  La  La11  1  0.750000  0.558234  0.922255  1
  La  La12  1  0.750000  0.253433  0.171534  1
  La  La13  1  0.750000  0.624370  0.717092  1
  La  La14  1  0.250000  0.441766  0.077745  1
  La  La15  1  0.250000  0.375630  0.282908  1
  La  La16  1  0.750000  0.560964  0.191655  1
  La  La17  1  0.750000  0.124370  0.782908  1
  La  La18  1  0.250000  0.439036  0.808345  1
  La  La19  1  0.250000  0.399970  0.536059  1
  La  La20  1  0.750000  0.753433  0.328466  1
  La  La21  1  0.250000  0.244989  0.936143  1
  La  La22  1  0.750000  0.060964  0.308345  1
  La  La23  1  0.250000  0.899970  0.963941  1
  S  S24  1  0.750000  0.310473  0.862995  1
  S  S25  1  0.750000  0.292985  0.602500  1
  S  S26  1  0.250000  0.135775  0.236106  1
  S  S27  1  0.750000  0.364225  0.736106  1
  S  S28  1  0.750000  0.354354  0.995014  1
  S  S29  1  0.250000  0.189527  0.362995  1
  S  S30  1  0.750000  0.810473  0.637005  1
  S  S31  1  0.250000  0.645646  0.004986  1
  S  S32  1  0.250000  0.635775  0.263894  1
  S  S33  1  0.750000  0.792985  0.897500  1
  S  S34  1  0.750000  0.854354  0.504986  1
  S  S35  1  0.750000  0.864225  0.763894  1
  S  S36  1  0.250000  0.707015  0.397500  1
  S  S37  1  0.250000  0.145646  0.495014  1
  S  S38  1  0.250000  0.689527  0.137005  1
  S  S39  1  0.250000  0.207015  0.102500  1
  Br  Br40  1  0.750000  0.962014  0.137668  1
  Br  Br41  1  0.750000  0.462014  0.362332  1
  Br  Br42  1  0.250000  0.037986  0.862332  1
  Br  Br43  1  0.250000  0.537986  0.637668  1
  N  N44  1  0.250000  0.098120  0.985979  1
  N  N45  1  0.250000  0.598120  0.514021  1
  N  N46  1  0.750000  0.901880  0.014021  1
  N  N47  1  0.250000  0.113441  0.737431  1
  N  N48  1  0.750000  0.937042  0.374337  1
  N  N49  1  0.750000  0.886559  0.262569  1
  N  N50  1  0.250000  0.613441  0.762569  1
  N  N51  1  0.250000  0.562958  0.874337  1
  N  N52  1  0.750000  0.386559  0.237431  1
  N  N53  1  0.750000  0.437042  0.125663  1
  N  N54  1  0.250000  0.062958  0.625663  1
  N  N55  1  0.750000  0.401880  0.485979  1
