# generated using pymatgen
data_NiAs2S6(OF)12
_symmetry_space_group_name_H-M   'P 1'
_cell_length_a   8.09283799
_cell_length_b   8.94998516
_cell_length_c   15.43177357
_cell_angle_alpha   90.00000000
_cell_angle_beta   92.96317209
_cell_angle_gamma   90.00000000
_symmetry_Int_Tables_number   1
_chemical_formula_structural   NiAs2S6(OF)12
_chemical_formula_sum   'Ni2 As4 S12 O24 F24'
_cell_volume   1116.24094768
_cell_formula_units_Z   2
loop_
 _symmetry_equiv_pos_site_id
 _symmetry_equiv_pos_as_xyz
  1  'x, y, z'
loop_
 _atom_site_type_symbol
 _atom_site_label
 _atom_site_symmetry_multiplicity
 _atom_site_fract_x
 _atom_site_fract_y
 _atom_site_fract_z
 _atom_site_occupancy
  Ni  Ni0  1  0.000000  0.000000  0.500000  1
  Ni  Ni1  1  0.000000  0.500000  0.000000  1
  As  As2  1  0.258561  0.996214  0.142305  1
  As  As3  1  0.741439  0.003786  0.857695  1
  As  As4  1  0.258561  0.503786  0.642305  1
  As  As5  1  0.741439  0.496214  0.357695  1
  S  S6  1  0.759062  0.755725  0.095011  1
  S  S7  1  0.240938  0.255725  0.404989  1
  S  S8  1  0.776131  0.242282  0.615861  1
  S  S9  1  0.223869  0.757718  0.384139  1
  S  S10  1  0.297351  0.505534  0.158110  1
  S  S11  1  0.223869  0.742282  0.884139  1
  S  S12  1  0.240938  0.244275  0.904989  1
  S  S13  1  0.759062  0.744275  0.595011  1
  S  S14  1  0.702649  0.494466  0.841890  1
  S  S15  1  0.776131  0.257718  0.115861  1
  S  S16  1  0.297351  0.994466  0.658110  1
  S  S17  1  0.702649  0.005534  0.341890  1
  O  O18  1  0.381069  0.831642  0.395971  1
  O  O19  1  0.091832  0.326126  0.927967  1
  O  O20  1  0.397676  0.316222  0.922980  1
  O  O21  1  0.091832  0.173874  0.427967  1
  O  O22  1  0.920440  0.334260  0.082603  1
  O  O23  1  0.813298  0.535682  0.775819  1
  O  O24  1  0.618931  0.168358  0.604029  1
  O  O25  1  0.920440  0.165740  0.582603  1
  O  O26  1  0.775547  0.018722  0.430758  1
  O  O27  1  0.602324  0.816222  0.577020  1
  O  O28  1  0.908168  0.673874  0.072033  1
  O  O29  1  0.224453  0.981278  0.569242  1
  O  O30  1  0.908168  0.826126  0.572033  1
  O  O31  1  0.775547  0.481278  0.930758  1
  O  O32  1  0.618931  0.331642  0.104029  1
  O  O33  1  0.224453  0.518722  0.069242  1
  O  O34  1  0.397676  0.183778  0.422980  1
  O  O35  1  0.186702  0.464318  0.224181  1
  O  O36  1  0.186702  0.035682  0.724181  1
  O  O37  1  0.813298  0.964318  0.275819  1
  O  O38  1  0.079560  0.665740  0.917397  1
  O  O39  1  0.079560  0.834260  0.417397  1
  O  O40  1  0.602324  0.683778  0.077020  1
  O  O41  1  0.381069  0.668358  0.895971  1
  F  F42  1  0.274434  0.176134  0.094442  1
  F  F43  1  0.524994  0.494436  0.333324  1
  F  F44  1  0.772072  0.579583  0.255183  1
  F  F45  1  0.957464  0.003096  0.881419  1
  F  F46  1  0.475006  0.505564  0.666676  1
  F  F47  1  0.227928  0.420417  0.744817  1
  F  F48  1  0.725566  0.676134  0.405558  1
  F  F49  1  0.772072  0.920417  0.755183  1
  F  F50  1  0.242811  0.815099  0.191093  1
  F  F51  1  0.757189  0.315099  0.308907  1
  F  F52  1  0.227928  0.079583  0.244817  1
  F  F53  1  0.757189  0.184901  0.808907  1
  F  F54  1  0.289283  0.588012  0.540085  1
  F  F55  1  0.710717  0.088012  0.959915  1
  F  F56  1  0.242811  0.684901  0.691093  1
  F  F57  1  0.710717  0.411988  0.459915  1
  F  F58  1  0.042536  0.996904  0.118581  1
  F  F59  1  0.475006  0.994436  0.166676  1
  F  F60  1  0.289283  0.911988  0.040085  1
  F  F61  1  0.042536  0.503096  0.618581  1
  F  F62  1  0.957464  0.496904  0.381419  1
  F  F63  1  0.274434  0.323866  0.594442  1
  F  F64  1  0.725566  0.823866  0.905558  1
  F  F65  1  0.524994  0.005564  0.833324  1
