# generated using pymatgen
data_BaAg2(HgO2)2
_symmetry_space_group_name_H-M   'P 1'
_cell_length_a   6.98469817
_cell_length_b   6.98469817
_cell_length_c   7.15844021
_cell_angle_alpha   90.00000000
_cell_angle_beta   90.00000000
_cell_angle_gamma   90.00000000
_symmetry_Int_Tables_number   1
_chemical_formula_structural   BaAg2(HgO2)2
_chemical_formula_sum   'Ba2 Ag4 Hg4 O8'
_cell_volume   349.23172512
_cell_formula_units_Z   2
loop_
 _symmetry_equiv_pos_site_id
 _symmetry_equiv_pos_as_xyz
  1  'x, y, z'
loop_
 _atom_site_type_symbol
 _atom_site_label
 _atom_site_symmetry_multiplicity
 _atom_site_fract_x
 _atom_site_fract_y
 _atom_site_fract_z
 _atom_site_occupancy
  Ba  Ba0  1  0.000000  0.000000  0.000000  1
  Ba  Ba1  1  0.500000  0.500000  0.000000  1
  Ag  Ag2  1  0.250000  0.750000  0.500000  1
  Ag  Ag3  1  0.750000  0.250000  0.500000  1
  Ag  Ag4  1  0.750000  0.750000  0.500000  1
  Ag  Ag5  1  0.250000  0.250000  0.500000  1
  Hg  Hg6  1  0.000000  0.500000  0.778335  1
  Hg  Hg7  1  0.000000  0.500000  0.221665  1
  Hg  Hg8  1  0.500000  0.000000  0.221665  1
  Hg  Hg9  1  0.500000  0.000000  0.778335  1
  O  O10  1  0.293024  0.793024  0.789803  1
  O  O11  1  0.206976  0.706976  0.210197  1
  O  O12  1  0.706976  0.206976  0.789803  1
  O  O13  1  0.793024  0.293024  0.210197  1
  O  O14  1  0.206976  0.293024  0.789803  1
  O  O15  1  0.706976  0.793024  0.210197  1
  O  O16  1  0.293024  0.206976  0.210197  1
  O  O17  1  0.793024  0.706976  0.789803  1
