# generated using pymatgen
data_MgTlP(H6O5)2
_symmetry_space_group_name_H-M   'P 1'
_cell_length_a   6.14284561
_cell_length_b   6.90910561
_cell_length_c   11.36622371
_cell_angle_alpha   90.00000000
_cell_angle_beta   90.00000000
_cell_angle_gamma   90.00000000
_symmetry_Int_Tables_number   1
_chemical_formula_structural   MgTlP(H6O5)2
_chemical_formula_sum   'Mg2 Tl2 P2 H24 O20'
_cell_volume   482.40036860
_cell_formula_units_Z   2
loop_
 _symmetry_equiv_pos_site_id
 _symmetry_equiv_pos_as_xyz
  1  'x, y, z'
loop_
 _atom_site_type_symbol
 _atom_site_label
 _atom_site_symmetry_multiplicity
 _atom_site_fract_x
 _atom_site_fract_y
 _atom_site_fract_z
 _atom_site_occupancy
  Mg  Mg0  1  0.383194  0.500000  0.878259  1
  Mg  Mg1  1  0.616806  0.000000  0.378259  1
  Tl  Tl2  1  0.628330  0.000000  0.733152  1
  Tl  Tl3  1  0.371670  0.500000  0.233152  1
  P  P4  1  0.013754  0.000000  0.012536  1
  P  P5  1  0.986246  0.500000  0.512536  1
  H  H6  1  0.168302  0.000000  0.342664  1
  H  H7  1  0.603992  0.323500  0.523000  1
  H  H8  1  0.800251  0.204800  0.189953  1
  H  H9  1  0.826858  0.675827  0.311379  1
  H  H10  1  0.199749  0.295200  0.689953  1
  H  H11  1  0.603992  0.676500  0.523000  1
  H  H12  1  0.006834  0.617806  0.000939  1
  H  H13  1  0.800251  0.795200  0.189953  1
  H  H14  1  0.199749  0.704800  0.689953  1
  H  H15  1  0.173142  0.824173  0.811379  1
  H  H16  1  0.272242  0.000000  0.211373  1
  H  H17  1  0.643870  0.249391  0.011602  1
  H  H18  1  0.396008  0.823500  0.023000  1
  H  H19  1  0.173142  0.175827  0.811379  1
  H  H20  1  0.356130  0.749391  0.511602  1
  H  H21  1  0.993166  0.117806  0.500939  1
  H  H22  1  0.727758  0.500000  0.711373  1
  H  H23  1  0.006834  0.382194  0.000939  1
  H  H24  1  0.396008  0.176500  0.023000  1
  H  H25  1  0.831698  0.500000  0.842664  1
  H  H26  1  0.826858  0.324173  0.311379  1
  H  H27  1  0.993166  0.882194  0.500939  1
  H  H28  1  0.643870  0.750609  0.011602  1
  H  H29  1  0.356130  0.250609  0.511602  1
  O  O30  1  0.510851  0.788816  0.496504  1
  O  O31  1  0.693502  0.500000  0.798411  1
  O  O32  1  0.731566  0.773183  0.269481  1
  O  O33  1  0.892033  0.814538  0.054778  1
  O  O34  1  0.268434  0.726817  0.769481  1
  O  O35  1  0.107967  0.685462  0.554778  1
  O  O36  1  0.966252  0.500000  0.376450  1
  O  O37  1  0.246445  0.000000  0.068997  1
  O  O38  1  0.268434  0.273183  0.769481  1
  O  O39  1  0.489149  0.711184  0.996504  1
  O  O40  1  0.731566  0.226817  0.269481  1
  O  O41  1  0.510851  0.211184  0.496504  1
  O  O42  1  0.306498  0.000000  0.298411  1
  O  O43  1  0.753555  0.500000  0.568997  1
  O  O44  1  0.892033  0.185462  0.054778  1
  O  O45  1  0.065626  0.500000  0.959044  1
  O  O46  1  0.033748  0.000000  0.876450  1
  O  O47  1  0.107967  0.314538  0.554778  1
  O  O48  1  0.934374  0.000000  0.459044  1
  O  O49  1  0.489149  0.288816  0.996504  1
