# generated using pymatgen
data_PrAl
_symmetry_space_group_name_H-M   'P 1'
_cell_length_a   6.05041109
_cell_length_b   6.05041109
_cell_length_c   5.76547624
_cell_angle_alpha   90.00000000
_cell_angle_beta   90.00000000
_cell_angle_gamma   101.13983790
_symmetry_Int_Tables_number   1
_chemical_formula_structural   PrAl
_chemical_formula_sum   'Pr4 Al4'
_cell_volume   207.08285925
_cell_formula_units_Z   4
loop_
 _symmetry_equiv_pos_site_id
 _symmetry_equiv_pos_as_xyz
  1  'x, y, z'
loop_
 _atom_site_type_symbol
 _atom_site_label
 _atom_site_symmetry_multiplicity
 _atom_site_fract_x
 _atom_site_fract_y
 _atom_site_fract_z
 _atom_site_occupancy
  Pr  Pr0  1  0.979164  0.338954  0.250000  1
  Pr  Pr1  1  0.338954  0.979164  0.250000  1
  Pr  Pr2  1  0.661046  0.020836  0.750000  1
  Pr  Pr3  1  0.020836  0.661046  0.750000  1
  Al  Al4  1  0.802077  0.802077  0.250000  1
  Al  Al5  1  0.197923  0.197923  0.750000  1
  Al  Al6  1  0.500000  0.500000  1.000000  1
  Al  Al7  1  0.500000  0.500000  0.500000  1
