# generated using pymatgen
data_Mo15Se19
_symmetry_space_group_name_H-M   'P 1'
_cell_length_a   20.57848671
_cell_length_b   20.57848671
_cell_length_c   20.57848671
_cell_angle_alpha   27.20918219
_cell_angle_beta   27.20918219
_cell_angle_gamma   27.20918219
_symmetry_Int_Tables_number   1
_chemical_formula_structural   Mo15Se19
_chemical_formula_sum   'Mo30 Se38'
_cell_volume   1607.45390027
_cell_formula_units_Z   2
loop_
 _symmetry_equiv_pos_site_id
 _symmetry_equiv_pos_as_xyz
  1  'x, y, z'
loop_
 _atom_site_type_symbol
 _atom_site_label
 _atom_site_symmetry_multiplicity
 _atom_site_fract_x
 _atom_site_fract_y
 _atom_site_fract_z
 _atom_site_occupancy
  Mo  Mo0  1  0.250000  0.410674  0.089326  1
  Mo  Mo1  1  0.002231  0.128353  0.809884  1
  Mo  Mo2  1  0.365605  0.223777  0.043927  1
  Mo  Mo3  1  0.371647  0.497769  0.690116  1
  Mo  Mo4  1  0.497769  0.690116  0.371647  1
  Mo  Mo5  1  0.871647  0.190116  0.997769  1
  Mo  Mo6  1  0.628353  0.502231  0.309884  1
  Mo  Mo7  1  0.589326  0.910674  0.750000  1
  Mo  Mo8  1  0.723777  0.865605  0.543927  1
  Mo  Mo9  1  0.997769  0.871647  0.190116  1
  Mo  Mo10  1  0.776223  0.956073  0.634395  1
  Mo  Mo11  1  0.190116  0.997769  0.871647  1
  Mo  Mo12  1  0.410674  0.089326  0.250000  1
  Mo  Mo13  1  0.750000  0.589326  0.910674  1
  Mo  Mo14  1  0.043927  0.365605  0.223777  1
  Mo  Mo15  1  0.809884  0.002231  0.128353  1
  Mo  Mo16  1  0.690116  0.371647  0.497769  1
  Mo  Mo17  1  0.910674  0.750000  0.589326  1
  Mo  Mo18  1  0.543927  0.723777  0.865605  1
  Mo  Mo19  1  0.865605  0.543927  0.723777  1
  Mo  Mo20  1  0.223777  0.043927  0.365605  1
  Mo  Mo21  1  0.456073  0.276223  0.134395  1
  Mo  Mo22  1  0.276223  0.134395  0.456073  1
  Mo  Mo23  1  0.502231  0.309884  0.628353  1
  Mo  Mo24  1  0.128353  0.809884  0.002231  1
  Mo  Mo25  1  0.634395  0.776223  0.956073  1
  Mo  Mo26  1  0.956073  0.634395  0.776223  1
  Mo  Mo27  1  0.089326  0.250000  0.410674  1
  Mo  Mo28  1  0.309884  0.628353  0.502231  1
  Mo  Mo29  1  0.134395  0.456073  0.276223  1
  Se  Se30  1  0.947051  0.693722  0.311244  1
  Se  Se31  1  0.188756  0.806278  0.552949  1
  Se  Se32  1  0.447051  0.811244  0.193722  1
  Se  Se33  1  0.919514  0.186056  0.538757  1
  Se  Se34  1  0.552949  0.188756  0.806278  1
  Se  Se35  1  0.811244  0.193722  0.447051  1
  Se  Se36  1  0.822826  0.822826  0.822826  1
  Se  Se37  1  0.311244  0.947051  0.693722  1
  Se  Se38  1  0.961243  0.313944  0.580486  1
  Se  Se39  1  0.080486  0.813944  0.461243  1
  Se  Se40  1  0.580486  0.961243  0.313944  1
  Se  Se41  1  0.940230  0.559770  0.250000  1
  Se  Se42  1  0.306278  0.688756  0.052949  1
  Se  Se43  1  0.052949  0.306278  0.688756  1
  Se  Se44  1  0.322826  0.322826  0.322826  1
  Se  Se45  1  0.693722  0.311244  0.947051  1
  Se  Se46  1  0.461243  0.080486  0.813944  1
  Se  Se47  1  0.177174  0.177174  0.177174  1
  Se  Se48  1  0.559770  0.250000  0.940230  1
  Se  Se49  1  0.946116  0.946116  0.946116  1
  Se  Se50  1  0.806278  0.552949  0.188756  1
  Se  Se51  1  0.193722  0.447051  0.811244  1
  Se  Se52  1  0.186056  0.538757  0.919514  1
  Se  Se53  1  0.538757  0.919514  0.186056  1
  Se  Se54  1  0.059770  0.440230  0.750000  1
  Se  Se55  1  0.553884  0.553884  0.553884  1
  Se  Se56  1  0.688756  0.052949  0.306278  1
  Se  Se57  1  0.750000  0.059770  0.440230  1
  Se  Se58  1  0.313944  0.580486  0.961243  1
  Se  Se59  1  0.250000  0.940230  0.559770  1
  Se  Se60  1  0.813944  0.461243  0.080486  1
  Se  Se61  1  0.677174  0.677174  0.677174  1
  Se  Se62  1  0.419514  0.038757  0.686056  1
  Se  Se63  1  0.038757  0.686056  0.419514  1
  Se  Se64  1  0.446116  0.446116  0.446116  1
  Se  Se65  1  0.440230  0.750000  0.059770  1
  Se  Se66  1  0.686056  0.419514  0.038757  1
  Se  Se67  1  0.053884  0.053884  0.053884  1
