# generated using pymatgen
data_Ce2Fe12P7
_symmetry_space_group_name_H-M   'P 1'
_cell_length_a   9.00486816
_cell_length_b   9.00486816
_cell_length_c   3.65676217
_cell_angle_alpha   90.00000000
_cell_angle_beta   90.00000000
_cell_angle_gamma   120.00000000
_symmetry_Int_Tables_number   1
_chemical_formula_structural   Ce2Fe12P7
_chemical_formula_sum   'Ce2 Fe12 P7'
_cell_volume   256.79234012
_cell_formula_units_Z   1
loop_
 _symmetry_equiv_pos_site_id
 _symmetry_equiv_pos_as_xyz
  1  'x, y, z'
loop_
 _atom_site_type_symbol
 _atom_site_label
 _atom_site_symmetry_multiplicity
 _atom_site_fract_x
 _atom_site_fract_y
 _atom_site_fract_z
 _atom_site_occupancy
  Ce  Ce0  1  0.000000  0.000000  0.000000  1
  Ce  Ce1  1  0.333333  0.666667  0.500000  1
  Fe  Fe2  1  0.096119  0.394274  0.000000  1
  Fe  Fe3  1  0.298155  0.903881  0.000000  1
  Fe  Fe4  1  0.605726  0.701845  0.000000  1
  Fe  Fe5  1  0.817762  0.605908  0.000000  1
  Fe  Fe6  1  0.788146  0.182238  0.000000  1
  Fe  Fe7  1  0.394092  0.211854  0.000000  1
  Fe  Fe8  1  0.048337  0.767906  0.500000  1
  Fe  Fe9  1  0.719569  0.951663  0.500000  1
  Fe  Fe10  1  0.232094  0.280431  0.500000  1
  Fe  Fe11  1  0.884046  0.432981  0.500000  1
  Fe  Fe12  1  0.548935  0.115954  0.500000  1
  Fe  Fe13  1  0.567019  0.451065  0.500000  1
  P  P14  1  0.072466  0.633102  0.000000  1
  P  P15  1  0.560636  0.927534  0.000000  1
  P  P16  1  0.366898  0.439364  0.000000  1
  P  P17  1  0.772430  0.730090  0.500000  1
  P  P18  1  0.957660  0.227570  0.500000  1
  P  P19  1  0.269910  0.042340  0.500000  1
  P  P20  1  0.666667  0.333333  0.000000  1
