# generated using pymatgen
data_LiZnPO4
_symmetry_space_group_name_H-M   'P 1'
_cell_length_a   10.05474527
_cell_length_b   10.05474527
_cell_length_c   16.41402045
_cell_angle_alpha   82.31185814
_cell_angle_beta   97.68814186
_cell_angle_gamma   121.09878905
_symmetry_Int_Tables_number   1
_chemical_formula_structural   LiZnPO4
_chemical_formula_sum   'Li16 Zn16 P16 O64'
_cell_volume   1404.05801971
_cell_formula_units_Z   16
loop_
 _symmetry_equiv_pos_site_id
 _symmetry_equiv_pos_as_xyz
  1  'x, y, z'
loop_
 _atom_site_type_symbol
 _atom_site_label
 _atom_site_symmetry_multiplicity
 _atom_site_fract_x
 _atom_site_fract_y
 _atom_site_fract_z
 _atom_site_occupancy
  Li  Li0  1  0.859793  0.313188  0.501335  1
  Li  Li1  1  0.800433  0.812786  0.502787  1
  Li  Li2  1  0.919172  0.759660  0.253108  1
  Li  Li3  1  0.431166  0.203808  0.252422  1
  Li  Li4  1  0.298402  0.811307  0.503428  1
  Li  Li5  1  0.188693  0.701598  0.003428  1
  Li  Li6  1  0.423291  0.701940  0.252742  1
  Li  Li7  1  0.298060  0.576709  0.752742  1
  Li  Li8  1  0.796192  0.568834  0.752422  1
  Li  Li9  1  0.187214  0.199567  0.002787  1
  Li  Li10  1  0.686812  0.140207  0.001335  1
  Li  Li11  1  0.740054  0.074277  0.751511  1
  Li  Li12  1  0.240340  0.080828  0.753108  1
  Li  Li13  1  0.687334  0.639384  0.002561  1
  Li  Li14  1  0.360616  0.312666  0.502561  1
  Li  Li15  1  0.925723  0.259946  0.251511  1
  Zn  Zn16  1  0.054249  0.767443  0.629193  1
  Zn  Zn17  1  0.674504  0.004276  0.377769  1
  Zn  Zn18  1  0.494731  0.380634  0.878578  1
  Zn  Zn19  1  0.120423  0.511305  0.378663  1
  Zn  Zn20  1  0.729428  0.382001  0.127253  1
  Zn  Zn21  1  0.617999  0.270572  0.627253  1
  Zn  Zn22  1  0.488695  0.879577  0.878663  1
  Zn  Zn23  1  0.619366  0.505269  0.378578  1
  Zn  Zn24  1  0.991013  0.826047  0.879139  1
  Zn  Zn25  1  0.232557  0.945751  0.129193  1
  Zn  Zn26  1  0.554491  0.769273  0.627421  1
  Zn  Zn27  1  0.733007  0.884500  0.128106  1
  Zn  Zn28  1  0.230727  0.445509  0.127421  1
  Zn  Zn29  1  0.115500  0.266993  0.628106  1
  Zn  Zn30  1  0.173953  0.008987  0.379139  1
  Zn  Zn31  1  0.995724  0.325496  0.877769  1
  P  P32  1  0.583183  0.043572  0.188926  1
  P  P33  1  0.397936  0.918128  0.690859  1
  P  P34  1  0.834686  0.481884  0.939827  1
  P  P35  1  0.085349  0.101595  0.190935  1
  P  P36  1  0.581604  0.544933  0.189204  1
  P  P37  1  0.455067  0.418396  0.689204  1
  P  P38  1  0.831519  0.982565  0.939821  1
  P  P39  1  0.333376  0.038782  0.941782  1
  P  P40  1  0.334795  0.537058  0.941281  1
  P  P41  1  0.961218  0.666624  0.441782  1
  P  P42  1  0.081872  0.602064  0.190859  1
  P  P43  1  0.518116  0.165314  0.439827  1
  P  P44  1  0.462942  0.665205  0.441281  1
  P  P45  1  0.017435  0.168481  0.439821  1
  P  P46  1  0.956428  0.416817  0.688926  1
  P  P47  1  0.898405  0.914651  0.690935  1
  O  O48  1  0.659005  0.139082  0.451533  1
  O  O49  1  0.366151  0.006251  0.427114  1
  O  O50  1  0.868685  0.007448  0.426141  1
  O  O51  1  0.117323  0.442170  0.673454  1
  O  O52  1  0.403514  0.844082  0.614651  1
  O  O53  1  0.257630  0.419002  0.015661  1
  O  O54  1  0.391682  0.806988  0.768072  1
  O  O55  1  0.023532  0.785921  0.365457  1
  O  O56  1  0.719894  0.470154  0.863292  1
  O  O57  1  0.752220  0.932146  0.679573  1
  O  O58  1  0.580998  0.742370  0.515661  1
  O  O59  1  0.660693  0.663044  0.115035  1
  O  O60  1  0.201593  0.108625  0.265347  1
  O  O61  1  0.155918  0.596486  0.114651  1
  O  O62  1  0.423196  0.528033  0.202038  1
  O  O63  1  0.067854  0.247780  0.179573  1
  O  O64  1  0.063088  0.747427  0.178837  1
  O  O65  1  0.448694  0.508697  0.426495  1
  O  O66  1  0.366918  0.202442  0.957953  1
  O  O67  1  0.993749  0.633849  0.927114  1
  O  O68  1  0.513909  0.240154  0.515854  1
  O  O69  1  0.699868  0.110433  0.265484  1
  O  O70  1  0.365394  0.699623  0.957600  1
  O  O71  1  0.557603  0.384667  0.173418  1
  O  O72  1  0.252573  0.936912  0.678837  1
  O  O73  1  0.045020  0.077128  0.705028  1
  O  O74  1  0.152890  0.092925  0.112902  1
  O  O75  1  0.300377  0.634606  0.457600  1
  O  O76  1  0.920331  0.452972  0.203032  1
  O  O77  1  0.425575  0.026304  0.204269  1
  O  O78  1  0.839297  0.343989  0.613333  1
  O  O79  1  0.193012  0.608318  0.268072  1
  O  O80  1  0.973696  0.574425  0.704269  1
  O  O81  1  0.390818  0.308438  0.768384  1
  O  O82  1  0.259825  0.921187  0.016885  1
  O  O83  1  0.691562  0.609182  0.268384  1
  O  O84  1  0.160995  0.146489  0.450741  1
  O  O85  1  0.471967  0.576804  0.702038  1
  O  O86  1  0.797558  0.633082  0.457953  1
  O  O87  1  0.219854  0.474711  0.863350  1
  O  O88  1  0.491303  0.551306  0.926495  1
  O  O89  1  0.214079  0.976468  0.865457  1
  O  O90  1  0.891375  0.798407  0.765347  1
  O  O91  1  0.922872  0.954980  0.205028  1
  O  O92  1  0.026576  0.285098  0.364893  1
  O  O93  1  0.336956  0.339307  0.615035  1
  O  O94  1  0.889567  0.300132  0.765484  1
  O  O95  1  0.656011  0.160703  0.113333  1
  O  O96  1  0.529846  0.280106  0.363292  1
  O  O97  1  0.557830  0.882677  0.173454  1
  O  O98  1  0.525289  0.780146  0.363350  1
  O  O99  1  0.992552  0.131315  0.926141  1
  O  O100  1  0.948040  0.511471  0.425160  1
  O  O101  1  0.853511  0.839005  0.950741  1
  O  O102  1  0.860918  0.340995  0.951533  1
  O  O103  1  0.907075  0.847110  0.612902  1
  O  O104  1  0.615333  0.442397  0.673418  1
  O  O105  1  0.547028  0.079669  0.703032  1
  O  O106  1  0.078813  0.740175  0.516885  1
  O  O107  1  0.714902  0.973424  0.864893  1
  O  O108  1  0.761714  0.989415  0.017167  1
  O  O109  1  0.010585  0.238286  0.517167  1
  O  O110  1  0.759846  0.486091  0.015854  1
  O  O111  1  0.488529  0.051960  0.925160  1
