# generated using pymatgen
data_Sr6FeC2N7
_symmetry_space_group_name_H-M   'P 1'
_cell_length_a   3.85971511
_cell_length_b   9.96513218
_cell_length_c   14.87956997
_cell_angle_alpha   90.00000000
_cell_angle_beta   90.00000000
_cell_angle_gamma   90.00000000
_symmetry_Int_Tables_number   1
_chemical_formula_structural   Sr6FeC2N7
_chemical_formula_sum   'Sr12 Fe2 C4 N14'
_cell_volume   572.30652012
_cell_formula_units_Z   2
loop_
 _symmetry_equiv_pos_site_id
 _symmetry_equiv_pos_as_xyz
  1  'x, y, z'
loop_
 _atom_site_type_symbol
 _atom_site_label
 _atom_site_symmetry_multiplicity
 _atom_site_fract_x
 _atom_site_fract_y
 _atom_site_fract_z
 _atom_site_occupancy
  Sr  Sr0  1  0.055719  0.570060  0.109723  1
  Sr  Sr1  1  0.442973  0.755163  0.443161  1
  Sr  Sr2  1  0.944281  0.929940  0.609723  1
  Sr  Sr3  1  0.557027  0.744837  0.943161  1
  Sr  Sr4  1  0.489127  0.098220  0.833716  1
  Sr  Sr5  1  0.557027  0.255163  0.056839  1
  Sr  Sr6  1  0.055719  0.429940  0.890277  1
  Sr  Sr7  1  0.442973  0.244837  0.556839  1
  Sr  Sr8  1  0.944281  0.070060  0.390277  1
  Sr  Sr9  1  0.489127  0.901780  0.166284  1
  Sr  Sr10  1  0.510873  0.598220  0.666284  1
  Sr  Sr11  1  0.510873  0.401780  0.333716  1
  Fe  Fe12  1  0.978878  0.500000  0.500000  1
  Fe  Fe13  1  0.021122  0.000000  0.000000  1
  C  C14  1  0.819461  0.725663  0.280757  1
  C  C15  1  0.180539  0.225663  0.219243  1
  C  C16  1  0.180539  0.774337  0.780757  1
  C  C17  1  0.819461  0.274337  0.719243  1
  N  N18  1  0.974919  0.667424  0.555100  1
  N  N19  1  0.969338  0.171702  0.691705  1
  N  N20  1  0.642472  0.368556  0.748573  1
  N  N21  1  0.025081  0.832576  0.055100  1
  N  N22  1  0.025081  0.167424  0.944900  1
  N  N23  1  0.357528  0.131444  0.248573  1
  N  N24  1  0.357528  0.868556  0.751427  1
  N  N25  1  0.969338  0.828298  0.308295  1
  N  N26  1  0.030662  0.328298  0.191705  1
  N  N27  1  0.642472  0.631444  0.251427  1
  N  N28  1  0.564083  0.500000  0.000000  1
  N  N29  1  0.030662  0.671702  0.808295  1
  N  N30  1  0.974919  0.332576  0.444900  1
  N  N31  1  0.435917  0.000000  0.500000  1
