# generated using pymatgen
data_LaNiSb3
_symmetry_space_group_name_H-M   'P 1'
_cell_length_a   6.32523182
_cell_length_b   12.25604871
_cell_length_c   12.95708173
_cell_angle_alpha   90.00000000
_cell_angle_beta   90.00000000
_cell_angle_gamma   90.00000000
_symmetry_Int_Tables_number   1
_chemical_formula_structural   LaNiSb3
_chemical_formula_sum   'La8 Ni8 Sb24'
_cell_volume   1004.46341563
_cell_formula_units_Z   8
loop_
 _symmetry_equiv_pos_site_id
 _symmetry_equiv_pos_as_xyz
  1  'x, y, z'
loop_
 _atom_site_type_symbol
 _atom_site_label
 _atom_site_symmetry_multiplicity
 _atom_site_fract_x
 _atom_site_fract_y
 _atom_site_fract_z
 _atom_site_occupancy
  La  La0  1  0.725183  0.250000  0.302973  1
  La  La1  1  0.250000  0.000000  0.298699  1
  La  La2  1  0.750000  0.000000  0.701301  1
  La  La3  1  0.750000  0.500000  0.701301  1
  La  La4  1  0.250000  0.500000  0.298699  1
  La  La5  1  0.774817  0.750000  0.302973  1
  La  La6  1  0.225183  0.250000  0.697027  1
  La  La7  1  0.274817  0.750000  0.697027  1
  Ni  Ni8  1  0.956598  0.135775  0.097024  1
  Ni  Ni9  1  0.543402  0.635775  0.097024  1
  Ni  Ni10  1  0.956598  0.364225  0.097024  1
  Ni  Ni11  1  0.043402  0.635775  0.902976  1
  Ni  Ni12  1  0.043402  0.864225  0.902976  1
  Ni  Ni13  1  0.456598  0.135775  0.902976  1
  Ni  Ni14  1  0.543402  0.864225  0.097024  1
  Ni  Ni15  1  0.456598  0.364225  0.902976  1
  Sb  Sb16  1  0.773760  0.750000  0.786884  1
  Sb  Sb17  1  0.488211  0.376227  0.502718  1
  Sb  Sb18  1  0.250000  0.500000  0.026863  1
  Sb  Sb19  1  0.750000  0.000000  0.219482  1
  Sb  Sb20  1  0.750000  0.500000  0.973137  1
  Sb  Sb21  1  0.599952  0.250000  0.055445  1
  Sb  Sb22  1  0.099952  0.250000  0.944555  1
  Sb  Sb23  1  0.250000  0.500000  0.780518  1
  Sb  Sb24  1  0.011789  0.623773  0.502718  1
  Sb  Sb25  1  0.988211  0.376227  0.497282  1
  Sb  Sb26  1  0.250000  0.000000  0.780518  1
  Sb  Sb27  1  0.226240  0.250000  0.213116  1
  Sb  Sb28  1  0.011789  0.876227  0.502718  1
  Sb  Sb29  1  0.750000  0.500000  0.219482  1
  Sb  Sb30  1  0.726240  0.250000  0.786884  1
  Sb  Sb31  1  0.400048  0.750000  0.944555  1
  Sb  Sb32  1  0.988211  0.123773  0.497282  1
  Sb  Sb33  1  0.488211  0.123773  0.502718  1
  Sb  Sb34  1  0.511789  0.623773  0.497282  1
  Sb  Sb35  1  0.511789  0.876227  0.497282  1
  Sb  Sb36  1  0.250000  0.000000  0.026863  1
  Sb  Sb37  1  0.900048  0.750000  0.055445  1
  Sb  Sb38  1  0.273760  0.750000  0.213116  1
  Sb  Sb39  1  0.750000  0.000000  0.973137  1
