# generated using pymatgen
data_Ba3CaRu2O9
_symmetry_space_group_name_H-M   'P 1'
_cell_length_a   5.98194124
_cell_length_b   5.98194124
_cell_length_c   14.88618795
_cell_angle_alpha   90.00000000
_cell_angle_beta   90.00000000
_cell_angle_gamma   120.00000000
_symmetry_Int_Tables_number   1
_chemical_formula_structural   Ba3CaRu2O9
_chemical_formula_sum   'Ba6 Ca2 Ru4 O18'
_cell_volume   461.31589043
_cell_formula_units_Z   2
loop_
 _symmetry_equiv_pos_site_id
 _symmetry_equiv_pos_as_xyz
  1  'x, y, z'
loop_
 _atom_site_type_symbol
 _atom_site_label
 _atom_site_symmetry_multiplicity
 _atom_site_fract_x
 _atom_site_fract_y
 _atom_site_fract_z
 _atom_site_occupancy
  Ba  Ba0  1  0.000000  0.000000  0.250000  1
  Ba  Ba1  1  0.000000  0.000000  0.750000  1
  Ba  Ba2  1  0.333333  0.666667  0.097452  1
  Ba  Ba3  1  0.333333  0.666667  0.402548  1
  Ba  Ba4  1  0.666667  0.333333  0.902548  1
  Ba  Ba5  1  0.666667  0.333333  0.597452  1
  Ca  Ca6  1  0.000000  0.000000  0.000000  1
  Ca  Ca7  1  0.000000  0.000000  0.500000  1
  Ru  Ru8  1  0.333333  0.666667  0.842851  1
  Ru  Ru9  1  0.333333  0.666667  0.657149  1
  Ru  Ru10  1  0.666667  0.333333  0.157149  1
  Ru  Ru11  1  0.666667  0.333333  0.342851  1
  O  O12  1  0.527670  0.032933  0.250000  1
  O  O13  1  0.505263  0.472330  0.250000  1
  O  O14  1  0.967067  0.494737  0.250000  1
  O  O15  1  0.494737  0.967067  0.750000  1
  O  O16  1  0.472330  0.505263  0.750000  1
  O  O17  1  0.032933  0.527670  0.750000  1
  O  O18  1  0.164690  0.353097  0.910000  1
  O  O19  1  0.188406  0.835310  0.590000  1
  O  O20  1  0.646903  0.811594  0.590000  1
  O  O21  1  0.646903  0.811594  0.910000  1
  O  O22  1  0.188406  0.835310  0.910000  1
  O  O23  1  0.811594  0.646903  0.090000  1
  O  O24  1  0.835310  0.188406  0.090000  1
  O  O25  1  0.353097  0.164690  0.090000  1
  O  O26  1  0.164690  0.353097  0.590000  1
  O  O27  1  0.353097  0.164690  0.410000  1
  O  O28  1  0.811594  0.646903  0.410000  1
  O  O29  1  0.835310  0.188406  0.410000  1
