# generated using pymatgen
data_MnP2O7
_symmetry_space_group_name_H-M   'P 1'
_cell_length_a   7.18511421
_cell_length_b   7.96487352
_cell_length_c   9.26359520
_cell_angle_alpha   90.00000000
_cell_angle_beta   110.32487030
_cell_angle_gamma   90.00000000
_symmetry_Int_Tables_number   1
_chemical_formula_structural   MnP2O7
_chemical_formula_sum   'Mn4 P8 O28'
_cell_volume   497.13433702
_cell_formula_units_Z   4
loop_
 _symmetry_equiv_pos_site_id
 _symmetry_equiv_pos_as_xyz
  1  'x, y, z'
loop_
 _atom_site_type_symbol
 _atom_site_label
 _atom_site_symmetry_multiplicity
 _atom_site_fract_x
 _atom_site_fract_y
 _atom_site_fract_z
 _atom_site_occupancy
  Mn  Mn0  1  0.232678  0.994904  0.753750  1
  Mn  Mn1  1  0.767322  0.494904  0.746250  1
  Mn  Mn2  1  0.232678  0.505096  0.253750  1
  Mn  Mn3  1  0.767322  0.005096  0.246250  1
  P  P4  1  0.174630  0.300713  0.946178  1
  P  P5  1  0.825370  0.800713  0.553822  1
  P  P6  1  0.424102  0.760495  0.055073  1
  P  P7  1  0.575898  0.260495  0.444927  1
  P  P8  1  0.424102  0.739505  0.555073  1
  P  P9  1  0.575898  0.239505  0.944927  1
  P  P10  1  0.174630  0.199287  0.446178  1
  P  P11  1  0.825370  0.699287  0.053822  1
  O  O12  1  0.390677  0.352830  0.944403  1
  O  O13  1  0.303823  0.805039  0.887803  1
  O  O14  1  0.146817  0.113964  0.900290  1
  O  O15  1  0.961221  0.922693  0.669429  1
  O  O16  1  0.826419  0.815839  0.388712  1
  O  O17  1  0.038779  0.422693  0.830571  1
  O  O18  1  0.853183  0.613964  0.599710  1
  O  O19  1  0.707097  0.143369  0.392766  1
  O  O20  1  0.502920  0.915042  0.158486  1
  O  O21  1  0.696177  0.305039  0.612197  1
  O  O22  1  0.826419  0.684161  0.888712  1
  O  O23  1  0.609323  0.852830  0.555597  1
  O  O24  1  0.497080  0.415042  0.341514  1
  O  O25  1  0.707097  0.356631  0.892766  1
  O  O26  1  0.292903  0.643369  0.107234  1
  O  O27  1  0.502920  0.584958  0.658486  1
  O  O28  1  0.390677  0.147170  0.444403  1
  O  O29  1  0.173581  0.315839  0.111288  1
  O  O30  1  0.303823  0.694961  0.387803  1
  O  O31  1  0.497080  0.084958  0.841514  1
  O  O32  1  0.292903  0.856631  0.607234  1
  O  O33  1  0.146817  0.386036  0.400290  1
  O  O34  1  0.961221  0.577307  0.169429  1
  O  O35  1  0.173581  0.184161  0.611288  1
  O  O36  1  0.038779  0.077307  0.330571  1
  O  O37  1  0.853183  0.886036  0.099710  1
  O  O38  1  0.696177  0.194961  0.112197  1
  O  O39  1  0.609323  0.647170  0.055597  1
