# generated using pymatgen
data_SiO2
_symmetry_space_group_name_H-M   'P 1'
_cell_length_a   12.67903246
_cell_length_b   12.67903246
_cell_length_c   12.69383362
_cell_angle_alpha   90.00000000
_cell_angle_beta   90.00000000
_cell_angle_gamma   114.89167462
_symmetry_Int_Tables_number   1
_chemical_formula_structural   SiO2
_chemical_formula_sum   'Si28 O56'
_cell_volume   1851.06929764
_cell_formula_units_Z   28
loop_
 _symmetry_equiv_pos_site_id
 _symmetry_equiv_pos_as_xyz
  1  'x, y, z'
loop_
 _atom_site_type_symbol
 _atom_site_label
 _atom_site_symmetry_multiplicity
 _atom_site_fract_x
 _atom_site_fract_y
 _atom_site_fract_z
 _atom_site_occupancy
  Si  Si0  1  0.048134  0.192110  0.375594  1
  Si  Si1  1  0.046864  0.197538  0.000000  1
  Si  Si2  1  0.399968  0.838050  0.126390  1
  Si  Si3  1  0.962452  0.816805  0.623167  1
  Si  Si4  1  0.956543  0.656823  0.191173  1
  Si  Si5  1  0.612516  0.175075  0.126668  1
  Si  Si6  1  0.399968  0.838050  0.873610  1
  Si  Si7  1  0.357590  0.056104  0.194083  1
  Si  Si8  1  0.357590  0.056104  0.805917  1
  Si  Si9  1  0.175075  0.612516  0.873332  1
  Si  Si10  1  0.192110  0.048134  0.624406  1
  Si  Si11  1  0.971813  0.821653  0.000000  1
  Si  Si12  1  0.816805  0.962452  0.376833  1
  Si  Si13  1  0.838050  0.399968  0.873610  1
  Si  Si14  1  0.656823  0.956543  0.808827  1
  Si  Si15  1  0.956543  0.656823  0.808827  1
  Si  Si16  1  0.056104  0.357590  0.805917  1
  Si  Si17  1  0.612516  0.175075  0.873332  1
  Si  Si18  1  0.816805  0.962452  0.623167  1
  Si  Si19  1  0.821653  0.971813  0.000000  1
  Si  Si20  1  0.962452  0.816805  0.376833  1
  Si  Si21  1  0.197538  0.046864  1.000000  1
  Si  Si22  1  0.192110  0.048134  0.375594  1
  Si  Si23  1  0.175075  0.612516  0.126668  1
  Si  Si24  1  0.838050  0.399968  0.126390  1
  Si  Si25  1  0.056104  0.357590  0.194083  1
  Si  Si26  1  0.048134  0.192110  0.624406  1
  Si  Si27  1  0.656823  0.956543  0.191173  1
  O  O28  1  0.780920  0.959750  0.500000  1
  O  O29  1  0.927007  0.354684  0.817965  1
  O  O30  1  0.125251  0.125251  0.000000  1
  O  O31  1  0.490142  0.155576  0.182202  1
  O  O32  1  0.067763  0.308124  0.309328  1
  O  O33  1  0.702564  0.941843  0.307271  1
  O  O34  1  0.085630  0.659967  0.178111  1
  O  O35  1  0.938685  0.741284  0.104300  1
  O  O36  1  0.055093  0.224124  0.500000  1
  O  O37  1  0.412380  0.863454  0.000000  1
  O  O38  1  0.856749  0.524939  0.175734  1
  O  O39  1  0.524939  0.856749  0.175734  1
  O  O40  1  0.277585  0.077333  0.104562  1
  O  O41  1  0.941843  0.702564  0.307271  1
  O  O42  1  0.067763  0.308124  0.690672  1
  O  O43  1  0.077333  0.277585  0.895438  1
  O  O44  1  0.155576  0.490142  0.817798  1
  O  O45  1  0.149192  0.149192  0.654410  1
  O  O46  1  0.659967  0.085630  0.178111  1
  O  O47  1  0.524939  0.856749  0.824266  1
  O  O48  1  0.088810  0.920904  0.347350  1
  O  O49  1  0.659967  0.085630  0.821889  1
  O  O50  1  0.277585  0.077333  0.895438  1
  O  O51  1  0.741284  0.938685  0.895700  1
  O  O52  1  0.920904  0.088810  0.347350  1
  O  O53  1  0.856749  0.524939  0.824266  1
  O  O54  1  0.705006  0.308016  0.149465  1
  O  O55  1  0.594242  0.151451  1.000000  1
  O  O56  1  0.959750  0.780920  0.500000  1
  O  O57  1  0.077333  0.277585  0.104562  1
  O  O58  1  0.155576  0.490142  0.182202  1
  O  O59  1  0.149192  0.149192  0.345590  1
  O  O60  1  0.860205  0.860205  0.646489  1
  O  O61  1  0.354684  0.927007  0.817965  1
  O  O62  1  0.927007  0.354684  0.182035  1
  O  O63  1  0.088810  0.920904  0.652650  1
  O  O64  1  0.490142  0.155576  0.817798  1
  O  O65  1  0.896831  0.896831  0.000000  1
  O  O66  1  0.308124  0.067763  0.690672  1
  O  O67  1  0.151451  0.594242  0.000000  1
  O  O68  1  0.224124  0.055093  0.500000  1
  O  O69  1  0.908679  0.109998  0.000000  1
  O  O70  1  0.702564  0.941843  0.692729  1
  O  O71  1  0.705006  0.308016  0.850535  1
  O  O72  1  0.920904  0.088810  0.652650  1
  O  O73  1  0.085630  0.659967  0.821889  1
  O  O74  1  0.860205  0.860205  0.353511  1
  O  O75  1  0.354684  0.927007  0.182035  1
  O  O76  1  0.308016  0.705006  0.850535  1
  O  O77  1  0.941843  0.702564  0.692729  1
  O  O78  1  0.863454  0.412380  1.000000  1
  O  O79  1  0.308016  0.705006  0.149465  1
  O  O80  1  0.109998  0.908679  1.000000  1
  O  O81  1  0.308124  0.067763  0.309328  1
  O  O82  1  0.741284  0.938685  0.104300  1
  O  O83  1  0.938685  0.741284  0.895700  1
