# generated using pymatgen
data_GdMg(BO2)5
_symmetry_space_group_name_H-M   'P 1'
_cell_length_a   8.72523539
_cell_length_b   7.65121559
_cell_length_c   12.52205128
_cell_angle_alpha   90.00000000
_cell_angle_beta   131.17997529
_cell_angle_gamma   90.00000000
_symmetry_Int_Tables_number   1
_chemical_formula_structural   GdMg(BO2)5
_chemical_formula_sum   'Gd4 Mg4 B20 O40'
_cell_volume   629.17765838
_cell_formula_units_Z   4
loop_
 _symmetry_equiv_pos_site_id
 _symmetry_equiv_pos_as_xyz
  1  'x, y, z'
loop_
 _atom_site_type_symbol
 _atom_site_label
 _atom_site_symmetry_multiplicity
 _atom_site_fract_x
 _atom_site_fract_y
 _atom_site_fract_z
 _atom_site_occupancy
  Gd  Gd0  1  0.949187  0.689489  0.761844  1
  Gd  Gd1  1  0.050813  0.310511  0.238156  1
  Gd  Gd2  1  0.949187  0.810511  0.261844  1
  Gd  Gd3  1  0.050813  0.189489  0.738156  1
  Mg  Mg4  1  0.521870  0.089783  0.126304  1
  Mg  Mg5  1  0.521870  0.410217  0.626304  1
  Mg  Mg6  1  0.478130  0.910217  0.873696  1
  Mg  Mg7  1  0.478130  0.589783  0.373696  1
  B  B8  1  0.846178  0.097915  0.000979  1
  B  B9  1  0.653304  0.421542  0.238361  1
  B  B10  1  0.520016  0.687962  0.087401  1
  B  B11  1  0.908623  0.172024  0.393436  1
  B  B12  1  0.725231  0.531033  0.946338  1
  B  B13  1  0.725231  0.968967  0.446338  1
  B  B14  1  0.653304  0.078458  0.738361  1
  B  B15  1  0.846178  0.402085  0.500979  1
  B  B16  1  0.479984  0.187962  0.412599  1
  B  B17  1  0.091377  0.827976  0.606564  1
  B  B18  1  0.479984  0.312038  0.912599  1
  B  B19  1  0.520016  0.812038  0.587401  1
  B  B20  1  0.091377  0.672024  0.106564  1
  B  B21  1  0.274769  0.031033  0.553662  1
  B  B22  1  0.346696  0.578458  0.761639  1
  B  B23  1  0.274769  0.468967  0.053662  1
  B  B24  1  0.346696  0.921542  0.261639  1
  B  B25  1  0.153822  0.902085  0.999021  1
  B  B26  1  0.153822  0.597915  0.499021  1
  B  B27  1  0.908623  0.327976  0.893436  1
  O  O28  1  0.316743  0.414199  0.806975  1
  O  O29  1  0.552428  0.848745  0.369298  1
  O  O30  1  0.685107  0.465614  0.368658  1
  O  O31  1  0.683257  0.914199  0.693025  1
  O  O32  1  0.685107  0.034386  0.868658  1
  O  O33  1  0.087735  0.104805  0.415728  1
  O  O34  1  0.116134  0.544601  0.380334  1
  O  O35  1  0.314893  0.965614  0.131342  1
  O  O36  1  0.026460  0.773331  0.982851  1
  O  O37  1  0.764618  0.027675  0.352558  1
  O  O38  1  0.675987  0.372167  0.991212  1
  O  O39  1  0.973540  0.226669  0.017149  1
  O  O40  1  0.764618  0.472325  0.852558  1
  O  O41  1  0.883866  0.455399  0.619666  1
  O  O42  1  0.447572  0.151255  0.630702  1
  O  O43  1  0.314893  0.534386  0.631342  1
  O  O44  1  0.883866  0.044601  0.119666  1
  O  O45  1  0.552428  0.651255  0.869298  1
  O  O46  1  0.203155  0.785781  0.234696  1
  O  O47  1  0.087735  0.395195  0.915728  1
  O  O48  1  0.235382  0.972325  0.647442  1
  O  O49  1  0.324013  0.627833  0.008788  1
  O  O50  1  0.425965  0.150768  0.927598  1
  O  O51  1  0.574035  0.650768  0.572402  1
  O  O52  1  0.316743  0.085801  0.306975  1
  O  O53  1  0.675987  0.127833  0.491212  1
  O  O54  1  0.447572  0.348745  0.130702  1
  O  O55  1  0.912265  0.895195  0.584272  1
  O  O56  1  0.116134  0.955399  0.880334  1
  O  O57  1  0.574035  0.849232  0.072402  1
  O  O58  1  0.973540  0.273331  0.517149  1
  O  O59  1  0.683257  0.585801  0.193025  1
  O  O60  1  0.796845  0.285781  0.265304  1
  O  O61  1  0.324013  0.872167  0.508788  1
  O  O62  1  0.026460  0.726669  0.482851  1
  O  O63  1  0.796845  0.214219  0.765304  1
  O  O64  1  0.912265  0.604805  0.084272  1
  O  O65  1  0.235382  0.527675  0.147442  1
  O  O66  1  0.203155  0.714219  0.734696  1
  O  O67  1  0.425965  0.349232  0.427598  1
