# generated using pymatgen
data_Yb3GeO
_symmetry_space_group_name_H-M   'P 1'
_cell_length_a   6.58064534
_cell_length_b   6.59302561
_cell_length_c   9.32698846
_cell_angle_alpha   90.00000000
_cell_angle_beta   90.00000000
_cell_angle_gamma   90.00000000
_symmetry_Int_Tables_number   1
_chemical_formula_structural   Yb3GeO
_chemical_formula_sum   'Yb12 Ge4 O4'
_cell_volume   404.66410942
_cell_formula_units_Z   4
loop_
 _symmetry_equiv_pos_site_id
 _symmetry_equiv_pos_as_xyz
  1  'x, y, z'
loop_
 _atom_site_type_symbol
 _atom_site_label
 _atom_site_symmetry_multiplicity
 _atom_site_fract_x
 _atom_site_fract_y
 _atom_site_fract_z
 _atom_site_occupancy
  Yb  Yb0  1  0.772796  0.227160  0.479124  1
  Yb  Yb1  1  0.272796  0.272840  0.479124  1
  Yb  Yb2  1  0.503339  0.040954  0.750000  1
  Yb  Yb3  1  0.496661  0.959046  0.250000  1
  Yb  Yb4  1  0.996661  0.540954  0.250000  1
  Yb  Yb5  1  0.727204  0.727160  0.520876  1
  Yb  Yb6  1  0.227204  0.772840  0.520876  1
  Yb  Yb7  1  0.272796  0.272840  0.020876  1
  Yb  Yb8  1  0.003338  0.459046  0.750000  1
  Yb  Yb9  1  0.772796  0.227160  0.020876  1
  Yb  Yb10  1  0.727204  0.727160  0.979124  1
  Yb  Yb11  1  0.227204  0.772840  0.979124  1
  Ge  Ge12  1  0.987725  0.997684  0.750000  1
  Ge  Ge13  1  0.487725  0.502316  0.750000  1
  Ge  Ge14  1  0.012275  0.002316  0.250000  1
  Ge  Ge15  1  0.512275  0.497684  0.250000  1
  O  O16  1  0.500000  0.000000  0.000000  1
  O  O17  1  0.500000  0.000000  0.500000  1
  O  O18  1  0.000000  0.500000  0.500000  1
  O  O19  1  0.000000  0.500000  0.000000  1
