# generated using pymatgen
data_K2LaP2S7
_symmetry_space_group_name_H-M   'P 1'
_cell_length_a   9.27786296
_cell_length_b   6.93051804
_cell_length_c   21.35217675
_cell_angle_alpha   90.00000000
_cell_angle_beta   108.86026090
_cell_angle_gamma   90.00000000
_symmetry_Int_Tables_number   1
_chemical_formula_structural   K2LaP2S7
_chemical_formula_sum   'K8 La4 P8 S28'
_cell_volume   1299.23927968
_cell_formula_units_Z   4
loop_
 _symmetry_equiv_pos_site_id
 _symmetry_equiv_pos_as_xyz
  1  'x, y, z'
loop_
 _atom_site_type_symbol
 _atom_site_label
 _atom_site_symmetry_multiplicity
 _atom_site_fract_x
 _atom_site_fract_y
 _atom_site_fract_z
 _atom_site_occupancy
  K  K0  1  0.159740  0.030143  0.810322  1
  K  K1  1  0.840260  0.530143  0.689678  1
  K  K2  1  0.840260  0.969857  0.189678  1
  K  K3  1  0.159740  0.469857  0.310322  1
  K  K4  1  0.251700  0.512499  0.989744  1
  K  K5  1  0.748300  0.012499  0.510256  1
  K  K6  1  0.748300  0.487501  0.010256  1
  K  K7  1  0.251700  0.987501  0.489744  1
  La  La8  1  0.660606  0.973425  0.849532  1
  La  La9  1  0.339394  0.473425  0.650468  1
  La  La10  1  0.339394  0.026575  0.150468  1
  La  La11  1  0.660606  0.526575  0.349532  1
  P  P12  1  0.427725  0.516940  0.830780  1
  P  P13  1  0.572275  0.016940  0.669220  1
  P  P14  1  0.572275  0.483060  0.169220  1
  P  P15  1  0.427725  0.983060  0.330780  1
  P  P16  1  0.039531  0.010793  0.956088  1
  P  P17  1  0.960469  0.510793  0.543912  1
  P  P18  1  0.960469  0.989207  0.043912  1
  P  P19  1  0.039531  0.489207  0.456088  1
  S  S20  1  0.732036  0.966174  0.005513  1
  S  S21  1  0.267964  0.466174  0.494487  1
  S  S22  1  0.267964  0.033826  0.994487  1
  S  S23  1  0.732036  0.533826  0.505513  1
  S  S24  1  0.582733  0.573780  0.781790  1
  S  S25  1  0.417267  0.073780  0.718210  1
  S  S26  1  0.417267  0.426220  0.218210  1
  S  S27  1  0.582733  0.926220  0.281790  1
  S  S28  1  0.783800  0.988141  0.739182  1
  S  S29  1  0.216200  0.488141  0.760818  1
  S  S30  1  0.216200  0.011859  0.260818  1
  S  S31  1  0.783800  0.511859  0.239182  1
  S  S32  1  0.478155  0.277090  0.889775  1
  S  S33  1  0.521845  0.777090  0.610225  1
  S  S34  1  0.521845  0.722910  0.110225  1
  S  S35  1  0.478155  0.222910  0.389775  1
  S  S36  1  0.959977  0.768362  0.901277  1
  S  S37  1  0.040023  0.268362  0.598723  1
  S  S38  1  0.040023  0.231638  0.098723  1
  S  S39  1  0.959977  0.731638  0.401277  1
  S  S40  1  0.931276  0.244204  0.903699  1
  S  S41  1  0.068724  0.744204  0.596301  1
  S  S42  1  0.068724  0.755796  0.096301  1
  S  S43  1  0.931276  0.255796  0.403699  1
  S  S44  1  0.433694  0.746565  0.891584  1
  S  S45  1  0.566306  0.246565  0.608416  1
  S  S46  1  0.566306  0.253435  0.108416  1
  S  S47  1  0.433694  0.753435  0.391584  1
