# generated using pymatgen
data_NaZrCuTe3
_symmetry_space_group_name_H-M   'P 1'
_cell_length_a   4.08747763
_cell_length_b   11.09243904
_cell_length_c   14.78644416
_cell_angle_alpha   90.00000000
_cell_angle_beta   90.00000000
_cell_angle_gamma   90.00000000
_symmetry_Int_Tables_number   1
_chemical_formula_structural   NaZrCuTe3
_chemical_formula_sum   'Na4 Zr4 Cu4 Te12'
_cell_volume   670.41880419
_cell_formula_units_Z   4
loop_
 _symmetry_equiv_pos_site_id
 _symmetry_equiv_pos_as_xyz
  1  'x, y, z'
loop_
 _atom_site_type_symbol
 _atom_site_label
 _atom_site_symmetry_multiplicity
 _atom_site_fract_x
 _atom_site_fract_y
 _atom_site_fract_z
 _atom_site_occupancy
  Na  Na0  1  0.250000  0.549903  0.726994  1
  Na  Na1  1  0.750000  0.450097  0.273006  1
  Na  Na2  1  0.750000  0.049903  0.773006  1
  Na  Na3  1  0.250000  0.950097  0.226994  1
  Zr  Zr4  1  0.250000  0.816645  0.510149  1
  Zr  Zr5  1  0.750000  0.183355  0.489851  1
  Zr  Zr6  1  0.750000  0.316645  0.989851  1
  Zr  Zr7  1  0.250000  0.683355  0.010149  1
  Cu  Cu8  1  0.250000  0.093217  0.991625  1
  Cu  Cu9  1  0.750000  0.906783  0.008375  1
  Cu  Cu10  1  0.750000  0.593217  0.508375  1
  Cu  Cu11  1  0.250000  0.406783  0.491625  1
  Te  Te12  1  0.250000  0.062238  0.602153  1
  Te  Te13  1  0.750000  0.937762  0.397847  1
  Te  Te14  1  0.750000  0.562238  0.897847  1
  Te  Te15  1  0.250000  0.437762  0.102153  1
  Te  Te16  1  0.250000  0.885715  0.894168  1
  Te  Te17  1  0.750000  0.114285  0.105832  1
  Te  Te18  1  0.750000  0.385715  0.605832  1
  Te  Te19  1  0.250000  0.614285  0.394168  1
  Te  Te20  1  0.250000  0.251432  0.858975  1
  Te  Te21  1  0.750000  0.748568  0.141025  1
  Te  Te22  1  0.750000  0.751432  0.641025  1
  Te  Te23  1  0.250000  0.248568  0.358975  1
