# generated using pymatgen
data_FeP2O7
_symmetry_space_group_name_H-M   'P 1'
_cell_length_a   6.38063798
_cell_length_b   6.58895002
_cell_length_c   6.95174758
_cell_angle_alpha   88.84184937
_cell_angle_beta   113.99482505
_cell_angle_gamma   94.90013263
_symmetry_Int_Tables_number   1
_chemical_formula_structural   FeP2O7
_chemical_formula_sum   'Fe2 P4 O14'
_cell_volume   265.99681297
_cell_formula_units_Z   2
loop_
 _symmetry_equiv_pos_site_id
 _symmetry_equiv_pos_as_xyz
  1  'x, y, z'
loop_
 _atom_site_type_symbol
 _atom_site_label
 _atom_site_symmetry_multiplicity
 _atom_site_fract_x
 _atom_site_fract_y
 _atom_site_fract_z
 _atom_site_occupancy
  Fe  Fe0  1  0.099672  0.348653  0.213895  1
  Fe  Fe1  1  0.900328  0.651347  0.786105  1
  P  P2  1  0.338474  0.613227  0.652869  1
  P  P3  1  0.661526  0.386773  0.347131  1
  P  P4  1  0.220268  0.857773  0.251079  1
  P  P5  1  0.779732  0.142227  0.748921  1
  O  O6  1  0.405504  0.381665  0.207447  1
  O  O7  1  0.576768  0.102590  0.812857  1
  O  O8  1  0.423232  0.897410  0.187143  1
  O  O9  1  0.906944  0.951596  0.773147  1
  O  O10  1  0.306701  0.803616  0.494198  1
  O  O11  1  0.207054  0.652947  0.786195  1
  O  O12  1  0.066074  0.669152  0.124162  1
  O  O13  1  0.594496  0.618335  0.792553  1
  O  O14  1  0.693299  0.196384  0.505802  1
  O  O15  1  0.242672  0.421266  0.514785  1
  O  O16  1  0.093056  0.048404  0.226853  1
  O  O17  1  0.933926  0.330848  0.875838  1
  O  O18  1  0.792946  0.347053  0.213805  1
  O  O19  1  0.757328  0.578734  0.485215  1
