# generated using pymatgen
data_TlBi25O39
_symmetry_space_group_name_H-M   'P 1'
_cell_length_a   9.01738900
_cell_length_b   9.01872155
_cell_length_c   14.68172475
_cell_angle_alpha   90.16505915
_cell_angle_beta   90.09363877
_cell_angle_gamma   109.62967098
_symmetry_Int_Tables_number   1
_chemical_formula_structural   TlBi25O39
_chemical_formula_sum   'Tl1 Bi25 O39'
_cell_volume   1124.59627804
_cell_formula_units_Z   1
loop_
 _symmetry_equiv_pos_site_id
 _symmetry_equiv_pos_as_xyz
  1  'x, y, z'
loop_
 _atom_site_type_symbol
 _atom_site_label
 _atom_site_symmetry_multiplicity
 _atom_site_fract_x
 _atom_site_fract_y
 _atom_site_fract_z
 _atom_site_occupancy
  Tl  Tl0  1  0.500841  0.504285  0.497235  1
  Bi  Bi1  1  0.024125  0.325214  0.167348  1
  Bi  Bi2  1  0.394179  0.233918  0.097050  1
  Bi  Bi3  1  0.832883  0.524115  0.334134  1
  Bi  Bi4  1  0.241242  0.741321  0.428076  1
  Bi  Bi5  1  0.530203  0.832766  0.663040  1
  Bi  Bi6  1  0.772598  0.578722  0.083133  1
  Bi  Bi7  1  0.903913  0.733835  0.596364  1
  Bi  Bi8  1  0.444679  0.582319  0.253303  1
  Bi  Bi9  1  0.083813  0.945186  0.247137  1
  Bi  Bi10  1  0.331642  0.023929  0.831408  1
  Bi  Bi11  1  0.732397  0.232145  0.928889  1
  Bi  Bi12  1  0.736048  0.903381  0.405989  1
  Bi  Bi13  1  0.226175  0.733718  0.076398  1
  Bi  Bi14  1  0.276794  0.088282  0.581802  1
  Bi  Bi15  1  0.653714  0.988144  0.154388  1
  Bi  Bi16  1  0.937848  0.094059  0.740196  1
  Bi  Bi17  1  0.581406  0.446874  0.748341  1
  Bi  Bi18  1  0.088219  0.274908  0.415247  1
  Bi  Bi19  1  0.232268  0.384940  0.909208  1
  Bi  Bi20  1  0.487249  0.159131  0.345814  1
  Bi  Bi21  1  0.733972  0.253135  0.565986  1
  Bi  Bi22  1  0.172978  0.492283  0.647456  1
  Bi  Bi23  1  0.561073  0.767101  0.920831  1
  Bi  Bi24  1  0.995865  0.638199  0.842354  1
  Bi  Bi25  1  0.984035  0.980192  0.986391  1
  O  O26  1  0.062960  0.424883  0.311025  1
  O  O27  1  0.699374  0.321234  0.057172  1
  O  O28  1  0.133694  0.500720  0.500071  1
  O  O29  1  0.550788  0.436319  0.186490  1
  O  O30  1  0.379980  0.379515  0.376729  1
  O  O31  1  0.742361  0.496720  0.502230  1
  O  O32  1  0.926331  0.565002  0.188625  1
  O  O33  1  0.002988  0.736598  0.377180  1
  O  O34  1  0.563974  0.923462  0.813676  1
  O  O35  1  0.232777  0.498044  0.120827  1
  O  O36  1  0.197287  0.822973  0.557114  1
  O  O37  1  0.686363  0.686014  0.315914  1
  O  O38  1  0.627604  0.000673  0.000202  1
  O  O39  1  0.688745  0.689515  0.689202  1
  O  O40  1  0.508049  0.749633  0.502671  1
  O  O41  1  0.045039  0.936039  0.690177  1
  O  O42  1  0.506821  0.754028  0.130318  1
  O  O43  1  0.895122  0.899006  0.117050  1
  O  O44  1  0.256052  0.005517  0.369629  1
  O  O45  1  0.423546  0.067236  0.689924  1
  O  O46  1  0.499257  0.235853  0.878896  1
  O  O47  1  0.936126  0.050909  0.311855  1
  O  O48  1  0.566460  0.944897  0.320265  1
  O  O49  1  0.743113  0.008066  0.626254  1
  O  O50  1  0.183570  0.182707  0.815805  1
  O  O51  1  0.008185  0.222382  0.001668  1
  O  O52  1  0.016520  0.257264  0.630758  1
  O  O53  1  0.442311  0.065860  0.180755  1
  O  O54  1  0.377497  0.385597  0.620686  1
  O  O55  1  0.821831  0.199830  0.442183  1
  O  O56  1  0.756741  0.512547  0.866982  1
  O  O57  1  0.500588  0.134373  0.500754  1
  O  O58  1  0.431779  0.546969  0.817582  1
  O  O59  1  0.061933  0.432881  0.824180  1
  O  O60  1  0.194853  0.195050  0.195199  1
  O  O61  1  0.950641  0.567523  0.682885  1
  O  O62  1  0.313434  0.702266  0.944715  1
  O  O63  1  0.998935  0.628577  0.999553  1
  O  O64  1  0.223213  0.003213  0.007283  1
