# generated using pymatgen
data_Ta3Te14Pd3
_symmetry_space_group_name_H-M   'P 1'
_cell_length_a   14.82459064
_cell_length_b   3.79574000
_cell_length_c   21.26101747
_cell_angle_alpha   90.00000000
_cell_angle_beta   106.12753626
_cell_angle_gamma   90.00000000
_symmetry_Int_Tables_number   1
_chemical_formula_structural   Ta3Te14Pd3
_chemical_formula_sum   'Ta6 Te28 Pd6'
_cell_volume   1149.28167986
_cell_formula_units_Z   2
loop_
 _symmetry_equiv_pos_site_id
 _symmetry_equiv_pos_as_xyz
  1  'x, y, z'
loop_
 _atom_site_type_symbol
 _atom_site_label
 _atom_site_symmetry_multiplicity
 _atom_site_fract_x
 _atom_site_fract_y
 _atom_site_fract_z
 _atom_site_occupancy
  Ta  Ta0  1  0.300174  0.750000  0.544000  1
  Ta  Ta1  1  0.699826  0.250000  0.456000  1
  Ta  Ta2  1  0.946066  0.750000  0.189587  1
  Ta  Ta3  1  0.053934  0.250000  0.810413  1
  Ta  Ta4  1  0.575983  0.750000  0.844564  1
  Ta  Ta5  1  0.424017  0.250000  0.155436  1
  Te  Te6  1  0.313414  0.250000  0.446576  1
  Te  Te7  1  0.686586  0.750000  0.553424  1
  Te  Te8  1  0.139683  0.750000  0.276439  1
  Te  Te9  1  0.860317  0.250000  0.723561  1
  Te  Te10  1  0.611825  0.750000  0.987083  1
  Te  Te11  1  0.388175  0.250000  0.012917  1
  Te  Te12  1  0.722919  0.250000  0.887144  1
  Te  Te13  1  0.277081  0.750000  0.112856  1
  Te  Te14  1  0.449440  0.250000  0.587419  1
  Te  Te15  1  0.550560  0.750000  0.412581  1
  Te  Te16  1  0.186894  0.250000  0.589905  1
  Te  Te17  1  0.813106  0.750000  0.410095  1
  Te  Te18  1  0.886411  0.750000  0.046889  1
  Te  Te19  1  0.113589  0.250000  0.953111  1
  Te  Te20  1  0.795179  0.250000  0.153768  1
  Te  Te21  1  0.204821  0.750000  0.846232  1
  Te  Te22  1  0.341791  0.750000  0.686169  1
  Te  Te23  1  0.658209  0.250000  0.313831  1
  Te  Te24  1  0.946075  0.250000  0.290637  1
  Te  Te25  1  0.053925  0.750000  0.709363  1
  Te  Te26  1  0.616947  0.750000  0.729807  1
  Te  Te27  1  0.383053  0.250000  0.270193  1
  Te  Te28  1  0.054441  0.250000  0.139511  1
  Te  Te29  1  0.945559  0.750000  0.860489  1
  Te  Te30  1  0.440331  0.250000  0.847451  1
  Te  Te31  1  0.559669  0.750000  0.152549  1
  Te  Te32  1  0.110878  0.750000  0.452892  1
  Te  Te33  1  0.889122  0.250000  0.547108  1
  Pd  Pd34  1  0.748855  0.250000  0.018869  1
  Pd  Pd35  1  0.251145  0.750000  0.981131  1
  Pd  Pd36  1  0.128951  0.250000  0.365322  1
  Pd  Pd37  1  0.871049  0.750000  0.634678  1
  Pd  Pd38  1  0.481127  0.250000  0.727383  1
  Pd  Pd39  1  0.518873  0.750000  0.272617  1
