# generated using pymatgen
data_CsIn3
_symmetry_space_group_name_H-M   'P 1'
_cell_length_a   10.00061839
_cell_length_b   10.00061839
_cell_length_c   10.00061839
_cell_angle_alpha   137.49042269
_cell_angle_beta   137.49042269
_cell_angle_gamma   61.68434302
_symmetry_Int_Tables_number   1
_chemical_formula_structural   CsIn3
_chemical_formula_sum   'Cs3 In9'
_cell_volume   451.41598175
_cell_formula_units_Z   3
loop_
 _symmetry_equiv_pos_site_id
 _symmetry_equiv_pos_as_xyz
  1  'x, y, z'
loop_
 _atom_site_type_symbol
 _atom_site_label
 _atom_site_symmetry_multiplicity
 _atom_site_fract_x
 _atom_site_fract_y
 _atom_site_fract_z
 _atom_site_occupancy
  Cs  Cs0  1  0.000000  0.000000  0.000000  1
  Cs  Cs1  1  0.627621  0.127621  0.500000  1
  Cs  Cs2  1  0.872379  0.372379  0.500000  1
  In  In3  1  0.500000  0.500000  0.000000  1
  In  In4  1  0.305653  0.608765  0.696888  1
  In  In5  1  0.391235  0.088123  0.696888  1
  In  In6  1  0.391235  0.694347  0.303112  1
  In  In7  1  0.911877  0.608765  0.303112  1
  In  In8  1  0.572459  0.779160  0.793299  1
  In  In9  1  0.220840  0.014139  0.793299  1
  In  In10  1  0.220840  0.427541  0.206701  1
  In  In11  1  0.985861  0.779160  0.206701  1
