# generated using pymatgen
data_Ca3Nb4(O6F)2
_symmetry_space_group_name_H-M   'P 1'
_cell_length_a   10.58895148
_cell_length_b   10.58895148
_cell_length_c   10.58895148
_cell_angle_alpha   90.00000000
_cell_angle_beta   90.00000000
_cell_angle_gamma   90.00000000
_symmetry_Int_Tables_number   1
_chemical_formula_structural   Ca3Nb4(O6F)2
_chemical_formula_sum   'Ca12 Nb16 O48 F8'
_cell_volume   1187.29564535
_cell_formula_units_Z   4
loop_
 _symmetry_equiv_pos_site_id
 _symmetry_equiv_pos_as_xyz
  1  'x, y, z'
loop_
 _atom_site_type_symbol
 _atom_site_label
 _atom_site_symmetry_multiplicity
 _atom_site_fract_x
 _atom_site_fract_y
 _atom_site_fract_z
 _atom_site_occupancy
  Ca  Ca0  1  0.875000  0.863835  0.613835  1
  Ca  Ca1  1  0.886165  0.125000  0.363835  1
  Ca  Ca2  1  0.636165  0.386165  0.375000  1
  Ca  Ca3  1  0.863835  0.613835  0.875000  1
  Ca  Ca4  1  0.375000  0.636165  0.386165  1
  Ca  Ca5  1  0.125000  0.363835  0.886165  1
  Ca  Ca6  1  0.363835  0.886165  0.125000  1
  Ca  Ca7  1  0.625000  0.136165  0.113835  1
  Ca  Ca8  1  0.113835  0.625000  0.136165  1
  Ca  Ca9  1  0.613835  0.875000  0.863835  1
  Ca  Ca10  1  0.136165  0.113835  0.625000  1
  Ca  Ca11  1  0.386165  0.375000  0.636165  1
  Nb  Nb12  1  0.875000  0.123849  0.873849  1
  Nb  Nb13  1  0.873849  0.875000  0.123849  1
  Nb  Nb14  1  0.373849  0.625000  0.876151  1
  Nb  Nb15  1  0.875000  0.625000  0.375000  1
  Nb  Nb16  1  0.626151  0.125000  0.623849  1
  Nb  Nb17  1  0.375000  0.376151  0.126151  1
  Nb  Nb18  1  0.375000  0.875000  0.625000  1
  Nb  Nb19  1  0.126151  0.375000  0.376151  1
  Nb  Nb20  1  0.123849  0.873849  0.875000  1
  Nb  Nb21  1  0.125000  0.623849  0.626151  1
  Nb  Nb22  1  0.625000  0.375000  0.875000  1
  Nb  Nb23  1  0.623849  0.626151  0.125000  1
  Nb  Nb24  1  0.376151  0.126151  0.375000  1
  Nb  Nb25  1  0.876151  0.373849  0.625000  1
  Nb  Nb26  1  0.625000  0.876151  0.373849  1
  Nb  Nb27  1  0.125000  0.125000  0.125000  1
  O  O28  1  0.001653  0.495313  0.697136  1
  O  O29  1  0.312340  0.010090  0.508236  1
  O  O30  1  0.491764  0.812340  0.489910  1
  O  O31  1  0.251653  0.447136  0.254687  1
  O  O32  1  0.062340  0.241764  0.260090  1
  O  O33  1  0.989910  0.008236  0.187660  1
  O  O34  1  0.052864  0.745313  0.751653  1
  O  O35  1  0.739910  0.562340  0.258236  1
  O  O36  1  0.991764  0.687660  0.510090  1
  O  O37  1  0.741764  0.239910  0.937660  1
  O  O38  1  0.495313  0.697136  0.001653  1
  O  O39  1  0.004687  0.302864  0.501653  1
  O  O40  1  0.501653  0.004687  0.302864  1
  O  O41  1  0.687660  0.510090  0.991764  1
  O  O42  1  0.995313  0.802864  0.998347  1
  O  O43  1  0.498347  0.504687  0.197136  1
  O  O44  1  0.802864  0.998347  0.995313  1
  O  O45  1  0.241764  0.260090  0.062340  1
  O  O46  1  0.758236  0.760090  0.437660  1
  O  O47  1  0.302864  0.501653  0.004687  1
  O  O48  1  0.254687  0.251653  0.447136  1
  O  O49  1  0.937660  0.741764  0.239910  1
  O  O50  1  0.248347  0.552864  0.754687  1
  O  O51  1  0.504687  0.197136  0.498347  1
  O  O52  1  0.437660  0.758236  0.760090  1
  O  O53  1  0.697136  0.001653  0.495313  1
  O  O54  1  0.998347  0.995313  0.802864  1
  O  O55  1  0.239910  0.937660  0.741764  1
  O  O56  1  0.245313  0.748347  0.947136  1
  O  O57  1  0.745313  0.751653  0.052864  1
  O  O58  1  0.197136  0.498347  0.504687  1
  O  O59  1  0.187660  0.989910  0.008236  1
  O  O60  1  0.562340  0.258236  0.739910  1
  O  O61  1  0.258236  0.739910  0.562340  1
  O  O62  1  0.489910  0.491764  0.812340  1
  O  O63  1  0.751653  0.052864  0.745313  1
  O  O64  1  0.447136  0.254687  0.251653  1
  O  O65  1  0.760090  0.437660  0.758236  1
  O  O66  1  0.754687  0.248347  0.552864  1
  O  O67  1  0.010090  0.508236  0.312340  1
  O  O68  1  0.552864  0.754687  0.248347  1
  O  O69  1  0.947136  0.245313  0.748347  1
  O  O70  1  0.260090  0.062340  0.241764  1
  O  O71  1  0.748347  0.947136  0.245313  1
  O  O72  1  0.510090  0.991764  0.687660  1
  O  O73  1  0.508236  0.312340  0.010090  1
  O  O74  1  0.812340  0.489910  0.491764  1
  O  O75  1  0.008236  0.187660  0.989910  1
  F  F76  1  0.511658  0.988342  0.011658  1
  F  F77  1  0.011658  0.511658  0.988342  1
  F  F78  1  0.488342  0.488342  0.488342  1
  F  F79  1  0.261658  0.738342  0.238342  1
  F  F80  1  0.738342  0.238342  0.261658  1
  F  F81  1  0.988342  0.011658  0.511658  1
  F  F82  1  0.238342  0.261658  0.738342  1
  F  F83  1  0.761658  0.761658  0.761658  1
