# generated using pymatgen
data_K3(FeS2)2
_symmetry_space_group_name_H-M   'P 1'
_cell_length_a   7.21526251
_cell_length_b   10.79759524
_cell_length_c   11.72171782
_cell_angle_alpha   90.00000000
_cell_angle_beta   90.00000000
_cell_angle_gamma   90.00000000
_symmetry_Int_Tables_number   1
_chemical_formula_structural   K3(FeS2)2
_chemical_formula_sum   'K12 Fe8 S16'
_cell_volume   913.20954508
_cell_formula_units_Z   4
loop_
 _symmetry_equiv_pos_site_id
 _symmetry_equiv_pos_as_xyz
  1  'x, y, z'
loop_
 _atom_site_type_symbol
 _atom_site_label
 _atom_site_symmetry_multiplicity
 _atom_site_fract_x
 _atom_site_fract_y
 _atom_site_fract_z
 _atom_site_occupancy
  K  K0  1  0.063536  0.424531  0.139309  1
  K  K1  1  0.563536  0.075469  0.360691  1
  K  K2  1  0.936464  0.924531  0.860691  1
  K  K3  1  0.436464  0.575469  0.639309  1
  K  K4  1  0.936464  0.575469  0.860691  1
  K  K5  1  0.436464  0.924531  0.639309  1
  K  K6  1  0.063536  0.075469  0.139309  1
  K  K7  1  0.563536  0.424531  0.360691  1
  K  K8  1  0.088034  0.250000  0.768443  1
  K  K9  1  0.588034  0.250000  0.731557  1
  K  K10  1  0.911966  0.750000  0.231557  1
  K  K11  1  0.411966  0.750000  0.268443  1
  Fe  Fe12  1  0.049363  0.370917  0.471776  1
  Fe  Fe13  1  0.549363  0.129083  0.028224  1
  Fe  Fe14  1  0.950637  0.870917  0.528224  1
  Fe  Fe15  1  0.450637  0.629083  0.971776  1
  Fe  Fe16  1  0.950637  0.629083  0.528224  1
  Fe  Fe17  1  0.450637  0.870917  0.971776  1
  Fe  Fe18  1  0.049363  0.129083  0.471776  1
  Fe  Fe19  1  0.549363  0.370917  0.028224  1
  S  S20  1  0.148273  0.550733  0.391082  1
  S  S21  1  0.648273  0.949267  0.108918  1
  S  S22  1  0.851727  0.050733  0.608918  1
  S  S23  1  0.351727  0.449267  0.891082  1
  S  S24  1  0.851727  0.449267  0.608918  1
  S  S25  1  0.351727  0.050733  0.891082  1
  S  S26  1  0.148273  0.949267  0.391082  1
  S  S27  1  0.648273  0.550733  0.108918  1
  S  S28  1  0.291827  0.250000  0.533217  1
  S  S29  1  0.791827  0.250000  0.966783  1
  S  S30  1  0.708173  0.750000  0.466783  1
  S  S31  1  0.208173  0.750000  0.033217  1
  S  S32  1  0.408924  0.250000  0.159471  1
  S  S33  1  0.908924  0.250000  0.340529  1
  S  S34  1  0.591076  0.750000  0.840529  1
  S  S35  1  0.091076  0.750000  0.659471  1
