# generated using pymatgen
data_Be12W
_symmetry_space_group_name_H-M   'P 1'
_cell_length_a   5.51341036
_cell_length_b   5.51341036
_cell_length_c   5.51341036
_cell_angle_alpha   98.32604408
_cell_angle_beta   98.32604408
_cell_angle_gamma   135.26649613
_symmetry_Int_Tables_number   1
_chemical_formula_structural   Be12W
_chemical_formula_sum   'Be12 W1'
_cell_volume   109.08093514
_cell_formula_units_Z   1
loop_
 _symmetry_equiv_pos_site_id
 _symmetry_equiv_pos_as_xyz
  1  'x, y, z'
loop_
 _atom_site_type_symbol
 _atom_site_label
 _atom_site_symmetry_multiplicity
 _atom_site_fract_x
 _atom_site_fract_y
 _atom_site_fract_z
 _atom_site_occupancy
  Be  Be0  1  0.350831  0.000000  0.350831  1
  Be  Be1  1  0.000000  0.000000  0.500000  1
  Be  Be2  1  1.000000  0.649169  0.649169  1
  Be  Be3  1  0.289188  0.500000  0.789188  1
  Be  Be4  1  0.649169  0.000000  0.649169  1
  Be  Be5  1  0.000000  0.500000  0.000000  1
  Be  Be6  1  1.000000  0.350831  0.350831  1
  Be  Be7  1  0.500000  0.289188  0.789188  1
  Be  Be8  1  0.710812  0.500000  0.210812  1
  Be  Be9  1  0.500000  0.000000  0.000000  1
  Be  Be10  1  0.500000  0.710812  0.210812  1
  Be  Be11  1  0.500000  0.500000  0.500000  1
  W  W12  1  0.000000  0.000000  0.000000  1
