# generated using pymatgen
data_LiMnP2O7
_symmetry_space_group_name_H-M   'P 1'
_cell_length_a   6.63198766
_cell_length_b   8.46504222
_cell_length_c   9.10899166
_cell_angle_alpha   90.00000000
_cell_angle_beta   102.25777125
_cell_angle_gamma   90.00000000
_symmetry_Int_Tables_number   1
_chemical_formula_structural   LiMnP2O7
_chemical_formula_sum   'Li4 Mn4 P8 O28'
_cell_volume   499.72103554
_cell_formula_units_Z   4
loop_
 _symmetry_equiv_pos_site_id
 _symmetry_equiv_pos_as_xyz
  1  'x, y, z'
loop_
 _atom_site_type_symbol
 _atom_site_label
 _atom_site_symmetry_multiplicity
 _atom_site_fract_x
 _atom_site_fract_y
 _atom_site_fract_z
 _atom_site_occupancy
  Li  Li0  1  0.775899  0.081731  0.242431  1
  Li  Li1  1  0.775899  0.418269  0.242431  1
  Li  Li2  1  0.224101  0.581731  0.757569  1
  Li  Li3  1  0.224101  0.918269  0.757569  1
  Mn  Mn4  1  0.252101  0.566408  0.249086  1
  Mn  Mn5  1  0.252101  0.933592  0.249086  1
  Mn  Mn6  1  0.747899  0.066408  0.750914  1
  Mn  Mn7  1  0.747899  0.433592  0.750914  1
  P  P8  1  0.498555  0.250000  0.946966  1
  P  P9  1  0.935339  0.750000  0.971357  1
  P  P10  1  0.581540  0.750000  0.533153  1
  P  P11  1  0.995416  0.250000  0.553056  1
  P  P12  1  0.501445  0.750000  0.053034  1
  P  P13  1  0.064661  0.250000  0.028643  1
  P  P14  1  0.004584  0.750000  0.446944  1
  P  P15  1  0.418460  0.250000  0.466847  1
  O  O16  1  0.410483  0.099983  0.373993  1
  O  O17  1  0.518882  0.096001  0.855573  1
  O  O18  1  0.255550  0.250000  0.946271  1
  O  O19  1  0.879174  0.250000  0.886048  1
  O  O20  1  0.481118  0.596001  0.144427  1
  O  O21  1  0.481118  0.903999  0.144427  1
  O  O22  1  0.744450  0.750000  0.053729  1
  O  O23  1  0.120826  0.750000  0.113952  1
  O  O24  1  0.059389  0.100464  0.117840  1
  O  O25  1  0.059389  0.399536  0.117840  1
  O  O26  1  0.623623  0.250000  0.105286  1
  O  O27  1  0.518882  0.403999  0.855573  1
  O  O28  1  0.410483  0.400017  0.373993  1
  O  O29  1  0.390870  0.750000  0.402749  1
  O  O30  1  0.026277  0.595611  0.356062  1
  O  O31  1  0.026277  0.904389  0.356062  1
  O  O32  1  0.878312  0.250000  0.392599  1
  O  O33  1  0.761786  0.750000  0.440471  1
  O  O34  1  0.940611  0.899536  0.882160  1
  O  O35  1  0.121688  0.750000  0.607401  1
  O  O36  1  0.973723  0.095611  0.643938  1
  O  O37  1  0.973723  0.404389  0.643938  1
  O  O38  1  0.609130  0.250000  0.597251  1
  O  O39  1  0.589517  0.599983  0.626007  1
  O  O40  1  0.589517  0.900017  0.626007  1
  O  O41  1  0.376377  0.750000  0.894714  1
  O  O42  1  0.940611  0.600464  0.882160  1
  O  O43  1  0.238214  0.250000  0.559529  1
