# generated using pymatgen
data_Fe(PO3)4
_symmetry_space_group_name_H-M   'P 1'
_cell_length_a   5.26552728
_cell_length_b   13.60463051
_cell_length_c   7.48159072
_cell_angle_alpha   90.00000000
_cell_angle_beta   98.65770356
_cell_angle_gamma   90.00000000
_symmetry_Int_Tables_number   1
_chemical_formula_structural   Fe(PO3)4
_chemical_formula_sum   'Fe2 P8 O24'
_cell_volume   529.84091299
_cell_formula_units_Z   2
loop_
 _symmetry_equiv_pos_site_id
 _symmetry_equiv_pos_as_xyz
  1  'x, y, z'
loop_
 _atom_site_type_symbol
 _atom_site_label
 _atom_site_symmetry_multiplicity
 _atom_site_fract_x
 _atom_site_fract_y
 _atom_site_fract_z
 _atom_site_occupancy
  Fe  Fe0  1  0.507078  0.234193  0.513325  1
  Fe  Fe1  1  0.492922  0.734193  0.486675  1
  P  P2  1  0.861651  0.174794  0.898101  1
  P  P3  1  0.980304  0.597148  0.437955  1
  P  P4  1  0.012948  0.872643  0.552479  1
  P  P5  1  0.019696  0.097148  0.562045  1
  P  P6  1  0.138349  0.674794  0.101899  1
  P  P7  1  0.987052  0.372643  0.447521  1
  P  P8  1  0.791784  0.818995  0.874265  1
  P  P9  1  0.208216  0.318995  0.125735  1
  O  O10  1  0.714632  0.612307  0.484304  1
  O  O11  1  0.978541  0.352239  0.233028  1
  O  O12  1  0.021459  0.852239  0.766972  1
  O  O13  1  0.057540  0.266941  0.952908  1
  O  O14  1  0.030601  0.110415  0.776601  1
  O  O15  1  0.063632  0.485340  0.468632  1
  O  O16  1  0.172634  0.618431  0.936842  1
  O  O17  1  0.196275  0.656161  0.539519  1
  O  O18  1  0.206307  0.316879  0.554029  1
  O  O19  1  0.278696  0.857616  0.508080  1
  O  O20  1  0.285368  0.112307  0.515696  1
  O  O21  1  0.366776  0.718682  0.222219  1
  O  O22  1  0.385038  0.247052  0.238672  1
  O  O23  1  0.353163  0.406584  0.068862  1
  O  O24  1  0.646837  0.906584  0.931138  1
  O  O25  1  0.969399  0.610415  0.223399  1
  O  O26  1  0.633224  0.218682  0.777781  1
  O  O27  1  0.614962  0.747052  0.761328  1
  O  O28  1  0.721304  0.357616  0.491920  1
  O  O29  1  0.793693  0.816879  0.445971  1
  O  O30  1  0.803725  0.156161  0.460481  1
  O  O31  1  0.827366  0.118431  0.063158  1
  O  O32  1  0.936368  0.985340  0.531368  1
  O  O33  1  0.942460  0.766941  0.047092  1
