# generated using pymatgen
data_Na5WNO4
_symmetry_space_group_name_H-M   'P 1'
_cell_length_a   5.78929067
_cell_length_b   5.78929067
_cell_length_c   10.77197490
_cell_angle_alpha   90.00000000
_cell_angle_beta   90.00000000
_cell_angle_gamma   119.33674858
_symmetry_Int_Tables_number   1
_chemical_formula_structural   Na5WNO4
_chemical_formula_sum   'Na10 W2 N2 O8'
_cell_volume   314.73177867
_cell_formula_units_Z   2
loop_
 _symmetry_equiv_pos_site_id
 _symmetry_equiv_pos_as_xyz
  1  'x, y, z'
loop_
 _atom_site_type_symbol
 _atom_site_label
 _atom_site_symmetry_multiplicity
 _atom_site_fract_x
 _atom_site_fract_y
 _atom_site_fract_z
 _atom_site_occupancy
  Na  Na0  1  0.163893  0.534522  0.240845  1
  Na  Na1  1  0.206910  0.823918  0.990854  1
  Na  Na2  1  0.793090  0.176082  0.490854  1
  Na  Na3  1  0.465478  0.836107  0.740845  1
  Na  Na4  1  0.571423  0.571423  0.974286  1
  Na  Na5  1  0.428577  0.428577  0.474286  1
  Na  Na6  1  0.534522  0.163893  0.240845  1
  Na  Na7  1  0.176082  0.793090  0.490854  1
  Na  Na8  1  0.823918  0.206910  0.990854  1
  Na  Na9  1  0.836107  0.465478  0.740845  1
  W  W10  1  0.791803  0.791803  0.252192  1
  W  W11  1  0.208197  0.208197  0.752192  1
  N  N12  1  0.902440  0.902440  0.776780  1
  N  N13  1  0.097560  0.097560  0.276780  1
  O  O14  1  0.538156  0.812178  0.368603  1
  O  O15  1  0.461844  0.187822  0.868603  1
  O  O16  1  0.583928  0.855942  0.123069  1
  O  O17  1  0.187822  0.461844  0.868603  1
  O  O18  1  0.812178  0.538156  0.368603  1
  O  O19  1  0.855942  0.583928  0.123069  1
  O  O20  1  0.144058  0.416072  0.623069  1
  O  O21  1  0.416072  0.144058  0.623069  1
