# generated using pymatgen
data_Cr3AgO8
_symmetry_space_group_name_H-M   'P 1'
_cell_length_a   5.17029003
_cell_length_b   5.17029003
_cell_length_c   7.22526241
_cell_angle_alpha   86.72213783
_cell_angle_beta   93.27786217
_cell_angle_gamma   114.94852350
_symmetry_Int_Tables_number   1
_chemical_formula_structural   Cr3AgO8
_chemical_formula_sum   'Cr3 Ag1 O8'
_cell_volume   174.71892218
_cell_formula_units_Z   1
loop_
 _symmetry_equiv_pos_site_id
 _symmetry_equiv_pos_as_xyz
  1  'x, y, z'
loop_
 _atom_site_type_symbol
 _atom_site_label
 _atom_site_symmetry_multiplicity
 _atom_site_fract_x
 _atom_site_fract_y
 _atom_site_fract_z
 _atom_site_occupancy
  Cr  Cr0  1  0.000000  0.000000  0.000000  1
  Cr  Cr1  1  0.344894  0.655106  0.782930  1
  Cr  Cr2  1  0.655106  0.344894  0.217070  1
  Ag  Ag3  1  0.000000  0.000000  0.500000  1
  O  O4  1  0.204662  0.291911  0.801108  1
  O  O5  1  0.708089  0.795338  0.801108  1
  O  O6  1  0.749023  0.250977  0.420064  1
  O  O7  1  0.778991  0.221009  0.052600  1
  O  O8  1  0.221009  0.778991  0.947400  1
  O  O9  1  0.250977  0.749023  0.579936  1
  O  O10  1  0.795338  0.708089  0.198892  1
  O  O11  1  0.291911  0.204662  0.198892  1
