# generated using pymatgen
data_Sc2MnB2Rh5
_symmetry_space_group_name_H-M   'P 1'
_cell_length_a   9.40727854
_cell_length_b   9.40727854
_cell_length_c   3.06533591
_cell_angle_alpha   90.00000000
_cell_angle_beta   90.00000000
_cell_angle_gamma   90.00000000
_symmetry_Int_Tables_number   1
_chemical_formula_structural   Sc2MnB2Rh5
_chemical_formula_sum   'Sc4 Mn2 B4 Rh10'
_cell_volume   271.27269340
_cell_formula_units_Z   2
loop_
 _symmetry_equiv_pos_site_id
 _symmetry_equiv_pos_as_xyz
  1  'x, y, z'
loop_
 _atom_site_type_symbol
 _atom_site_label
 _atom_site_symmetry_multiplicity
 _atom_site_fract_x
 _atom_site_fract_y
 _atom_site_fract_z
 _atom_site_occupancy
  Sc  Sc0  1  0.824032  0.324032  0.000000  1
  Sc  Sc1  1  0.324032  0.175968  0.000000  1
  Sc  Sc2  1  0.675968  0.824032  0.000000  1
  Sc  Sc3  1  0.175968  0.675968  0.000000  1
  Mn  Mn4  1  0.000000  0.000000  0.000000  1
  Mn  Mn5  1  0.500000  0.500000  0.000000  1
  B  B6  1  0.624477  0.124477  0.000000  1
  B  B7  1  0.124477  0.375523  0.000000  1
  B  B8  1  0.875523  0.624477  0.000000  1
  B  B9  1  0.375523  0.875523  0.000000  1
  Rh  Rh10  1  0.070529  0.218357  0.500000  1
  Rh  Rh11  1  0.218357  0.929471  0.500000  1
  Rh  Rh12  1  0.781643  0.070529  0.500000  1
  Rh  Rh13  1  0.929471  0.781643  0.500000  1
  Rh  Rh14  1  0.429471  0.718357  0.500000  1
  Rh  Rh15  1  0.570529  0.281643  0.500000  1
  Rh  Rh16  1  0.718357  0.570529  0.500000  1
  Rh  Rh17  1  0.281643  0.429471  0.500000  1
  Rh  Rh18  1  0.500000  0.000000  0.500000  1
  Rh  Rh19  1  0.000000  0.500000  0.500000  1
