# generated using pymatgen
data_Nb2Cd2O7
_symmetry_space_group_name_H-M   'P 1'
_cell_length_a   7.48136284
_cell_length_b   7.48136284
_cell_length_c   7.48136284
_cell_angle_alpha   120.33217702
_cell_angle_beta   119.56417765
_cell_angle_gamma   90.09106773
_symmetry_Int_Tables_number   1
_chemical_formula_structural   Nb2Cd2O7
_chemical_formula_sum   'Nb4 Cd4 O14'
_cell_volume   296.30724732
_cell_formula_units_Z   2
loop_
 _symmetry_equiv_pos_site_id
 _symmetry_equiv_pos_as_xyz
  1  'x, y, z'
loop_
 _atom_site_type_symbol
 _atom_site_label
 _atom_site_symmetry_multiplicity
 _atom_site_fract_x
 _atom_site_fract_y
 _atom_site_fract_z
 _atom_site_occupancy
  Nb  Nb0  1  0.025140  0.506773  0.018367  1
  Nb  Nb1  1  0.512601  0.500000  0.012601  1
  Nb  Nb2  1  0.512601  0.000000  0.512601  1
  Nb  Nb3  1  0.511594  0.493227  0.518367  1
  Cd  Cd4  1  0.498390  0.992810  0.005580  1
  Cd  Cd5  1  0.014260  0.500000  0.514260  1
  Cd  Cd6  1  0.014260  0.000000  0.014260  1
  Cd  Cd7  1  0.012770  0.007190  0.505580  1
  O  O8  1  0.174714  0.821892  0.246042  1
  O  O9  1  0.872489  0.124299  0.248191  1
  O  O10  1  0.422886  0.183650  0.739236  1
  O  O11  1  0.816307  0.569821  0.746486  1
  O  O12  1  0.174714  0.428672  0.852822  1
  O  O13  1  0.556428  0.812021  0.622093  1
  O  O14  1  0.810072  0.187979  0.744408  1
  O  O15  1  0.123892  0.875701  0.748191  1
  O  O16  1  0.810072  0.565665  0.122093  1
  O  O17  1  0.176665  0.430179  0.246486  1
  O  O18  1  0.424150  0.178108  0.352822  1
  O  O19  1  0.556428  0.434335  0.244408  1
  O  O20  1  0.424150  0.571328  0.746042  1
  O  O21  1  0.555587  0.816350  0.239236  1
