# generated using pymatgen
data_Cs2Co3S4
_symmetry_space_group_name_H-M   'P 1'
_cell_length_a   9.12814672
_cell_length_b   9.12814672
_cell_length_c   9.12814672
_cell_angle_alpha   145.50006238
_cell_angle_beta   106.74283859
_cell_angle_gamma   83.55765334
_symmetry_Int_Tables_number   1
_chemical_formula_structural   Cs2Co3S4
_chemical_formula_sum   'Cs4 Co6 S8'
_cell_volume   401.39449037
_cell_formula_units_Z   2
loop_
 _symmetry_equiv_pos_site_id
 _symmetry_equiv_pos_as_xyz
  1  'x, y, z'
loop_
 _atom_site_type_symbol
 _atom_site_label
 _atom_site_symmetry_multiplicity
 _atom_site_fract_x
 _atom_site_fract_y
 _atom_site_fract_z
 _atom_site_occupancy
  Cs  Cs0  1  0.875658  0.755867  0.631524  1
  Cs  Cs1  1  0.375658  0.744133  0.119791  1
  Cs  Cs2  1  0.624342  0.255867  0.880209  1
  Cs  Cs3  1  0.124342  0.244133  0.368476  1
  Co  Co4  1  0.502862  0.250000  0.252862  1
  Co  Co5  1  0.997138  0.250000  0.747138  1
  Co  Co6  1  0.002862  0.750000  0.252862  1
  Co  Co7  1  0.250000  0.750000  0.500000  1
  Co  Co8  1  0.497138  0.750000  0.747138  1
  Co  Co9  1  0.750000  0.250000  0.500000  1
  S  S10  1  0.203650  0.078189  0.622919  1
  S  S11  1  0.955271  0.578189  0.874539  1
  S  S12  1  0.296350  0.919269  0.874539  1
  S  S13  1  0.796350  0.921811  0.377081  1
  S  S14  1  0.044729  0.421811  0.125461  1
  S  S15  1  0.703650  0.080731  0.125461  1
  S  S16  1  0.544729  0.419269  0.622919  1
  S  S17  1  0.455271  0.580731  0.377081  1
