# generated using pymatgen
data_K2SnHgSe4
_symmetry_space_group_name_H-M   'P 1'
_cell_length_a   6.83149674
_cell_length_b   6.83149674
_cell_length_c   6.83149674
_cell_angle_alpha   105.84137752
_cell_angle_beta   105.84137752
_cell_angle_gamma   117.00381788
_symmetry_Int_Tables_number   1
_chemical_formula_structural   K2SnHgSe4
_chemical_formula_sum   'K2 Sn1 Hg1 Se4'
_cell_volume   242.20794614
_cell_formula_units_Z   1
loop_
 _symmetry_equiv_pos_site_id
 _symmetry_equiv_pos_as_xyz
  1  'x, y, z'
loop_
 _atom_site_type_symbol
 _atom_site_label
 _atom_site_symmetry_multiplicity
 _atom_site_fract_x
 _atom_site_fract_y
 _atom_site_fract_z
 _atom_site_occupancy
  K  K0  1  0.000000  0.500000  0.500000  1
  K  K1  1  0.500000  0.000000  0.500000  1
  Sn  Sn2  1  0.500000  0.500000  0.000000  1
  Hg  Hg3  1  0.000000  0.000000  0.000000  1
  Se  Se4  1  0.098180  0.440629  0.000000  1
  Se  Se5  1  0.440629  0.098180  0.000000  1
  Se  Se6  1  0.559371  0.559371  0.657552  1
  Se  Se7  1  0.901820  0.901820  0.342448  1
