# generated using pymatgen
data_TiTlPO5
_symmetry_space_group_name_H-M   'P 1'
_cell_length_a   6.57824390
_cell_length_b   10.64558417
_cell_length_c   13.10809376
_cell_angle_alpha   90.00000000
_cell_angle_beta   90.00000000
_cell_angle_gamma   90.00000000
_symmetry_Int_Tables_number   1
_chemical_formula_structural   TiTlPO5
_chemical_formula_sum   'Ti8 Tl8 P8 O40'
_cell_volume   917.94996352
_cell_formula_units_Z   8
loop_
 _symmetry_equiv_pos_site_id
 _symmetry_equiv_pos_as_xyz
  1  'x, y, z'
loop_
 _atom_site_type_symbol
 _atom_site_label
 _atom_site_symmetry_multiplicity
 _atom_site_fract_x
 _atom_site_fract_y
 _atom_site_fract_z
 _atom_site_occupancy
  Ti  Ti0  1  0.250000  0.750000  0.119434  1
  Ti  Ti1  1  0.750000  0.750000  0.619434  1
  Ti  Ti2  1  0.750000  0.250000  0.880566  1
  Ti  Ti3  1  0.500000  0.500000  0.000000  1
  Ti  Ti4  1  0.250000  0.250000  0.380566  1
  Ti  Ti5  1  0.000000  0.000000  0.500000  1
  Ti  Ti6  1  0.500000  0.500000  0.500000  1
  Ti  Ti7  1  0.000000  0.000000  0.000000  1
  Tl  Tl8  1  0.047253  0.365347  0.643619  1
  Tl  Tl9  1  0.952747  0.365347  0.143619  1
  Tl  Tl10  1  0.952747  0.634653  0.356381  1
  Tl  Tl11  1  0.452747  0.865347  0.856381  1
  Tl  Tl12  1  0.452747  0.134653  0.643619  1
  Tl  Tl13  1  0.047253  0.634653  0.856381  1
  Tl  Tl14  1  0.547253  0.134653  0.143619  1
  Tl  Tl15  1  0.547253  0.865347  0.356381  1
  P  P16  1  0.584830  0.500000  0.750000  1
  P  P17  1  0.415170  0.500000  0.250000  1
  P  P18  1  0.084830  0.000000  0.250000  1
  P  P19  1  0.750000  0.750000  0.069635  1
  P  P20  1  0.915170  0.000000  0.750000  1
  P  P21  1  0.750000  0.250000  0.430365  1
  P  P22  1  0.250000  0.750000  0.569635  1
  P  P23  1  0.250000  0.250000  0.930365  1
  O  O24  1  0.450352  0.480283  0.653346  1
  O  O25  1  0.708570  0.635481  0.997992  1
  O  O26  1  0.208570  0.864519  0.497992  1
  O  O27  1  0.720435  0.617970  0.735890  1
  O  O28  1  0.291430  0.364519  0.002008  1
  O  O29  1  0.950352  0.980283  0.346654  1
  O  O30  1  0.560116  0.221213  0.364643  1
  O  O31  1  0.060116  0.278787  0.864643  1
  O  O32  1  0.779565  0.882030  0.735890  1
  O  O33  1  0.939884  0.278787  0.364643  1
  O  O34  1  0.796902  0.876748  0.527763  1
  O  O35  1  0.549648  0.480283  0.153346  1
  O  O36  1  0.939884  0.721213  0.135357  1
  O  O37  1  0.703098  0.623252  0.527763  1
  O  O38  1  0.220435  0.882030  0.235890  1
  O  O39  1  0.279565  0.617970  0.235890  1
  O  O40  1  0.560116  0.778787  0.135357  1
  O  O41  1  0.703098  0.376748  0.972237  1
  O  O42  1  0.203098  0.123252  0.472237  1
  O  O43  1  0.049648  0.019717  0.653346  1
  O  O44  1  0.796902  0.123252  0.972237  1
  O  O45  1  0.208570  0.135481  0.002008  1
  O  O46  1  0.791430  0.135481  0.502008  1
  O  O47  1  0.049648  0.980283  0.846654  1
  O  O48  1  0.708570  0.364519  0.502008  1
  O  O49  1  0.439884  0.221213  0.864643  1
  O  O50  1  0.791430  0.864519  0.997992  1
  O  O51  1  0.450352  0.519717  0.846654  1
  O  O52  1  0.296902  0.623252  0.027763  1
  O  O53  1  0.060116  0.721213  0.635357  1
  O  O54  1  0.720435  0.382030  0.764110  1
  O  O55  1  0.220435  0.117970  0.264110  1
  O  O56  1  0.439884  0.778787  0.635357  1
  O  O57  1  0.549648  0.519717  0.346654  1
  O  O58  1  0.779565  0.117970  0.764110  1
  O  O59  1  0.203098  0.876748  0.027763  1
  O  O60  1  0.279565  0.382030  0.264110  1
  O  O61  1  0.950352  0.019717  0.153346  1
  O  O62  1  0.291430  0.635481  0.497992  1
  O  O63  1  0.296902  0.376748  0.472237  1
