# generated using pymatgen
data_Ag2F5
_symmetry_space_group_name_H-M   'P 1'
_cell_length_a   5.19665679
_cell_length_b   7.58895201
_cell_length_c   11.44632351
_cell_angle_alpha   88.02099924
_cell_angle_beta   89.21203617
_cell_angle_gamma   72.83294571
_symmetry_Int_Tables_number   1
_chemical_formula_structural   Ag2F5
_chemical_formula_sum   'Ag8 F20'
_cell_volume   431.03932447
_cell_formula_units_Z   4
loop_
 _symmetry_equiv_pos_site_id
 _symmetry_equiv_pos_as_xyz
  1  'x, y, z'
loop_
 _atom_site_type_symbol
 _atom_site_label
 _atom_site_symmetry_multiplicity
 _atom_site_fract_x
 _atom_site_fract_y
 _atom_site_fract_z
 _atom_site_occupancy
  Ag  Ag0  1  0.500000  0.500000  0.000000  1
  Ag  Ag1  1  0.500000  0.000000  0.500000  1
  Ag  Ag2  1  0.042808  0.277890  0.753370  1
  Ag  Ag3  1  0.957192  0.722110  0.246630  1
  Ag  Ag4  1  0.500000  0.000000  0.000000  1
  Ag  Ag5  1  0.500000  0.500000  0.500000  1
  Ag  Ag6  1  0.045985  0.784815  0.765612  1
  Ag  Ag7  1  0.954015  0.215185  0.234388  1
  F  F8  1  0.449793  0.266717  0.427666  1
  F  F9  1  0.550207  0.733283  0.572334  1
  F  F10  1  0.672741  0.770909  0.095500  1
  F  F11  1  0.327259  0.229091  0.904500  1
  F  F12  1  0.479903  0.161585  0.132415  1
  F  F13  1  0.520097  0.838415  0.867585  1
  F  F14  1  0.944035  0.023463  0.846506  1
  F  F15  1  0.055965  0.976537  0.153494  1
  F  F16  1  0.638920  0.877982  0.345921  1
  F  F17  1  0.361080  0.122018  0.654079  1
  F  F18  1  0.793533  0.339081  0.601036  1
  F  F19  1  0.206467  0.660919  0.398964  1
  F  F20  1  0.872057  0.355942  0.081259  1
  F  F21  1  0.127943  0.644058  0.918741  1
  F  F22  1  0.721738  0.438446  0.849118  1
  F  F23  1  0.278262  0.561554  0.150882  1
  F  F24  1  0.153859  0.545109  0.686144  1
  F  F25  1  0.846141  0.454891  0.313856  1
  F  F26  1  0.951318  0.922431  0.617475  1
  F  F27  1  0.048682  0.077569  0.382525  1
