# generated using pymatgen
data_TaP4(SCl)5
_symmetry_space_group_name_H-M   'P 1'
_cell_length_a   6.93104300
_cell_length_b   10.61689444
_cell_length_c   13.65953408
_cell_angle_alpha   98.04229528
_cell_angle_beta   104.51261871
_cell_angle_gamma   106.94355443
_symmetry_Int_Tables_number   1
_chemical_formula_structural   TaP4(SCl)5
_chemical_formula_sum   'Ta2 P8 S10 Cl10'
_cell_volume   905.90084249
_cell_formula_units_Z   2
loop_
 _symmetry_equiv_pos_site_id
 _symmetry_equiv_pos_as_xyz
  1  'x, y, z'
loop_
 _atom_site_type_symbol
 _atom_site_label
 _atom_site_symmetry_multiplicity
 _atom_site_fract_x
 _atom_site_fract_y
 _atom_site_fract_z
 _atom_site_occupancy
  Ta  Ta0  1  0.393488  0.265734  0.155833  1
  Ta  Ta1  1  0.606512  0.734266  0.844167  1
  P  P2  1  0.082918  0.424393  0.690150  1
  P  P3  1  0.964780  0.877921  0.258298  1
  P  P4  1  0.917082  0.575607  0.309850  1
  P  P5  1  0.771979  0.690050  0.406065  1
  P  P6  1  0.035220  0.122079  0.741702  1
  P  P7  1  0.121850  0.807515  0.496890  1
  P  P8  1  0.228021  0.309950  0.593935  1
  P  P9  1  0.878150  0.192485  0.503110  1
  S  S10  1  0.795521  0.050313  0.594433  1
  S  S11  1  0.306975  0.183528  0.686703  1
  S  S12  1  0.179857  0.623543  0.746970  1
  S  S13  1  0.204479  0.949687  0.405567  1
  S  S14  1  0.809350  0.369926  0.562099  1
  S  S15  1  0.027100  0.316416  0.804174  1
  S  S16  1  0.820143  0.376457  0.253030  1
  S  S17  1  0.190650  0.630074  0.437901  1
  S  S18  1  0.972900  0.683584  0.195826  1
  S  S19  1  0.693025  0.816472  0.313297  1
  Cl  Cl20  1  0.517697  0.758974  0.997920  1
  Cl  Cl21  1  0.482303  0.241026  0.002080  1
  Cl  Cl22  1  0.396031  0.484278  0.147863  1
  Cl  Cl23  1  0.603969  0.515722  0.852137  1
  Cl  Cl24  1  0.480248  0.073579  0.187056  1
  Cl  Cl25  1  0.639530  0.697268  0.674619  1
  Cl  Cl26  1  0.519752  0.926421  0.812944  1
  Cl  Cl27  1  0.963004  0.839174  0.922348  1
  Cl  Cl28  1  0.036996  0.160826  0.077652  1
  Cl  Cl29  1  0.360470  0.302732  0.325381  1
