# generated using pymatgen
data_LiH5S(NO2)2
_symmetry_space_group_name_H-M   'P 1'
_cell_length_a   5.13729097
_cell_length_b   9.16196568
_cell_length_c   10.05238295
_cell_angle_alpha   90.00000000
_cell_angle_beta   90.00000000
_cell_angle_gamma   90.00000000
_symmetry_Int_Tables_number   1
_chemical_formula_structural   LiH5S(NO2)2
_chemical_formula_sum   'Li4 H20 S4 N8 O16'
_cell_volume   473.14237967
_cell_formula_units_Z   4
loop_
 _symmetry_equiv_pos_site_id
 _symmetry_equiv_pos_as_xyz
  1  'x, y, z'
loop_
 _atom_site_type_symbol
 _atom_site_label
 _atom_site_symmetry_multiplicity
 _atom_site_fract_x
 _atom_site_fract_y
 _atom_site_fract_z
 _atom_site_occupancy
  Li  Li0  1  0.747600  0.564855  0.331240  1
  Li  Li1  1  0.247600  0.435145  0.668760  1
  Li  Li2  1  0.747600  0.935145  0.831240  1
  Li  Li3  1  0.247600  0.064855  0.168760  1
  H  H4  1  0.231779  0.614685  0.118419  1
  H  H5  1  0.731779  0.385315  0.881581  1
  H  H6  1  0.231779  0.885315  0.618419  1
  H  H7  1  0.731779  0.114685  0.381581  1
  H  H8  1  0.436843  0.531147  0.014287  1
  H  H9  1  0.936843  0.468853  0.985713  1
  H  H10  1  0.436843  0.968853  0.514287  1
  H  H11  1  0.936843  0.031147  0.485713  1
  H  H12  1  0.312237  0.818061  0.343057  1
  H  H13  1  0.812237  0.181939  0.656943  1
  H  H14  1  0.312237  0.681939  0.843057  1
  H  H15  1  0.812237  0.318061  0.156943  1
  H  H16  1  0.082024  0.740107  0.443610  1
  H  H17  1  0.582024  0.259893  0.556390  1
  H  H18  1  0.082024  0.759893  0.943610  1
  H  H19  1  0.582024  0.240107  0.056390  1
  H  H20  1  0.406201  0.715345  0.473086  1
  H  H21  1  0.906201  0.284655  0.526914  1
  H  H22  1  0.406201  0.784655  0.973086  1
  H  H23  1  0.906201  0.215345  0.026914  1
  S  S24  1  0.745384  0.867734  0.158350  1
  S  S25  1  0.245384  0.132266  0.841650  1
  S  S26  1  0.745384  0.632266  0.658350  1
  S  S27  1  0.245384  0.367734  0.341650  1
  N  N28  1  0.255438  0.581236  0.021721  1
  N  N29  1  0.755438  0.418764  0.978279  1
  N  N30  1  0.255438  0.918764  0.521721  1
  N  N31  1  0.755438  0.081236  0.478279  1
  N  N32  1  0.264922  0.788792  0.440800  1
  N  N33  1  0.764922  0.211208  0.559200  1
  N  N34  1  0.264922  0.711208  0.940800  1
  N  N35  1  0.764922  0.288792  0.059200  1
  O  O36  1  0.462457  0.888086  0.191982  1
  O  O37  1  0.962457  0.111914  0.808018  1
  O  O38  1  0.462457  0.611914  0.691982  1
  O  O39  1  0.962457  0.388086  0.308018  1
  O  O40  1  0.764127  0.842252  0.010533  1
  O  O41  1  0.264127  0.157748  0.989467  1
  O  O42  1  0.764127  0.657748  0.510533  1
  O  O43  1  0.264127  0.342252  0.489467  1
  O  O44  1  0.850321  0.738831  0.228913  1
  O  O45  1  0.350321  0.261169  0.771087  1
  O  O46  1  0.850321  0.761169  0.728913  1
  O  O47  1  0.350321  0.238831  0.271087  1
  O  O48  1  0.390568  0.502107  0.305562  1
  O  O49  1  0.890568  0.497893  0.694438  1
  O  O50  1  0.390568  0.997893  0.805562  1
  O  O51  1  0.890568  0.002107  0.194438  1
