# generated using pymatgen
data_Gd(PO3)3
_symmetry_space_group_name_H-M   'P 1'
_cell_length_a   7.03005351
_cell_length_b   7.03005351
_cell_length_c   7.28627547
_cell_angle_alpha   90.00000000
_cell_angle_beta   90.00000000
_cell_angle_gamma   105.15697600
_symmetry_Int_Tables_number   1
_chemical_formula_structural   Gd(PO3)3
_chemical_formula_sum   'Gd2 P6 O18'
_cell_volume   347.57301970
_cell_formula_units_Z   2
loop_
 _symmetry_equiv_pos_site_id
 _symmetry_equiv_pos_as_xyz
  1  'x, y, z'
loop_
 _atom_site_type_symbol
 _atom_site_label
 _atom_site_symmetry_multiplicity
 _atom_site_fract_x
 _atom_site_fract_y
 _atom_site_fract_z
 _atom_site_occupancy
  Gd  Gd0  1  0.125921  0.125921  0.000000  1
  Gd  Gd1  1  0.874079  0.874079  0.500000  1
  P  P2  1  0.250430  0.250430  0.500000  1
  P  P3  1  0.665344  0.311671  0.043682  1
  P  P4  1  0.334656  0.688329  0.543682  1
  P  P5  1  0.311671  0.665344  0.956318  1
  P  P6  1  0.688329  0.334656  0.456318  1
  P  P7  1  0.749570  0.749570  0.000000  1
  O  O8  1  0.627210  0.372790  0.250000  1
  O  O9  1  0.747831  0.528133  0.953342  1
  O  O10  1  0.214542  0.468852  0.037917  1
  O  O11  1  0.372790  0.627210  0.750000  1
  O  O12  1  0.211185  0.827151  0.966629  1
  O  O13  1  0.828058  0.867670  0.829333  1
  O  O14  1  0.252169  0.471867  0.453342  1
  O  O15  1  0.528133  0.747831  0.046658  1
  O  O16  1  0.531148  0.785458  0.462083  1
  O  O17  1  0.171942  0.132330  0.329333  1
  O  O18  1  0.468852  0.214542  0.962083  1
  O  O19  1  0.788815  0.172849  0.466629  1
  O  O20  1  0.471867  0.252169  0.546658  1
  O  O21  1  0.172849  0.788815  0.533371  1
  O  O22  1  0.132330  0.171942  0.670667  1
  O  O23  1  0.785458  0.531148  0.537917  1
  O  O24  1  0.827151  0.211185  0.033371  1
  O  O25  1  0.867670  0.828058  0.170667  1
