# generated using pymatgen
data_Na3W3Cl13
_symmetry_space_group_name_H-M   'P 1'
_cell_length_a   9.22070015
_cell_length_b   25.27450236
_cell_length_c   9.34353571
_cell_angle_alpha   90.00000000
_cell_angle_beta   120.42437088
_cell_angle_gamma   90.00000000
_symmetry_Int_Tables_number   1
_chemical_formula_structural   Na3W3Cl13
_chemical_formula_sum   'Na12 W12 Cl52'
_cell_volume   1877.65291863
_cell_formula_units_Z   4
loop_
 _symmetry_equiv_pos_site_id
 _symmetry_equiv_pos_as_xyz
  1  'x, y, z'
loop_
 _atom_site_type_symbol
 _atom_site_label
 _atom_site_symmetry_multiplicity
 _atom_site_fract_x
 _atom_site_fract_y
 _atom_site_fract_z
 _atom_site_occupancy
  Na  Na0  1  0.223150  0.250219  0.652123  1
  Na  Na1  1  0.605898  0.897892  0.012252  1
  Na  Na2  1  0.394102  0.102108  0.987748  1
  Na  Na3  1  0.605898  0.602108  0.512252  1
  Na  Na4  1  0.951029  0.898432  0.683263  1
  Na  Na5  1  0.776850  0.750219  0.847877  1
  Na  Na6  1  0.048971  0.101568  0.316737  1
  Na  Na7  1  0.223150  0.249781  0.152123  1
  Na  Na8  1  0.394102  0.397892  0.487748  1
  Na  Na9  1  0.048971  0.398432  0.816737  1
  Na  Na10  1  0.776850  0.749781  0.347877  1
  Na  Na11  1  0.951029  0.601568  0.183263  1
  W  W12  1  0.106346  0.872300  0.351737  1
  W  W13  1  0.893654  0.372300  0.148263  1
  W  W14  1  0.550397  0.370719  0.975364  1
  W  W15  1  0.720864  0.126531  0.817066  1
  W  W16  1  0.550397  0.129281  0.475364  1
  W  W17  1  0.449603  0.870719  0.524636  1
  W  W18  1  0.893654  0.127700  0.648263  1
  W  W19  1  0.720864  0.373469  0.317066  1
  W  W20  1  0.279136  0.626531  0.682934  1
  W  W21  1  0.106346  0.627700  0.851737  1
  W  W22  1  0.279136  0.873469  0.182934  1
  W  W23  1  0.449603  0.629281  0.024636  1
  Cl  Cl24  1  0.074261  0.679982  0.048784  1
  Cl  Cl25  1  0.925739  0.320018  0.951216  1
  Cl  Cl26  1  0.486497  0.562489  0.861173  1
  Cl  Cl27  1  0.719792  0.436785  0.940660  1
  Cl  Cl28  1  0.118850  0.427758  0.149797  1
  Cl  Cl29  1  0.129647  0.179681  0.854889  1
  Cl  Cl30  1  0.118850  0.072242  0.649797  1
  Cl  Cl31  1  0.513503  0.437511  0.138827  1
  Cl  Cl32  1  0.525296  0.318465  0.749337  1
  Cl  Cl33  1  0.718122  0.431721  0.533855  1
  Cl  Cl34  1  0.483294  0.676319  0.653206  1
  Cl  Cl35  1  0.719792  0.063215  0.440660  1
  Cl  Cl36  1  0.275172  0.700465  0.847193  1
  Cl  Cl37  1  0.927518  0.324940  0.553198  1
  Cl  Cl38  1  0.317188  0.317205  0.946710  1
  Cl  Cl39  1  0.927518  0.175060  0.053198  1
  Cl  Cl40  1  0.679016  0.576621  0.251821  1
  Cl  Cl41  1  0.474704  0.818465  0.750663  1
  Cl  Cl42  1  0.682812  0.817205  0.553290  1
  Cl  Cl43  1  0.525296  0.181535  0.249337  1
  Cl  Cl44  1  0.516706  0.176319  0.846794  1
  Cl  Cl45  1  0.281878  0.931721  0.966145  1
  Cl  Cl46  1  0.881150  0.572242  0.850203  1
  Cl  Cl47  1  0.072482  0.824940  0.946802  1
  Cl  Cl48  1  0.925739  0.179982  0.451216  1
  Cl  Cl49  1  0.317188  0.182795  0.446710  1
  Cl  Cl50  1  0.129647  0.320319  0.354889  1
  Cl  Cl51  1  0.486497  0.937511  0.361173  1
  Cl  Cl52  1  0.513503  0.062489  0.638827  1
  Cl  Cl53  1  0.474704  0.681535  0.250663  1
  Cl  Cl54  1  0.516706  0.323681  0.346794  1
  Cl  Cl55  1  0.718122  0.068279  0.033855  1
  Cl  Cl56  1  0.074261  0.820018  0.548784  1
  Cl  Cl57  1  0.076606  0.560473  0.654773  1
  Cl  Cl58  1  0.320984  0.076621  0.248179  1
  Cl  Cl59  1  0.076606  0.939527  0.154773  1
  Cl  Cl60  1  0.280208  0.936785  0.559340  1
  Cl  Cl61  1  0.682812  0.682795  0.053290  1
  Cl  Cl62  1  0.724828  0.200465  0.652807  1
  Cl  Cl63  1  0.881150  0.927758  0.350203  1
  Cl  Cl64  1  0.724828  0.299535  0.152807  1
  Cl  Cl65  1  0.679016  0.923379  0.751821  1
  Cl  Cl66  1  0.923394  0.439527  0.345227  1
  Cl  Cl67  1  0.280208  0.563215  0.059340  1
  Cl  Cl68  1  0.483294  0.823681  0.153206  1
  Cl  Cl69  1  0.870353  0.679681  0.645111  1
  Cl  Cl70  1  0.281878  0.568279  0.466145  1
  Cl  Cl71  1  0.320984  0.423379  0.748179  1
  Cl  Cl72  1  0.275172  0.799535  0.347193  1
  Cl  Cl73  1  0.870353  0.820319  0.145111  1
  Cl  Cl74  1  0.923394  0.060473  0.845227  1
  Cl  Cl75  1  0.072482  0.675060  0.446802  1
