# generated using pymatgen
data_Fe(PO3)4
_symmetry_space_group_name_H-M   'P 1'
_cell_length_a   8.53094379
_cell_length_b   8.53094379
_cell_length_c   9.59821607
_cell_angle_alpha   61.10125339
_cell_angle_beta   118.89874661
_cell_angle_gamma   128.53285592
_symmetry_Int_Tables_number   1
_chemical_formula_structural   Fe(PO3)4
_chemical_formula_sum   'Fe2 P8 O24'
_cell_volume   461.13939481
_cell_formula_units_Z   2
loop_
 _symmetry_equiv_pos_site_id
 _symmetry_equiv_pos_as_xyz
  1  'x, y, z'
loop_
 _atom_site_type_symbol
 _atom_site_label
 _atom_site_symmetry_multiplicity
 _atom_site_fract_x
 _atom_site_fract_y
 _atom_site_fract_z
 _atom_site_occupancy
  Fe  Fe0  1  0.864553  0.864553  0.750000  1
  Fe  Fe1  1  0.135447  0.135447  0.250000  1
  P  P2  1  0.435983  0.703306  0.854927  1
  P  P3  1  0.034260  0.301535  0.834842  1
  P  P4  1  0.296694  0.564017  0.354927  1
  P  P5  1  0.703306  0.435983  0.645073  1
  P  P6  1  0.698465  0.965740  0.334842  1
  P  P7  1  0.301535  0.034260  0.665158  1
  P  P8  1  0.564017  0.296694  0.145073  1
  P  P9  1  0.965740  0.698465  0.165158  1
  O  O10  1  0.198110  0.399161  0.272051  1
  O  O11  1  0.042099  0.263757  0.007701  1
  O  O12  1  0.134912  0.005031  0.705087  1
  O  O13  1  0.865088  0.994969  0.294913  1
  O  O14  1  0.263757  0.042099  0.492299  1
  O  O15  1  0.502144  0.355022  0.960793  1
  O  O16  1  0.349243  0.852604  0.794487  1
  O  O17  1  0.005031  0.134912  0.794913  1
  O  O18  1  0.644978  0.497856  0.460793  1
  O  O19  1  0.497856  0.644978  0.039207  1
  O  O20  1  0.231486  0.514682  0.778227  1
  O  O21  1  0.485318  0.768514  0.278227  1
  O  O22  1  0.994969  0.865088  0.205087  1
  O  O23  1  0.801890  0.600839  0.727949  1
  O  O24  1  0.852604  0.349243  0.705513  1
  O  O25  1  0.355022  0.502144  0.539207  1
  O  O26  1  0.768514  0.485318  0.221773  1
  O  O27  1  0.399161  0.198110  0.227949  1
  O  O28  1  0.650757  0.147396  0.205513  1
  O  O29  1  0.600839  0.801890  0.772051  1
  O  O30  1  0.736243  0.957901  0.507701  1
  O  O31  1  0.514682  0.231486  0.721773  1
  O  O32  1  0.957901  0.736243  0.992299  1
  O  O33  1  0.147396  0.650757  0.294487  1
