# generated using pymatgen
data_Ba3ErMn2O9
_symmetry_space_group_name_H-M   'P 1'
_cell_length_a   5.90789127
_cell_length_b   5.90789127
_cell_length_c   14.42562840
_cell_angle_alpha   90.00000000
_cell_angle_beta   90.00000000
_cell_angle_gamma   120.00000000
_symmetry_Int_Tables_number   1
_chemical_formula_structural   Ba3ErMn2O9
_chemical_formula_sum   'Ba6 Er2 Mn4 O18'
_cell_volume   436.04404523
_cell_formula_units_Z   2
loop_
 _symmetry_equiv_pos_site_id
 _symmetry_equiv_pos_as_xyz
  1  'x, y, z'
loop_
 _atom_site_type_symbol
 _atom_site_label
 _atom_site_symmetry_multiplicity
 _atom_site_fract_x
 _atom_site_fract_y
 _atom_site_fract_z
 _atom_site_occupancy
  Ba  Ba0  1  0.000000  0.000000  0.250000  1
  Ba  Ba1  1  0.000000  0.000000  0.750000  1
  Ba  Ba2  1  0.333333  0.666667  0.408440  1
  Ba  Ba3  1  0.666667  0.333333  0.908440  1
  Ba  Ba4  1  0.666667  0.333333  0.591560  1
  Ba  Ba5  1  0.333333  0.666667  0.091560  1
  Er  Er6  1  0.000000  0.000000  0.500000  1
  Er  Er7  1  0.000000  0.000000  0.000000  1
  Mn  Mn8  1  0.666667  0.333333  0.340842  1
  Mn  Mn9  1  0.333333  0.666667  0.840842  1
  Mn  Mn10  1  0.333333  0.666667  0.659158  1
  Mn  Mn11  1  0.666667  0.333333  0.159158  1
  O  O12  1  0.355323  0.177662  0.412742  1
  O  O13  1  0.644677  0.822338  0.912742  1
  O  O14  1  0.644677  0.822338  0.587258  1
  O  O15  1  0.355323  0.177662  0.087258  1
  O  O16  1  0.822338  0.644677  0.412742  1
  O  O17  1  0.822338  0.177662  0.412742  1
  O  O18  1  0.177662  0.355323  0.912742  1
  O  O19  1  0.177662  0.822338  0.912742  1
  O  O20  1  0.177662  0.355323  0.587258  1
  O  O21  1  0.177662  0.822338  0.587258  1
  O  O22  1  0.822338  0.644677  0.087258  1
  O  O23  1  0.822338  0.177662  0.087258  1
  O  O24  1  0.518871  0.481129  0.250000  1
  O  O25  1  0.518871  0.037742  0.250000  1
  O  O26  1  0.481129  0.518871  0.750000  1
  O  O27  1  0.481129  0.962258  0.750000  1
  O  O28  1  0.962258  0.481129  0.250000  1
  O  O29  1  0.037742  0.518871  0.750000  1
