# generated using pymatgen
data_Nd5Te2Cl3O10
_symmetry_space_group_name_H-M   'P 1'
_cell_length_a   7.01467293
_cell_length_b   7.01467293
_cell_length_c   10.24414076
_cell_angle_alpha   89.67914044
_cell_angle_beta   90.32085956
_cell_angle_gamma   131.98146066
_symmetry_Int_Tables_number   1
_chemical_formula_structural   Nd5Te2Cl3O10
_chemical_formula_sum   'Nd5 Te2 Cl3 O10'
_cell_volume   374.69869067
_cell_formula_units_Z   1
loop_
 _symmetry_equiv_pos_site_id
 _symmetry_equiv_pos_as_xyz
  1  'x, y, z'
loop_
 _atom_site_type_symbol
 _atom_site_label
 _atom_site_symmetry_multiplicity
 _atom_site_fract_x
 _atom_site_fract_y
 _atom_site_fract_z
 _atom_site_occupancy
  Nd  Nd0  1  0.397342  0.602658  0.768566  1
  Nd  Nd1  1  0.709536  0.290464  0.895407  1
  Nd  Nd2  1  0.602658  0.397342  0.231434  1
  Nd  Nd3  1  0.290464  0.709536  0.104593  1
  Nd  Nd4  1  0.000000  0.000000  0.000000  1
  Te  Te5  1  0.916331  0.083669  0.327769  1
  Te  Te6  1  0.083669  0.916331  0.672231  1
  Cl  Cl7  1  0.836891  0.163109  0.648679  1
  Cl  Cl8  1  0.163109  0.836891  0.351321  1
  Cl  Cl9  1  0.500000  0.500000  0.500000  1
  O  O10  1  0.892658  0.600587  0.057920  1
  O  O11  1  0.600587  0.892658  0.942080  1
  O  O12  1  0.808018  0.706772  0.795954  1
  O  O13  1  0.399413  0.107342  0.057920  1
  O  O14  1  0.706772  0.808018  0.204046  1
  O  O15  1  0.107342  0.399413  0.942080  1
  O  O16  1  0.293228  0.191982  0.795954  1
  O  O17  1  0.224219  0.775781  0.718224  1
  O  O18  1  0.191982  0.293228  0.204046  1
  O  O19  1  0.775781  0.224219  0.281776  1
