# generated using pymatgen
data_Hg3AsS4Cl
_symmetry_space_group_name_H-M   'P 1'
_cell_length_a   7.58965140
_cell_length_b   7.58965140
_cell_length_c   9.67490694
_cell_angle_alpha   90.00000000
_cell_angle_beta   90.00000000
_cell_angle_gamma   120.00000000
_symmetry_Int_Tables_number   1
_chemical_formula_structural   Hg3AsS4Cl
_chemical_formula_sum   'Hg6 As2 S8 Cl2'
_cell_volume   482.63752587
_cell_formula_units_Z   2
loop_
 _symmetry_equiv_pos_site_id
 _symmetry_equiv_pos_as_xyz
  1  'x, y, z'
loop_
 _atom_site_type_symbol
 _atom_site_label
 _atom_site_symmetry_multiplicity
 _atom_site_fract_x
 _atom_site_fract_y
 _atom_site_fract_z
 _atom_site_occupancy
  Hg  Hg0  1  0.502189  0.497811  0.743462  1
  Hg  Hg1  1  0.497811  0.502189  0.243462  1
  Hg  Hg2  1  0.497811  0.995623  0.243462  1
  Hg  Hg3  1  0.004377  0.502189  0.243462  1
  Hg  Hg4  1  0.995623  0.497811  0.743462  1
  Hg  Hg5  1  0.502189  0.004377  0.743462  1
  As  As6  1  0.000000  0.000000  0.730203  1
  As  As7  1  0.000000  0.000000  0.230203  1
  S  S8  1  0.666667  0.333333  0.614752  1
  S  S9  1  0.851430  0.702861  0.356803  1
  S  S10  1  0.702861  0.851430  0.856803  1
  S  S11  1  0.851430  0.148570  0.356803  1
  S  S12  1  0.148570  0.297139  0.856803  1
  S  S13  1  0.333333  0.666667  0.114752  1
  S  S14  1  0.297139  0.148570  0.356803  1
  S  S15  1  0.148570  0.851430  0.856803  1
  Cl  Cl16  1  0.333333  0.666667  0.541550  1
  Cl  Cl17  1  0.666667  0.333333  0.041550  1
