# generated using pymatgen
data_Ti2Bi
_symmetry_space_group_name_H-M   'P 1'
_cell_length_a   7.66151506
_cell_length_b   7.66151506
_cell_length_c   7.66151506
_cell_angle_alpha   147.90429158
_cell_angle_beta   147.90429158
_cell_angle_gamma   46.02667107
_symmetry_Int_Tables_number   1
_chemical_formula_structural   Ti2Bi
_chemical_formula_sum   'Ti4 Bi2'
_cell_volume   126.52876588
_cell_formula_units_Z   2
loop_
 _symmetry_equiv_pos_site_id
 _symmetry_equiv_pos_as_xyz
  1  'x, y, z'
loop_
 _atom_site_type_symbol
 _atom_site_label
 _atom_site_symmetry_multiplicity
 _atom_site_fract_x
 _atom_site_fract_y
 _atom_site_fract_z
 _atom_site_occupancy
  Ti  Ti0  1  0.862915  0.862915  0.000000  1
  Ti  Ti1  1  0.000000  0.500000  0.500000  1
  Ti  Ti2  1  0.500000  1.000000  0.500000  1
  Ti  Ti3  1  0.137085  0.137085  0.000000  1
  Bi  Bi4  1  0.650852  0.650852  0.000000  1
  Bi  Bi5  1  0.349148  0.349148  0.000000  1
