# generated using pymatgen
data_KY(PSe3)2
_symmetry_space_group_name_H-M   'P 1'
_cell_length_a   6.84903469
_cell_length_b   7.55025373
_cell_length_c   21.87113846
_cell_angle_alpha   90.00000000
_cell_angle_beta   90.00000000
_cell_angle_gamma   90.00000000
_symmetry_Int_Tables_number   1
_chemical_formula_structural   KY(PSe3)2
_chemical_formula_sum   'K4 Y4 P8 Se24'
_cell_volume   1130.99921225
_cell_formula_units_Z   4
loop_
 _symmetry_equiv_pos_site_id
 _symmetry_equiv_pos_as_xyz
  1  'x, y, z'
loop_
 _atom_site_type_symbol
 _atom_site_label
 _atom_site_symmetry_multiplicity
 _atom_site_fract_x
 _atom_site_fract_y
 _atom_site_fract_z
 _atom_site_occupancy
  K  K0  1  0.123679  0.519480  0.495958  1
  K  K1  1  0.376321  0.480520  0.995958  1
  K  K2  1  0.623679  0.980520  0.504042  1
  K  K3  1  0.876321  0.019480  0.004042  1
  Y  Y4  1  0.717353  0.819470  0.748738  1
  Y  Y5  1  0.217353  0.680530  0.251262  1
  Y  Y6  1  0.782647  0.180530  0.248738  1
  Y  Y7  1  0.282647  0.319470  0.751262  1
  P  P8  1  0.823685  0.448102  0.110243  1
  P  P9  1  0.307839  0.171443  0.334476  1
  P  P10  1  0.807839  0.328557  0.665524  1
  P  P11  1  0.176315  0.948102  0.389757  1
  P  P12  1  0.192161  0.828557  0.834476  1
  P  P13  1  0.692161  0.671443  0.165524  1
  P  P14  1  0.676315  0.551898  0.610243  1
  P  P15  1  0.323685  0.051898  0.889757  1
  Se  Se16  1  0.629597  0.548620  0.257133  1
  Se  Se17  1  0.880647  0.539610  0.017983  1
  Se  Se18  1  0.911861  0.736621  0.871195  1
  Se  Se19  1  0.129597  0.951380  0.742867  1
  Se  Se20  1  0.119353  0.039610  0.482017  1
  Se  Se21  1  0.088139  0.236621  0.628805  1
  Se  Se22  1  0.567456  0.127633  0.668761  1
  Se  Se23  1  0.888517  0.765855  0.619839  1
  Se  Se24  1  0.074649  0.367568  0.170410  1
  Se  Se25  1  0.574649  0.132432  0.829590  1
  Se  Se26  1  0.619353  0.460390  0.517983  1
  Se  Se27  1  0.388517  0.734145  0.380161  1
  Se  Se28  1  0.425351  0.632432  0.670410  1
  Se  Se29  1  0.432544  0.627633  0.831239  1
  Se  Se30  1  0.370403  0.048620  0.242867  1
  Se  Se31  1  0.870403  0.451380  0.757133  1
  Se  Se32  1  0.111483  0.265855  0.880161  1
  Se  Se33  1  0.925351  0.867568  0.329590  1
  Se  Se34  1  0.932544  0.872367  0.168761  1
  Se  Se35  1  0.611483  0.234145  0.119839  1
  Se  Se36  1  0.588139  0.263379  0.371195  1
  Se  Se37  1  0.411861  0.763379  0.128805  1
  Se  Se38  1  0.380647  0.960390  0.982017  1
  Se  Se39  1  0.067456  0.372367  0.331239  1
