# generated using pymatgen
data_Lu7Sb3
_symmetry_space_group_name_H-M   'P 1'
_cell_length_a   11.97555521
_cell_length_b   11.97555521
_cell_length_c   11.97555521
_cell_angle_alpha   97.87834495
_cell_angle_beta   97.87834495
_cell_angle_gamma   136.54040824
_symmetry_Int_Tables_number   1
_chemical_formula_structural   Lu7Sb3
_chemical_formula_sum   'Lu28 Sb12'
_cell_volume   1097.39740003
_cell_formula_units_Z   4
loop_
 _symmetry_equiv_pos_site_id
 _symmetry_equiv_pos_as_xyz
  1  'x, y, z'
loop_
 _atom_site_type_symbol
 _atom_site_label
 _atom_site_symmetry_multiplicity
 _atom_site_fract_x
 _atom_site_fract_y
 _atom_site_fract_z
 _atom_site_occupancy
  Lu  Lu0  1  0.029335  0.529335  0.170513  1
  Lu  Lu1  1  0.750000  0.750000  0.000000  1
  Lu  Lu2  1  0.335780  0.982635  0.318415  1
  Lu  Lu3  1  0.883395  0.123428  0.006823  1
  Lu  Lu4  1  0.641177  0.141177  0.170513  1
  Lu  Lu5  1  0.616605  0.623428  0.240033  1
  Lu  Lu6  1  0.017365  0.335780  0.353144  1
  Lu  Lu7  1  0.164220  0.482635  0.646856  1
  Lu  Lu8  1  0.529335  0.358823  0.500000  1
  Lu  Lu9  1  0.623428  0.383395  0.006823  1
  Lu  Lu10  1  0.141177  0.970665  0.500000  1
  Lu  Lu11  1  0.376572  0.616605  0.993177  1
  Lu  Lu12  1  0.664220  0.017365  0.681585  1
  Lu  Lu13  1  0.123428  0.116605  0.240033  1
  Lu  Lu14  1  0.858823  0.029335  0.500000  1
  Lu  Lu15  1  0.482635  0.835780  0.318415  1
  Lu  Lu16  1  0.358823  0.858823  0.829487  1
  Lu  Lu17  1  0.470665  0.641177  0.500000  1
  Lu  Lu18  1  0.116605  0.876572  0.993177  1
  Lu  Lu19  1  0.250000  0.250000  0.000000  1
  Lu  Lu20  1  0.835780  0.517365  0.353144  1
  Lu  Lu21  1  0.383395  0.376572  0.759967  1
  Lu  Lu22  1  0.970665  0.470665  0.829487  1
  Lu  Lu23  1  0.982635  0.664220  0.646856  1
  Lu  Lu24  1  0.750000  0.250000  0.500000  1
  Lu  Lu25  1  0.876572  0.883395  0.759967  1
  Lu  Lu26  1  0.517365  0.164220  0.681585  1
  Lu  Lu27  1  0.250000  0.750000  0.500000  1
  Sb  Sb28  1  0.750000  0.552865  0.802865  1
  Sb  Sb29  1  0.780320  0.719680  0.500000  1
  Sb  Sb30  1  0.250000  0.447135  0.197135  1
  Sb  Sb31  1  0.219680  0.280320  0.500000  1
  Sb  Sb32  1  0.719680  0.219680  0.939359  1
  Sb  Sb33  1  0.947135  0.750000  0.197135  1
  Sb  Sb34  1  0.280320  0.780320  0.060641  1
  Sb  Sb35  1  0.447135  0.250000  0.197135  1
  Sb  Sb36  1  0.250000  0.052865  0.802865  1
  Sb  Sb37  1  0.552865  0.750000  0.802865  1
  Sb  Sb38  1  0.750000  0.947135  0.197135  1
  Sb  Sb39  1  0.052865  0.250000  0.802865  1
