# generated using pymatgen
data_AlPO4
_symmetry_space_group_name_H-M   'P 1'
_cell_length_a   9.90434389
_cell_length_b   8.59217838
_cell_length_c   14.09458141
_cell_angle_alpha   90.00000000
_cell_angle_beta   110.36347851
_cell_angle_gamma   90.00000000
_symmetry_Int_Tables_number   1
_chemical_formula_structural   AlPO4
_chemical_formula_sum   'Al10 P10 O40'
_cell_volume   1124.48664303
_cell_formula_units_Z   10
loop_
 _symmetry_equiv_pos_site_id
 _symmetry_equiv_pos_as_xyz
  1  'x, y, z'
loop_
 _atom_site_type_symbol
 _atom_site_label
 _atom_site_symmetry_multiplicity
 _atom_site_fract_x
 _atom_site_fract_y
 _atom_site_fract_z
 _atom_site_occupancy
  Al  Al0  1  0.566854  0.361106  0.124209  1
  Al  Al1  1  0.724492  0.364194  0.444613  1
  Al  Al2  1  0.163475  0.361753  0.730455  1
  Al  Al3  1  0.836525  0.861753  0.269545  1
  Al  Al4  1  0.581446  0.366328  0.731032  1
  Al  Al5  1  0.418554  0.866328  0.268968  1
  Al  Al6  1  0.275508  0.864194  0.555387  1
  Al  Al7  1  0.837227  0.862766  0.658769  1
  Al  Al8  1  0.433146  0.861106  0.875791  1
  Al  Al9  1  0.162773  0.362766  0.341231  1
  P  P10  1  0.555068  0.983442  0.107714  1
  P  P11  1  0.709880  0.990796  0.430990  1
  P  P12  1  0.854864  0.491589  0.289173  1
  P  P13  1  0.571169  0.987506  0.720098  1
  P  P14  1  0.145136  0.991589  0.710827  1
  P  P15  1  0.444932  0.483442  0.892286  1
  P  P16  1  0.151063  0.989179  0.322061  1
  P  P17  1  0.848937  0.489179  0.677939  1
  P  P18  1  0.290120  0.490796  0.569010  1
  P  P19  1  0.428831  0.487506  0.279902  1
  O  O20  1  0.512177  0.442618  0.004291  1
  O  O21  1  0.292716  0.420388  0.291605  1
  O  O22  1  0.420869  0.659528  0.880858  1
  O  O23  1  0.556462  0.927524  0.379102  1
  O  O24  1  0.487823  0.942618  0.995709  1
  O  O25  1  0.701014  0.898641  0.152364  1
  O  O26  1  0.168099  0.166122  0.697815  1
  O  O27  1  0.255514  0.944138  0.267892  1
  O  O28  1  0.744486  0.444138  0.732108  1
  O  O29  1  0.152342  0.903293  0.617151  1
  O  O30  1  0.552958  0.913454  0.814296  1
  O  O31  1  0.443538  0.427524  0.620898  1
  O  O32  1  0.298256  0.664042  0.544862  1
  O  O33  1  0.451900  0.932997  0.162075  1
  O  O34  1  0.788990  0.437450  0.566871  1
  O  O35  1  0.587585  0.163961  0.734020  1
  O  O36  1  0.218810  0.398987  0.471238  1
  O  O37  1  0.200202  0.473686  0.638139  1
  O  O38  1  0.831901  0.666122  0.302185  1
  O  O39  1  0.799798  0.973686  0.361861  1
  O  O40  1  0.847658  0.403293  0.382849  1
  O  O41  1  0.738592  0.432445  0.192444  1
  O  O42  1  0.006101  0.909343  0.266560  1
  O  O43  1  0.261408  0.932445  0.807556  1
  O  O44  1  0.447042  0.413454  0.185704  1
  O  O45  1  0.993899  0.409343  0.733440  1
  O  O46  1  0.871679  0.665463  0.682752  1
  O  O47  1  0.781190  0.898987  0.528762  1
  O  O48  1  0.003243  0.465757  0.280107  1
  O  O49  1  0.707284  0.920388  0.708395  1
  O  O50  1  0.996757  0.965757  0.719893  1
  O  O51  1  0.128321  0.165463  0.317248  1
  O  O52  1  0.211010  0.937450  0.433129  1
  O  O53  1  0.548100  0.432997  0.837925  1
  O  O54  1  0.440018  0.951504  0.624782  1
  O  O55  1  0.559982  0.451504  0.375218  1
  O  O56  1  0.412415  0.663961  0.265980  1
  O  O57  1  0.701744  0.164042  0.455138  1
  O  O58  1  0.579131  0.159528  0.119142  1
  O  O59  1  0.298986  0.398641  0.847636  1
