# generated using pymatgen
data_Sr2VO4
_symmetry_space_group_name_H-M   'P 1'
_cell_length_a   5.96892088
_cell_length_b   10.66544619
_cell_length_c   14.69336130
_cell_angle_alpha   90.00000000
_cell_angle_beta   90.00000000
_cell_angle_gamma   90.00000000
_symmetry_Int_Tables_number   1
_chemical_formula_structural   Sr2VO4
_chemical_formula_sum   'Sr16 V8 O32'
_cell_volume   935.39707789
_cell_formula_units_Z   8
loop_
 _symmetry_equiv_pos_site_id
 _symmetry_equiv_pos_as_xyz
  1  'x, y, z'
loop_
 _atom_site_type_symbol
 _atom_site_label
 _atom_site_symmetry_multiplicity
 _atom_site_fract_x
 _atom_site_fract_y
 _atom_site_fract_z
 _atom_site_occupancy
  Sr  Sr0  1  0.203505  0.025509  0.148163  1
  Sr  Sr1  1  0.796495  0.525509  0.851837  1
  Sr  Sr2  1  0.296495  0.025509  0.648163  1
  Sr  Sr3  1  0.703505  0.525509  0.351837  1
  Sr  Sr4  1  0.189537  0.672062  0.207188  1
  Sr  Sr5  1  0.810463  0.172062  0.792812  1
  Sr  Sr6  1  0.310463  0.672062  0.707188  1
  Sr  Sr7  1  0.689537  0.172062  0.292812  1
  Sr  Sr8  1  0.229777  0.909262  0.404228  1
  Sr  Sr9  1  0.770223  0.409262  0.595772  1
  Sr  Sr10  1  0.270223  0.909262  0.904228  1
  Sr  Sr11  1  0.729777  0.409262  0.095772  1
  Sr  Sr12  1  0.222524  0.276352  0.474405  1
  Sr  Sr13  1  0.777476  0.776352  0.525595  1
  Sr  Sr14  1  0.277476  0.276352  0.974405  1
  Sr  Sr15  1  0.722524  0.776352  0.025595  1
  V  V16  1  0.761945  0.113912  0.027933  1
  V  V17  1  0.238055  0.613912  0.972067  1
  V  V18  1  0.738055  0.113912  0.527933  1
  V  V19  1  0.261945  0.613912  0.472067  1
  V  V20  1  0.777093  0.878030  0.272653  1
  V  V21  1  0.222907  0.378030  0.727347  1
  V  V22  1  0.722907  0.878030  0.772653  1
  V  V23  1  0.277093  0.378030  0.227347  1
  O  O24  1  0.357814  0.258178  0.146701  1
  O  O25  1  0.642186  0.758178  0.853299  1
  O  O26  1  0.142186  0.258178  0.646701  1
  O  O27  1  0.857814  0.758178  0.353299  1
  O  O28  1  0.005000  0.454734  0.234117  1
  O  O29  1  0.995000  0.954734  0.765883  1
  O  O30  1  0.495000  0.454734  0.734117  1
  O  O31  1  0.505000  0.954734  0.265883  1
  O  O32  1  0.853143  0.183308  0.134051  1
  O  O33  1  0.146857  0.683308  0.865949  1
  O  O34  1  0.646857  0.183308  0.634051  1
  O  O35  1  0.353143  0.683308  0.365949  1
  O  O36  1  0.973821  0.008065  0.296963  1
  O  O37  1  0.026179  0.508065  0.703037  1
  O  O38  1  0.526179  0.008065  0.796963  1
  O  O39  1  0.473821  0.508065  0.203037  1
  O  O40  1  0.822619  0.246193  0.453239  1
  O  O41  1  0.177381  0.746193  0.546761  1
  O  O42  1  0.677381  0.246193  0.953239  1
  O  O43  1  0.322619  0.746193  0.046761  1
  O  O44  1  0.406151  0.329428  0.335760  1
  O  O45  1  0.593849  0.829428  0.664240  1
  O  O46  1  0.093849  0.329428  0.835760  1
  O  O47  1  0.906151  0.829428  0.164240  1
  O  O48  1  0.035124  0.058489  0.984401  1
  O  O49  1  0.964876  0.558489  0.015599  1
  O  O50  1  0.464876  0.058489  0.484401  1
  O  O51  1  0.535124  0.558489  0.515599  1
  O  O52  1  0.539470  0.999479  0.025876  1
  O  O53  1  0.460530  0.499479  0.974124  1
  O  O54  1  0.960530  0.999479  0.525876  1
  O  O55  1  0.039470  0.499479  0.474124  1
