# generated using pymatgen
data_Ga2NiP3H8NO14
_symmetry_space_group_name_H-M   'P 1'
_cell_length_a   8.43274094
_cell_length_b   8.43274094
_cell_length_c   9.02057634
_cell_angle_alpha   75.77794155
_cell_angle_beta   104.22205845
_cell_angle_gamma   105.60993983
_symmetry_Int_Tables_number   1
_chemical_formula_structural   Ga2NiP3H8NO14
_chemical_formula_sum   'Ga4 Ni2 P6 H16 N2 O28'
_cell_volume   587.68607937
_cell_formula_units_Z   2
loop_
 _symmetry_equiv_pos_site_id
 _symmetry_equiv_pos_as_xyz
  1  'x, y, z'
loop_
 _atom_site_type_symbol
 _atom_site_label
 _atom_site_symmetry_multiplicity
 _atom_site_fract_x
 _atom_site_fract_y
 _atom_site_fract_z
 _atom_site_occupancy
  Ga  Ga0  1  0.901889  0.246165  0.431624  1
  Ga  Ga1  1  0.246165  0.901889  0.068376  1
  Ga  Ga2  1  0.098111  0.753835  0.568376  1
  Ga  Ga3  1  0.753835  0.098111  0.931624  1
  Ni  Ni4  1  0.724519  0.724519  0.750000  1
  Ni  Ni5  1  0.275481  0.275481  0.250000  1
  P  P6  1  0.582394  0.165910  0.177286  1
  P  P7  1  0.165910  0.582394  0.322714  1
  P  P8  1  0.417606  0.834090  0.822714  1
  P  P9  1  0.999187  0.999187  0.750000  1
  P  P10  1  0.000813  0.000813  0.250000  1
  P  P11  1  0.834090  0.417606  0.677286  1
  H  H12  1  0.751392  0.635116  0.316645  1
  H  H13  1  0.635116  0.751392  0.183355  1
  H  H14  1  0.248608  0.364884  0.683355  1
  H  H15  1  0.364884  0.248608  0.816645  1
  H  H16  1  0.603047  0.543230  0.181250  1
  H  H17  1  0.543230  0.603047  0.318750  1
  H  H18  1  0.396953  0.456770  0.818750  1
  H  H19  1  0.456770  0.396953  0.681250  1
  H  H20  1  0.224087  0.521946  0.006565  1
  H  H21  1  0.521946  0.224087  0.493435  1
  H  H22  1  0.775913  0.478054  0.993435  1
  H  H23  1  0.478054  0.775913  0.506565  1
  H  H24  1  0.919777  0.632027  0.043590  1
  H  H25  1  0.632027  0.919777  0.456410  1
  H  H26  1  0.080223  0.367973  0.956410  1
  H  H27  1  0.367973  0.080223  0.543590  1
  N  N28  1  0.366743  0.366743  0.750000  1
  N  N29  1  0.633257  0.633257  0.250000  1
  O  O30  1  0.117202  0.701485  0.162505  1
  O  O31  1  0.495677  0.301854  0.181516  1
  O  O32  1  0.830241  0.972592  0.803791  1
  O  O33  1  0.972592  0.830241  0.696209  1
  O  O34  1  0.032692  0.152117  0.617123  1
  O  O35  1  0.027408  0.169759  0.303791  1
  O  O36  1  0.601554  0.806050  0.519717  1
  O  O37  1  0.806050  0.601554  0.980283  1
  O  O38  1  0.398446  0.193950  0.480283  1
  O  O39  1  0.193950  0.398446  0.019717  1
  O  O40  1  0.882798  0.298515  0.837495  1
  O  O41  1  0.152117  0.032692  0.882877  1
  O  O42  1  0.301854  0.495677  0.318484  1
  O  O43  1  0.701485  0.117202  0.337495  1
  O  O44  1  0.684031  0.234746  0.043824  1
  O  O45  1  0.234746  0.684031  0.456176  1
  O  O46  1  0.315969  0.765254  0.956176  1
  O  O47  1  0.765254  0.315969  0.543824  1
  O  O48  1  0.534871  0.007490  0.843306  1
  O  O49  1  0.007490  0.534871  0.656694  1
  O  O50  1  0.465129  0.992510  0.156694  1
  O  O51  1  0.992510  0.465129  0.343306  1
  O  O52  1  0.698146  0.504323  0.681516  1
  O  O53  1  0.504323  0.698146  0.818484  1
  O  O54  1  0.967308  0.847883  0.382877  1
  O  O55  1  0.847883  0.967308  0.117123  1
  O  O56  1  0.169759  0.027408  0.196209  1
  O  O57  1  0.298515  0.882798  0.662505  1
