# generated using pymatgen
data_K3Na4Si3BF22
_symmetry_space_group_name_H-M   'P 1'
_cell_length_a   10.26423417
_cell_length_b   10.26423417
_cell_length_c   10.26423417
_cell_angle_alpha   148.18285338
_cell_angle_beta   126.05562501
_cell_angle_gamma   64.00419389
_symmetry_Int_Tables_number   1
_chemical_formula_structural   K3Na4Si3BF22
_chemical_formula_sum   'K3 Na4 Si3 B1 F22'
_cell_volume   456.03371288
_cell_formula_units_Z   1
loop_
 _symmetry_equiv_pos_site_id
 _symmetry_equiv_pos_as_xyz
  1  'x, y, z'
loop_
 _atom_site_type_symbol
 _atom_site_label
 _atom_site_symmetry_multiplicity
 _atom_site_fract_x
 _atom_site_fract_y
 _atom_site_fract_z
 _atom_site_occupancy
  K  K0  1  0.408812  0.626036  0.782775  1
  K  K1  1  0.156739  0.373963  0.782776  1
  K  K2  1  0.944786  1.000000  0.944786  1
  Na  Na3  1  0.021610  0.670434  0.351176  1
  Na  Na4  1  0.461958  0.858249  0.603708  1
  Na  Na5  1  0.745459  0.141750  0.603708  1
  Na  Na6  1  0.680742  0.329566  0.351176  1
  Si  Si7  1  0.233034  0.214133  0.018900  1
  Si  Si8  1  0.704186  0.500000  0.204187  1
  Si  Si9  1  0.804767  0.785866  0.018900  1
  B  B10  1  0.313830  1.000000  0.313830  1
  F  F11  1  0.282897  0.066299  0.782980  1
  F  F12  1  0.780996  0.785855  0.425468  1
  F  F13  1  0.886434  0.637754  0.814153  1
  F  F14  1  0.176399  0.362246  0.248680  1
  F  F15  1  0.639613  0.214145  0.995141  1
  F  F16  1  0.426138  0.225938  0.200200  1
  F  F17  1  0.176399  0.927719  0.814153  1
  F  F18  1  0.886434  0.072281  0.248680  1
  F  F19  1  0.889348  0.500000  0.389348  1
  F  F20  1  0.465875  0.067162  0.398712  1
  F  F21  1  0.331550  0.932837  0.398713  1
  F  F22  1  0.225117  0.793968  0.019085  1
  F  F23  1  0.523275  0.500000  0.023276  1
  F  F24  1  0.282897  0.499917  0.216598  1
  F  F25  1  0.639613  0.644472  0.425468  1
  F  F26  1  0.716681  0.933701  0.216598  1
  F  F27  1  0.225117  0.206032  0.431148  1
  F  F28  1  0.630343  0.796733  0.833609  1
  F  F29  1  0.716681  0.500083  0.782980  1
  F  F30  1  0.036876  0.203266  0.833610  1
  F  F31  1  0.974261  0.774061  0.200200  1
  F  F32  1  0.780996  0.355528  0.995141  1
