# generated using pymatgen
data_Li9Bi3P8O29
_symmetry_space_group_name_H-M   'P 1'
_cell_length_a   10.32719344
_cell_length_b   10.32719344
_cell_length_c   14.16363854
_cell_angle_alpha   90.00000000
_cell_angle_beta   90.00000000
_cell_angle_gamma   120.00000000
_symmetry_Int_Tables_number   1
_chemical_formula_structural   Li9Bi3P8O29
_chemical_formula_sum   'Li18 Bi6 P16 O58'
_cell_volume   1308.18778753
_cell_formula_units_Z   2
loop_
 _symmetry_equiv_pos_site_id
 _symmetry_equiv_pos_as_xyz
  1  'x, y, z'
loop_
 _atom_site_type_symbol
 _atom_site_label
 _atom_site_symmetry_multiplicity
 _atom_site_fract_x
 _atom_site_fract_y
 _atom_site_fract_z
 _atom_site_occupancy
  Li  Li0  1  0.328414  0.105715  0.061033  1
  Li  Li1  1  0.222699  0.894285  0.438967  1
  Li  Li2  1  0.894285  0.222699  0.061033  1
  Li  Li3  1  0.777301  0.105715  0.561033  1
  Li  Li4  1  0.328414  0.222699  0.561033  1
  Li  Li5  1  0.671586  0.894285  0.938967  1
  Li  Li6  1  0.333333  0.666667  0.621682  1
  Li  Li7  1  0.666667  0.333333  0.378318  1
  Li  Li8  1  0.222699  0.328414  0.938967  1
  Li  Li9  1  0.105715  0.328414  0.438967  1
  Li  Li10  1  0.000000  0.000000  0.500000  1
  Li  Li11  1  0.000000  0.000000  0.000000  1
  Li  Li12  1  0.894285  0.671586  0.561033  1
  Li  Li13  1  0.333333  0.666667  0.121682  1
  Li  Li14  1  0.777301  0.671586  0.061033  1
  Li  Li15  1  0.666667  0.333333  0.878318  1
  Li  Li16  1  0.671586  0.777301  0.438967  1
  Li  Li17  1  0.105715  0.777301  0.938967  1
  Bi  Bi18  1  0.561451  0.000000  0.750000  1
  Bi  Bi19  1  0.000000  0.438549  0.250000  1
  Bi  Bi20  1  0.438549  0.000000  0.250000  1
  Bi  Bi21  1  0.000000  0.561451  0.750000  1
  Bi  Bi22  1  0.561451  0.561451  0.250000  1
  Bi  Bi23  1  0.438549  0.438549  0.750000  1
  P  P24  1  0.695299  0.784536  0.653643  1
  P  P25  1  0.666667  0.333333  0.610447  1
  P  P26  1  0.784536  0.695299  0.846357  1
  P  P27  1  0.333333  0.666667  0.389553  1
  P  P28  1  0.666667  0.333333  0.110447  1
  P  P29  1  0.304701  0.215464  0.346357  1
  P  P30  1  0.089237  0.304701  0.653643  1
  P  P31  1  0.695299  0.910763  0.153643  1
  P  P32  1  0.089237  0.784536  0.153643  1
  P  P33  1  0.215464  0.304701  0.153643  1
  P  P34  1  0.333333  0.666667  0.889553  1
  P  P35  1  0.304701  0.089237  0.846357  1
  P  P36  1  0.910763  0.215464  0.846357  1
  P  P37  1  0.910763  0.695299  0.346357  1
  P  P38  1  0.784536  0.089237  0.346357  1
  P  P39  1  0.215464  0.910763  0.653643  1
  O  O40  1  0.296553  0.234049  0.847199  1
  O  O41  1  0.470014  0.129643  0.841883  1
  O  O42  1  0.222046  0.222046  0.250000  1
  O  O43  1  0.703447  0.937496  0.652801  1
  O  O44  1  0.870357  0.340371  0.841883  1
  O  O45  1  0.937496  0.703447  0.847199  1
  O  O46  1  0.511429  0.206108  0.148417  1
  O  O47  1  0.694679  0.206108  0.648417  1
  O  O48  1  0.529986  0.659629  0.658117  1
  O  O49  1  0.005652  0.781072  0.431327  1
  O  O50  1  0.218928  0.994348  0.931327  1
  O  O51  1  0.793892  0.488571  0.648417  1
  O  O52  1  0.659629  0.129643  0.341883  1
  O  O53  1  0.062504  0.765951  0.652801  1
  O  O54  1  0.694679  0.488571  0.148417  1
  O  O55  1  0.470014  0.340371  0.341883  1
  O  O56  1  0.224580  0.218928  0.068673  1
  O  O57  1  0.206108  0.511429  0.351583  1
  O  O58  1  0.529986  0.870357  0.158117  1
  O  O59  1  0.765951  0.062504  0.847199  1
  O  O60  1  0.000000  0.222046  0.750000  1
  O  O61  1  0.870357  0.529986  0.341883  1
  O  O62  1  0.296553  0.062504  0.347199  1
  O  O63  1  0.234049  0.296553  0.652801  1
  O  O64  1  0.222046  0.000000  0.750000  1
  O  O65  1  0.488571  0.793892  0.851583  1
  O  O66  1  0.340371  0.470014  0.158117  1
  O  O67  1  0.659629  0.529986  0.841883  1
  O  O68  1  0.793892  0.305321  0.148417  1
  O  O69  1  0.777954  0.777954  0.750000  1
  O  O70  1  0.062504  0.296553  0.152801  1
  O  O71  1  0.333333  0.666667  0.495766  1
  O  O72  1  0.775420  0.781072  0.931327  1
  O  O73  1  0.775420  0.994348  0.431327  1
  O  O74  1  0.765951  0.703447  0.347199  1
  O  O75  1  0.129643  0.470014  0.658117  1
  O  O76  1  0.703447  0.765951  0.152801  1
  O  O77  1  0.666667  0.333333  0.504234  1
  O  O78  1  0.781072  0.005652  0.068673  1
  O  O79  1  0.206108  0.694679  0.851583  1
  O  O80  1  0.305321  0.793892  0.351583  1
  O  O81  1  0.005652  0.224580  0.931327  1
  O  O82  1  0.666667  0.333333  0.004234  1
  O  O83  1  0.777954  0.000000  0.250000  1
  O  O84  1  0.000000  0.777954  0.250000  1
  O  O85  1  0.994348  0.775420  0.068673  1
  O  O86  1  0.129643  0.659629  0.158117  1
  O  O87  1  0.781072  0.775420  0.568673  1
  O  O88  1  0.333333  0.666667  0.995766  1
  O  O89  1  0.234049  0.937496  0.152801  1
  O  O90  1  0.488571  0.694679  0.351583  1
  O  O91  1  0.340371  0.870357  0.658117  1
  O  O92  1  0.994348  0.218928  0.568673  1
  O  O93  1  0.937496  0.234049  0.347199  1
  O  O94  1  0.218928  0.224580  0.431327  1
  O  O95  1  0.511429  0.305321  0.648417  1
  O  O96  1  0.224580  0.005652  0.568673  1
  O  O97  1  0.305321  0.511429  0.851583  1
