# generated using pymatgen
data_K2Nb4Fe2O13
_symmetry_space_group_name_H-M   'P 1'
_cell_length_a   8.43258059
_cell_length_b   8.43258059
_cell_length_c   9.63593065
_cell_angle_alpha   80.02825291
_cell_angle_beta   99.97174709
_cell_angle_gamma   152.82969247
_symmetry_Int_Tables_number   1
_chemical_formula_structural   K2Nb4Fe2O13
_chemical_formula_sum   'K2 Nb4 Fe2 O13'
_cell_volume   307.88075538
_cell_formula_units_Z   1
loop_
 _symmetry_equiv_pos_site_id
 _symmetry_equiv_pos_as_xyz
  1  'x, y, z'
loop_
 _atom_site_type_symbol
 _atom_site_label
 _atom_site_symmetry_multiplicity
 _atom_site_fract_x
 _atom_site_fract_y
 _atom_site_fract_z
 _atom_site_occupancy
  K  K0  1  0.551230  0.448770  0.250673  1
  K  K1  1  0.448770  0.551230  0.749327  1
  Nb  Nb2  1  0.836108  0.163892  0.063932  1
  Nb  Nb3  1  0.880926  0.119074  0.415252  1
  Nb  Nb4  1  0.163892  0.836108  0.936068  1
  Nb  Nb5  1  0.119074  0.880926  0.584748  1
  Fe  Fe6  1  0.763142  0.236858  0.725001  1
  Fe  Fe7  1  0.236858  0.763142  0.274999  1
  O  O8  1  0.624486  0.375514  0.613504  1
  O  O9  1  0.375514  0.624486  0.386496  1
  O  O10  1  1.000000  0.000000  0.500000  1
  O  O11  1  0.699928  0.300072  0.938330  1
  O  O12  1  0.300072  0.699928  0.061670  1
  O  O13  1  0.163720  0.836280  0.422531  1
  O  O14  1  0.836280  0.163720  0.577469  1
  O  O15  1  0.067948  0.932052  0.803117  1
  O  O16  1  0.777132  0.222868  0.256948  1
  O  O17  1  0.222868  0.777132  0.743052  1
  O  O18  1  0.932052  0.067948  0.196883  1
  O  O19  1  0.130719  0.869281  0.109797  1
  O  O20  1  0.869281  0.130719  0.890203  1
