# generated using pymatgen
data_Ca2P2H8O11
_symmetry_space_group_name_H-M   'P 1'
_cell_length_a   5.97329613
_cell_length_b   25.27542274
_cell_length_c   6.96477548
_cell_angle_alpha   90.00000000
_cell_angle_beta   109.71574861
_cell_angle_gamma   90.00000000
_symmetry_Int_Tables_number   1
_chemical_formula_structural   Ca2P2H8O11
_chemical_formula_sum   'Ca8 P8 H32 O44'
_cell_volume   989.88232934
_cell_formula_units_Z   4
loop_
 _symmetry_equiv_pos_site_id
 _symmetry_equiv_pos_as_xyz
  1  'x, y, z'
loop_
 _atom_site_type_symbol
 _atom_site_label
 _atom_site_symmetry_multiplicity
 _atom_site_fract_x
 _atom_site_fract_y
 _atom_site_fract_z
 _atom_site_occupancy
  Ca  Ca0  1  0.893704  0.294631  0.397730  1
  Ca  Ca1  1  0.106296  0.705369  0.602270  1
  Ca  Ca2  1  0.804891  0.957579  0.604752  1
  Ca  Ca3  1  0.893704  0.205369  0.897730  1
  Ca  Ca4  1  0.106296  0.794631  0.102270  1
  Ca  Ca5  1  0.804891  0.542421  0.104752  1
  Ca  Ca6  1  0.195109  0.457579  0.895248  1
  Ca  Ca7  1  0.195109  0.042421  0.395248  1
  P  P8  1  0.923947  0.333282  0.910078  1
  P  P9  1  0.076053  0.833282  0.589922  1
  P  P10  1  0.076053  0.666718  0.089922  1
  P  P11  1  0.806638  0.418563  0.144970  1
  P  P12  1  0.193362  0.918563  0.355030  1
  P  P13  1  0.806638  0.081437  0.644970  1
  P  P14  1  0.923947  0.166718  0.410078  1
  P  P15  1  0.193362  0.581437  0.855030  1
  H  H16  1  0.466293  0.187074  0.134968  1
  H  H17  1  0.387325  0.173312  0.629738  1
  H  H18  1  0.616953  0.732429  0.804688  1
  H  H19  1  0.383047  0.232429  0.695312  1
  H  H20  1  0.616953  0.767571  0.304688  1
  H  H21  1  0.802712  0.074108  0.011824  1
  H  H22  1  0.787018  0.576961  0.510800  1
  H  H23  1  0.212982  0.076961  0.989200  1
  H  H24  1  0.612675  0.673312  0.870262  1
  H  H25  1  0.802712  0.425892  0.511824  1
  H  H26  1  0.787018  0.923039  0.010800  1
  H  H27  1  0.241915  0.513324  0.455979  1
  H  H28  1  0.282572  0.170631  0.246028  1
  H  H29  1  0.533707  0.812926  0.865032  1
  H  H30  1  0.197288  0.574108  0.488176  1
  H  H31  1  0.241915  0.986676  0.955979  1
  H  H32  1  0.717428  0.829369  0.753972  1
  H  H33  1  0.533707  0.687074  0.365032  1
  H  H34  1  0.758085  0.013324  0.044021  1
  H  H35  1  0.197288  0.925892  0.988176  1
  H  H36  1  0.519723  0.556567  0.396490  1
  H  H37  1  0.480277  0.443433  0.603510  1
  H  H38  1  0.466293  0.312926  0.634968  1
  H  H39  1  0.282572  0.329369  0.746028  1
  H  H40  1  0.758085  0.486676  0.544021  1
  H  H41  1  0.212982  0.423039  0.489200  1
  H  H42  1  0.480277  0.056567  0.103510  1
  H  H43  1  0.519723  0.943433  0.896490  1
  H  H44  1  0.612675  0.826688  0.370262  1
  H  H45  1  0.383047  0.267571  0.195312  1
  H  H46  1  0.717428  0.670631  0.253972  1
  H  H47  1  0.387325  0.326688  0.129738  1
  O  O48  1  0.310150  0.051848  0.091785  1
  O  O49  1  0.787628  0.311096  0.698253  1
  O  O50  1  0.153917  0.362517  0.919698  1
  O  O51  1  0.890265  0.386571  0.344349  1
  O  O52  1  0.215297  0.951847  0.885917  1
  O  O53  1  0.001374  0.043813  0.629929  1
  O  O54  1  0.514947  0.700821  0.779035  1
  O  O55  1  0.300657  0.307616  0.633355  1
  O  O56  1  0.310150  0.448152  0.591785  1
  O  O57  1  0.998626  0.543813  0.870071  1
  O  O58  1  0.784703  0.048153  0.114083  1
  O  O59  1  0.485053  0.299179  0.220965  1
  O  O60  1  0.485053  0.200821  0.720965  1
  O  O61  1  0.255017  0.876648  0.544284  1
  O  O62  1  0.034566  0.790012  0.426122  1
  O  O63  1  0.998626  0.956187  0.370071  1
  O  O64  1  0.212372  0.688904  0.301747  1
  O  O65  1  0.965434  0.209988  0.573878  1
  O  O66  1  0.579022  0.050098  0.612329  1
  O  O67  1  0.034566  0.709988  0.926122  1
  O  O68  1  0.890265  0.113429  0.844349  1
  O  O69  1  0.699343  0.807616  0.866645  1
  O  O70  1  0.255017  0.623352  0.044284  1
  O  O71  1  0.300657  0.192384  0.133355  1
  O  O72  1  0.846083  0.637483  0.080302  1
  O  O73  1  0.689850  0.948152  0.908215  1
  O  O74  1  0.744983  0.123352  0.455716  1
  O  O75  1  0.699343  0.692384  0.366645  1
  O  O76  1  0.965434  0.290012  0.073878  1
  O  O77  1  0.579022  0.449902  0.112329  1
  O  O78  1  0.744983  0.376648  0.955716  1
  O  O79  1  0.689850  0.551848  0.408215  1
  O  O80  1  0.212372  0.811096  0.801747  1
  O  O81  1  0.514947  0.799179  0.279035  1
  O  O82  1  0.846083  0.862517  0.580302  1
  O  O83  1  0.420978  0.550098  0.887671  1
  O  O84  1  0.784703  0.451847  0.614083  1
  O  O85  1  0.001374  0.456187  0.129929  1
  O  O86  1  0.787628  0.188904  0.198253  1
  O  O87  1  0.109735  0.613429  0.655651  1
  O  O88  1  0.420978  0.949902  0.387671  1
  O  O89  1  0.153917  0.137483  0.419698  1
  O  O90  1  0.215297  0.548153  0.385917  1
  O  O91  1  0.109735  0.886571  0.155651  1
