# generated using pymatgen
data_La2SnS3O2
_symmetry_space_group_name_H-M   'P 1'
_cell_length_a   5.89103431
_cell_length_b   5.90440464
_cell_length_c   19.27261782
_cell_angle_alpha   90.00000000
_cell_angle_beta   90.00000000
_cell_angle_gamma   90.00000000
_symmetry_Int_Tables_number   1
_chemical_formula_structural   La2SnS3O2
_chemical_formula_sum   'La8 Sn4 S12 O8'
_cell_volume   670.36043532
_cell_formula_units_Z   4
loop_
 _symmetry_equiv_pos_site_id
 _symmetry_equiv_pos_as_xyz
  1  'x, y, z'
loop_
 _atom_site_type_symbol
 _atom_site_label
 _atom_site_symmetry_multiplicity
 _atom_site_fract_x
 _atom_site_fract_y
 _atom_site_fract_z
 _atom_site_occupancy
  La  La0  1  0.502010  0.247850  0.562890  1
  La  La1  1  0.497990  0.752150  0.062890  1
  La  La2  1  0.002010  0.252150  0.437110  1
  La  La3  1  0.997990  0.747850  0.937110  1
  La  La4  1  0.497990  0.752150  0.437110  1
  La  La5  1  0.997990  0.747850  0.562890  1
  La  La6  1  0.002010  0.252150  0.062890  1
  La  La7  1  0.502010  0.247850  0.937110  1
  Sn  Sn8  1  0.930270  0.347601  0.750000  1
  Sn  Sn9  1  0.430270  0.152399  0.250000  1
  Sn  Sn10  1  0.569730  0.847601  0.750000  1
  Sn  Sn11  1  0.069730  0.652399  0.250000  1
  S  S12  1  0.483391  0.739188  0.250000  1
  S  S13  1  0.513212  0.256336  0.366544  1
  S  S14  1  0.013212  0.243664  0.633456  1
  S  S15  1  0.016609  0.239188  0.250000  1
  S  S16  1  0.486788  0.743664  0.633456  1
  S  S17  1  0.983391  0.760812  0.750000  1
  S  S18  1  0.486788  0.743664  0.866544  1
  S  S19  1  0.986788  0.756336  0.133456  1
  S  S20  1  0.516609  0.260812  0.750000  1
  S  S21  1  0.013212  0.243664  0.866544  1
  S  S22  1  0.986788  0.756336  0.366544  1
  S  S23  1  0.513212  0.256336  0.133456  1
  O  O24  1  0.748761  0.499435  0.499591  1
  O  O25  1  0.751239  0.999435  0.000409  1
  O  O26  1  0.248761  0.000565  0.999591  1
  O  O27  1  0.748761  0.499435  0.000409  1
  O  O28  1  0.251239  0.500565  0.999591  1
  O  O29  1  0.751239  0.999435  0.499591  1
  O  O30  1  0.251239  0.500565  0.500409  1
  O  O31  1  0.248761  0.000565  0.500409  1
