# generated using pymatgen
data_GdMoClO4
_symmetry_space_group_name_H-M   'P 1'
_cell_length_a   6.39144909
_cell_length_b   6.39144909
_cell_length_c   6.98552620
_cell_angle_alpha   76.12740114
_cell_angle_beta   103.87259886
_cell_angle_gamma   108.99293453
_symmetry_Int_Tables_number   1
_chemical_formula_structural   GdMoClO4
_chemical_formula_sum   'Gd2 Mo2 Cl2 O8'
_cell_volume   257.85933362
_cell_formula_units_Z   2
loop_
 _symmetry_equiv_pos_site_id
 _symmetry_equiv_pos_as_xyz
  1  'x, y, z'
loop_
 _atom_site_type_symbol
 _atom_site_label
 _atom_site_symmetry_multiplicity
 _atom_site_fract_x
 _atom_site_fract_y
 _atom_site_fract_z
 _atom_site_occupancy
  Gd  Gd0  1  0.778690  0.221310  0.885859  1
  Gd  Gd1  1  0.221310  0.778690  0.114141  1
  Mo  Mo2  1  0.362311  0.637689  0.731774  1
  Mo  Mo3  1  0.637689  0.362311  0.268226  1
  Cl  Cl4  1  0.989223  0.010777  0.233280  1
  Cl  Cl5  1  0.010777  0.989223  0.766720  1
  O  O6  1  0.706193  0.293807  0.532358  1
  O  O7  1  0.490584  0.887105  0.846742  1
  O  O8  1  0.293807  0.706193  0.467642  1
  O  O9  1  0.509416  0.112895  0.153258  1
  O  O10  1  0.887105  0.490584  0.153258  1
  O  O11  1  0.458893  0.541107  0.203530  1
  O  O12  1  0.112895  0.509416  0.846742  1
  O  O13  1  0.541107  0.458893  0.796470  1
