# generated using pymatgen
data_CuP4O11
_symmetry_space_group_name_H-M   'P 1'
_cell_length_a   9.39099320
_cell_length_b   9.44980937
_cell_length_c   10.73783178
_cell_angle_alpha   110.64159516
_cell_angle_beta   109.66407798
_cell_angle_gamma   89.44616970
_symmetry_Int_Tables_number   1
_chemical_formula_structural   CuP4O11
_chemical_formula_sum   'Cu4 P16 O44'
_cell_volume   833.28730257
_cell_formula_units_Z   4
loop_
 _symmetry_equiv_pos_site_id
 _symmetry_equiv_pos_as_xyz
  1  'x, y, z'
loop_
 _atom_site_type_symbol
 _atom_site_label
 _atom_site_symmetry_multiplicity
 _atom_site_fract_x
 _atom_site_fract_y
 _atom_site_fract_z
 _atom_site_occupancy
  Cu  Cu0  1  0.728824  0.271518  0.502408  1
  Cu  Cu1  1  0.271176  0.728482  0.497592  1
  Cu  Cu2  1  0.754654  0.773481  0.014859  1
  Cu  Cu3  1  0.245346  0.226519  0.985141  1
  P  P4  1  0.594884  0.900098  0.760077  1
  P  P5  1  0.404500  0.551032  0.248393  1
  P  P6  1  0.919115  0.240920  0.073380  1
  P  P7  1  0.945383  0.583682  0.224435  1
  P  P8  1  0.406219  0.766476  0.096024  1
  P  P9  1  0.080885  0.759080  0.926620  1
  P  P10  1  0.735048  0.584933  0.386250  1
  P  P11  1  0.242051  0.082889  0.435438  1
  P  P12  1  0.595500  0.448968  0.751607  1
  P  P13  1  0.757949  0.917111  0.564562  1
  P  P14  1  0.405116  0.099902  0.239923  1
  P  P15  1  0.909564  0.096993  0.283954  1
  P  P16  1  0.090436  0.903007  0.716046  1
  P  P17  1  0.054617  0.416318  0.775565  1
  P  P18  1  0.593781  0.233524  0.903976  1
  P  P19  1  0.264952  0.415067  0.613750  1
  O  O20  1  0.680586  0.034496  0.518267  1
  O  O21  1  0.249726  0.471707  0.499945  1
  O  O22  1  0.123698  0.781834  0.598831  1
  O  O23  1  0.415109  0.649459  0.395837  1
  O  O24  1  0.750274  0.528293  0.500055  1
  O  O25  1  0.302790  0.143232  0.340859  1
  O  O26  1  0.319414  0.965504  0.481733  1
  O  O27  1  0.578908  0.077738  0.776970  1
  O  O28  1  0.833007  0.635389  0.119056  1
  O  O29  1  0.017382  0.584484  0.857212  1
  O  O30  1  0.261518  0.762822  0.962518  1
  O  O31  1  0.934019  0.967551  0.649047  1
  O  O32  1  0.876302  0.218166  0.401169  1
  O  O33  1  0.205561  0.038094  0.813078  1
  O  O34  1  0.584891  0.350541  0.604163  1
  O  O35  1  0.140027  0.463420  0.683265  1
  O  O36  1  0.794439  0.961906  0.186922  1
  O  O37  1  0.065981  0.032449  0.350953  1
  O  O38  1  0.031173  0.840268  0.045785  1
  O  O39  1  0.309028  0.399903  0.172312  1
  O  O40  1  0.029733  0.816137  0.798951  1
  O  O41  1  0.444247  0.803974  0.683370  1
  O  O42  1  0.579306  0.531192  0.252157  1
  O  O43  1  0.970267  0.183863  0.201049  1
  O  O44  1  0.094839  0.678255  0.317787  1
  O  O45  1  0.905161  0.321745  0.682213  1
  O  O46  1  0.420694  0.468808  0.747843  1
  O  O47  1  0.691232  0.905795  0.904932  1
  O  O48  1  0.859973  0.536580  0.316735  1
  O  O49  1  0.750182  0.766546  0.431775  1
  O  O50  1  0.697210  0.856768  0.659141  1
  O  O51  1  0.690972  0.600097  0.827688  1
  O  O52  1  0.555753  0.196026  0.316630  1
  O  O53  1  0.308768  0.094205  0.095068  1
  O  O54  1  0.461202  0.266057  0.946399  1
  O  O55  1  0.738482  0.237178  0.037482  1
  O  O56  1  0.166993  0.364611  0.880944  1
  O  O57  1  0.652539  0.353984  0.856078  1
  O  O58  1  0.538798  0.733943  0.053601  1
  O  O59  1  0.982618  0.415516  0.142788  1
  O  O60  1  0.347461  0.646016  0.143922  1
  O  O61  1  0.968827  0.159732  0.954215  1
  O  O62  1  0.421092  0.922262  0.223030  1
  O  O63  1  0.249818  0.233454  0.568225  1
