# generated using pymatgen
data_LaNbTeO6
_symmetry_space_group_name_H-M   'P 1'
_cell_length_a   6.86447515
_cell_length_b   7.50167444
_cell_length_c   10.90006737
_cell_angle_alpha   100.28721723
_cell_angle_beta   102.98114254
_cell_angle_gamma   89.77545984
_symmetry_Int_Tables_number   1
_chemical_formula_structural   LaNbTeO6
_chemical_formula_sum   'La4 Nb4 Te4 O24'
_cell_volume   537.77905812
_cell_formula_units_Z   4
loop_
 _symmetry_equiv_pos_site_id
 _symmetry_equiv_pos_as_xyz
  1  'x, y, z'
loop_
 _atom_site_type_symbol
 _atom_site_label
 _atom_site_symmetry_multiplicity
 _atom_site_fract_x
 _atom_site_fract_y
 _atom_site_fract_z
 _atom_site_occupancy
  La  La0  1  0.239363  0.139308  0.494621  1
  La  La1  1  0.330416  0.285116  0.156040  1
  La  La2  1  0.760637  0.860692  0.505379  1
  La  La3  1  0.669584  0.714884  0.843960  1
  Nb  Nb4  1  0.183171  0.454078  0.803020  1
  Nb  Nb5  1  0.173349  0.959171  0.800671  1
  Nb  Nb6  1  0.816829  0.545922  0.196980  1
  Nb  Nb7  1  0.826651  0.040829  0.199329  1
  Te  Te8  1  0.329717  0.798987  0.201011  1
  Te  Te9  1  0.735974  0.371259  0.503185  1
  Te  Te10  1  0.670283  0.201013  0.798989  1
  Te  Te11  1  0.264026  0.628741  0.496815  1
  O  O12  1  0.499901  0.399966  0.789814  1
  O  O13  1  0.910360  0.499711  0.778388  1
  O  O14  1  0.856838  0.816094  0.281288  1
  O  O15  1  0.393833  0.871049  0.385145  1
  O  O16  1  0.534321  0.677462  0.595496  1
  O  O17  1  0.755464  0.568519  0.029634  1
  O  O18  1  0.850300  0.150763  0.427804  1
  O  O19  1  0.817182  0.943647  0.034199  1
  O  O20  1  0.892848  0.888704  0.741774  1
  O  O21  1  0.143162  0.183906  0.718712  1
  O  O22  1  0.606167  0.128951  0.614855  1
  O  O23  1  0.149700  0.849237  0.572196  1
  O  O24  1  0.494253  0.017581  0.819182  1
  O  O25  1  0.089640  0.500289  0.221612  1
  O  O26  1  0.465679  0.322538  0.404504  1
  O  O27  1  0.244536  0.431481  0.970366  1
  O  O28  1  0.500099  0.600034  0.210186  1
  O  O29  1  0.505747  0.982419  0.180818  1
  O  O30  1  0.287822  0.714066  0.819745  1
  O  O31  1  0.712178  0.285934  0.180255  1
  O  O32  1  0.182818  0.056353  0.965801  1
  O  O33  1  0.181212  0.454276  0.588168  1
  O  O34  1  0.818788  0.545724  0.411832  1
  O  O35  1  0.107152  0.111296  0.258226  1
