# generated using pymatgen
data_La10S14O
_symmetry_space_group_name_H-M   'P 1'
_cell_length_a   14.92933435
_cell_length_b   14.92933435
_cell_length_c   14.92933435
_cell_angle_alpha   117.92453971
_cell_angle_beta   117.92453971
_cell_angle_gamma   93.63403884
_symmetry_Int_Tables_number   1
_chemical_formula_structural   La10S14O
_chemical_formula_sum   'La40 S56 O4'
_cell_volume   2421.45911908
_cell_formula_units_Z   4
loop_
 _symmetry_equiv_pos_site_id
 _symmetry_equiv_pos_as_xyz
  1  'x, y, z'
loop_
 _atom_site_type_symbol
 _atom_site_label
 _atom_site_symmetry_multiplicity
 _atom_site_fract_x
 _atom_site_fract_y
 _atom_site_fract_z
 _atom_site_occupancy
  La  La0  1  0.549718  0.699300  0.405706  1
  La  La1  1  0.134623  0.365377  0.500000  1
  La  La2  1  0.049718  0.644012  0.850418  1
  La  La3  1  0.300514  0.426641  0.861413  1
  La  La4  1  0.855988  0.450282  0.149582  1
  La  La5  1  0.176641  0.815228  0.626127  1
  La  La6  1  0.676641  0.050514  0.361413  1
  La  La7  1  0.884623  0.615377  0.000000  1
  La  La8  1  0.115377  0.115377  0.730753  1
  La  La9  1  0.793594  0.199300  0.149582  1
  La  La10  1  0.456406  0.105988  0.905706  1
  La  La11  1  0.634623  0.134623  0.769247  1
  La  La12  1  0.449486  0.823359  0.638587  1
  La  La13  1  0.384623  0.384623  0.269247  1
  La  La14  1  0.449300  0.543594  0.649582  1
  La  La15  1  0.689101  0.315228  0.638587  1
  La  La16  1  0.189101  0.550514  0.373873  1
  La  La17  1  0.949486  0.310899  0.626127  1
  La  La18  1  0.865377  0.634623  0.500000  1
  La  La19  1  0.800700  0.950282  0.594294  1
  La  La20  1  0.060899  0.934772  0.861413  1
  La  La21  1  0.956406  0.050700  0.350418  1
  La  La22  1  0.355988  0.206406  0.405706  1
  La  La23  1  0.200282  0.550700  0.094294  1
  La  La24  1  0.565228  0.439101  0.138587  1
  La  La25  1  0.365377  0.865377  0.230753  1
  La  La26  1  0.700282  0.605988  0.649582  1
  La  La27  1  0.949300  0.299718  0.905706  1
  La  La28  1  0.560899  0.699486  0.126127  1
  La  La29  1  0.800514  0.939101  0.873873  1
  La  La30  1  0.065228  0.926641  0.126127  1
  La  La31  1  0.573359  0.434772  0.873873  1
  La  La32  1  0.615377  0.884623  0.000000  1
  La  La33  1  0.293594  0.144012  0.594294  1
  La  La34  1  0.894012  0.799718  0.350418  1
  La  La35  1  0.073359  0.199486  0.138587  1
  La  La36  1  0.684772  0.323359  0.373873  1
  La  La37  1  0.300700  0.706406  0.850418  1
  La  La38  1  0.394012  0.043594  0.094294  1
  La  La39  1  0.184772  0.810899  0.361413  1
  S  S40  1  0.125000  0.227672  0.602672  1
  S  S41  1  0.977672  0.875000  0.602672  1
  S  S42  1  0.209474  0.874635  0.020564  1
  S  S43  1  0.811090  0.790526  0.665161  1
  S  S44  1  0.760643  0.603025  0.108273  1
  S  S45  1  0.084979  0.725749  0.717239  1
  S  S46  1  0.854071  0.188910  0.979436  1
  S  S47  1  0.847630  0.005248  0.108273  1
  S  S48  1  0.540526  0.375365  0.479436  1
  S  S49  1  0.396975  0.505248  0.157618  1
  S  S50  1  0.353025  0.744752  0.342382  1
  S  S51  1  0.994752  0.103025  0.842382  1
  S  S52  1  0.632260  0.915021  0.640770  1
  S  S53  1  0.008510  0.367740  0.282761  1
  S  S54  1  0.617740  0.758510  0.782761  1
  S  S55  1  0.125365  0.145929  0.334839  1
  S  S56  1  0.625000  0.522328  0.397328  1
  S  S57  1  0.402370  0.010643  0.657618  1
  S  S58  1  0.772328  0.375000  0.897328  1
  S  S59  1  0.755248  0.146975  0.657618  1
  S  S60  1  0.774251  0.415021  0.282761  1
  S  S61  1  0.274251  0.991490  0.359230  1
  S  S62  1  0.438910  0.604071  0.479436  1
  S  S63  1  0.477672  0.875000  0.102672  1
  S  S64  1  0.624635  0.104071  0.165161  1
  S  S65  1  0.132260  0.491490  0.717239  1
  S  S66  1  0.625365  0.290526  0.979436  1
  S  S67  1  0.165021  0.382260  0.140770  1
  S  S68  1  0.508510  0.225749  0.640770  1
  S  S69  1  0.853025  0.510643  0.608273  1
  S  S70  1  0.347630  0.239357  0.842382  1
  S  S71  1  0.975749  0.834979  0.217239  1
  S  S72  1  0.709474  0.688910  0.334839  1
  S  S73  1  0.989357  0.646975  0.391727  1
  S  S74  1  0.125000  0.727672  0.102672  1
  S  S75  1  0.902370  0.244752  0.391727  1
  S  S76  1  0.741490  0.882260  0.217239  1
  S  S77  1  0.475749  0.258510  0.140770  1
  S  S78  1  0.896975  0.739357  0.891727  1
  S  S79  1  0.124635  0.959474  0.520564  1
  S  S80  1  0.354071  0.374635  0.665161  1
  S  S81  1  0.272328  0.375000  0.397328  1
  S  S82  1  0.489357  0.097630  0.342382  1
  S  S83  1  0.665021  0.524251  0.782761  1
  S  S84  1  0.241490  0.024251  0.859230  1
  S  S85  1  0.117740  0.334979  0.859230  1
  S  S86  1  0.895929  0.061090  0.520564  1
  S  S87  1  0.938910  0.459474  0.834839  1
  S  S88  1  0.311090  0.645929  0.020564  1
  S  S89  1  0.584979  0.867740  0.359230  1
  S  S90  1  0.625000  0.022328  0.897328  1
  S  S91  1  0.255248  0.597630  0.608273  1
  S  S92  1  0.494752  0.652370  0.891727  1
  S  S93  1  0.040526  0.561090  0.165161  1
  S  S94  1  0.260643  0.152370  0.157618  1
  S  S95  1  0.395929  0.875365  0.834839  1
  O  O96  1  0.500000  0.500000  0.000000  1
  O  O97  1  0.750000  0.250000  0.500000  1
  O  O98  1  0.000000  0.000000  0.000000  1
  O  O99  1  0.250000  0.750000  0.500000  1
