# generated using pymatgen
data_ZrI4
_symmetry_space_group_name_H-M   'P 1'
_cell_length_a   8.94014619
_cell_length_b   8.85204710
_cell_length_c   18.54825429
_cell_angle_alpha   90.00000000
_cell_angle_beta   102.69804522
_cell_angle_gamma   90.00000000
_symmetry_Int_Tables_number   1
_chemical_formula_structural   ZrI4
_chemical_formula_sum   'Zr6 I24'
_cell_volume   1431.98137493
_cell_formula_units_Z   6
loop_
 _symmetry_equiv_pos_site_id
 _symmetry_equiv_pos_as_xyz
  1  'x, y, z'
loop_
 _atom_site_type_symbol
 _atom_site_label
 _atom_site_symmetry_multiplicity
 _atom_site_fract_x
 _atom_site_fract_y
 _atom_site_fract_z
 _atom_site_occupancy
  Zr  Zr0  1  0.810263  0.878805  0.417513  1
  Zr  Zr1  1  0.189737  0.121195  0.582487  1
  Zr  Zr2  1  0.000000  0.610304  0.250000  1
  Zr  Zr3  1  0.189737  0.878805  0.082487  1
  Zr  Zr4  1  0.810263  0.121195  0.917513  1
  Zr  Zr5  1  0.000000  0.389696  0.750000  1
  I  I6  1  0.396820  0.108598  0.092365  1
  I  I7  1  0.764031  0.589126  0.741458  1
  I  I8  1  0.065546  0.116848  0.424202  1
  I  I9  1  0.379460  0.357755  0.572197  1
  I  I10  1  0.780064  0.126143  0.758548  1
  I  I11  1  0.219936  0.126143  0.741452  1
  I  I12  1  0.934454  0.116848  0.075798  1
  I  I13  1  0.235969  0.410874  0.258542  1
  I  I14  1  0.603180  0.891402  0.907635  1
  I  I15  1  0.219936  0.873857  0.241452  1
  I  I16  1  0.764031  0.410874  0.241458  1
  I  I17  1  0.396820  0.891402  0.592365  1
  I  I18  1  0.235969  0.589126  0.758542  1
  I  I19  1  0.072010  0.659164  0.408604  1
  I  I20  1  0.927990  0.340836  0.591396  1
  I  I21  1  0.780064  0.873857  0.258548  1
  I  I22  1  0.603180  0.108598  0.407635  1
  I  I23  1  0.379460  0.642245  0.072197  1
  I  I24  1  0.072010  0.340836  0.908604  1
  I  I25  1  0.065546  0.883152  0.924202  1
  I  I26  1  0.620540  0.642245  0.427803  1
  I  I27  1  0.927990  0.659164  0.091396  1
  I  I28  1  0.620540  0.357755  0.927803  1
  I  I29  1  0.934454  0.883152  0.575798  1
