# generated using pymatgen
data_CuSb2H12(O3F4)2
_symmetry_space_group_name_H-M   'P 1'
_cell_length_a   5.08999643
_cell_length_b   18.12664512
_cell_length_c   7.89685036
_cell_angle_alpha   90.00000000
_cell_angle_beta   117.46141534
_cell_angle_gamma   90.00000000
_symmetry_Int_Tables_number   1
_chemical_formula_structural   CuSb2H12(O3F4)2
_chemical_formula_sum   'Cu2 Sb4 H24 O12 F16'
_cell_volume   646.50198969
_cell_formula_units_Z   2
loop_
 _symmetry_equiv_pos_site_id
 _symmetry_equiv_pos_as_xyz
  1  'x, y, z'
loop_
 _atom_site_type_symbol
 _atom_site_label
 _atom_site_symmetry_multiplicity
 _atom_site_fract_x
 _atom_site_fract_y
 _atom_site_fract_z
 _atom_site_occupancy
  Cu  Cu0  1  0.500000  0.000000  0.500000  1
  Cu  Cu1  1  0.500000  0.500000  0.000000  1
  Sb  Sb2  1  0.876643  0.217871  0.991107  1
  Sb  Sb3  1  0.123357  0.782129  0.008893  1
  Sb  Sb4  1  0.123357  0.717871  0.508893  1
  Sb  Sb5  1  0.876643  0.282129  0.491107  1
  H  H6  1  0.229497  0.382983  0.029036  1
  H  H7  1  0.991621  0.439914  0.343076  1
  H  H8  1  0.241041  0.444670  0.175771  1
  H  H9  1  0.078544  0.521752  0.329183  1
  H  H10  1  0.335326  0.411319  0.715861  1
  H  H11  1  0.670385  0.112142  0.357458  1
  H  H12  1  0.335326  0.088681  0.215861  1
  H  H13  1  0.078544  0.978248  0.829183  1
  H  H14  1  0.921456  0.478248  0.670817  1
  H  H15  1  0.758959  0.944670  0.324229  1
  H  H16  1  0.758959  0.555330  0.824229  1
  H  H17  1  0.991621  0.060086  0.843076  1
  H  H18  1  0.770503  0.882983  0.470964  1
  H  H19  1  0.664674  0.911319  0.784139  1
  H  H20  1  0.241041  0.055330  0.675771  1
  H  H21  1  0.921456  0.021752  0.170817  1
  H  H22  1  0.008379  0.560086  0.656924  1
  H  H23  1  0.329615  0.612142  0.142542  1
  H  H24  1  0.008379  0.939914  0.156924  1
  H  H25  1  0.229497  0.117017  0.529036  1
  H  H26  1  0.770503  0.617017  0.970964  1
  H  H27  1  0.329615  0.887858  0.642542  1
  H  H28  1  0.664674  0.588681  0.284139  1
  H  H29  1  0.670385  0.387858  0.857458  1
  O  O30  1  0.530373  0.430194  0.813156  1
  O  O31  1  0.018918  0.024863  0.757079  1
  O  O32  1  0.469627  0.569806  0.186844  1
  O  O33  1  0.018918  0.475137  0.257079  1
  O  O34  1  0.641711  0.922281  0.385876  1
  O  O35  1  0.981082  0.975137  0.242921  1
  O  O36  1  0.469627  0.930194  0.686844  1
  O  O37  1  0.981082  0.524863  0.742921  1
  O  O38  1  0.641711  0.577719  0.885876  1
  O  O39  1  0.530373  0.069806  0.313156  1
  O  O40  1  0.358289  0.077719  0.614124  1
  O  O41  1  0.358289  0.422281  0.114124  1
  F  F42  1  0.018561  0.601305  0.448989  1
  F  F43  1  0.981439  0.398695  0.551011  1
  F  F44  1  0.932856  0.189569  0.766235  1
  F  F45  1  0.932871  0.324324  0.901226  1
  F  F46  1  0.693801  0.724491  0.349222  1
  F  F47  1  0.693801  0.775509  0.849222  1
  F  F48  1  0.306199  0.275509  0.650778  1
  F  F49  1  0.306199  0.224491  0.150778  1
  F  F50  1  0.067144  0.689569  0.733765  1
  F  F51  1  0.018561  0.898695  0.948989  1
  F  F52  1  0.067144  0.810431  0.233765  1
  F  F53  1  0.067129  0.675676  0.098774  1
  F  F54  1  0.067129  0.824324  0.598774  1
  F  F55  1  0.932871  0.175676  0.401226  1
  F  F56  1  0.932856  0.310431  0.266235  1
  F  F57  1  0.981439  0.101305  0.051011  1
