# generated using pymatgen
data_Ca6Cu2Sn7
_symmetry_space_group_name_H-M   'P 1'
_cell_length_a   7.53633651
_cell_length_b   7.53633651
_cell_length_c   12.42500234
_cell_angle_alpha   86.24135241
_cell_angle_beta   93.75864759
_cell_angle_gamma   144.63847020
_symmetry_Int_Tables_number   1
_chemical_formula_structural   Ca6Cu2Sn7
_chemical_formula_sum   'Ca6 Cu2 Sn7'
_cell_volume   407.44166489
_cell_formula_units_Z   1
loop_
 _symmetry_equiv_pos_site_id
 _symmetry_equiv_pos_as_xyz
  1  'x, y, z'
loop_
 _atom_site_type_symbol
 _atom_site_label
 _atom_site_symmetry_multiplicity
 _atom_site_fract_x
 _atom_site_fract_y
 _atom_site_fract_z
 _atom_site_occupancy
  Ca  Ca0  1  0.462005  0.537995  0.299318  1
  Ca  Ca1  1  0.804890  0.195110  0.706532  1
  Ca  Ca2  1  0.195110  0.804890  0.293468  1
  Ca  Ca3  1  0.362958  0.637042  0.997025  1
  Ca  Ca4  1  0.537995  0.462005  0.700682  1
  Ca  Ca5  1  0.637042  0.362958  0.002975  1
  Cu  Cu6  1  0.169705  0.830295  0.611185  1
  Cu  Cu7  1  0.830295  0.169705  0.388815  1
  Sn  Sn8  1  0.340394  0.659606  0.518573  1
  Sn  Sn9  1  0.182571  0.817429  0.824494  1
  Sn  Sn10  1  0.988980  0.011020  0.881449  1
  Sn  Sn11  1  0.817429  0.182571  0.175506  1
  Sn  Sn12  1  0.000000  1.000000  0.500000  1
  Sn  Sn13  1  0.011020  0.988980  0.118551  1
  Sn  Sn14  1  0.659606  0.340394  0.481427  1
