# generated using pymatgen
data_La9(SbO)5
_symmetry_space_group_name_H-M   'P 1'
_cell_length_a   10.47311794
_cell_length_b   10.47311794
_cell_length_c   9.39782111
_cell_angle_alpha   90.00000000
_cell_angle_beta   90.00000000
_cell_angle_gamma   90.00000000
_symmetry_Int_Tables_number   1
_chemical_formula_structural   La9(SbO)5
_chemical_formula_sum   'La18 Sb10 O10'
_cell_volume   1030.81128006
_cell_formula_units_Z   2
loop_
 _symmetry_equiv_pos_site_id
 _symmetry_equiv_pos_as_xyz
  1  'x, y, z'
loop_
 _atom_site_type_symbol
 _atom_site_label
 _atom_site_symmetry_multiplicity
 _atom_site_fract_x
 _atom_site_fract_y
 _atom_site_fract_z
 _atom_site_occupancy
  La  La0  1  0.000000  0.500000  0.329373  1
  La  La1  1  0.500000  0.000000  0.670627  1
  La  La2  1  0.796343  0.103566  0.343603  1
  La  La3  1  0.603566  0.703657  0.343603  1
  La  La4  1  0.396434  0.296343  0.343603  1
  La  La5  1  0.203657  0.896434  0.343603  1
  La  La6  1  0.703657  0.396434  0.656397  1
  La  La7  1  0.896434  0.796343  0.656397  1
  La  La8  1  0.103566  0.203657  0.656397  1
  La  La9  1  0.296343  0.603566  0.656397  1
  La  La10  1  0.080672  0.727894  0.997929  1
  La  La11  1  0.227894  0.419328  0.997929  1
  La  La12  1  0.772106  0.580672  0.997929  1
  La  La13  1  0.919328  0.272106  0.997929  1
  La  La14  1  0.419328  0.772106  0.002071  1
  La  La15  1  0.272106  0.080672  0.002071  1
  La  La16  1  0.727894  0.919328  0.002071  1
  La  La17  1  0.580672  0.227894  0.002071  1
  Sb  Sb18  1  0.000000  0.500000  0.690005  1
  Sb  Sb19  1  0.500000  0.000000  0.309995  1
  Sb  Sb20  1  0.697376  0.402566  0.298344  1
  Sb  Sb21  1  0.902566  0.802624  0.298344  1
  Sb  Sb22  1  0.097434  0.197376  0.298344  1
  Sb  Sb23  1  0.302624  0.597434  0.298344  1
  Sb  Sb24  1  0.802624  0.097434  0.701656  1
  Sb  Sb25  1  0.597434  0.697376  0.701656  1
  Sb  Sb26  1  0.402566  0.302624  0.701656  1
  Sb  Sb27  1  0.197376  0.902566  0.701656  1
  O  O28  1  0.000000  0.500000  0.072409  1
  O  O29  1  0.500000  0.000000  0.927591  1
  O  O30  1  0.879165  0.776058  0.909195  1
  O  O31  1  0.276058  0.620835  0.909195  1
  O  O32  1  0.723942  0.379165  0.909195  1
  O  O33  1  0.120835  0.223942  0.909195  1
  O  O34  1  0.620835  0.723942  0.090805  1
  O  O35  1  0.223942  0.879165  0.090805  1
  O  O36  1  0.776058  0.120835  0.090805  1
  O  O37  1  0.379165  0.276058  0.090805  1
