# generated using pymatgen
data_Rb2CuH12(SeO7)2
_symmetry_space_group_name_H-M   'P 1'
_cell_length_a   6.41074126
_cell_length_b   12.76890339
_cell_length_c   9.48938840
_cell_angle_alpha   90.00000000
_cell_angle_beta   104.21562213
_cell_angle_gamma   90.00000000
_symmetry_Int_Tables_number   1
_chemical_formula_structural   Rb2CuH12(SeO7)2
_chemical_formula_sum   'Rb4 Cu2 H24 Se4 O28'
_cell_volume   752.99730894
_cell_formula_units_Z   2
loop_
 _symmetry_equiv_pos_site_id
 _symmetry_equiv_pos_as_xyz
  1  'x, y, z'
loop_
 _atom_site_type_symbol
 _atom_site_label
 _atom_site_symmetry_multiplicity
 _atom_site_fract_x
 _atom_site_fract_y
 _atom_site_fract_z
 _atom_site_occupancy
  Rb  Rb0  1  0.653527  0.349252  0.876061  1
  Rb  Rb1  1  0.346473  0.849252  0.623939  1
  Rb  Rb2  1  0.346473  0.650748  0.123939  1
  Rb  Rb3  1  0.653527  0.150748  0.376061  1
  Cu  Cu4  1  0.000000  0.000000  0.000000  1
  Cu  Cu5  1  0.000000  0.500000  0.500000  1
  H  H6  1  0.691389  0.864935  0.968101  1
  H  H7  1  0.308611  0.364935  0.531899  1
  H  H8  1  0.308611  0.135065  0.031899  1
  H  H9  1  0.691389  0.635065  0.468101  1
  H  H10  1  0.679640  0.942064  0.099018  1
  H  H11  1  0.320360  0.442064  0.400982  1
  H  H12  1  0.320360  0.057936  0.900982  1
  H  H13  1  0.679640  0.557936  0.599018  1
  H  H14  1  0.086154  0.875542  0.227316  1
  H  H15  1  0.913846  0.375542  0.272684  1
  H  H16  1  0.913846  0.124458  0.772684  1
  H  H17  1  0.086154  0.624458  0.727316  1
  H  H18  1  0.310108  0.910515  0.191182  1
  H  H19  1  0.689892  0.410515  0.308818  1
  H  H20  1  0.689892  0.089485  0.808818  1
  H  H21  1  0.310108  0.589485  0.691182  1
  H  H22  1  0.003827  0.811771  0.832499  1
  H  H23  1  0.996173  0.311771  0.667501  1
  H  H24  1  0.996173  0.188229  0.167501  1
  H  H25  1  0.003827  0.688229  0.332499  1
  H  H26  1  0.926389  0.899202  0.713397  1
  H  H27  1  0.073611  0.399202  0.786603  1
  H  H28  1  0.073611  0.100798  0.286603  1
  H  H29  1  0.926389  0.600798  0.213397  1
  Se  Se30  1  0.270020  0.358642  0.108553  1
  Se  Se31  1  0.729980  0.858642  0.391447  1
  Se  Se32  1  0.729980  0.641358  0.891447  1
  Se  Se33  1  0.270020  0.141358  0.608553  1
  O  O34  1  0.719486  0.938949  0.003204  1
  O  O35  1  0.280514  0.438949  0.496796  1
  O  O36  1  0.280514  0.061051  0.996796  1
  O  O37  1  0.719486  0.561051  0.503204  1
  O  O38  1  0.157680  0.889812  0.146947  1
  O  O39  1  0.842320  0.389812  0.353053  1
  O  O40  1  0.842320  0.110188  0.853053  1
  O  O41  1  0.157680  0.610188  0.646947  1
  O  O42  1  0.032924  0.884582  0.806543  1
  O  O43  1  0.967076  0.384582  0.693457  1
  O  O44  1  0.967076  0.115418  0.193457  1
  O  O45  1  0.032924  0.615418  0.306543  1
  O  O46  1  0.240154  0.430090  0.957729  1
  O  O47  1  0.759846  0.930090  0.542271  1
  O  O48  1  0.759846  0.569910  0.042271  1
  O  O49  1  0.240154  0.069910  0.457729  1
  O  O50  1  0.413865  0.250654  0.096606  1
  O  O51  1  0.586135  0.750654  0.403394  1
  O  O52  1  0.586135  0.749346  0.903394  1
  O  O53  1  0.413865  0.249346  0.596606  1
  O  O54  1  0.409630  0.431017  0.249122  1
  O  O55  1  0.590370  0.931017  0.250878  1
  O  O56  1  0.590370  0.568983  0.750878  1
  O  O57  1  0.409630  0.068983  0.749122  1
  O  O58  1  0.029790  0.324850  0.137168  1
  O  O59  1  0.970210  0.824850  0.362832  1
  O  O60  1  0.970210  0.675150  0.862832  1
  O  O61  1  0.029790  0.175150  0.637168  1
