# generated using pymatgen
data_Sb(MoO4)2
_symmetry_space_group_name_H-M   'P 1'
_cell_length_a   11.93057908
_cell_length_b   11.93057908
_cell_length_c   5.50263231
_cell_angle_alpha   77.75907521
_cell_angle_beta   102.24092479
_cell_angle_gamma   156.01718423
_symmetry_Int_Tables_number   1
_chemical_formula_structural   Sb(MoO4)2
_chemical_formula_sum   'Sb2 Mo4 O16'
_cell_volume   310.78838557
_cell_formula_units_Z   2
loop_
 _symmetry_equiv_pos_site_id
 _symmetry_equiv_pos_as_xyz
  1  'x, y, z'
loop_
 _atom_site_type_symbol
 _atom_site_label
 _atom_site_symmetry_multiplicity
 _atom_site_fract_x
 _atom_site_fract_y
 _atom_site_fract_z
 _atom_site_occupancy
  Sb  Sb0  1  0.674077  0.674077  0.250000  1
  Sb  Sb1  1  0.325923  0.325923  0.750000  1
  Mo  Mo2  1  0.090302  0.369730  0.954196  1
  Mo  Mo3  1  0.909698  0.630270  0.045804  1
  Mo  Mo4  1  0.369730  0.090302  0.545804  1
  Mo  Mo5  1  0.630270  0.909698  0.454196  1
  O  O6  1  0.553816  0.647455  0.523552  1
  O  O7  1  0.944198  0.146296  0.687198  1
  O  O8  1  0.853704  0.055802  0.187198  1
  O  O9  1  0.703728  0.118468  0.358578  1
  O  O10  1  0.055802  0.853704  0.312802  1
  O  O11  1  0.146296  0.944198  0.812802  1
  O  O12  1  0.296272  0.881532  0.641422  1
  O  O13  1  0.118468  0.703728  0.141422  1
  O  O14  1  0.319401  0.621315  0.194559  1
  O  O15  1  0.378685  0.680599  0.694559  1
  O  O16  1  0.352545  0.446184  0.023552  1
  O  O17  1  0.680599  0.378685  0.805441  1
  O  O18  1  0.446184  0.352545  0.476448  1
  O  O19  1  0.647455  0.553816  0.976448  1
  O  O20  1  0.621315  0.319401  0.305441  1
  O  O21  1  0.881532  0.296272  0.858578  1
