# generated using pymatgen
data_KLaGeS4
_symmetry_space_group_name_H-M   'P 1'
_cell_length_a   6.71891293
_cell_length_b   6.74221376
_cell_length_c   8.72688778
_cell_angle_alpha   90.00000000
_cell_angle_beta   107.58143351
_cell_angle_gamma   90.00000000
_symmetry_Int_Tables_number   1
_chemical_formula_structural   KLaGeS4
_chemical_formula_sum   'K2 La2 Ge2 S8'
_cell_volume   376.86457931
_cell_formula_units_Z   2
loop_
 _symmetry_equiv_pos_site_id
 _symmetry_equiv_pos_as_xyz
  1  'x, y, z'
loop_
 _atom_site_type_symbol
 _atom_site_label
 _atom_site_symmetry_multiplicity
 _atom_site_fract_x
 _atom_site_fract_y
 _atom_site_fract_z
 _atom_site_occupancy
  K  K0  1  0.771547  0.485126  0.065562  1
  K  K1  1  0.228453  0.985126  0.934438  1
  La  La2  1  0.267610  0.000142  0.445652  1
  La  La3  1  0.732390  0.500142  0.554348  1
  Ge  Ge4  1  0.283419  0.474160  0.687291  1
  Ge  Ge5  1  0.716581  0.974160  0.312709  1
  S  S6  1  0.480162  0.729981  0.267590  1
  S  S7  1  0.085551  0.471392  0.847903  1
  S  S8  1  0.513853  0.243183  0.279685  1
  S  S9  1  0.091002  0.435176  0.429276  1
  S  S10  1  0.914449  0.971392  0.152097  1
  S  S11  1  0.486147  0.743183  0.720315  1
  S  S12  1  0.519838  0.229981  0.732410  1
  S  S13  1  0.908998  0.935176  0.570724  1
