# generated using pymatgen
data_TiPHO5
_symmetry_space_group_name_H-M   'P 1'
_cell_length_a   7.48501003
_cell_length_b   7.16376974
_cell_length_c   7.48593571
_cell_angle_alpha   90.00000000
_cell_angle_beta   116.84418785
_cell_angle_gamma   90.00000000
_symmetry_Int_Tables_number   1
_chemical_formula_structural   TiPHO5
_chemical_formula_sum   'Ti4 P4 H4 O20'
_cell_volume   358.14651398
_cell_formula_units_Z   4
loop_
 _symmetry_equiv_pos_site_id
 _symmetry_equiv_pos_as_xyz
  1  'x, y, z'
loop_
 _atom_site_type_symbol
 _atom_site_label
 _atom_site_symmetry_multiplicity
 _atom_site_fract_x
 _atom_site_fract_y
 _atom_site_fract_z
 _atom_site_occupancy
  Ti  Ti0  1  0.281814  0.726284  0.027272  1
  Ti  Ti1  1  0.280689  0.224395  0.529713  1
  Ti  Ti2  1  0.719311  0.724395  0.470287  1
  Ti  Ti3  1  0.718186  0.226284  0.972728  1
  P  P4  1  0.998656  0.362632  0.750178  1
  P  P5  1  0.001344  0.862632  0.249822  1
  P  P6  1  0.500737  0.111844  0.250862  1
  P  P7  1  0.499263  0.611844  0.749138  1
  H  H8  1  0.955338  0.472576  0.294960  1
  H  H9  1  0.044662  0.972576  0.705040  1
  H  H10  1  0.926549  0.925604  0.823057  1
  H  H11  1  0.073451  0.425604  0.176943  1
  O  O12  1  0.004122  0.364313  0.246144  1
  O  O13  1  0.901993  0.235831  0.849249  1
  O  O14  1  0.500903  0.650312  0.248565  1
  O  O15  1  0.841528  0.986226  0.085469  1
  O  O16  1  0.158965  0.987408  0.413682  1
  O  O17  1  0.093109  0.230117  0.652580  1
  O  O18  1  0.338175  0.988430  0.088504  1
  O  O19  1  0.098007  0.735831  0.150751  1
  O  O20  1  0.499097  0.150312  0.751435  1
  O  O21  1  0.661825  0.488430  0.911496  1
  O  O22  1  0.995878  0.864313  0.753856  1
  O  O23  1  0.597290  0.736880  0.650424  1
  O  O24  1  0.158472  0.486226  0.914531  1
  O  O25  1  0.599136  0.238039  0.153427  1
  O  O26  1  0.663815  0.986808  0.410852  1
  O  O27  1  0.336185  0.486808  0.589148  1
  O  O28  1  0.906891  0.730117  0.347420  1
  O  O29  1  0.402710  0.236880  0.349576  1
  O  O30  1  0.400864  0.738039  0.846573  1
  O  O31  1  0.841035  0.487408  0.586318  1
