# generated using pymatgen
data_Li5ReO6
_symmetry_space_group_name_H-M   'P 1'
_cell_length_a   5.10430145
_cell_length_b   5.10430145
_cell_length_c   14.32822032
_cell_angle_alpha   90.00000000
_cell_angle_beta   90.00000000
_cell_angle_gamma   120.00000000
_symmetry_Int_Tables_number   1
_chemical_formula_structural   Li5ReO6
_chemical_formula_sum   'Li15 Re3 O18'
_cell_volume   323.29241251
_cell_formula_units_Z   3
loop_
 _symmetry_equiv_pos_site_id
 _symmetry_equiv_pos_as_xyz
  1  'x, y, z'
loop_
 _atom_site_type_symbol
 _atom_site_label
 _atom_site_symmetry_multiplicity
 _atom_site_fract_x
 _atom_site_fract_y
 _atom_site_fract_z
 _atom_site_occupancy
  Li  Li0  1  0.777579  0.222421  0.333333  1
  Li  Li1  1  0.119216  0.880784  0.833333  1
  Li  Li2  1  0.444165  0.888330  0.166667  1
  Li  Li3  1  0.111670  0.555835  0.500000  1
  Li  Li4  1  0.119216  0.238432  0.166667  1
  Li  Li5  1  0.777579  0.555158  0.666667  1
  Li  Li6  1  0.769892  0.230108  0.833333  1
  Li  Li7  1  0.111536  0.555768  0.000000  1
  Li  Li8  1  0.444165  0.555835  0.833333  1
  Li  Li9  1  0.444232  0.888464  0.666667  1
  Li  Li10  1  0.769892  0.539784  0.166667  1
  Li  Li11  1  0.444842  0.222421  0.000000  1
  Li  Li12  1  0.444232  0.555768  0.333333  1
  Li  Li13  1  0.761568  0.880784  0.500000  1
  Li  Li14  1  0.460216  0.230108  0.500000  1
  Re  Re15  1  0.110569  0.889431  0.333333  1
  Re  Re16  1  0.110569  0.221137  0.666667  1
  Re  Re17  1  0.778863  0.889431  0.000000  1
  O  O18  1  0.416251  0.527711  0.589223  1
  O  O19  1  0.416709  0.192865  0.255680  1
  O  O20  1  0.776156  0.192865  0.077653  1
  O  O21  1  0.807135  0.583291  0.410986  1
  O  O22  1  0.472289  0.888540  0.922556  1
  O  O23  1  0.776156  0.583291  0.922347  1
  O  O24  1  0.416709  0.223844  0.744320  1
  O  O25  1  0.806260  0.918798  0.742757  1
  O  O26  1  0.111460  0.583749  0.255890  1
  O  O27  1  0.081202  0.193740  0.923909  1
  O  O28  1  0.111460  0.527711  0.744110  1
  O  O29  1  0.081202  0.887462  0.076091  1
  O  O30  1  0.807135  0.223844  0.589014  1
  O  O31  1  0.112538  0.193740  0.409424  1
  O  O32  1  0.472289  0.583749  0.077444  1
  O  O33  1  0.416251  0.888540  0.410777  1
  O  O34  1  0.806260  0.887462  0.257243  1
  O  O35  1  0.112538  0.918798  0.590576  1
