# generated using pymatgen
data_Zr2Cu
_symmetry_space_group_name_H-M   'P 1'
_cell_length_a   8.70384632
_cell_length_b   8.70384632
_cell_length_c   8.70384632
_cell_angle_alpha   60.00000000
_cell_angle_beta   60.00000000
_cell_angle_gamma   60.00000000
_symmetry_Int_Tables_number   1
_chemical_formula_structural   Zr2Cu
_chemical_formula_sum   'Zr16 Cu8'
_cell_volume   466.24978491
_cell_formula_units_Z   8
loop_
 _symmetry_equiv_pos_site_id
 _symmetry_equiv_pos_as_xyz
  1  'x, y, z'
loop_
 _atom_site_type_symbol
 _atom_site_label
 _atom_site_symmetry_multiplicity
 _atom_site_fract_x
 _atom_site_fract_y
 _atom_site_fract_z
 _atom_site_occupancy
  Zr  Zr0  1  0.685129  0.314871  0.685129  1
  Zr  Zr1  1  0.314871  0.685129  0.685129  1
  Zr  Zr2  1  0.935129  0.564871  0.935129  1
  Zr  Zr3  1  0.564871  0.564871  0.935129  1
  Zr  Zr4  1  0.564871  0.935129  0.564871  1
  Zr  Zr5  1  0.314871  0.314871  0.685129  1
  Zr  Zr6  1  0.314871  0.685129  0.314871  1
  Zr  Zr7  1  0.125000  0.625000  0.125000  1
  Zr  Zr8  1  0.685129  0.685129  0.314871  1
  Zr  Zr9  1  0.935129  0.564871  0.564871  1
  Zr  Zr10  1  0.685129  0.314871  0.314871  1
  Zr  Zr11  1  0.564871  0.935129  0.935129  1
  Zr  Zr12  1  0.935129  0.935129  0.564871  1
  Zr  Zr13  1  0.125000  0.125000  0.625000  1
  Zr  Zr14  1  0.625000  0.125000  0.125000  1
  Zr  Zr15  1  0.125000  0.125000  0.125000  1
  Cu  Cu16  1  0.916231  0.916231  0.916231  1
  Cu  Cu17  1  0.916231  0.916231  0.251306  1
  Cu  Cu18  1  0.333769  0.998694  0.333769  1
  Cu  Cu19  1  0.333769  0.333769  0.333769  1
  Cu  Cu20  1  0.333769  0.333769  0.998694  1
  Cu  Cu21  1  0.998694  0.333769  0.333769  1
  Cu  Cu22  1  0.251306  0.916231  0.916231  1
  Cu  Cu23  1  0.916231  0.251306  0.916231  1
