# generated using pymatgen
data_Mn3(PO4)2
_symmetry_space_group_name_H-M   'P 1'
_cell_length_a   5.31620535
_cell_length_b   6.77737430
_cell_length_c   10.12124923
_cell_angle_alpha   90.00000000
_cell_angle_beta   116.46334802
_cell_angle_gamma   90.00000000
_symmetry_Int_Tables_number   1
_chemical_formula_structural   Mn3(PO4)2
_chemical_formula_sum   'Mn6 P4 O16'
_cell_volume   326.45770678
_cell_formula_units_Z   2
loop_
 _symmetry_equiv_pos_site_id
 _symmetry_equiv_pos_as_xyz
  1  'x, y, z'
loop_
 _atom_site_type_symbol
 _atom_site_label
 _atom_site_symmetry_multiplicity
 _atom_site_fract_x
 _atom_site_fract_y
 _atom_site_fract_z
 _atom_site_occupancy
  Mn  Mn0  1  0.784807  0.656400  0.372343  1
  Mn  Mn1  1  0.215193  0.343600  0.627657  1
  Mn  Mn2  1  0.784807  0.843600  0.872343  1
  Mn  Mn3  1  0.500000  0.500000  0.000000  1
  Mn  Mn4  1  0.215193  0.156400  0.127657  1
  Mn  Mn5  1  0.500000  0.000000  0.500000  1
  P  P6  1  0.156402  0.833446  0.692533  1
  P  P7  1  0.156402  0.666554  0.192533  1
  P  P8  1  0.843598  0.166554  0.307467  1
  P  P9  1  0.843598  0.333446  0.807467  1
  O  O10  1  0.859170  0.872697  0.682932  1
  O  O11  1  0.859170  0.627303  0.182932  1
  O  O12  1  0.264095  0.486461  0.137011  1
  O  O13  1  0.631210  0.290933  0.644856  1
  O  O14  1  0.368790  0.709067  0.355144  1
  O  O15  1  0.870088  0.343367  0.411280  1
  O  O16  1  0.140830  0.127303  0.317068  1
  O  O17  1  0.140830  0.372697  0.817068  1
  O  O18  1  0.129912  0.656633  0.588720  1
  O  O19  1  0.631210  0.209067  0.144856  1
  O  O20  1  0.368790  0.790933  0.855144  1
  O  O21  1  0.735905  0.513539  0.862989  1
  O  O22  1  0.264095  0.013539  0.637011  1
  O  O23  1  0.735905  0.986461  0.362989  1
  O  O24  1  0.129912  0.843367  0.088720  1
  O  O25  1  0.870088  0.156633  0.911280  1
