# generated using pymatgen
data_Al5C3N
_symmetry_space_group_name_H-M   'P 1'
_cell_length_a   3.30871036
_cell_length_b   3.30871036
_cell_length_c   21.82761540
_cell_angle_alpha   90.00000000
_cell_angle_beta   90.00000000
_cell_angle_gamma   120.00000000
_symmetry_Int_Tables_number   1
_chemical_formula_structural   Al5C3N
_chemical_formula_sum   'Al10 C6 N2'
_cell_volume   206.94475696
_cell_formula_units_Z   2
loop_
 _symmetry_equiv_pos_site_id
 _symmetry_equiv_pos_as_xyz
  1  'x, y, z'
loop_
 _atom_site_type_symbol
 _atom_site_label
 _atom_site_symmetry_multiplicity
 _atom_site_fract_x
 _atom_site_fract_y
 _atom_site_fract_z
 _atom_site_occupancy
  Al  Al0  1  0.000000  0.000000  0.159043  1
  Al  Al1  1  0.666667  0.333333  0.544704  1
  Al  Al2  1  0.666667  0.333333  0.762370  1
  Al  Al3  1  0.333333  0.666667  0.452809  1
  Al  Al4  1  0.333333  0.666667  0.044704  1
  Al  Al5  1  0.000000  0.000000  0.347518  1
  Al  Al6  1  0.000000  0.000000  0.659043  1
  Al  Al7  1  0.666667  0.333333  0.952809  1
  Al  Al8  1  0.333333  0.666667  0.262370  1
  Al  Al9  1  0.000000  0.000000  0.847518  1
  C  C10  1  0.000000  0.000000  0.748856  1
  C  C11  1  0.666667  0.333333  0.865769  1
  C  C12  1  0.000000  0.000000  0.248856  1
  C  C13  1  0.000000  0.000000  0.002270  1
  C  C14  1  0.333333  0.666667  0.365769  1
  C  C15  1  0.000000  0.000000  0.502270  1
  N  N16  1  0.666667  0.333333  0.629660  1
  N  N17  1  0.333333  0.666667  0.129660  1
