# generated using pymatgen
data_Y2Ge5Ir3
_symmetry_space_group_name_H-M   'P 1'
_cell_length_a   8.39675477
_cell_length_b   8.39675477
_cell_length_c   8.39675477
_cell_angle_alpha   137.77939104
_cell_angle_beta   104.21826907
_cell_angle_gamma   90.79188607
_symmetry_Int_Tables_number   1
_chemical_formula_structural   Y2Ge5Ir3
_chemical_formula_sum   'Y4 Ge10 Ir6'
_cell_volume   367.82350646
_cell_formula_units_Z   2
loop_
 _symmetry_equiv_pos_site_id
 _symmetry_equiv_pos_as_xyz
  1  'x, y, z'
loop_
 _atom_site_type_symbol
 _atom_site_label
 _atom_site_symmetry_multiplicity
 _atom_site_fract_x
 _atom_site_fract_y
 _atom_site_fract_z
 _atom_site_occupancy
  Y  Y0  1  0.360164  0.634118  0.726046  1
  Y  Y1  1  0.639836  0.365882  0.273954  1
  Y  Y2  1  0.091929  0.865882  0.226046  1
  Y  Y3  1  0.908071  0.134118  0.773954  1
  Ge  Ge4  1  0.564256  0.901916  0.662340  1
  Ge  Ge5  1  0.435744  0.098084  0.337660  1
  Ge  Ge6  1  0.760424  0.598084  0.162340  1
  Ge  Ge7  1  0.239576  0.401916  0.837660  1
  Ge  Ge8  1  0.723480  0.973480  0.250000  1
  Ge  Ge9  1  0.276520  0.526520  0.250000  1
  Ge  Ge10  1  0.276520  0.026520  0.750000  1
  Ge  Ge11  1  0.723480  0.473480  0.750000  1
  Ge  Ge12  1  0.000000  0.250000  0.250000  1
  Ge  Ge13  1  0.000000  0.750000  0.750000  1
  Ir  Ir14  1  0.746699  0.857997  0.888702  1
  Ir  Ir15  1  0.253301  0.142003  0.111298  1
  Ir  Ir16  1  0.030706  0.642003  0.388702  1
  Ir  Ir17  1  0.969294  0.357997  0.611298  1
  Ir  Ir18  1  0.500000  0.250000  0.750000  1
  Ir  Ir19  1  0.500000  0.750000  0.250000  1
