# generated using pymatgen
data_Na2Sr7Al6F34
_symmetry_space_group_name_H-M   'P 1'
_cell_length_a   9.81563615
_cell_length_b   9.81563615
_cell_length_c   7.37441930
_cell_angle_alpha   80.62980057
_cell_angle_beta   99.37019943
_cell_angle_gamma   111.84185529
_symmetry_Int_Tables_number   1
_chemical_formula_structural   Na2Sr7Al6F34
_chemical_formula_sum   'Na2 Sr7 Al6 F34'
_cell_volume   646.63019091
_cell_formula_units_Z   1
loop_
 _symmetry_equiv_pos_site_id
 _symmetry_equiv_pos_as_xyz
  1  'x, y, z'
loop_
 _atom_site_type_symbol
 _atom_site_label
 _atom_site_symmetry_multiplicity
 _atom_site_fract_x
 _atom_site_fract_y
 _atom_site_fract_z
 _atom_site_occupancy
  Na  Na0  1  0.500000  0.500000  0.000000  1
  Na  Na1  1  0.500000  0.500000  0.500000  1
  Sr  Sr2  1  0.843073  0.551805  0.302724  1
  Sr  Sr3  1  0.260254  0.739746  0.118258  1
  Sr  Sr4  1  0.739746  0.260254  0.881742  1
  Sr  Sr5  1  0.551805  0.843073  0.697276  1
  Sr  Sr6  1  0.448195  0.156927  0.302724  1
  Sr  Sr7  1  0.156927  0.448195  0.697276  1
  Sr  Sr8  1  0.000000  0.000000  0.000000  1
  Al  Al9  1  0.352979  0.132567  0.798179  1
  Al  Al10  1  0.831687  0.168313  0.456574  1
  Al  Al11  1  0.647021  0.867433  0.201821  1
  Al  Al12  1  0.867433  0.647021  0.798179  1
  Al  Al13  1  0.168313  0.831687  0.543426  1
  Al  Al14  1  0.132567  0.352979  0.201821  1
  F  F15  1  0.778100  0.778375  0.794964  1
  F  F16  1  0.776975  0.989341  0.370698  1
  F  F17  1  0.221900  0.221625  0.205036  1
  F  F18  1  0.348006  0.885958  0.457907  1
  F  F19  1  0.482257  0.037801  0.811905  1
  F  F20  1  0.885958  0.348006  0.542093  1
  F  F21  1  0.245869  0.754131  0.762891  1
  F  F22  1  0.754131  0.245869  0.237109  1
  F  F23  1  0.485817  0.252744  0.964383  1
  F  F24  1  0.255628  0.444798  0.391359  1
  F  F25  1  0.010659  0.223025  0.370698  1
  F  F26  1  0.737789  0.998606  0.007181  1
  F  F27  1  0.989341  0.776975  0.629302  1
  F  F28  1  0.514183  0.747256  0.035617  1
  F  F29  1  0.998606  0.737789  0.992819  1
  F  F30  1  0.001394  0.262211  0.007181  1
  F  F31  1  0.962199  0.517743  0.811905  1
  F  F32  1  0.223025  0.010659  0.629302  1
  F  F33  1  0.651994  0.114042  0.542093  1
  F  F34  1  0.444798  0.255628  0.608641  1
  F  F35  1  0.778375  0.778100  0.205036  1
  F  F36  1  0.898690  0.101310  0.683512  1
  F  F37  1  0.517743  0.962199  0.188095  1
  F  F38  1  0.101310  0.898690  0.316488  1
  F  F39  1  0.555202  0.744372  0.391359  1
  F  F40  1  0.262211  0.001394  0.992819  1
  F  F41  1  0.114042  0.651994  0.457907  1
  F  F42  1  0.037801  0.482257  0.188095  1
  F  F43  1  0.252744  0.485817  0.035617  1
  F  F44  1  0.747256  0.514183  0.964383  1
  F  F45  1  0.221625  0.221900  0.794964  1
  F  F46  1  0.744372  0.555202  0.608641  1
  F  F47  1  0.577222  0.422778  0.280600  1
  F  F48  1  0.422778  0.577222  0.719400  1
