# generated using pymatgen
data_Na3(CuO2)2
_symmetry_space_group_name_H-M   'P 1'
_cell_length_a   5.72407055
_cell_length_b   11.14097236
_cell_length_c   8.37278034
_cell_angle_alpha   90.00000000
_cell_angle_beta   112.22592821
_cell_angle_gamma   90.00000000
_symmetry_Int_Tables_number   1
_chemical_formula_structural   Na3(CuO2)2
_chemical_formula_sum   'Na12 Cu8 O16'
_cell_volume   494.27404201
_cell_formula_units_Z   4
loop_
 _symmetry_equiv_pos_site_id
 _symmetry_equiv_pos_as_xyz
  1  'x, y, z'
loop_
 _atom_site_type_symbol
 _atom_site_label
 _atom_site_symmetry_multiplicity
 _atom_site_fract_x
 _atom_site_fract_y
 _atom_site_fract_z
 _atom_site_occupancy
  Na  Na0  1  0.860214  0.100870  0.051763  1
  Na  Na1  1  0.110722  0.205522  0.381387  1
  Na  Na2  1  0.139786  0.600870  0.448237  1
  Na  Na3  1  0.860214  0.399130  0.551763  1
  Na  Na4  1  0.110722  0.294478  0.881387  1
  Na  Na5  1  0.889278  0.794478  0.618613  1
  Na  Na6  1  0.108612  0.921303  0.382101  1
  Na  Na7  1  0.139786  0.899130  0.948237  1
  Na  Na8  1  0.891388  0.421303  0.117899  1
  Na  Na9  1  0.889278  0.705522  0.118613  1
  Na  Na10  1  0.891388  0.078697  0.617899  1
  Na  Na11  1  0.108612  0.578697  0.882101  1
  Cu  Cu12  1  0.499632  0.173357  0.239272  1
  Cu  Cu13  1  0.499632  0.326643  0.739272  1
  Cu  Cu14  1  0.470348  0.424711  0.230356  1
  Cu  Cu15  1  0.500368  0.673357  0.260728  1
  Cu  Cu16  1  0.500368  0.826643  0.760728  1
  Cu  Cu17  1  0.529652  0.924711  0.269644  1
  Cu  Cu18  1  0.470348  0.075289  0.730356  1
  Cu  Cu19  1  0.529652  0.575289  0.769644  1
  O  O20  1  0.278382  0.696773  0.722446  1
  O  O21  1  0.726148  0.544792  0.290812  1
  O  O22  1  0.278382  0.803227  0.222446  1
  O  O23  1  0.721618  0.196773  0.777554  1
  O  O24  1  0.759942  0.792703  0.324043  1
  O  O25  1  0.762141  0.055458  0.306136  1
  O  O26  1  0.237859  0.555458  0.193864  1
  O  O27  1  0.721618  0.303227  0.277554  1
  O  O28  1  0.273852  0.455208  0.709188  1
  O  O29  1  0.240058  0.292703  0.175957  1
  O  O30  1  0.237859  0.944542  0.693864  1
  O  O31  1  0.240058  0.207297  0.675957  1
  O  O32  1  0.273852  0.044792  0.209188  1
  O  O33  1  0.726148  0.955208  0.790812  1
  O  O34  1  0.762141  0.444542  0.806136  1
  O  O35  1  0.759942  0.707297  0.824043  1
