# generated using pymatgen
data_SnPSe3
_symmetry_space_group_name_H-M   'P 1'
_cell_length_a   6.99585118
_cell_length_b   7.90376325
_cell_length_c   12.00589709
_cell_angle_alpha   90.00000000
_cell_angle_beta   124.61904258
_cell_angle_gamma   90.00000000
_symmetry_Int_Tables_number   1
_chemical_formula_structural   SnPSe3
_chemical_formula_sum   'Sn4 P4 Se12'
_cell_volume   546.31268252
_cell_formula_units_Z   4
loop_
 _symmetry_equiv_pos_site_id
 _symmetry_equiv_pos_as_xyz
  1  'x, y, z'
loop_
 _atom_site_type_symbol
 _atom_site_label
 _atom_site_symmetry_multiplicity
 _atom_site_fract_x
 _atom_site_fract_y
 _atom_site_fract_z
 _atom_site_occupancy
  Sn  Sn0  1  0.801646  0.884155  0.786438  1
  Sn  Sn1  1  0.255416  0.369164  0.788490  1
  Sn  Sn2  1  0.801646  0.115845  0.286438  1
  Sn  Sn3  1  0.255416  0.630836  0.288490  1
  P  P4  1  0.874024  0.642303  0.433812  1
  P  P5  1  0.874024  0.357697  0.933812  1
  P  P6  1  0.124561  0.148335  0.063981  1
  P  P7  1  0.124561  0.851665  0.563981  1
  Se  Se8  1  0.901589  0.942470  0.053925  1
  Se  Se9  1  0.374637  0.744817  0.767510  1
  Se  Se10  1  0.705719  0.449452  0.032495  1
  Se  Se11  1  0.623942  0.240177  0.733888  1
  Se  Se12  1  0.901589  0.057530  0.553925  1
  Se  Se13  1  0.106467  0.554354  0.940839  1
  Se  Se14  1  0.275500  0.058413  0.953423  1
  Se  Se15  1  0.374637  0.255183  0.267510  1
  Se  Se16  1  0.275500  0.941587  0.453423  1
  Se  Se17  1  0.705719  0.550548  0.532495  1
  Se  Se18  1  0.106467  0.445646  0.440839  1
  Se  Se19  1  0.623942  0.759823  0.233888  1
