# generated using pymatgen
data_Yb7Au3
_symmetry_space_group_name_H-M   'P 1'
_cell_length_a   10.34290948
_cell_length_b   10.34290948
_cell_length_c   6.49259021
_cell_angle_alpha   90.00000000
_cell_angle_beta   90.00000000
_cell_angle_gamma   120.00000000
_symmetry_Int_Tables_number   1
_chemical_formula_structural   Yb7Au3
_chemical_formula_sum   'Yb14 Au6'
_cell_volume   601.49783977
_cell_formula_units_Z   2
loop_
 _symmetry_equiv_pos_site_id
 _symmetry_equiv_pos_as_xyz
  1  'x, y, z'
loop_
 _atom_site_type_symbol
 _atom_site_label
 _atom_site_symmetry_multiplicity
 _atom_site_fract_x
 _atom_site_fract_y
 _atom_site_fract_z
 _atom_site_occupancy
  Yb  Yb0  1  0.333333  0.666667  0.719728  1
  Yb  Yb1  1  0.666667  0.333333  0.219728  1
  Yb  Yb2  1  0.126391  0.873609  0.500921  1
  Yb  Yb3  1  0.747217  0.873609  0.500921  1
  Yb  Yb4  1  0.126391  0.252783  0.500921  1
  Yb  Yb5  1  0.873609  0.126391  0.000921  1
  Yb  Yb6  1  0.252783  0.126391  0.000921  1
  Yb  Yb7  1  0.873609  0.747217  0.000921  1
  Yb  Yb8  1  0.540247  0.459753  0.705511  1
  Yb  Yb9  1  0.919505  0.459753  0.705511  1
  Yb  Yb10  1  0.540247  0.080495  0.705511  1
  Yb  Yb11  1  0.459753  0.540247  0.205511  1
  Yb  Yb12  1  0.080495  0.540247  0.205511  1
  Yb  Yb13  1  0.459753  0.919505  0.205511  1
  Au  Au14  1  0.811705  0.188295  0.439685  1
  Au  Au15  1  0.376591  0.188295  0.439685  1
  Au  Au16  1  0.811705  0.623409  0.439685  1
  Au  Au17  1  0.188295  0.811705  0.939685  1
  Au  Au18  1  0.623409  0.811705  0.939685  1
  Au  Au19  1  0.188295  0.376591  0.939685  1
