# generated using pymatgen
data_Na2ZnP4(H4O5)4
_symmetry_space_group_name_H-M   'P 1'
_cell_length_a   7.39556523
_cell_length_b   10.98040557
_cell_length_c   11.89617427
_cell_angle_alpha   90.00000000
_cell_angle_beta   115.39387106
_cell_angle_gamma   90.00000000
_symmetry_Int_Tables_number   1
_chemical_formula_structural   Na2ZnP4(H4O5)4
_chemical_formula_sum   'Na4 Zn2 P8 H32 O40'
_cell_volume   872.70628865
_cell_formula_units_Z   2
loop_
 _symmetry_equiv_pos_site_id
 _symmetry_equiv_pos_as_xyz
  1  'x, y, z'
loop_
 _atom_site_type_symbol
 _atom_site_label
 _atom_site_symmetry_multiplicity
 _atom_site_fract_x
 _atom_site_fract_y
 _atom_site_fract_z
 _atom_site_occupancy
  Na  Na0  1  0.220980  0.171963  0.453549  1
  Na  Na1  1  0.779020  0.671963  0.046451  1
  Na  Na2  1  0.779020  0.828037  0.546451  1
  Na  Na3  1  0.220980  0.328037  0.953549  1
  Zn  Zn4  1  0.500000  0.500000  0.500000  1
  Zn  Zn5  1  0.500000  0.000000  0.000000  1
  P  P6  1  0.666045  0.241201  0.415490  1
  P  P7  1  0.333955  0.741201  0.084510  1
  P  P8  1  0.333955  0.758799  0.584510  1
  P  P9  1  0.666045  0.258799  0.915490  1
  P  P10  1  0.047249  0.458564  0.276134  1
  P  P11  1  0.952751  0.958564  0.223866  1
  P  P12  1  0.952751  0.541436  0.723866  1
  P  P13  1  0.047249  0.041436  0.776134  1
  H  H14  1  0.533767  0.011907  0.367729  1
  H  H15  1  0.466233  0.511907  0.132271  1
  H  H16  1  0.466233  0.988093  0.632271  1
  H  H17  1  0.533767  0.488093  0.867729  1
  H  H18  1  0.889386  0.110698  0.543166  1
  H  H19  1  0.110614  0.610698  0.956834  1
  H  H20  1  0.110614  0.889302  0.456834  1
  H  H21  1  0.889386  0.389302  0.043166  1
  H  H22  1  0.102485  0.587103  0.425909  1
  H  H23  1  0.897515  0.087103  0.074091  1
  H  H24  1  0.897515  0.412897  0.574091  1
  H  H25  1  0.102485  0.912897  0.925909  1
  H  H26  1  0.871772  0.299898  0.286640  1
  H  H27  1  0.128228  0.799898  0.213360  1
  H  H28  1  0.128228  0.700102  0.713360  1
  H  H29  1  0.871772  0.200102  0.786640  1
  H  H30  1  0.469412  0.335508  0.659465  1
  H  H31  1  0.530588  0.835508  0.840535  1
  H  H32  1  0.530588  0.664492  0.340535  1
  H  H33  1  0.469412  0.164492  0.159465  1
  H  H34  1  0.263742  0.406178  0.610910  1
  H  H35  1  0.736258  0.906178  0.889090  1
  H  H36  1  0.736258  0.593822  0.389090  1
  H  H37  1  0.263742  0.093822  0.110910  1
  H  H38  1  0.558125  0.154519  0.728866  1
  H  H39  1  0.441875  0.654519  0.771134  1
  H  H40  1  0.441875  0.845481  0.271134  1
  H  H41  1  0.558125  0.345481  0.228866  1
  H  H42  1  0.351457  0.044094  0.709022  1
  H  H43  1  0.648543  0.544094  0.790978  1
  H  H44  1  0.648543  0.955906  0.290978  1
  H  H45  1  0.351457  0.455906  0.209022  1
  O  O46  1  0.497710  0.158188  0.406709  1
  O  O47  1  0.502290  0.658188  0.093291  1
  O  O48  1  0.502290  0.841812  0.593291  1
  O  O49  1  0.497710  0.341812  0.906709  1
  O  O50  1  0.649111  0.268677  0.277495  1
  O  O51  1  0.350889  0.768677  0.222505  1
  O  O52  1  0.350889  0.731323  0.722505  1
  O  O53  1  0.649111  0.231323  0.777495  1
  O  O54  1  0.876568  0.175368  0.476102  1
  O  O55  1  0.123432  0.675368  0.023898  1
  O  O56  1  0.123432  0.824632  0.523898  1
  O  O57  1  0.876568  0.324632  0.976102  1
  O  O58  1  0.682310  0.363867  0.481125  1
  O  O59  1  0.317690  0.863867  0.018875  1
  O  O60  1  0.317690  0.636133  0.518875  1
  O  O61  1  0.682310  0.136133  0.981125  1
  O  O62  1  0.980134  0.544483  0.359897  1
  O  O63  1  0.019866  0.044483  0.140103  1
  O  O64  1  0.019866  0.455517  0.640103  1
  O  O65  1  0.980134  0.955517  0.859897  1
  O  O66  1  0.915338  0.484251  0.140333  1
  O  O67  1  0.084662  0.984251  0.359667  1
  O  O68  1  0.084662  0.515749  0.859667  1
  O  O69  1  0.915338  0.015749  0.640333  1
  O  O70  1  0.015181  0.321209  0.307686  1
  O  O71  1  0.984819  0.821209  0.192314  1
  O  O72  1  0.984819  0.678791  0.692314  1
  O  O73  1  0.015181  0.178791  0.807686  1
  O  O74  1  0.273100  0.472171  0.318704  1
  O  O75  1  0.726900  0.972171  0.181296  1
  O  O76  1  0.726900  0.527829  0.681296  1
  O  O77  1  0.273100  0.027829  0.818704  1
  O  O78  1  0.360541  0.370039  0.583845  1
  O  O79  1  0.639459  0.870039  0.916155  1
  O  O80  1  0.639459  0.629961  0.416155  1
  O  O81  1  0.360541  0.129961  0.083845  1
  O  O82  1  0.419351  0.066653  0.654436  1
  O  O83  1  0.580649  0.566653  0.845564  1
  O  O84  1  0.580649  0.933347  0.345564  1
  O  O85  1  0.419351  0.433347  0.154436  1
