# generated using pymatgen
data_VPPbO6
_symmetry_space_group_name_H-M   'P 1'
_cell_length_a   5.70066799
_cell_length_b   9.96355112
_cell_length_c   8.57597528
_cell_angle_alpha   90.00000000
_cell_angle_beta   91.22322600
_cell_angle_gamma   90.00000000
_symmetry_Int_Tables_number   1
_chemical_formula_structural   VPPbO6
_chemical_formula_sum   'V4 P4 Pb4 O24'
_cell_volume   486.99493016
_cell_formula_units_Z   4
loop_
 _symmetry_equiv_pos_site_id
 _symmetry_equiv_pos_as_xyz
  1  'x, y, z'
loop_
 _atom_site_type_symbol
 _atom_site_label
 _atom_site_symmetry_multiplicity
 _atom_site_fract_x
 _atom_site_fract_y
 _atom_site_fract_z
 _atom_site_occupancy
  V  V0  1  0.346863  0.410961  0.411189  1
  V  V1  1  0.653137  0.910961  0.088811  1
  V  V2  1  0.653137  0.589039  0.588811  1
  V  V3  1  0.346863  0.089039  0.911189  1
  P  P4  1  0.661522  0.609032  0.213538  1
  P  P5  1  0.338478  0.109032  0.286462  1
  P  P6  1  0.338478  0.390968  0.786462  1
  P  P7  1  0.661522  0.890968  0.713538  1
  Pb  Pb8  1  0.876348  0.314800  0.073648  1
  Pb  Pb9  1  0.123652  0.814800  0.426352  1
  Pb  Pb10  1  0.123652  0.685200  0.926352  1
  Pb  Pb11  1  0.876348  0.185200  0.573648  1
  O  O12  1  0.253914  0.341437  0.620047  1
  O  O13  1  0.746086  0.841437  0.879953  1
  O  O14  1  0.746086  0.658563  0.379953  1
  O  O15  1  0.253914  0.158563  0.120047  1
  O  O16  1  0.520702  0.474157  0.227170  1
  O  O17  1  0.479298  0.974157  0.272830  1
  O  O18  1  0.479298  0.525843  0.772830  1
  O  O19  1  0.520702  0.025843  0.727170  1
  O  O20  1  0.496737  0.219965  0.360897  1
  O  O21  1  0.503263  0.719965  0.139103  1
  O  O22  1  0.503263  0.780035  0.639103  1
  O  O23  1  0.496737  0.280035  0.860897  1
  O  O24  1  0.090079  0.367414  0.327181  1
  O  O25  1  0.909921  0.867414  0.172819  1
  O  O26  1  0.909921  0.632586  0.672819  1
  O  O27  1  0.090079  0.132586  0.827181  1
  O  O28  1  0.678590  0.424284  0.527696  1
  O  O29  1  0.321410  0.924284  0.972304  1
  O  O30  1  0.321410  0.575716  0.472304  1
  O  O31  1  0.678590  0.075716  0.027696  1
  O  O32  1  0.872839  0.574597  0.111780  1
  O  O33  1  0.127161  0.074597  0.388220  1
  O  O34  1  0.127161  0.425403  0.888220  1
  O  O35  1  0.872839  0.925403  0.611780  1
