# generated using pymatgen
data_ThI3
_symmetry_space_group_name_H-M   'P 1'
_cell_length_a   11.20549656
_cell_length_b   11.20549656
_cell_length_c   14.92952443
_cell_angle_alpha   90.00000000
_cell_angle_beta   90.00000000
_cell_angle_gamma   130.88341604
_symmetry_Int_Tables_number   1
_chemical_formula_structural   ThI3
_chemical_formula_sum   'Th8 I24'
_cell_volume   1417.27672382
_cell_formula_units_Z   8
loop_
 _symmetry_equiv_pos_site_id
 _symmetry_equiv_pos_as_xyz
  1  'x, y, z'
loop_
 _atom_site_type_symbol
 _atom_site_label
 _atom_site_symmetry_multiplicity
 _atom_site_fract_x
 _atom_site_fract_y
 _atom_site_fract_z
 _atom_site_occupancy
  Th  Th0  1  0.500000  0.500000  1.000000  1
  Th  Th1  1  0.500000  0.500000  0.500000  1
  Th  Th2  1  0.500000  0.500000  0.750000  1
  Th  Th3  1  0.500000  0.500000  0.250000  1
  Th  Th4  1  0.500177  0.844888  1.000000  1
  Th  Th5  1  0.844888  0.500177  0.500000  1
  Th  Th6  1  0.499823  0.155112  1.000000  1
  Th  Th7  1  0.155112  0.499823  0.500000  1
  I  I8  1  0.500000  0.000000  0.820762  1
  I  I9  1  0.000000  0.500000  0.679238  1
  I  I10  1  0.500000  0.000000  0.179238  1
  I  I11  1  0.000000  0.500000  0.320762  1
  I  I12  1  0.274646  0.179593  0.871064  1
  I  I13  1  0.179593  0.274646  0.628936  1
  I  I14  1  0.725354  0.820407  0.871064  1
  I  I15  1  0.820407  0.725354  0.628936  1
  I  I16  1  0.725354  0.820407  0.128936  1
  I  I17  1  0.820407  0.725354  0.371064  1
  I  I18  1  0.274646  0.179593  0.128936  1
  I  I19  1  0.179593  0.274646  0.371064  1
  I  I20  1  0.521290  0.275058  0.627214  1
  I  I21  1  0.275058  0.521290  0.872786  1
  I  I22  1  0.478710  0.724942  0.627214  1
  I  I23  1  0.724942  0.478710  0.872786  1
  I  I24  1  0.478710  0.724942  0.372786  1
  I  I25  1  0.724942  0.478710  0.127214  1
  I  I26  1  0.521290  0.275058  0.372786  1
  I  I27  1  0.275058  0.521290  0.127214  1
  I  I28  1  0.817663  0.210552  0.000000  1
  I  I29  1  0.210552  0.817663  0.500000  1
  I  I30  1  0.182337  0.789448  1.000000  1
  I  I31  1  0.789448  0.182337  0.500000  1
