# generated using pymatgen
data_Pr3SbO7
_symmetry_space_group_name_H-M   'P 1'
_cell_length_a   6.73327244
_cell_length_b   6.73327244
_cell_length_c   7.77662515
_cell_angle_alpha   90.00000000
_cell_angle_beta   90.00000000
_cell_angle_gamma   110.54244885
_symmetry_Int_Tables_number   1
_chemical_formula_structural   Pr3SbO7
_chemical_formula_sum   'Pr6 Sb2 O14'
_cell_volume   330.14956548
_cell_formula_units_Z   2
loop_
 _symmetry_equiv_pos_site_id
 _symmetry_equiv_pos_as_xyz
  1  'x, y, z'
loop_
 _atom_site_type_symbol
 _atom_site_label
 _atom_site_symmetry_multiplicity
 _atom_site_fract_x
 _atom_site_fract_y
 _atom_site_fract_z
 _atom_site_occupancy
  Pr  Pr0  1  0.481410  0.935267  0.250000  1
  Pr  Pr1  1  0.518590  0.064733  0.750000  1
  Pr  Pr2  1  0.935267  0.481410  0.250000  1
  Pr  Pr3  1  0.064733  0.518590  0.750000  1
  Pr  Pr4  1  0.000000  0.000000  0.000000  1
  Pr  Pr5  1  0.000000  0.000000  0.500000  1
  Sb  Sb6  1  0.500000  0.500000  0.000000  1
  Sb  Sb7  1  0.500000  0.500000  0.500000  1
  O  O8  1  0.579397  0.579397  0.250000  1
  O  O9  1  0.420603  0.420603  0.750000  1
  O  O10  1  0.848354  0.112065  0.250000  1
  O  O11  1  0.151646  0.887935  0.750000  1
  O  O12  1  0.112065  0.848354  0.250000  1
  O  O13  1  0.887935  0.151646  0.750000  1
  O  O14  1  0.440049  0.188409  0.466917  1
  O  O15  1  0.559951  0.811591  0.966917  1
  O  O16  1  0.188409  0.440049  0.466917  1
  O  O17  1  0.811591  0.559951  0.966917  1
  O  O18  1  0.440049  0.188409  0.033083  1
  O  O19  1  0.559951  0.811591  0.533083  1
  O  O20  1  0.811591  0.559951  0.533083  1
  O  O21  1  0.188409  0.440049  0.033083  1
