# generated using pymatgen
data_SnSO4
_symmetry_space_group_name_H-M   'P 1'
_cell_length_a   5.41713055
_cell_length_b   7.36950813
_cell_length_c   9.11590242
_cell_angle_alpha   90.00000000
_cell_angle_beta   90.00000000
_cell_angle_gamma   90.00000000
_symmetry_Int_Tables_number   1
_chemical_formula_structural   SnSO4
_chemical_formula_sum   'Sn4 S4 O16'
_cell_volume   363.92129728
_cell_formula_units_Z   4
loop_
 _symmetry_equiv_pos_site_id
 _symmetry_equiv_pos_as_xyz
  1  'x, y, z'
loop_
 _atom_site_type_symbol
 _atom_site_label
 _atom_site_symmetry_multiplicity
 _atom_site_fract_x
 _atom_site_fract_y
 _atom_site_fract_z
 _atom_site_occupancy
  Sn  Sn0  1  0.750000  0.722195  0.290447  1
  Sn  Sn1  1  0.250000  0.277805  0.709553  1
  Sn  Sn2  1  0.250000  0.222195  0.209553  1
  Sn  Sn3  1  0.750000  0.777805  0.790447  1
  S  S4  1  0.750000  0.324032  0.917397  1
  S  S5  1  0.250000  0.675968  0.082603  1
  S  S6  1  0.250000  0.824032  0.582603  1
  S  S7  1  0.750000  0.175968  0.417397  1
  O  O8  1  0.750000  0.391479  0.068130  1
  O  O9  1  0.250000  0.608521  0.931870  1
  O  O10  1  0.250000  0.891479  0.431870  1
  O  O11  1  0.750000  0.108521  0.568130  1
  O  O12  1  0.750000  0.471820  0.803139  1
  O  O13  1  0.250000  0.528180  0.196861  1
  O  O14  1  0.250000  0.971820  0.696861  1
  O  O15  1  0.750000  0.028180  0.303139  1
  O  O16  1  0.975467  0.208711  0.890685  1
  O  O17  1  0.475467  0.791289  0.109315  1
  O  O18  1  0.024533  0.708711  0.609315  1
  O  O19  1  0.524533  0.291289  0.390685  1
  O  O20  1  0.024533  0.791289  0.109315  1
  O  O21  1  0.524533  0.208711  0.890685  1
  O  O22  1  0.975467  0.291289  0.390685  1
  O  O23  1  0.475467  0.708711  0.609315  1
