# generated using pymatgen
data_Ca2Si3PbO9
_symmetry_space_group_name_H-M   'P 1'
_cell_length_a   6.78195535
_cell_length_b   6.83082280
_cell_length_c   9.65654477
_cell_angle_alpha   82.88142150
_cell_angle_beta   69.64032311
_cell_angle_gamma   76.75777719
_symmetry_Int_Tables_number   1
_chemical_formula_structural   Ca2Si3PbO9
_chemical_formula_sum   'Ca4 Si6 Pb2 O18'
_cell_volume   407.77338177
_cell_formula_units_Z   2
loop_
 _symmetry_equiv_pos_site_id
 _symmetry_equiv_pos_as_xyz
  1  'x, y, z'
loop_
 _atom_site_type_symbol
 _atom_site_label
 _atom_site_symmetry_multiplicity
 _atom_site_fract_x
 _atom_site_fract_y
 _atom_site_fract_z
 _atom_site_occupancy
  Ca  Ca0  1  0.763977  0.727615  0.505159  1
  Ca  Ca1  1  0.236023  0.272385  0.494841  1
  Ca  Ca2  1  0.930419  0.557964  0.831578  1
  Ca  Ca3  1  0.069581  0.442036  0.168422  1
  Si  Si4  1  0.158276  0.903761  0.219084  1
  Si  Si5  1  0.841724  0.096239  0.780916  1
  Si  Si6  1  0.280654  0.766913  0.483530  1
  Si  Si7  1  0.719346  0.233087  0.516470  1
  Si  Si8  1  0.514955  0.561920  0.201729  1
  Si  Si9  1  0.485045  0.438080  0.798271  1
  Pb  Pb10  1  0.281085  0.907019  0.841915  1
  Pb  Pb11  1  0.718915  0.092981  0.158085  1
  O  O12  1  0.974791  0.769577  0.256459  1
  O  O13  1  0.025209  0.230423  0.743541  1
  O  O14  1  0.905930  0.892323  0.874060  1
  O  O15  1  0.094070  0.107677  0.125940  1
  O  O16  1  0.396427  0.766714  0.123794  1
  O  O17  1  0.603573  0.233286  0.876206  1
  O  O18  1  0.194110  0.954371  0.373382  1
  O  O19  1  0.805890  0.045629  0.626618  1
  O  O20  1  0.105479  0.626199  0.559509  1
  O  O21  1  0.894521  0.373801  0.440491  1
  O  O22  1  0.360963  0.872227  0.589591  1
  O  O23  1  0.639037  0.127773  0.410409  1
  O  O24  1  0.506976  0.641235  0.362389  1
  O  O25  1  0.493024  0.358765  0.637611  1
  O  O26  1  0.240333  0.522161  0.901816  1
  O  O27  1  0.759667  0.477839  0.098184  1
  O  O28  1  0.627398  0.612544  0.759176  1
  O  O29  1  0.372602  0.387456  0.240824  1
