# generated using pymatgen
data_BaVOF4
_symmetry_space_group_name_H-M   'P 1'
_cell_length_a   14.65521863
_cell_length_b   14.59190468
_cell_length_c   5.49843463
_cell_angle_alpha   79.81266779
_cell_angle_beta   78.51665410
_cell_angle_gamma   21.67067812
_symmetry_Int_Tables_number   1
_chemical_formula_structural   BaVOF4
_chemical_formula_sum   'Ba4 V4 O4 F16'
_cell_volume   425.39966204
_cell_formula_units_Z   4
loop_
 _symmetry_equiv_pos_site_id
 _symmetry_equiv_pos_as_xyz
  1  'x, y, z'
loop_
 _atom_site_type_symbol
 _atom_site_label
 _atom_site_symmetry_multiplicity
 _atom_site_fract_x
 _atom_site_fract_y
 _atom_site_fract_z
 _atom_site_occupancy
  Ba  Ba0  1  0.816372  0.292831  0.709700  1
  Ba  Ba1  1  0.181097  0.709700  0.292831  1
  Ba  Ba2  1  0.540300  0.068903  0.433628  1
  Ba  Ba3  1  0.957169  0.433628  0.068903  1
  V  V4  1  0.070735  0.584092  0.919342  1
  V  V5  1  0.665908  0.179265  0.824168  1
  V  V6  1  0.425832  0.919342  0.584092  1
  V  V7  1  0.330658  0.824168  0.179265  1
  O  O8  1  0.402831  0.691089  0.438251  1
  O  O9  1  0.467829  0.438251  0.691089  1
  O  O10  1  0.558911  0.847169  0.782171  1
  O  O11  1  0.811749  0.782171  0.847169  1
  F  F12  1  0.278240  0.283859  0.883013  1
  F  F13  1  0.218467  0.018674  0.833919  1
  F  F14  1  0.035012  0.562889  0.272365  1
  F  F15  1  0.366987  0.695112  0.971760  1
  F  F16  1  0.129734  0.272365  0.562889  1
  F  F17  1  0.966141  0.971760  0.695112  1
  F  F18  1  0.977635  0.120266  0.214988  1
  F  F19  1  0.679857  0.595655  0.503381  1
  F  F20  1  0.687111  0.214988  0.120266  1
  F  F21  1  0.221107  0.503381  0.595655  1
  F  F22  1  0.231326  0.031533  0.321060  1
  F  F23  1  0.654345  0.570143  0.028893  1
  F  F24  1  0.416081  0.321060  0.031533  1
  F  F25  1  0.928940  0.833919  0.018674  1
  F  F26  1  0.746619  0.028893  0.570143  1
  F  F27  1  0.554888  0.883013  0.283859  1
