# generated using pymatgen
data_YTaO4
_symmetry_space_group_name_H-M   'P 1'
_cell_length_a   6.57945033
_cell_length_b   6.57945033
_cell_length_c   5.11944503
_cell_angle_alpha   69.34594102
_cell_angle_beta   110.65405898
_cell_angle_gamma   65.12337149
_symmetry_Int_Tables_number   1
_chemical_formula_structural   YTaO4
_chemical_formula_sum   'Y2 Ta2 O8'
_cell_volume   151.85775428
_cell_formula_units_Z   2
loop_
 _symmetry_equiv_pos_site_id
 _symmetry_equiv_pos_as_xyz
  1  'x, y, z'
loop_
 _atom_site_type_symbol
 _atom_site_label
 _atom_site_symmetry_multiplicity
 _atom_site_fract_x
 _atom_site_fract_y
 _atom_site_fract_z
 _atom_site_occupancy
  Y  Y0  1  0.130401  0.130401  0.250000  1
  Y  Y1  1  0.869599  0.869599  0.750000  1
  Ta  Ta2  1  0.603778  0.603778  0.250000  1
  Ta  Ta3  1  0.396222  0.396222  0.750000  1
  O  O4  1  0.286973  0.776566  0.792835  1
  O  O5  1  0.448881  0.131197  0.661447  1
  O  O6  1  0.713027  0.223434  0.207165  1
  O  O7  1  0.868803  0.551119  0.161447  1
  O  O8  1  0.776566  0.286973  0.707165  1
  O  O9  1  0.131197  0.448881  0.838553  1
  O  O10  1  0.551119  0.868803  0.338553  1
  O  O11  1  0.223434  0.713027  0.292835  1
