# generated using pymatgen
data_TmAlRh
_symmetry_space_group_name_H-M   'P 1'
_cell_length_a   4.16056983
_cell_length_b   6.81295526
_cell_length_c   7.95015672
_cell_angle_alpha   90.00000000
_cell_angle_beta   90.00000000
_cell_angle_gamma   90.00000000
_symmetry_Int_Tables_number   1
_chemical_formula_structural   TmAlRh
_chemical_formula_sum   'Tm4 Al4 Rh4'
_cell_volume   225.35336241
_cell_formula_units_Z   4
loop_
 _symmetry_equiv_pos_site_id
 _symmetry_equiv_pos_as_xyz
  1  'x, y, z'
loop_
 _atom_site_type_symbol
 _atom_site_label
 _atom_site_symmetry_multiplicity
 _atom_site_fract_x
 _atom_site_fract_y
 _atom_site_fract_z
 _atom_site_occupancy
  Tm  Tm0  1  0.250000  0.964142  0.321523  1
  Tm  Tm1  1  0.750000  0.535858  0.821523  1
  Tm  Tm2  1  0.250000  0.464142  0.178477  1
  Tm  Tm3  1  0.750000  0.035858  0.678477  1
  Al  Al4  1  0.750000  0.636687  0.441229  1
  Al  Al5  1  0.750000  0.136687  0.058771  1
  Al  Al6  1  0.250000  0.363313  0.558771  1
  Al  Al7  1  0.250000  0.863313  0.941229  1
  Rh  Rh8  1  0.750000  0.763761  0.123879  1
  Rh  Rh9  1  0.750000  0.263761  0.376121  1
  Rh  Rh10  1  0.250000  0.236239  0.876121  1
  Rh  Rh11  1  0.250000  0.736239  0.623879  1
