# generated using pymatgen
data_Ti2CuS4
_symmetry_space_group_name_H-M   'P 1'
_cell_length_a   12.28613988
_cell_length_b   12.28613988
_cell_length_c   12.28613988
_cell_angle_alpha   33.26808581
_cell_angle_beta   33.26808581
_cell_angle_gamma   33.26808581
_symmetry_Int_Tables_number   1
_chemical_formula_structural   Ti2CuS4
_chemical_formula_sum   'Ti8 Cu4 S16'
_cell_volume   496.85236507
_cell_formula_units_Z   4
loop_
 _symmetry_equiv_pos_site_id
 _symmetry_equiv_pos_as_xyz
  1  'x, y, z'
loop_
 _atom_site_type_symbol
 _atom_site_label
 _atom_site_symmetry_multiplicity
 _atom_site_fract_x
 _atom_site_fract_y
 _atom_site_fract_z
 _atom_site_occupancy
  Ti  Ti0  1  0.581609  0.082584  0.082584  1
  Ti  Ti1  1  0.917416  0.418391  0.917416  1
  Ti  Ti2  1  0.500000  0.500000  0.500000  1
  Ti  Ti3  1  0.082584  0.581609  0.082584  1
  Ti  Ti4  1  0.917416  0.917416  0.418391  1
  Ti  Ti5  1  0.418391  0.917416  0.917416  1
  Ti  Ti6  1  0.082584  0.082584  0.581609  1
  Ti  Ti7  1  0.000000  0.000000  0.000000  1
  Cu  Cu8  1  0.812129  0.812129  0.812129  1
  Cu  Cu9  1  0.646395  0.646395  0.646395  1
  Cu  Cu10  1  0.353605  0.353605  0.353605  1
  Cu  Cu11  1  0.187871  0.187871  0.187871  1
  S  S12  1  0.615172  0.137993  0.615172  1
  S  S13  1  0.798484  0.276035  0.798484  1
  S  S14  1  0.201516  0.723965  0.201516  1
  S  S15  1  0.123508  0.123508  0.123508  1
  S  S16  1  0.384828  0.384828  0.862007  1
  S  S17  1  0.862007  0.384828  0.384828  1
  S  S18  1  0.723965  0.201516  0.201516  1
  S  S19  1  0.201516  0.201516  0.723965  1
  S  S20  1  0.137993  0.615172  0.615172  1
  S  S21  1  0.798484  0.798484  0.276035  1
  S  S22  1  0.276035  0.798484  0.798484  1
  S  S23  1  0.384828  0.862007  0.384828  1
  S  S24  1  0.711452  0.711452  0.711452  1
  S  S25  1  0.288548  0.288548  0.288548  1
  S  S26  1  0.615172  0.615172  0.137993  1
  S  S27  1  0.876492  0.876492  0.876492  1
