# generated using pymatgen
data_SiO2
_symmetry_space_group_name_H-M   'P 1'
_cell_length_a   11.50616265
_cell_length_b   11.50616265
_cell_length_c   19.94488100
_cell_angle_alpha   90.00000000
_cell_angle_beta   90.00000000
_cell_angle_gamma   129.13649298
_symmetry_Int_Tables_number   1
_chemical_formula_structural   SiO2
_chemical_formula_sum   'Si32 O64'
_cell_volume   2048.11914474
_cell_formula_units_Z   32
loop_
 _symmetry_equiv_pos_site_id
 _symmetry_equiv_pos_as_xyz
  1  'x, y, z'
loop_
 _atom_site_type_symbol
 _atom_site_label
 _atom_site_symmetry_multiplicity
 _atom_site_fract_x
 _atom_site_fract_y
 _atom_site_fract_z
 _atom_site_occupancy
  Si  Si0  1  0.960123  0.491856  0.108869  1
  Si  Si1  1  0.719785  0.361912  0.828256  1
  Si  Si2  1  0.320783  0.473678  0.059507  1
  Si  Si3  1  0.998629  0.692689  0.506627  1
  Si  Si4  1  0.280215  0.638088  0.171744  1
  Si  Si5  1  0.307311  0.001371  0.006627  1
  Si  Si6  1  0.508144  0.039877  0.608869  1
  Si  Si7  1  0.692689  0.998629  0.506627  1
  Si  Si8  1  0.039877  0.508144  0.608869  1
  Si  Si9  1  0.638088  0.280215  0.328256  1
  Si  Si10  1  0.638088  0.280215  0.171744  1
  Si  Si11  1  0.960123  0.491856  0.391131  1
  Si  Si12  1  0.679217  0.526322  0.559507  1
  Si  Si13  1  0.719785  0.361912  0.671744  1
  Si  Si14  1  0.280215  0.638088  0.328256  1
  Si  Si15  1  0.039877  0.508144  0.891131  1
  Si  Si16  1  0.679217  0.526322  0.940493  1
  Si  Si17  1  0.001371  0.307311  0.493373  1
  Si  Si18  1  0.473678  0.320783  0.059507  1
  Si  Si19  1  0.692689  0.998629  0.993373  1
  Si  Si20  1  0.998629  0.692689  0.993373  1
  Si  Si21  1  0.361912  0.719785  0.671744  1
  Si  Si22  1  0.491856  0.960123  0.391131  1
  Si  Si23  1  0.526322  0.679217  0.559507  1
  Si  Si24  1  0.491856  0.960123  0.108869  1
  Si  Si25  1  0.320783  0.473678  0.440493  1
  Si  Si26  1  0.526322  0.679217  0.940493  1
  Si  Si27  1  0.307311  0.001371  0.493373  1
  Si  Si28  1  0.361912  0.719785  0.828256  1
  Si  Si29  1  0.473678  0.320783  0.440493  1
  Si  Si30  1  0.508144  0.039877  0.891131  1
  Si  Si31  1  0.001371  0.307311  0.006627  1
  O  O32  1  0.401533  0.817979  0.159412  1
  O  O33  1  0.591256  0.591256  0.926833  1
  O  O34  1  0.056591  0.626972  0.556793  1
  O  O35  1  0.850729  0.662536  0.962957  1
  O  O36  1  0.182021  0.598467  0.840588  1
  O  O37  1  0.373028  0.943409  0.056793  1
  O  O38  1  0.614638  0.962023  0.433088  1
  O  O39  1  0.149271  0.337464  0.462957  1
  O  O40  1  0.422573  0.887128  0.652395  1
  O  O41  1  0.577427  0.112872  0.152395  1
  O  O42  1  0.603854  0.284452  0.250000  1
  O  O43  1  0.396146  0.715548  0.750000  1
  O  O44  1  0.626972  0.056591  0.556793  1
  O  O45  1  0.676517  0.448719  0.872091  1
  O  O46  1  0.149271  0.337464  0.037043  1
  O  O47  1  0.614638  0.962023  0.066912  1
  O  O48  1  0.448719  0.676517  0.627909  1
  O  O49  1  0.626972  0.056591  0.943207  1
  O  O50  1  0.591256  0.591256  0.573167  1
  O  O51  1  0.715548  0.396146  0.750000  1
  O  O52  1  0.662536  0.850729  0.537043  1
  O  O53  1  0.127468  0.872532  0.000000  1
  O  O54  1  0.401306  0.598693  0.500000  1
  O  O55  1  0.962023  0.614638  0.066912  1
  O  O56  1  0.422573  0.887128  0.847605  1
  O  O57  1  0.676517  0.448719  0.627909  1
  O  O58  1  0.401533  0.817979  0.340588  1
  O  O59  1  0.662536  0.850729  0.962957  1
  O  O60  1  0.056591  0.626972  0.943207  1
  O  O61  1  0.872532  0.127468  0.500000  1
  O  O62  1  0.962023  0.614638  0.433088  1
  O  O63  1  0.448719  0.676517  0.872091  1
  O  O64  1  0.577427  0.112872  0.347605  1
  O  O65  1  0.385362  0.037977  0.566912  1
  O  O66  1  0.887128  0.422573  0.652395  1
  O  O67  1  0.337464  0.149271  0.037043  1
  O  O68  1  0.401306  0.598693  0.000000  1
  O  O69  1  0.850729  0.662536  0.537043  1
  O  O70  1  0.323483  0.551281  0.372091  1
  O  O71  1  0.408744  0.408744  0.073167  1
  O  O72  1  0.817979  0.401533  0.159412  1
  O  O73  1  0.127468  0.872532  0.500000  1
  O  O74  1  0.598467  0.182021  0.840588  1
  O  O75  1  0.551281  0.323483  0.127909  1
  O  O76  1  0.112872  0.577427  0.152395  1
  O  O77  1  0.887128  0.422573  0.847605  1
  O  O78  1  0.943409  0.373028  0.056793  1
  O  O79  1  0.943409  0.373028  0.443207  1
  O  O80  1  0.112872  0.577427  0.347605  1
  O  O81  1  0.551281  0.323483  0.372091  1
  O  O82  1  0.037977  0.385362  0.933088  1
  O  O83  1  0.182021  0.598467  0.659412  1
  O  O84  1  0.598693  0.401306  0.500000  1
  O  O85  1  0.037977  0.385362  0.566912  1
  O  O86  1  0.385362  0.037977  0.933088  1
  O  O87  1  0.408744  0.408744  0.426833  1
  O  O88  1  0.598467  0.182021  0.659412  1
  O  O89  1  0.323483  0.551281  0.127909  1
  O  O90  1  0.337464  0.149271  0.462957  1
  O  O91  1  0.284452  0.603854  0.250000  1
  O  O92  1  0.817979  0.401533  0.340588  1
  O  O93  1  0.373028  0.943409  0.443207  1
  O  O94  1  0.872532  0.127468  0.000000  1
  O  O95  1  0.598693  0.401306  0.000000  1
