# generated using pymatgen
data_Cs2Sb2OF10
_symmetry_space_group_name_H-M   'P 1'
_cell_length_a   7.59680099
_cell_length_b   5.46517850
_cell_length_c   14.27334658
_cell_angle_alpha   90.00000000
_cell_angle_beta   100.59655926
_cell_angle_gamma   90.00000000
_symmetry_Int_Tables_number   1
_chemical_formula_structural   Cs2Sb2OF10
_chemical_formula_sum   'Cs4 Sb4 O2 F20'
_cell_volume   582.49304693
_cell_formula_units_Z   2
loop_
 _symmetry_equiv_pos_site_id
 _symmetry_equiv_pos_as_xyz
  1  'x, y, z'
loop_
 _atom_site_type_symbol
 _atom_site_label
 _atom_site_symmetry_multiplicity
 _atom_site_fract_x
 _atom_site_fract_y
 _atom_site_fract_z
 _atom_site_occupancy
  Cs  Cs0  1  0.234568  0.409510  0.407202  1
  Cs  Cs1  1  0.234568  0.590490  0.907202  1
  Cs  Cs2  1  0.765432  0.590490  0.592798  1
  Cs  Cs3  1  0.765432  0.409510  0.092798  1
  Sb  Sb4  1  0.293771  0.016804  0.666493  1
  Sb  Sb5  1  0.293771  0.983196  0.166493  1
  Sb  Sb6  1  0.706229  0.016804  0.833507  1
  Sb  Sb7  1  0.706229  0.983196  0.333507  1
  O  O8  1  0.500000  0.129819  0.250000  1
  O  O9  1  0.500000  0.870181  0.750000  1
  F  F10  1  0.847933  0.731693  0.816535  1
  F  F11  1  0.580445  0.693123  0.361857  1
  F  F12  1  0.789675  0.166005  0.727218  1
  F  F13  1  0.086296  0.848778  0.083513  1
  F  F14  1  0.419555  0.306877  0.638143  1
  F  F15  1  0.913704  0.151222  0.916487  1
  F  F16  1  0.210325  0.166005  0.772782  1
  F  F17  1  0.847933  0.268307  0.316535  1
  F  F18  1  0.210325  0.833995  0.272782  1
  F  F19  1  0.419555  0.693123  0.138143  1
  F  F20  1  0.086296  0.151222  0.583513  1
  F  F21  1  0.359095  0.139356  0.055743  1
  F  F22  1  0.152067  0.268307  0.183465  1
  F  F23  1  0.640905  0.860644  0.944257  1
  F  F24  1  0.789675  0.833995  0.227218  1
  F  F25  1  0.152067  0.731693  0.683465  1
  F  F26  1  0.913704  0.848778  0.416487  1
  F  F27  1  0.359095  0.860644  0.555743  1
  F  F28  1  0.580445  0.306877  0.861857  1
  F  F29  1  0.640905  0.139356  0.444257  1
