# generated using pymatgen
data_CsTiF4
_symmetry_space_group_name_H-M   'P 1'
_cell_length_a   8.03203803
_cell_length_b   8.03203803
_cell_length_c   6.64232888
_cell_angle_alpha   90.00000000
_cell_angle_beta   90.00000000
_cell_angle_gamma   90.00000000
_symmetry_Int_Tables_number   1
_chemical_formula_structural   CsTiF4
_chemical_formula_sum   'Cs4 Ti4 F16'
_cell_volume   428.52078035
_cell_formula_units_Z   4
loop_
 _symmetry_equiv_pos_site_id
 _symmetry_equiv_pos_as_xyz
  1  'x, y, z'
loop_
 _atom_site_type_symbol
 _atom_site_label
 _atom_site_symmetry_multiplicity
 _atom_site_fract_x
 _atom_site_fract_y
 _atom_site_fract_z
 _atom_site_occupancy
  Cs  Cs0  1  0.000000  0.000000  0.500000  1
  Cs  Cs1  1  0.500000  0.500000  0.500000  1
  Cs  Cs2  1  0.000000  0.500000  0.448398  1
  Cs  Cs3  1  0.500000  0.000000  0.551602  1
  Ti  Ti4  1  0.750000  0.250000  0.000000  1
  Ti  Ti5  1  0.750000  0.750000  0.000000  1
  Ti  Ti6  1  0.250000  0.250000  0.000000  1
  Ti  Ti7  1  0.250000  0.750000  0.000000  1
  F  F8  1  0.747784  0.500000  0.046123  1
  F  F9  1  0.000000  0.752216  0.046123  1
  F  F10  1  0.000000  0.247784  0.046123  1
  F  F11  1  0.252216  0.500000  0.046123  1
  F  F12  1  0.752216  0.000000  0.953877  1
  F  F13  1  0.247784  0.000000  0.953877  1
  F  F14  1  0.500000  0.747784  0.953877  1
  F  F15  1  0.500000  0.252216  0.953877  1
  F  F16  1  0.720119  0.220119  0.285422  1
  F  F17  1  0.720119  0.779881  0.285422  1
  F  F18  1  0.279881  0.220119  0.285422  1
  F  F19  1  0.279881  0.779881  0.285422  1
  F  F20  1  0.779881  0.720119  0.714578  1
  F  F21  1  0.220119  0.279881  0.714578  1
  F  F22  1  0.220119  0.720119  0.714578  1
  F  F23  1  0.779881  0.279881  0.714578  1
