# generated using pymatgen
data_Er4InRh
_symmetry_space_group_name_H-M   'P 1'
_cell_length_a   9.57467435
_cell_length_b   9.57467435
_cell_length_c   9.57467435
_cell_angle_alpha   60.00000000
_cell_angle_beta   60.00000000
_cell_angle_gamma   60.00000000
_symmetry_Int_Tables_number   1
_chemical_formula_structural   Er4InRh
_chemical_formula_sum   'Er16 In4 Rh4'
_cell_volume   620.66468884
_cell_formula_units_Z   4
loop_
 _symmetry_equiv_pos_site_id
 _symmetry_equiv_pos_as_xyz
  1  'x, y, z'
loop_
 _atom_site_type_symbol
 _atom_site_label
 _atom_site_symmetry_multiplicity
 _atom_site_fract_x
 _atom_site_fract_y
 _atom_site_fract_z
 _atom_site_occupancy
  Er  Er0  1  0.439171  0.439171  0.060829  1
  Er  Er1  1  0.188023  0.811977  0.188023  1
  Er  Er2  1  0.811977  0.188023  0.188023  1
  Er  Er3  1  0.188023  0.811977  0.811977  1
  Er  Er4  1  0.599893  0.599893  0.200321  1
  Er  Er5  1  0.439171  0.060829  0.439171  1
  Er  Er6  1  0.811977  0.811977  0.188023  1
  Er  Er7  1  0.060829  0.439171  0.060829  1
  Er  Er8  1  0.060829  0.060829  0.439171  1
  Er  Er9  1  0.200321  0.599893  0.599893  1
  Er  Er10  1  0.599893  0.200321  0.599893  1
  Er  Er11  1  0.811977  0.188023  0.811977  1
  Er  Er12  1  0.599893  0.599893  0.599893  1
  Er  Er13  1  0.439171  0.060829  0.060829  1
  Er  Er14  1  0.188023  0.188023  0.811977  1
  Er  Er15  1  0.060829  0.439171  0.439171  1
  In  In16  1  0.832880  0.832880  0.501360  1
  In  In17  1  0.501360  0.832880  0.832880  1
  In  In18  1  0.832880  0.832880  0.832880  1
  In  In19  1  0.832880  0.501360  0.832880  1
  Rh  Rh20  1  0.392717  0.392717  0.821849  1
  Rh  Rh21  1  0.821849  0.392717  0.392717  1
  Rh  Rh22  1  0.392717  0.392717  0.392717  1
  Rh  Rh23  1  0.392717  0.821849  0.392717  1
