# generated using pymatgen
data_Hg7(P2Br3)2
_symmetry_space_group_name_H-M   'P 1'
_cell_length_a   6.19073587
_cell_length_b   20.28818353
_cell_length_c   7.73959494
_cell_angle_alpha   90.00000000
_cell_angle_beta   103.85361897
_cell_angle_gamma   90.00000000
_symmetry_Int_Tables_number   1
_chemical_formula_structural   Hg7(P2Br3)2
_chemical_formula_sum   'Hg14 P8 Br12'
_cell_volume   943.80642057
_cell_formula_units_Z   2
loop_
 _symmetry_equiv_pos_site_id
 _symmetry_equiv_pos_as_xyz
  1  'x, y, z'
loop_
 _atom_site_type_symbol
 _atom_site_label
 _atom_site_symmetry_multiplicity
 _atom_site_fract_x
 _atom_site_fract_y
 _atom_site_fract_z
 _atom_site_occupancy
  Hg  Hg0  1  0.000000  0.000000  0.000000  1
  Hg  Hg1  1  0.000000  0.500000  0.500000  1
  Hg  Hg2  1  0.492455  0.862717  0.078574  1
  Hg  Hg3  1  0.507545  0.362717  0.421426  1
  Hg  Hg4  1  0.507545  0.137283  0.921426  1
  Hg  Hg5  1  0.492455  0.637283  0.578574  1
  Hg  Hg6  1  0.909610  0.767867  0.811840  1
  Hg  Hg7  1  0.090390  0.267867  0.688160  1
  Hg  Hg8  1  0.090390  0.232133  0.188160  1
  Hg  Hg9  1  0.909610  0.732133  0.311840  1
  Hg  Hg10  1  0.217111  0.911632  0.491240  1
  Hg  Hg11  1  0.782889  0.411632  0.008760  1
  Hg  Hg12  1  0.782889  0.088368  0.508760  1
  Hg  Hg13  1  0.217111  0.588368  0.991240  1
  P  P14  1  0.142424  0.897410  0.164082  1
  P  P15  1  0.857576  0.397410  0.335918  1
  P  P16  1  0.857576  0.102590  0.835918  1
  P  P17  1  0.142424  0.602590  0.664082  1
  P  P18  1  0.877180  0.822415  0.090186  1
  P  P19  1  0.122820  0.322415  0.409814  1
  P  P20  1  0.122820  0.177585  0.909814  1
  P  P21  1  0.877180  0.677585  0.590186  1
  Br  Br22  1  0.399304  0.979787  0.778107  1
  Br  Br23  1  0.600696  0.479787  0.721893  1
  Br  Br24  1  0.600696  0.020213  0.221893  1
  Br  Br25  1  0.399304  0.520213  0.278107  1
  Br  Br26  1  0.362155  0.788475  0.705703  1
  Br  Br27  1  0.637845  0.288475  0.794297  1
  Br  Br28  1  0.637845  0.211525  0.294297  1
  Br  Br29  1  0.362155  0.711525  0.205703  1
  Br  Br30  1  0.814139  0.887707  0.581981  1
  Br  Br31  1  0.185861  0.387707  0.918019  1
  Br  Br32  1  0.185861  0.112293  0.418019  1
  Br  Br33  1  0.814139  0.612293  0.081981  1
