# generated using pymatgen
data_Ag13OsO6
_symmetry_space_group_name_H-M   'P 1'
_cell_length_a   9.48034056
_cell_length_b   9.48034056
_cell_length_c   9.48034056
_cell_angle_alpha   60.00000000
_cell_angle_beta   60.00000000
_cell_angle_gamma   60.00000000
_symmetry_Int_Tables_number   1
_chemical_formula_structural   Ag13OsO6
_chemical_formula_sum   'Ag26 Os2 O12'
_cell_volume   602.49967700
_cell_formula_units_Z   2
loop_
 _symmetry_equiv_pos_site_id
 _symmetry_equiv_pos_as_xyz
  1  'x, y, z'
loop_
 _atom_site_type_symbol
 _atom_site_label
 _atom_site_symmetry_multiplicity
 _atom_site_fract_x
 _atom_site_fract_y
 _atom_site_fract_z
 _atom_site_occupancy
  Ag  Ag0  1  0.000000  0.000000  0.000000  1
  Ag  Ag1  1  0.500000  0.500000  0.500000  1
  Ag  Ag2  1  0.064263  0.292285  0.707715  1
  Ag  Ag3  1  0.564263  0.792285  0.435737  1
  Ag  Ag4  1  0.792285  0.564263  0.207715  1
  Ag  Ag5  1  0.207715  0.564263  0.435737  1
  Ag  Ag6  1  0.792285  0.435737  0.564263  1
  Ag  Ag7  1  0.207715  0.792285  0.564263  1
  Ag  Ag8  1  0.564263  0.435737  0.207715  1
  Ag  Ag9  1  0.707715  0.292285  0.935737  1
  Ag  Ag10  1  0.935737  0.292285  0.064263  1
  Ag  Ag11  1  0.707715  0.064263  0.292285  1
  Ag  Ag12  1  0.292285  0.707715  0.064263  1
  Ag  Ag13  1  0.064263  0.935737  0.292285  1
  Ag  Ag14  1  0.064263  0.707715  0.935737  1
  Ag  Ag15  1  0.935737  0.064263  0.707715  1
  Ag  Ag16  1  0.292285  0.935737  0.707715  1
  Ag  Ag17  1  0.435737  0.792285  0.207715  1
  Ag  Ag18  1  0.207715  0.435737  0.792285  1
  Ag  Ag19  1  0.435737  0.564263  0.792285  1
  Ag  Ag20  1  0.792285  0.207715  0.435737  1
  Ag  Ag21  1  0.435737  0.207715  0.564263  1
  Ag  Ag22  1  0.564263  0.207715  0.792285  1
  Ag  Ag23  1  0.292285  0.064263  0.935737  1
  Ag  Ag24  1  0.935737  0.707715  0.292285  1
  Ag  Ag25  1  0.707715  0.935737  0.064263  1
  Os  Os26  1  0.750000  0.750000  0.750000  1
  Os  Os27  1  0.250000  0.250000  0.250000  1
  O  O28  1  0.893140  0.606860  0.606860  1
  O  O29  1  0.606860  0.893140  0.606860  1
  O  O30  1  0.893140  0.606860  0.893140  1
  O  O31  1  0.893140  0.893140  0.606860  1
  O  O32  1  0.606860  0.606860  0.893140  1
  O  O33  1  0.606860  0.893140  0.893140  1
  O  O34  1  0.106860  0.393140  0.393140  1
  O  O35  1  0.393140  0.106860  0.393140  1
  O  O36  1  0.106860  0.393140  0.106860  1
  O  O37  1  0.106860  0.106860  0.393140  1
  O  O38  1  0.393140  0.393140  0.106860  1
  O  O39  1  0.393140  0.106860  0.106860  1
