# generated using pymatgen
data_TbCl
_symmetry_space_group_name_H-M   'P 1'
_cell_length_a   9.82690847
_cell_length_b   9.82690847
_cell_length_c   9.82690847
_cell_angle_alpha   22.04927972
_cell_angle_beta   22.04927972
_cell_angle_gamma   22.04927972
_symmetry_Int_Tables_number   1
_chemical_formula_structural   TbCl
_chemical_formula_sum   'Tb2 Cl2'
_cell_volume   117.24754566
_cell_formula_units_Z   2
loop_
 _symmetry_equiv_pos_site_id
 _symmetry_equiv_pos_as_xyz
  1  'x, y, z'
loop_
 _atom_site_type_symbol
 _atom_site_label
 _atom_site_symmetry_multiplicity
 _atom_site_fract_x
 _atom_site_fract_y
 _atom_site_fract_z
 _atom_site_occupancy
  Tb  Tb0  1  0.882258  0.882258  0.882258  1
  Tb  Tb1  1  0.117742  0.117742  0.117742  1
  Cl  Cl2  1  0.390201  0.390201  0.390201  1
  Cl  Cl3  1  0.609799  0.609799  0.609799  1
