# generated using pymatgen
data_Ca(AlCl4)2
_symmetry_space_group_name_H-M   'P 1'
_cell_length_a   12.93287787
_cell_length_b   12.93287787
_cell_length_c   12.93287787
_cell_angle_alpha   126.35866953
_cell_angle_beta   126.35866953
_cell_angle_gamma   79.29943881
_symmetry_Int_Tables_number   1
_chemical_formula_structural   Ca(AlCl4)2
_chemical_formula_sum   'Ca4 Al8 Cl32'
_cell_volume   1356.28418182
_cell_formula_units_Z   4
loop_
 _symmetry_equiv_pos_site_id
 _symmetry_equiv_pos_as_xyz
  1  'x, y, z'
loop_
 _atom_site_type_symbol
 _atom_site_label
 _atom_site_symmetry_multiplicity
 _atom_site_fract_x
 _atom_site_fract_y
 _atom_site_fract_z
 _atom_site_occupancy
  Ca  Ca0  1  0.500000  0.500000  0.000000  1
  Ca  Ca1  1  0.250000  0.750000  0.500000  1
  Ca  Ca2  1  0.750000  0.250000  0.500000  1
  Ca  Ca3  1  0.000000  0.000000  0.000000  1
  Al  Al4  1  0.099327  0.375000  0.224327  1
  Al  Al5  1  0.625000  0.349327  0.224327  1
  Al  Al6  1  0.625000  0.849327  0.724327  1
  Al  Al7  1  0.150673  0.875000  0.775673  1
  Al  Al8  1  0.125000  0.400673  0.775673  1
  Al  Al9  1  0.599327  0.375000  0.724327  1
  Al  Al10  1  0.650673  0.875000  0.275673  1
  Al  Al11  1  0.125000  0.900673  0.275673  1
  Cl  Cl12  1  0.067614  0.706135  0.198949  1
  Cl  Cl13  1  0.618665  0.317614  0.861479  1
  Cl  Cl14  1  0.242814  0.381335  0.698949  1
  Cl  Cl15  1  0.754440  0.725118  0.218942  1
  Cl  Cl16  1  0.254440  0.035498  0.029323  1
  Cl  Cl17  1  0.285498  0.004440  0.529323  1
  Cl  Cl18  1  0.682386  0.543865  0.301051  1
  Cl  Cl19  1  0.456135  0.757186  0.138521  1
  Cl  Cl20  1  0.007186  0.206135  0.638521  1
  Cl  Cl21  1  0.774882  0.745560  0.781058  1
  Cl  Cl22  1  0.506176  0.535498  0.781058  1
  Cl  Cl23  1  0.495560  0.214502  0.470677  1
  Cl  Cl24  1  0.464502  0.245560  0.970677  1
  Cl  Cl25  1  0.631335  0.992814  0.198949  1
  Cl  Cl26  1  0.742814  0.043865  0.861479  1
  Cl  Cl27  1  0.118665  0.257186  0.301051  1
  Cl  Cl28  1  0.243824  0.714502  0.718942  1
  Cl  Cl29  1  0.793865  0.432386  0.801051  1
  Cl  Cl30  1  0.956135  0.817614  0.698949  1
  Cl  Cl31  1  0.507186  0.868665  0.801051  1
  Cl  Cl32  1  0.785498  0.256175  0.281058  1
  Cl  Cl33  1  0.964502  0.993825  0.218942  1
  Cl  Cl34  1  0.131335  0.932386  0.638521  1
  Cl  Cl35  1  0.182386  0.881335  0.138521  1
  Cl  Cl36  1  0.743824  0.024882  0.529323  1
  Cl  Cl37  1  0.995560  0.524882  0.281058  1
  Cl  Cl38  1  0.567614  0.368665  0.361479  1
  Cl  Cl39  1  0.975118  0.504440  0.718942  1
  Cl  Cl40  1  0.006175  0.225118  0.970677  1
  Cl  Cl41  1  0.475118  0.756176  0.470677  1
  Cl  Cl42  1  0.293865  0.492814  0.361479  1
  Cl  Cl43  1  0.274882  0.493824  0.029323  1
