# generated using pymatgen
data_Nd2Si2O7
_symmetry_space_group_name_H-M   'P 1'
_cell_length_a   5.43541836
_cell_length_b   8.68770009
_cell_length_c   13.08982354
_cell_angle_alpha   90.00000000
_cell_angle_beta   90.00000000
_cell_angle_gamma   90.00000000
_symmetry_Int_Tables_number   1
_chemical_formula_structural   Nd2Si2O7
_chemical_formula_sum   'Nd8 Si8 O28'
_cell_volume   618.11828242
_cell_formula_units_Z   4
loop_
 _symmetry_equiv_pos_site_id
 _symmetry_equiv_pos_as_xyz
  1  'x, y, z'
loop_
 _atom_site_type_symbol
 _atom_site_label
 _atom_site_symmetry_multiplicity
 _atom_site_fract_x
 _atom_site_fract_y
 _atom_site_fract_z
 _atom_site_occupancy
  Nd  Nd0  1  0.986655  0.853613  0.089069  1
  Nd  Nd1  1  0.013345  0.353613  0.410931  1
  Nd  Nd2  1  0.486655  0.646387  0.910931  1
  Nd  Nd3  1  0.007153  0.945958  0.768287  1
  Nd  Nd4  1  0.507153  0.554042  0.231713  1
  Nd  Nd5  1  0.992847  0.445958  0.731713  1
  Nd  Nd6  1  0.513345  0.146387  0.589069  1
  Nd  Nd7  1  0.492847  0.054042  0.268287  1
  Si  Si8  1  0.022854  0.250864  0.179319  1
  Si  Si9  1  0.523994  0.997587  0.975426  1
  Si  Si10  1  0.976006  0.002413  0.475426  1
  Si  Si11  1  0.477146  0.749136  0.679319  1
  Si  Si12  1  0.977146  0.750864  0.320681  1
  Si  Si13  1  0.023994  0.502413  0.024574  1
  Si  Si14  1  0.522854  0.249136  0.820681  1
  Si  Si15  1  0.476006  0.497587  0.524574  1
  O  O16  1  0.752233  0.896164  0.924947  1
  O  O17  1  0.747767  0.103836  0.424947  1
  O  O18  1  0.898758  0.570315  0.325164  1
  O  O19  1  0.247697  0.325958  0.247255  1
  O  O20  1  0.986968  0.824380  0.435940  1
  O  O21  1  0.013032  0.324380  0.064060  1
  O  O22  1  0.084135  0.509771  0.903198  1
  O  O23  1  0.584135  0.990229  0.096802  1
  O  O24  1  0.398758  0.929685  0.674836  1
  O  O25  1  0.415865  0.490229  0.403198  1
  O  O26  1  0.270716  0.903390  0.942580  1
  O  O27  1  0.729284  0.403390  0.557420  1
  O  O28  1  0.247767  0.396164  0.575053  1
  O  O29  1  0.252233  0.603836  0.075053  1
  O  O30  1  0.736007  0.721446  0.740991  1
  O  O31  1  0.236007  0.778554  0.259009  1
  O  O32  1  0.747697  0.174042  0.752745  1
  O  O33  1  0.752303  0.825958  0.252745  1
  O  O34  1  0.486968  0.675620  0.564060  1
  O  O35  1  0.263993  0.221446  0.759009  1
  O  O36  1  0.513032  0.175620  0.935940  1
  O  O37  1  0.763993  0.278554  0.240991  1
  O  O38  1  0.770716  0.596610  0.057420  1
  O  O39  1  0.252303  0.674042  0.747255  1
  O  O40  1  0.229284  0.096610  0.442580  1
  O  O41  1  0.101242  0.070315  0.174836  1
  O  O42  1  0.915865  0.009771  0.596802  1
  O  O43  1  0.601242  0.429685  0.825164  1
