# generated using pymatgen
data_Tb2AlGe3
_symmetry_space_group_name_H-M   'P 1'
_cell_length_a   4.23477411
_cell_length_b   6.80906957
_cell_length_c   17.82672723
_cell_angle_alpha   90.00000000
_cell_angle_beta   90.00000000
_cell_angle_gamma   90.00000000
_symmetry_Int_Tables_number   1
_chemical_formula_structural   Tb2AlGe3
_chemical_formula_sum   'Tb8 Al4 Ge12'
_cell_volume   514.03138945
_cell_formula_units_Z   4
loop_
 _symmetry_equiv_pos_site_id
 _symmetry_equiv_pos_as_xyz
  1  'x, y, z'
loop_
 _atom_site_type_symbol
 _atom_site_label
 _atom_site_symmetry_multiplicity
 _atom_site_fract_x
 _atom_site_fract_y
 _atom_site_fract_z
 _atom_site_occupancy
  Tb  Tb0  1  0.750000  0.830806  0.204196  1
  Tb  Tb1  1  0.750000  0.828365  0.414761  1
  Tb  Tb2  1  0.250000  0.171635  0.585239  1
  Tb  Tb3  1  0.250000  0.669194  0.704196  1
  Tb  Tb4  1  0.750000  0.328365  0.085239  1
  Tb  Tb5  1  0.750000  0.330806  0.295804  1
  Tb  Tb6  1  0.250000  0.671635  0.914761  1
  Tb  Tb7  1  0.250000  0.169194  0.795804  1
  Al  Al8  1  0.750000  0.050324  0.935394  1
  Al  Al9  1  0.250000  0.449676  0.435394  1
  Al  Al10  1  0.750000  0.550324  0.564606  1
  Al  Al11  1  0.250000  0.949676  0.064606  1
  Ge  Ge12  1  0.750000  0.751597  0.034567  1
  Ge  Ge13  1  0.250000  0.644664  0.311682  1
  Ge  Ge14  1  0.750000  0.355336  0.688318  1
  Ge  Ge15  1  0.750000  0.855336  0.811682  1
  Ge  Ge16  1  0.750000  0.966741  0.672824  1
  Ge  Ge17  1  0.250000  0.533259  0.172824  1
  Ge  Ge18  1  0.750000  0.466741  0.827176  1
  Ge  Ge19  1  0.250000  0.144664  0.188318  1
  Ge  Ge20  1  0.250000  0.248403  0.965433  1
  Ge  Ge21  1  0.250000  0.033259  0.327176  1
  Ge  Ge22  1  0.750000  0.251597  0.465433  1
  Ge  Ge23  1  0.250000  0.748403  0.534567  1
