# generated using pymatgen
data_YbAg
_symmetry_space_group_name_H-M   'P 1'
_cell_length_a   4.66677644
_cell_length_b   5.96638449
_cell_length_c   7.50634535
_cell_angle_alpha   90.00000000
_cell_angle_beta   90.00000000
_cell_angle_gamma   90.00000000
_symmetry_Int_Tables_number   1
_chemical_formula_structural   YbAg
_chemical_formula_sum   'Yb4 Ag4'
_cell_volume   209.00504782
_cell_formula_units_Z   4
loop_
 _symmetry_equiv_pos_site_id
 _symmetry_equiv_pos_as_xyz
  1  'x, y, z'
loop_
 _atom_site_type_symbol
 _atom_site_label
 _atom_site_symmetry_multiplicity
 _atom_site_fract_x
 _atom_site_fract_y
 _atom_site_fract_z
 _atom_site_occupancy
  Yb  Yb0  1  0.750000  0.862221  0.818804  1
  Yb  Yb1  1  0.750000  0.637779  0.318804  1
  Yb  Yb2  1  0.250000  0.137779  0.181196  1
  Yb  Yb3  1  0.250000  0.362221  0.681196  1
  Ag  Ag4  1  0.250000  0.860305  0.537842  1
  Ag  Ag5  1  0.250000  0.639695  0.037842  1
  Ag  Ag6  1  0.750000  0.139695  0.462158  1
  Ag  Ag7  1  0.750000  0.360305  0.962158  1
