# generated using pymatgen
data_Hf(CoSi)2
_symmetry_space_group_name_H-M   'P 1'
_cell_length_a   5.47496175
_cell_length_b   5.47496175
_cell_length_c   5.47496175
_cell_angle_alpha   140.10865363
_cell_angle_beta   140.10865363
_cell_angle_gamma   57.68836073
_symmetry_Int_Tables_number   1
_chemical_formula_structural   Hf(CoSi)2
_chemical_formula_sum   'Hf1 Co2 Si2'
_cell_volume   66.91328775
_cell_formula_units_Z   1
loop_
 _symmetry_equiv_pos_site_id
 _symmetry_equiv_pos_as_xyz
  1  'x, y, z'
loop_
 _atom_site_type_symbol
 _atom_site_label
 _atom_site_symmetry_multiplicity
 _atom_site_fract_x
 _atom_site_fract_y
 _atom_site_fract_z
 _atom_site_occupancy
  Hf  Hf0  1  0.000000  0.000000  0.000000  1
  Co  Co1  1  0.750000  0.250000  0.500000  1
  Co  Co2  1  0.250000  0.750000  0.500000  1
  Si  Si3  1  0.378532  0.378532  0.000000  1
  Si  Si4  1  0.621468  0.621468  0.000000  1
