# generated using pymatgen
data_CSCl(OF)3
_symmetry_space_group_name_H-M   'P 1'
_cell_length_a   5.28213661
_cell_length_b   23.67984420
_cell_length_c   5.39716338
_cell_angle_alpha   90.00000000
_cell_angle_beta   113.00356470
_cell_angle_gamma   90.00000000
_symmetry_Int_Tables_number   1
_chemical_formula_structural   CSCl(OF)3
_chemical_formula_sum   'C4 S4 Cl4 O12 F12'
_cell_volume   621.39627675
_cell_formula_units_Z   4
loop_
 _symmetry_equiv_pos_site_id
 _symmetry_equiv_pos_as_xyz
  1  'x, y, z'
loop_
 _atom_site_type_symbol
 _atom_site_label
 _atom_site_symmetry_multiplicity
 _atom_site_fract_x
 _atom_site_fract_y
 _atom_site_fract_z
 _atom_site_occupancy
  C  C0  1  0.711477  0.570921  0.820990  1
  C  C1  1  0.711477  0.929079  0.320990  1
  C  C2  1  0.288523  0.070921  0.679010  1
  C  C3  1  0.288523  0.429079  0.179010  1
  S  S4  1  0.530498  0.837662  0.491496  1
  S  S5  1  0.530498  0.662338  0.991496  1
  S  S6  1  0.469502  0.162338  0.508504  1
  S  S7  1  0.469502  0.337662  0.008504  1
  Cl  Cl8  1  0.116902  0.311140  0.716589  1
  Cl  Cl9  1  0.883098  0.811140  0.783411  1
  Cl  Cl10  1  0.116902  0.188860  0.216589  1
  Cl  Cl11  1  0.883098  0.688860  0.283411  1
  O  O12  1  0.399052  0.876691  0.604198  1
  O  O13  1  0.348309  0.371079  0.206802  1
  O  O14  1  0.399052  0.623309  0.104198  1
  O  O15  1  0.605500  0.290005  0.165274  1
  O  O16  1  0.651691  0.871079  0.293198  1
  O  O17  1  0.394500  0.790005  0.334726  1
  O  O18  1  0.651691  0.628921  0.793198  1
  O  O19  1  0.600948  0.376691  0.895802  1
  O  O20  1  0.600948  0.123309  0.395802  1
  O  O21  1  0.348309  0.128921  0.706802  1
  O  O22  1  0.394500  0.709995  0.834726  1
  O  O23  1  0.605500  0.209995  0.665274  1
  F  F24  1  0.149877  0.439796  0.335744  1
  F  F25  1  0.132792  0.056442  0.422772  1
  F  F26  1  0.850123  0.560204  0.664256  1
  F  F27  1  0.132792  0.443558  0.922772  1
  F  F28  1  0.520708  0.039887  0.764631  1
  F  F29  1  0.850123  0.939796  0.164256  1
  F  F30  1  0.867208  0.943558  0.577228  1
  F  F31  1  0.479292  0.960113  0.235369  1
  F  F32  1  0.479292  0.539887  0.735369  1
  F  F33  1  0.520708  0.460113  0.264631  1
  F  F34  1  0.149877  0.060204  0.835744  1
  F  F35  1  0.867208  0.556442  0.077228  1
