# generated using pymatgen
data_Ni2Ag3O4
_symmetry_space_group_name_H-M   'P 1'
_cell_length_a   3.00995469
_cell_length_b   3.00995469
_cell_length_c   28.04255298
_cell_angle_alpha   90.00000000
_cell_angle_beta   90.00000000
_cell_angle_gamma   120.00000000
_symmetry_Int_Tables_number   1
_chemical_formula_structural   Ni2Ag3O4
_chemical_formula_sum   'Ni4 Ag6 O8'
_cell_volume   220.02300763
_cell_formula_units_Z   2
loop_
 _symmetry_equiv_pos_site_id
 _symmetry_equiv_pos_as_xyz
  1  'x, y, z'
loop_
 _atom_site_type_symbol
 _atom_site_label
 _atom_site_symmetry_multiplicity
 _atom_site_fract_x
 _atom_site_fract_y
 _atom_site_fract_z
 _atom_site_occupancy
  Ni  Ni0  1  0.666667  0.333333  0.140913  1
  Ni  Ni1  1  0.666667  0.333333  0.359087  1
  Ni  Ni2  1  0.333333  0.666667  0.859087  1
  Ni  Ni3  1  0.333333  0.666667  0.640913  1
  Ag  Ag4  1  0.666667  0.333333  0.959297  1
  Ag  Ag5  1  0.333333  0.666667  0.040703  1
  Ag  Ag6  1  0.333333  0.666667  0.459297  1
  Ag  Ag7  1  0.666667  0.333333  0.750000  1
  Ag  Ag8  1  0.666667  0.333333  0.540703  1
  Ag  Ag9  1  0.333333  0.666667  0.250000  1
  O  O10  1  0.666667  0.333333  0.823410  1
  O  O11  1  0.000000  0.000000  0.101873  1
  O  O12  1  0.000000  0.000000  0.601873  1
  O  O13  1  0.000000  0.000000  0.898127  1
  O  O14  1  0.000000  0.000000  0.398127  1
  O  O15  1  0.333333  0.666667  0.323410  1
  O  O16  1  0.666667  0.333333  0.676590  1
  O  O17  1  0.333333  0.666667  0.176590  1
