# generated using pymatgen
data_Sm4Al23Ni6
_symmetry_space_group_name_H-M   'P 1'
_cell_length_a   8.23126562
_cell_length_b   8.23126562
_cell_length_c   18.33628821
_cell_angle_alpha   67.68343173
_cell_angle_beta   112.31656827
_cell_angle_gamma   151.09930717
_symmetry_Int_Tables_number   1
_chemical_formula_structural   Sm4Al23Ni6
_chemical_formula_sum   'Sm4 Al23 Ni6'
_cell_volume   552.33249376
_cell_formula_units_Z   1
loop_
 _symmetry_equiv_pos_site_id
 _symmetry_equiv_pos_as_xyz
  1  'x, y, z'
loop_
 _atom_site_type_symbol
 _atom_site_label
 _atom_site_symmetry_multiplicity
 _atom_site_fract_x
 _atom_site_fract_y
 _atom_site_fract_z
 _atom_site_occupancy
  Sm  Sm0  1  0.264787  0.735213  0.218342  1
  Sm  Sm1  1  0.570964  0.429036  0.406814  1
  Sm  Sm2  1  0.735213  0.264787  0.781658  1
  Sm  Sm3  1  0.429036  0.570964  0.593186  1
  Al  Al4  1  0.467814  0.532186  0.217816  1
  Al  Al5  1  0.081628  0.918372  0.686491  1
  Al  Al6  1  0.609023  0.390977  0.161537  1
  Al  Al7  1  0.255332  0.744668  0.045873  1
  Al  Al8  1  0.623386  0.376614  0.595206  1
  Al  Al9  1  0.089945  0.910055  0.049698  1
  Al  Al10  1  0.532186  0.467814  0.782184  1
  Al  Al11  1  0.202250  0.797750  0.520834  1
  Al  Al12  1  0.909762  0.090238  0.720305  1
  Al  Al13  1  0.390977  0.609023  0.838463  1
  Al  Al14  1  0.910055  0.089945  0.950302  1
  Al  Al15  1  0.744668  0.255332  0.954127  1
  Al  Al16  1  0.376614  0.623386  0.404794  1
  Al  Al17  1  0.275853  0.724147  0.675714  1
  Al  Al18  1  0.855750  0.144250  0.142317  1
  Al  Al19  1  0.144250  0.855750  0.857683  1
  Al  Al20  1  0.432541  0.567459  0.059855  1
  Al  Al21  1  0.797750  0.202250  0.479166  1
  Al  Al22  1  0.567459  0.432541  0.940145  1
  Al  Al23  1  0.724147  0.275853  0.324286  1
  Al  Al24  1  0.918372  0.081628  0.313509  1
  Al  Al25  1  0.090238  0.909762  0.279695  1
  Al  Al26  1  0.000000  0.000000  0.500000  1
  Ni  Ni27  1  0.992324  0.007676  0.864407  1
  Ni  Ni28  1  0.007676  0.992324  0.135593  1
  Ni  Ni29  1  0.310448  0.689552  0.932796  1
  Ni  Ni30  1  0.689552  0.310448  0.067204  1
  Ni  Ni31  1  0.773050  0.226950  0.601682  1
  Ni  Ni32  1  0.226950  0.773050  0.398318  1
