# generated using pymatgen
data_CuMoO4
_symmetry_space_group_name_H-M   'P 1'
_cell_length_a   6.81121047
_cell_length_b   8.56909343
_cell_length_c   9.91004576
_cell_angle_alpha   96.31379436
_cell_angle_beta   106.85743863
_cell_angle_gamma   100.92716940
_symmetry_Int_Tables_number   1
_chemical_formula_structural   CuMoO4
_chemical_formula_sum   'Cu6 Mo6 O24'
_cell_volume   535.07862444
_cell_formula_units_Z   6
loop_
 _symmetry_equiv_pos_site_id
 _symmetry_equiv_pos_as_xyz
  1  'x, y, z'
loop_
 _atom_site_type_symbol
 _atom_site_label
 _atom_site_symmetry_multiplicity
 _atom_site_fract_x
 _atom_site_fract_y
 _atom_site_fract_z
 _atom_site_occupancy
  Cu  Cu0  1  0.547007  0.699880  0.487214  1
  Cu  Cu1  1  0.748346  0.300813  0.088774  1
  Cu  Cu2  1  0.251654  0.699187  0.911226  1
  Cu  Cu3  1  0.967095  0.892856  0.741752  1
  Cu  Cu4  1  0.032905  0.107144  0.258248  1
  Cu  Cu5  1  0.452993  0.300120  0.512786  1
  Mo  Mo6  1  0.997698  0.279165  0.609265  1
  Mo  Mo7  1  0.494895  0.972232  0.750593  1
  Mo  Mo8  1  0.695500  0.588419  0.842885  1
  Mo  Mo9  1  0.002302  0.720835  0.390735  1
  Mo  Mo10  1  0.505105  0.027768  0.249407  1
  Mo  Mo11  1  0.304500  0.411581  0.157115  1
  O  O12  1  0.567535  0.885647  0.358327  1
  O  O13  1  0.558429  0.500189  0.658200  1
  O  O14  1  0.988912  0.898556  0.309236  1
  O  O15  1  0.432465  0.114353  0.641673  1
  O  O16  1  0.656616  0.080582  0.916684  1
  O  O17  1  0.662410  0.850691  0.682908  1
  O  O18  1  0.746434  0.430763  0.938628  1
  O  O19  1  0.751941  0.143306  0.225504  1
  O  O20  1  0.903642  0.550993  0.254601  1
  O  O21  1  0.248059  0.856694  0.774496  1
  O  O22  1  0.096358  0.449007  0.745399  1
  O  O23  1  0.845421  0.708144  0.512507  1
  O  O24  1  0.011088  0.101444  0.690764  1
  O  O25  1  0.343384  0.919418  0.083316  1
  O  O26  1  0.253566  0.569237  0.061372  1
  O  O27  1  0.461125  0.302885  0.082909  1
  O  O28  1  0.273415  0.727329  0.493330  1
  O  O29  1  0.538875  0.697115  0.917091  1
  O  O30  1  0.726585  0.272671  0.506670  1
  O  O31  1  0.954477  0.726951  0.866792  1
  O  O32  1  0.337590  0.149309  0.317092  1
  O  O33  1  0.441571  0.499811  0.341800  1
  O  O34  1  0.045523  0.273049  0.133208  1
  O  O35  1  0.154579  0.291856  0.487493  1
