# generated using pymatgen
data_Sr(InAu)3
_symmetry_space_group_name_H-M   'P 1'
_cell_length_a   4.64173487
_cell_length_b   7.94886343
_cell_length_c   9.25507425
_cell_angle_alpha   90.00000000
_cell_angle_beta   90.00000000
_cell_angle_gamma   90.00000000
_symmetry_Int_Tables_number   1
_chemical_formula_structural   Sr(InAu)3
_chemical_formula_sum   'Sr2 In6 Au6'
_cell_volume   341.48000033
_cell_formula_units_Z   2
loop_
 _symmetry_equiv_pos_site_id
 _symmetry_equiv_pos_as_xyz
  1  'x, y, z'
loop_
 _atom_site_type_symbol
 _atom_site_label
 _atom_site_symmetry_multiplicity
 _atom_site_fract_x
 _atom_site_fract_y
 _atom_site_fract_z
 _atom_site_occupancy
  Sr  Sr0  1  0.500000  0.000000  0.728611  1
  Sr  Sr1  1  0.000000  0.500000  0.271389  1
  In  In2  1  0.000000  0.303927  0.885024  1
  In  In3  1  0.500000  0.196073  0.114976  1
  In  In4  1  0.000000  0.696073  0.885024  1
  In  In5  1  0.000000  0.000000  0.366252  1
  In  In6  1  0.500000  0.803927  0.114976  1
  In  In7  1  0.500000  0.500000  0.633748  1
  Au  Au8  1  0.000000  0.726641  0.588394  1
  Au  Au9  1  0.500000  0.773359  0.411606  1
  Au  Au10  1  0.500000  0.500000  0.955813  1
  Au  Au11  1  0.000000  0.000000  0.044187  1
  Au  Au12  1  0.500000  0.226641  0.411606  1
  Au  Au13  1  0.000000  0.273359  0.588394  1
