# generated using pymatgen
data_CsReO4
_symmetry_space_group_name_H-M   'P 1'
_cell_length_a   8.65560797
_cell_length_b   8.65560797
_cell_length_c   8.65560797
_cell_angle_alpha   138.98667922
_cell_angle_beta   138.98667922
_cell_angle_gamma   59.39516405
_symmetry_Int_Tables_number   1
_chemical_formula_structural   CsReO4
_chemical_formula_sum   'Cs2 Re2 O8'
_cell_volume   276.51542284
_cell_formula_units_Z   2
loop_
 _symmetry_equiv_pos_site_id
 _symmetry_equiv_pos_as_xyz
  1  'x, y, z'
loop_
 _atom_site_type_symbol
 _atom_site_label
 _atom_site_symmetry_multiplicity
 _atom_site_fract_x
 _atom_site_fract_y
 _atom_site_fract_z
 _atom_site_occupancy
  Cs  Cs0  1  0.750000  0.250000  0.500000  1
  Cs  Cs1  1  1.000000  1.000000  0.000000  1
  Re  Re2  1  0.500000  0.500000  0.000000  1
  Re  Re3  1  0.250000  0.750000  0.500000  1
  O  O4  1  0.079067  0.816735  0.262332  1
  O  O5  1  0.566735  0.804404  0.237668  1
  O  O6  1  0.566735  0.329067  0.762332  1
  O  O7  1  0.670933  0.433265  0.237668  1
  O  O8  1  0.195596  0.433265  0.762332  1
  O  O9  1  0.183265  0.445596  0.262332  1
  O  O10  1  0.183265  0.920933  0.737668  1
  O  O11  1  0.554404  0.816735  0.737668  1
