# generated using pymatgen
data_K3AgSn3Se8
_symmetry_space_group_name_H-M   'P 1'
_cell_length_a   8.31490101
_cell_length_b   8.31490101
_cell_length_c   13.68195909
_cell_angle_alpha   90.00000000
_cell_angle_beta   90.00000000
_cell_angle_gamma   90.00000000
_symmetry_Int_Tables_number   1
_chemical_formula_structural   K3AgSn3Se8
_chemical_formula_sum   'K6 Ag2 Sn6 Se16'
_cell_volume   945.93752481
_cell_formula_units_Z   2
loop_
 _symmetry_equiv_pos_site_id
 _symmetry_equiv_pos_as_xyz
  1  'x, y, z'
loop_
 _atom_site_type_symbol
 _atom_site_label
 _atom_site_symmetry_multiplicity
 _atom_site_fract_x
 _atom_site_fract_y
 _atom_site_fract_z
 _atom_site_occupancy
  K  K0  1  0.500000  0.500000  0.273975  1
  K  K1  1  0.000000  0.000000  0.726025  1
  K  K2  1  0.000000  0.000000  0.000000  1
  K  K3  1  0.500000  0.500000  0.726025  1
  K  K4  1  0.000000  0.000000  0.273975  1
  K  K5  1  0.500000  0.500000  0.000000  1
  Ag  Ag6  1  0.000000  0.500000  0.000000  1
  Ag  Ag7  1  0.500000  0.000000  0.000000  1
  Sn  Sn8  1  0.000000  0.500000  0.240763  1
  Sn  Sn9  1  0.000000  0.500000  0.759237  1
  Sn  Sn10  1  0.500000  0.000000  0.500000  1
  Sn  Sn11  1  0.500000  0.000000  0.240763  1
  Sn  Sn12  1  0.500000  0.000000  0.759237  1
  Sn  Sn13  1  0.000000  0.500000  0.500000  1
  Se  Se14  1  0.321660  0.178340  0.861900  1
  Se  Se15  1  0.335452  0.164548  0.374355  1
  Se  Se16  1  0.821660  0.321660  0.861900  1
  Se  Se17  1  0.821660  0.678340  0.138100  1
  Se  Se18  1  0.335452  0.835452  0.625645  1
  Se  Se19  1  0.321660  0.821660  0.138100  1
  Se  Se20  1  0.664548  0.164548  0.625645  1
  Se  Se21  1  0.164548  0.335452  0.625645  1
  Se  Se22  1  0.835452  0.335452  0.374355  1
  Se  Se23  1  0.664548  0.835452  0.374355  1
  Se  Se24  1  0.178340  0.321660  0.138100  1
  Se  Se25  1  0.178340  0.678340  0.861900  1
  Se  Se26  1  0.835452  0.664548  0.625645  1
  Se  Se27  1  0.678340  0.821660  0.861900  1
  Se  Se28  1  0.678340  0.178340  0.138100  1
  Se  Se29  1  0.164548  0.664548  0.374355  1
