# generated using pymatgen
data_Tb12(OsC3)5
_symmetry_space_group_name_H-M   'P 1'
_cell_length_a   10.75032503
_cell_length_b   10.75032503
_cell_length_c   5.11590576
_cell_angle_alpha   90.00000000
_cell_angle_beta   90.00000000
_cell_angle_gamma   120.00000000
_symmetry_Int_Tables_number   1
_chemical_formula_structural   Tb12(OsC3)5
_chemical_formula_sum   'Tb12 Os5 C15'
_cell_volume   512.03112013
_cell_formula_units_Z   1
loop_
 _symmetry_equiv_pos_site_id
 _symmetry_equiv_pos_as_xyz
  1  'x, y, z'
loop_
 _atom_site_type_symbol
 _atom_site_label
 _atom_site_symmetry_multiplicity
 _atom_site_fract_x
 _atom_site_fract_y
 _atom_site_fract_z
 _atom_site_occupancy
  Tb  Tb0  1  0.272415  0.455888  0.000000  1
  Tb  Tb1  1  0.183473  0.727585  0.000000  1
  Tb  Tb2  1  0.544112  0.816527  0.000000  1
  Tb  Tb3  1  0.816527  0.544112  0.000000  1
  Tb  Tb4  1  0.727585  0.183473  0.000000  1
  Tb  Tb5  1  0.455888  0.272415  0.000000  1
  Tb  Tb6  1  0.434311  0.000000  0.500000  1
  Tb  Tb7  1  0.565689  0.565689  0.500000  1
  Tb  Tb8  1  0.000000  0.434311  0.500000  1
  Tb  Tb9  1  0.794008  0.000000  0.500000  1
  Tb  Tb10  1  0.205992  0.205992  0.500000  1
  Tb  Tb11  1  0.000000  0.794008  0.500000  1
  Os  Os12  1  0.161061  0.000000  0.000000  1
  Os  Os13  1  0.838939  0.838939  0.000000  1
  Os  Os14  1  0.000000  0.161061  0.000000  1
  Os  Os15  1  0.333333  0.666667  0.500000  1
  Os  Os16  1  0.666667  0.333333  0.500000  1
  C  C17  1  0.282819  0.468367  0.500000  1
  C  C18  1  0.185548  0.717181  0.500000  1
  C  C19  1  0.531633  0.814452  0.500000  1
  C  C20  1  0.814452  0.531633  0.500000  1
  C  C21  1  0.717181  0.185548  0.500000  1
  C  C22  1  0.468367  0.282819  0.500000  1
  C  C23  1  0.335687  0.000000  0.000000  1
  C  C24  1  0.664313  0.664313  0.000000  1
  C  C25  1  0.000000  0.335687  0.000000  1
  C  C26  1  0.460054  0.000000  0.000000  1
  C  C27  1  0.539946  0.539946  0.000000  1
  C  C28  1  0.000000  0.460054  0.000000  1
  C  C29  1  0.792775  0.000000  0.000000  1
  C  C30  1  0.207225  0.207225  0.000000  1
  C  C31  1  0.000000  0.792775  0.000000  1
