# generated using pymatgen
data_Ba2NdAlO5
_symmetry_space_group_name_H-M   'P 1'
_cell_length_a   7.43423517
_cell_length_b   6.21964054
_cell_length_c   7.62085330
_cell_angle_alpha   90.00000000
_cell_angle_beta   117.76946421
_cell_angle_gamma   90.00000000
_symmetry_Int_Tables_number   1
_chemical_formula_structural   Ba2NdAlO5
_chemical_formula_sum   'Ba4 Nd2 Al2 O10'
_cell_volume   311.79183069
_cell_formula_units_Z   2
loop_
 _symmetry_equiv_pos_site_id
 _symmetry_equiv_pos_as_xyz
  1  'x, y, z'
loop_
 _atom_site_type_symbol
 _atom_site_label
 _atom_site_symmetry_multiplicity
 _atom_site_fract_x
 _atom_site_fract_y
 _atom_site_fract_z
 _atom_site_occupancy
  Ba  Ba0  1  0.864081  0.240186  0.604000  1
  Ba  Ba1  1  0.307753  0.244229  0.143534  1
  Ba  Ba2  1  0.135919  0.740186  0.396000  1
  Ba  Ba3  1  0.692247  0.744229  0.856466  1
  Nd  Nd4  1  0.401896  0.238797  0.663952  1
  Nd  Nd5  1  0.598104  0.738797  0.336048  1
  Al  Al6  1  0.168319  0.727021  0.836485  1
  Al  Al7  1  0.831681  0.227021  0.163515  1
  O  O8  1  0.499443  0.501999  0.511787  1
  O  O9  1  0.093165  0.260321  0.344295  1
  O  O10  1  0.694905  0.424416  0.225275  1
  O  O11  1  0.224627  0.752126  0.090358  1
  O  O12  1  0.906835  0.760321  0.655705  1
  O  O13  1  0.764852  0.962904  0.207074  1
  O  O14  1  0.500557  0.001999  0.488213  1
  O  O15  1  0.235148  0.462904  0.792926  1
  O  O16  1  0.775373  0.252126  0.909642  1
  O  O17  1  0.305095  0.924416  0.774725  1
