# generated using pymatgen
data_CoNi(PO3)4
_symmetry_space_group_name_H-M   'P 1'
_cell_length_a   7.26770826
_cell_length_b   7.26770826
_cell_length_c   9.98284279
_cell_angle_alpha   66.99124266
_cell_angle_beta   113.00875734
_cell_angle_gamma   109.68817169
_symmetry_Int_Tables_number   1
_chemical_formula_structural   CoNi(PO3)4
_chemical_formula_sum   'Co2 Ni2 P8 O24'
_cell_volume   436.05293684
_cell_formula_units_Z   2
loop_
 _symmetry_equiv_pos_site_id
 _symmetry_equiv_pos_as_xyz
  1  'x, y, z'
loop_
 _atom_site_type_symbol
 _atom_site_label
 _atom_site_symmetry_multiplicity
 _atom_site_fract_x
 _atom_site_fract_y
 _atom_site_fract_z
 _atom_site_occupancy
  Co  Co0  1  0.945639  0.945639  0.250000  1
  Co  Co1  1  0.054361  0.054361  0.750000  1
  Ni  Ni2  1  1.000000  0.500000  0.500000  1
  Ni  Ni3  1  0.500000  0.000000  0.000000  1
  P  P4  1  0.702887  0.311283  0.197707  1
  P  P5  1  0.311283  0.702887  0.302293  1
  P  P6  1  0.297113  0.688717  0.802293  1
  P  P7  1  0.688717  0.297113  0.697707  1
  P  P8  1  0.746149  0.728569  0.976324  1
  P  P9  1  0.728569  0.746149  0.523676  1
  P  P10  1  0.253851  0.271431  0.023676  1
  P  P11  1  0.271431  0.253851  0.476324  1
  O  O12  1  0.465583  0.311681  0.155758  1
  O  O13  1  0.311681  0.465583  0.344242  1
  O  O14  1  0.534417  0.688319  0.844242  1
  O  O15  1  0.688319  0.534417  0.655758  1
  O  O16  1  0.782972  0.499974  0.065799  1
  O  O17  1  0.499974  0.782972  0.434201  1
  O  O18  1  0.217028  0.500026  0.934201  1
  O  O19  1  0.500026  0.217028  0.565799  1
  O  O20  1  0.808738  0.342447  0.349785  1
  O  O21  1  0.342447  0.808738  0.150215  1
  O  O22  1  0.191262  0.657553  0.650215  1
  O  O23  1  0.657553  0.191262  0.849785  1
  O  O24  1  0.713881  0.120040  0.175733  1
  O  O25  1  0.120040  0.713881  0.324267  1
  O  O26  1  0.286119  0.879960  0.824267  1
  O  O27  1  0.879960  0.286119  0.675733  1
  O  O28  1  0.707345  0.808134  0.081554  1
  O  O29  1  0.808134  0.707345  0.418446  1
  O  O30  1  0.292655  0.191866  0.918446  1
  O  O31  1  0.191866  0.292655  0.581554  1
  O  O32  1  0.912950  0.845204  0.906404  1
  O  O33  1  0.845204  0.912950  0.593596  1
  O  O34  1  0.087050  0.154796  0.093596  1
  O  O35  1  0.154796  0.087050  0.406404  1
