# generated using pymatgen
data_Fe3BO5
_symmetry_space_group_name_H-M   'P 1'
_cell_length_a   5.58781894
_cell_length_b   3.10429196
_cell_length_c   10.79728445
_cell_angle_alpha   90.00000000
_cell_angle_beta   93.35196634
_cell_angle_gamma   90.00000000
_symmetry_Int_Tables_number   1
_chemical_formula_structural   Fe3BO5
_chemical_formula_sum   'Fe6 B2 O10'
_cell_volume   186.97166663
_cell_formula_units_Z   2
loop_
 _symmetry_equiv_pos_site_id
 _symmetry_equiv_pos_as_xyz
  1  'x, y, z'
loop_
 _atom_site_type_symbol
 _atom_site_label
 _atom_site_symmetry_multiplicity
 _atom_site_fract_x
 _atom_site_fract_y
 _atom_site_fract_z
 _atom_site_occupancy
  Fe  Fe0  1  0.719922  0.500000  0.772649  1
  Fe  Fe1  1  0.280078  0.500000  0.227351  1
  Fe  Fe2  1  0.000000  0.000000  0.000000  1
  Fe  Fe3  1  0.500000  0.000000  0.000000  1
  Fe  Fe4  1  0.000000  0.500000  0.500000  1
  Fe  Fe5  1  0.500000  0.000000  0.500000  1
  B  B6  1  0.785494  0.000000  0.257660  1
  B  B7  1  0.214506  0.000000  0.742340  1
  O  O8  1  0.204805  0.000000  0.612928  1
  O  O9  1  0.321464  0.500000  0.412327  1
  O  O10  1  0.795195  0.000000  0.387072  1
  O  O11  1  0.678536  0.500000  0.587673  1
  O  O12  1  0.996493  0.000000  0.196552  1
  O  O13  1  0.003507  0.000000  0.803448  1
  O  O14  1  0.267135  0.500000  0.031567  1
  O  O15  1  0.563704  0.000000  0.192047  1
  O  O16  1  0.436296  0.000000  0.807953  1
  O  O17  1  0.732865  0.500000  0.968433  1
