# generated using pymatgen
data_Cu(SbO3)2
_symmetry_space_group_name_H-M   'P 1'
_cell_length_a   4.71053040
_cell_length_b   4.74763367
_cell_length_c   9.40018022
_cell_angle_alpha   90.00000000
_cell_angle_beta   90.00000000
_cell_angle_gamma   90.00000000
_symmetry_Int_Tables_number   1
_chemical_formula_structural   Cu(SbO3)2
_chemical_formula_sum   'Cu2 Sb4 O12'
_cell_volume   210.22443395
_cell_formula_units_Z   2
loop_
 _symmetry_equiv_pos_site_id
 _symmetry_equiv_pos_as_xyz
  1  'x, y, z'
loop_
 _atom_site_type_symbol
 _atom_site_label
 _atom_site_symmetry_multiplicity
 _atom_site_fract_x
 _atom_site_fract_y
 _atom_site_fract_z
 _atom_site_occupancy
  Cu  Cu0  1  0.000000  0.000000  0.000000  1
  Cu  Cu1  1  0.500000  0.500000  0.500000  1
  Sb  Sb2  1  0.000000  0.000000  0.332604  1
  Sb  Sb3  1  0.500000  0.500000  0.832604  1
  Sb  Sb4  1  0.500000  0.500000  0.167396  1
  Sb  Sb5  1  0.000000  0.000000  0.667396  1
  O  O6  1  0.303915  0.685199  0.000000  1
  O  O7  1  0.296717  0.693273  0.328574  1
  O  O8  1  0.196085  0.185199  0.500000  1
  O  O9  1  0.203283  0.193273  0.828574  1
  O  O10  1  0.296717  0.693273  0.671426  1
  O  O11  1  0.796717  0.806727  0.828574  1
  O  O12  1  0.696085  0.314801  0.000000  1
  O  O13  1  0.703283  0.306727  0.671426  1
  O  O14  1  0.803915  0.814801  0.500000  1
  O  O15  1  0.203283  0.193273  0.171426  1
  O  O16  1  0.703283  0.306727  0.328574  1
  O  O17  1  0.796717  0.806727  0.171426  1
