# generated using pymatgen
data_MgAl2O4
_symmetry_space_group_name_H-M   'P 1'
_cell_length_a   19.21121135
_cell_length_b   19.21121135
_cell_length_c   19.21121135
_cell_angle_alpha   17.24484564
_cell_angle_beta   17.24484564
_cell_angle_gamma   17.24484564
_symmetry_Int_Tables_number   1
_chemical_formula_structural   MgAl2O4
_chemical_formula_sum   'Mg8 Al16 O32'
_cell_volume   543.72596857
_cell_formula_units_Z   8
loop_
 _symmetry_equiv_pos_site_id
 _symmetry_equiv_pos_as_xyz
  1  'x, y, z'
loop_
 _atom_site_type_symbol
 _atom_site_label
 _atom_site_symmetry_multiplicity
 _atom_site_fract_x
 _atom_site_fract_y
 _atom_site_fract_z
 _atom_site_occupancy
  Mg  Mg0  1  0.155403  0.155403  0.155403  1
  Mg  Mg1  1  0.405291  0.405291  0.405291  1
  Mg  Mg2  1  0.749658  0.749658  0.749658  1
  Mg  Mg3  1  0.655376  0.655376  0.655376  1
  Mg  Mg4  1  0.905995  0.905995  0.905995  1
  Mg  Mg5  1  0.999361  0.999361  0.999361  1
  Mg  Mg6  1  0.594481  0.594481  0.594481  1
  Mg  Mg7  1  0.499614  0.499614  0.499614  1
  Al  Al8  1  0.620208  0.620208  0.135229  1
  Al  Al9  1  0.135229  0.620208  0.620208  1
  Al  Al10  1  0.620208  0.135229  0.620208  1
  Al  Al11  1  0.870676  0.870676  0.384382  1
  Al  Al12  1  0.384382  0.870676  0.870676  1
  Al  Al13  1  0.122152  0.122152  0.630480  1
  Al  Al14  1  0.870676  0.384382  0.870676  1
  Al  Al15  1  0.630480  0.122152  0.122152  1
  Al  Al16  1  0.095079  0.095079  0.095079  1
  Al  Al17  1  0.122152  0.630480  0.122152  1
  Al  Al18  1  0.372750  0.372750  0.880551  1
  Al  Al19  1  0.880551  0.372750  0.372750  1
  Al  Al20  1  0.345308  0.345308  0.345308  1
  Al  Al21  1  0.250537  0.250537  0.250537  1
  Al  Al22  1  0.372750  0.880551  0.372750  1
  Al  Al23  1  0.844175  0.844175  0.844175  1
  O  O24  1  0.323598  0.782612  0.323598  1
  O  O25  1  0.782612  0.323598  0.323598  1
  O  O26  1  0.440021  0.440021  0.440021  1
  O  O27  1  0.323598  0.323598  0.782612  1
  O  O28  1  0.573580  0.032216  0.573580  1
  O  O29  1  0.933100  0.933100  0.452200  1
  O  O30  1  0.452200  0.933100  0.933100  1
  O  O31  1  0.032216  0.573580  0.573580  1
  O  O32  1  0.689972  0.689972  0.689972  1
  O  O33  1  0.811213  0.811213  0.811213  1
  O  O34  1  0.573580  0.573580  0.032216  1
  O  O35  1  0.933100  0.452200  0.933100  1
  O  O36  1  0.821978  0.283744  0.821978  1
  O  O37  1  0.182487  0.182487  0.703531  1
  O  O38  1  0.703531  0.182487  0.182487  1
  O  O39  1  0.061655  0.061655  0.061655  1
  O  O40  1  0.283744  0.821978  0.821978  1
  O  O41  1  0.939972  0.939972  0.939972  1
  O  O42  1  0.821978  0.821978  0.283744  1
  O  O43  1  0.182487  0.703531  0.182487  1
  O  O44  1  0.080759  0.523259  0.080759  1
  O  O45  1  0.418322  0.418322  0.979701  1
  O  O46  1  0.979701  0.418322  0.418322  1
  O  O47  1  0.312467  0.312467  0.312467  1
  O  O48  1  0.190707  0.190707  0.190707  1
  O  O49  1  0.523259  0.080759  0.080759  1
  O  O50  1  0.418322  0.979701  0.418322  1
  O  O51  1  0.080759  0.080759  0.523259  1
  O  O52  1  0.686388  0.686388  0.195558  1
  O  O53  1  0.195558  0.686388  0.686388  1
  O  O54  1  0.558254  0.558254  0.558254  1
  O  O55  1  0.686388  0.195558  0.686388  1
