# generated using pymatgen
data_V2P2PbO10
_symmetry_space_group_name_H-M   'P 1'
_cell_length_a   5.28343928
_cell_length_b   8.78720094
_cell_length_c   17.05588911
_cell_angle_alpha   90.00000000
_cell_angle_beta   91.05660711
_cell_angle_gamma   90.00000000
_symmetry_Int_Tables_number   1
_chemical_formula_structural   V2P2PbO10
_chemical_formula_sum   'V8 P8 Pb4 O40'
_cell_volume   791.71302582
_cell_formula_units_Z   4
loop_
 _symmetry_equiv_pos_site_id
 _symmetry_equiv_pos_as_xyz
  1  'x, y, z'
loop_
 _atom_site_type_symbol
 _atom_site_label
 _atom_site_symmetry_multiplicity
 _atom_site_fract_x
 _atom_site_fract_y
 _atom_site_fract_z
 _atom_site_occupancy
  V  V0  1  0.854524  0.334594  0.431446  1
  V  V1  1  0.537199  0.536864  0.151267  1
  V  V2  1  0.537199  0.963136  0.651267  1
  V  V3  1  0.462801  0.463136  0.848733  1
  V  V4  1  0.145476  0.665406  0.568554  1
  V  V5  1  0.854524  0.165406  0.931446  1
  V  V6  1  0.145476  0.834594  0.068554  1
  V  V7  1  0.462801  0.036864  0.348733  1
  P  P8  1  0.632831  0.588574  0.677588  1
  P  P9  1  0.357476  0.282233  0.018401  1
  P  P10  1  0.367169  0.411426  0.322412  1
  P  P11  1  0.642524  0.717767  0.981599  1
  P  P12  1  0.357476  0.217767  0.518401  1
  P  P13  1  0.367169  0.088574  0.822412  1
  P  P14  1  0.642524  0.782233  0.481599  1
  P  P15  1  0.632831  0.911426  0.177588  1
  Pb  Pb16  1  0.048285  0.296982  0.679730  1
  Pb  Pb17  1  0.048285  0.203018  0.179730  1
  Pb  Pb18  1  0.951715  0.796982  0.820270  1
  Pb  Pb19  1  0.951715  0.703018  0.320270  1
  O  O20  1  0.320423  0.990953  0.748018  1
  O  O21  1  0.621187  0.458897  0.362649  1
  O  O22  1  0.597963  0.316110  0.512707  1
  O  O23  1  0.213302  0.938532  0.314803  1
  O  O24  1  0.808856  0.329796  0.886556  1
  O  O25  1  0.191144  0.670204  0.113444  1
  O  O26  1  0.368912  0.259201  0.798369  1
  O  O27  1  0.631088  0.759201  0.701631  1
  O  O28  1  0.888544  0.818939  0.979224  1
  O  O29  1  0.378813  0.541103  0.637351  1
  O  O30  1  0.645956  0.640451  0.898604  1
  O  O31  1  0.679577  0.009047  0.251982  1
  O  O32  1  0.354044  0.140451  0.601396  1
  O  O33  1  0.111456  0.181061  0.020776  1
  O  O34  1  0.808856  0.170204  0.386556  1
  O  O35  1  0.863529  0.943870  0.124804  1
  O  O36  1  0.336948  0.101861  0.451976  1
  O  O37  1  0.663052  0.601861  0.048024  1
  O  O38  1  0.111456  0.318939  0.520776  1
  O  O39  1  0.136471  0.056130  0.875196  1
  O  O40  1  0.888544  0.681061  0.479224  1
  O  O41  1  0.368912  0.240799  0.298369  1
  O  O42  1  0.786698  0.061468  0.685197  1
  O  O43  1  0.378813  0.958897  0.137351  1
  O  O44  1  0.597963  0.183890  0.012707  1
  O  O45  1  0.402037  0.683890  0.487293  1
  O  O46  1  0.191144  0.829796  0.613444  1
  O  O47  1  0.621187  0.041103  0.862649  1
  O  O48  1  0.136471  0.443870  0.375196  1
  O  O49  1  0.320423  0.509047  0.248018  1
  O  O50  1  0.679577  0.490953  0.751982  1
  O  O51  1  0.786698  0.438532  0.185197  1
  O  O52  1  0.354044  0.359549  0.101396  1
  O  O53  1  0.631088  0.740799  0.201631  1
  O  O54  1  0.663052  0.898139  0.548024  1
  O  O55  1  0.336948  0.398139  0.951976  1
  O  O56  1  0.213302  0.561468  0.814803  1
  O  O57  1  0.402037  0.816110  0.987293  1
  O  O58  1  0.863529  0.556130  0.624804  1
  O  O59  1  0.645956  0.859549  0.398604  1
