# generated using pymatgen
data_SrV3O7
_symmetry_space_group_name_H-M   'P 1'
_cell_length_a   5.37612787
_cell_length_b   5.65424774
_cell_length_c   10.59282037
_cell_angle_alpha   90.00000000
_cell_angle_beta   90.00000000
_cell_angle_gamma   90.00000000
_symmetry_Int_Tables_number   1
_chemical_formula_structural   SrV3O7
_chemical_formula_sum   'Sr2 V6 O14'
_cell_volume   322.00011781
_cell_formula_units_Z   2
loop_
 _symmetry_equiv_pos_site_id
 _symmetry_equiv_pos_as_xyz
  1  'x, y, z'
loop_
 _atom_site_type_symbol
 _atom_site_label
 _atom_site_symmetry_multiplicity
 _atom_site_fract_x
 _atom_site_fract_y
 _atom_site_fract_z
 _atom_site_occupancy
  Sr  Sr0  1  0.000000  0.853148  0.500000  1
  Sr  Sr1  1  0.500000  0.146852  0.000000  1
  V  V2  1  0.500000  0.420154  0.500000  1
  V  V3  1  0.000000  0.579846  0.000000  1
  V  V4  1  0.000000  0.381692  0.730352  1
  V  V5  1  0.000000  0.381692  0.269648  1
  V  V6  1  0.500000  0.618308  0.769648  1
  V  V7  1  0.500000  0.618308  0.230352  1
  O  O8  1  0.763521  0.453716  0.869455  1
  O  O9  1  0.236479  0.453716  0.130545  1
  O  O10  1  0.263521  0.546284  0.630545  1
  O  O11  1  0.736479  0.546284  0.369455  1
  O  O12  1  0.736479  0.546284  0.630545  1
  O  O13  1  0.263521  0.546284  0.369455  1
  O  O14  1  0.236479  0.453716  0.869455  1
  O  O15  1  0.763521  0.453716  0.130545  1
  O  O16  1  0.000000  0.873534  0.000000  1
  O  O17  1  0.500000  0.126466  0.500000  1
  O  O18  1  0.500000  0.902058  0.190952  1
  O  O19  1  0.500000  0.902058  0.809048  1
  O  O20  1  0.000000  0.097942  0.309048  1
  O  O21  1  0.000000  0.097942  0.690952  1
