# generated using pymatgen
data_CaTaF7
_symmetry_space_group_name_H-M   'P 1'
_cell_length_a   9.98607483
_cell_length_b   11.79176881
_cell_length_c   13.64818819
_cell_angle_alpha   90.00000000
_cell_angle_beta   90.75297945
_cell_angle_gamma   90.00000000
_symmetry_Int_Tables_number   1
_chemical_formula_structural   CaTaF7
_chemical_formula_sum   'Ca12 Ta12 F84'
_cell_volume   1606.98295080
_cell_formula_units_Z   12
loop_
 _symmetry_equiv_pos_site_id
 _symmetry_equiv_pos_as_xyz
  1  'x, y, z'
loop_
 _atom_site_type_symbol
 _atom_site_label
 _atom_site_symmetry_multiplicity
 _atom_site_fract_x
 _atom_site_fract_y
 _atom_site_fract_z
 _atom_site_occupancy
  Ca  Ca0  1  0.237086  0.600690  0.961870  1
  Ca  Ca1  1  0.077951  0.405117  0.665186  1
  Ca  Ca2  1  0.762914  0.399310  0.038130  1
  Ca  Ca3  1  0.955656  0.082814  0.320760  1
  Ca  Ca4  1  0.922049  0.594883  0.334814  1
  Ca  Ca5  1  0.044344  0.917186  0.679240  1
  Ca  Ca6  1  0.737086  0.899310  0.961870  1
  Ca  Ca7  1  0.544344  0.582814  0.679240  1
  Ca  Ca8  1  0.455656  0.417186  0.320760  1
  Ca  Ca9  1  0.262914  0.100690  0.038130  1
  Ca  Ca10  1  0.577951  0.094883  0.665186  1
  Ca  Ca11  1  0.422049  0.905117  0.334814  1
  Ta  Ta12  1  0.919813  0.148375  0.845120  1
  Ta  Ta13  1  0.589422  0.120555  0.176871  1
  Ta  Ta14  1  0.910578  0.620555  0.823129  1
  Ta  Ta15  1  0.089422  0.379445  0.176871  1
  Ta  Ta16  1  0.259268  0.647029  0.514124  1
  Ta  Ta17  1  0.240732  0.147029  0.485876  1
  Ta  Ta18  1  0.080187  0.851625  0.154880  1
  Ta  Ta19  1  0.759268  0.852971  0.514124  1
  Ta  Ta20  1  0.580187  0.648375  0.154880  1
  Ta  Ta21  1  0.410578  0.879445  0.823129  1
  Ta  Ta22  1  0.419813  0.351625  0.845120  1
  Ta  Ta23  1  0.740732  0.352971  0.485876  1
  F  F24  1  0.321486  0.522198  0.431389  1
  F  F25  1  0.315911  0.551839  0.632151  1
  F  F26  1  0.310326  0.749862  0.876864  1
  F  F27  1  0.001505  0.289550  0.793118  1
  F  F28  1  0.295104  0.259404  0.391374  1
  F  F29  1  0.593060  0.958535  0.812521  1
  F  F30  1  0.269790  0.353574  0.754156  1
  F  F31  1  0.190107  0.916583  0.046856  1
  F  F32  1  0.083353  0.024565  0.167959  1
  F  F33  1  0.814020  0.717973  0.436581  1
  F  F34  1  0.690107  0.583417  0.046856  1
  F  F35  1  0.821486  0.977802  0.431389  1
  F  F36  1  0.826545  0.275694  0.908325  1
  F  F37  1  0.603201  0.946018  0.555740  1
  F  F38  1  0.204896  0.759404  0.608626  1
  F  F39  1  0.467558  0.604392  0.269028  1
  F  F40  1  0.406940  0.041465  0.187479  1
  F  F41  1  0.032442  0.104392  0.730972  1
  F  F42  1  0.684089  0.448161  0.367849  1
  F  F43  1  0.881456  0.332619  0.588188  1
  F  F44  1  0.782299  0.092337  0.207057  1
  F  F45  1  0.103201  0.553982  0.555740  1
  F  F46  1  0.230210  0.853574  0.245844  1
  F  F47  1  0.498495  0.789550  0.206882  1
  F  F48  1  0.970567  0.315974  0.073493  1
  F  F49  1  0.381456  0.167381  0.588188  1
  F  F50  1  0.929193  0.868813  0.065234  1
  F  F51  1  0.916647  0.975435  0.832041  1
  F  F52  1  0.173455  0.724306  0.091675  1
  F  F53  1  0.529433  0.815974  0.926507  1
  F  F54  1  0.380049  0.995227  0.921249  1
  F  F55  1  0.501505  0.210450  0.793118  1
  F  F56  1  0.967558  0.895608  0.269028  1
  F  F57  1  0.523236  0.238105  0.264145  1
  F  F58  1  0.570807  0.368813  0.934766  1
  F  F59  1  0.416647  0.524565  0.832041  1
  F  F60  1  0.178514  0.022198  0.568611  1
  F  F61  1  0.815911  0.948161  0.632151  1
  F  F62  1  0.396799  0.053982  0.444260  1
  F  F63  1  0.619951  0.004773  0.078751  1
  F  F64  1  0.618544  0.832619  0.411812  1
  F  F65  1  0.070807  0.131187  0.934766  1
  F  F66  1  0.998495  0.710450  0.206882  1
  F  F67  1  0.023236  0.261895  0.264145  1
  F  F68  1  0.955721  0.833803  0.536621  1
  F  F69  1  0.717701  0.592337  0.792943  1
  F  F70  1  0.769790  0.146426  0.754156  1
  F  F71  1  0.470567  0.184026  0.073493  1
  F  F72  1  0.184089  0.051839  0.367849  1
  F  F73  1  0.730210  0.646426  0.245844  1
  F  F74  1  0.044279  0.166197  0.463379  1
  F  F75  1  0.795104  0.240596  0.391374  1
  F  F76  1  0.185980  0.282027  0.563419  1
  F  F77  1  0.429193  0.631187  0.065234  1
  F  F78  1  0.455721  0.666197  0.536621  1
  F  F79  1  0.809893  0.083417  0.953144  1
  F  F80  1  0.189674  0.249862  0.123136  1
  F  F81  1  0.689674  0.250138  0.123136  1
  F  F82  1  0.093060  0.541465  0.812521  1
  F  F83  1  0.810326  0.750138  0.876864  1
  F  F84  1  0.896799  0.446018  0.444260  1
  F  F85  1  0.880049  0.504773  0.921249  1
  F  F86  1  0.309893  0.416583  0.953144  1
  F  F87  1  0.678514  0.477802  0.568611  1
  F  F88  1  0.583353  0.475435  0.167959  1
  F  F89  1  0.685980  0.217973  0.563419  1
  F  F90  1  0.976764  0.738105  0.735855  1
  F  F91  1  0.118544  0.667381  0.411812  1
  F  F92  1  0.906940  0.458535  0.187479  1
  F  F93  1  0.119951  0.495227  0.078751  1
  F  F94  1  0.094577  0.471861  0.296554  1
  F  F95  1  0.217701  0.907663  0.792943  1
  F  F96  1  0.326545  0.224306  0.908325  1
  F  F97  1  0.405423  0.971861  0.703446  1
  F  F98  1  0.282299  0.407663  0.207057  1
  F  F99  1  0.029433  0.684026  0.926507  1
  F  F100  1  0.905423  0.528139  0.703446  1
  F  F101  1  0.544279  0.333803  0.463379  1
  F  F102  1  0.314020  0.782027  0.436581  1
  F  F103  1  0.476764  0.761895  0.735855  1
  F  F104  1  0.673455  0.775694  0.091675  1
  F  F105  1  0.704896  0.740596  0.608626  1
  F  F106  1  0.532442  0.395608  0.730972  1
  F  F107  1  0.594577  0.028139  0.296554  1
