# generated using pymatgen
data_NaFe(TeO3)2
_symmetry_space_group_name_H-M   'P 1'
_cell_length_a   7.92177429
_cell_length_b   10.61011839
_cell_length_c   13.68422144
_cell_angle_alpha   90.00000000
_cell_angle_beta   90.00000000
_cell_angle_gamma   90.00000000
_symmetry_Int_Tables_number   1
_chemical_formula_structural   NaFe(TeO3)2
_chemical_formula_sum   'Na8 Fe8 Te16 O48'
_cell_volume   1150.17199097
_cell_formula_units_Z   8
loop_
 _symmetry_equiv_pos_site_id
 _symmetry_equiv_pos_as_xyz
  1  'x, y, z'
loop_
 _atom_site_type_symbol
 _atom_site_label
 _atom_site_symmetry_multiplicity
 _atom_site_fract_x
 _atom_site_fract_y
 _atom_site_fract_z
 _atom_site_occupancy
  Na  Na0  1  0.832407  0.758895  0.860291  1
  Na  Na1  1  0.667593  0.258895  0.139709  1
  Na  Na2  1  0.332407  0.741105  0.860291  1
  Na  Na3  1  0.167593  0.241105  0.139709  1
  Na  Na4  1  0.167593  0.741105  0.360291  1
  Na  Na5  1  0.832407  0.258895  0.639709  1
  Na  Na6  1  0.332407  0.241105  0.639709  1
  Na  Na7  1  0.667593  0.758895  0.360291  1
  Fe  Fe8  1  0.304650  0.000025  0.979505  1
  Fe  Fe9  1  0.695350  0.499975  0.479505  1
  Fe  Fe10  1  0.195350  0.500025  0.020495  1
  Fe  Fe11  1  0.804650  0.499975  0.979505  1
  Fe  Fe12  1  0.304650  0.500025  0.520495  1
  Fe  Fe13  1  0.804650  0.999975  0.520495  1
  Fe  Fe14  1  0.195350  0.000025  0.479505  1
  Fe  Fe15  1  0.695350  0.999975  0.020495  1
  Te  Te16  1  0.951349  0.714036  0.576153  1
  Te  Te17  1  0.918949  0.509172  0.232665  1
  Te  Te18  1  0.081051  0.490828  0.767335  1
  Te  Te19  1  0.918949  0.009172  0.267335  1
  Te  Te20  1  0.451349  0.285964  0.923847  1
  Te  Te21  1  0.548651  0.214036  0.423847  1
  Te  Te22  1  0.581051  0.509172  0.732665  1
  Te  Te23  1  0.048651  0.785964  0.076153  1
  Te  Te24  1  0.418949  0.990828  0.232665  1
  Te  Te25  1  0.581051  0.009172  0.767335  1
  Te  Te26  1  0.081051  0.990828  0.732665  1
  Te  Te27  1  0.418949  0.490828  0.267335  1
  Te  Te28  1  0.048651  0.285964  0.423847  1
  Te  Te29  1  0.451349  0.785964  0.576153  1
  Te  Te30  1  0.951349  0.214036  0.923847  1
  Te  Te31  1  0.548651  0.714036  0.076153  1
  O  O32  1  0.126348  0.467829  0.164105  1
  O  O33  1  0.180332  0.658298  0.552628  1
  O  O34  1  0.319668  0.658298  0.052628  1
  O  O35  1  0.680332  0.341702  0.947372  1
  O  O36  1  0.935934  0.186158  0.267607  1
  O  O37  1  0.564066  0.186158  0.767607  1
  O  O38  1  0.261924  0.019380  0.127589  1
  O  O39  1  0.001336  0.371484  0.989434  1
  O  O40  1  0.370086  0.370342  0.039949  1
  O  O41  1  0.738076  0.480620  0.627589  1
  O  O42  1  0.626348  0.532171  0.335895  1
  O  O43  1  0.435934  0.313842  0.267607  1
  O  O44  1  0.935934  0.686158  0.232393  1
  O  O45  1  0.238076  0.019380  0.627589  1
  O  O46  1  0.870086  0.129658  0.039949  1
  O  O47  1  0.501336  0.128516  0.989434  1
  O  O48  1  0.001336  0.871484  0.510566  1
  O  O49  1  0.998664  0.128516  0.489434  1
  O  O50  1  0.873652  0.032171  0.664105  1
  O  O51  1  0.873652  0.532171  0.835895  1
  O  O52  1  0.498664  0.871484  0.010566  1
  O  O53  1  0.064066  0.313842  0.767607  1
  O  O54  1  0.064066  0.813842  0.732393  1
  O  O55  1  0.261924  0.519380  0.372411  1
  O  O56  1  0.180332  0.158298  0.947372  1
  O  O57  1  0.870086  0.629658  0.460051  1
  O  O58  1  0.680332  0.841702  0.552628  1
  O  O59  1  0.498664  0.371484  0.489434  1
  O  O60  1  0.738076  0.980620  0.872411  1
  O  O61  1  0.626348  0.032171  0.164105  1
  O  O62  1  0.126348  0.967829  0.335895  1
  O  O63  1  0.629914  0.129658  0.539949  1
  O  O64  1  0.129914  0.370342  0.539949  1
  O  O65  1  0.998664  0.628516  0.010566  1
  O  O66  1  0.238076  0.519380  0.872411  1
  O  O67  1  0.501336  0.628516  0.510566  1
  O  O68  1  0.373652  0.967829  0.835895  1
  O  O69  1  0.319668  0.158298  0.447372  1
  O  O70  1  0.761924  0.480620  0.127589  1
  O  O71  1  0.564066  0.686158  0.732393  1
  O  O72  1  0.370086  0.870342  0.460051  1
  O  O73  1  0.761924  0.980620  0.372411  1
  O  O74  1  0.819668  0.341702  0.447372  1
  O  O75  1  0.819668  0.841702  0.052628  1
  O  O76  1  0.435934  0.813842  0.232393  1
  O  O77  1  0.129914  0.870342  0.960051  1
  O  O78  1  0.629914  0.629658  0.960051  1
  O  O79  1  0.373652  0.467829  0.664105  1
