# generated using pymatgen
data_DyNbO4
_symmetry_space_group_name_H-M   'P 1'
_cell_length_a   6.61424748
_cell_length_b   6.61424748
_cell_length_c   5.14675767
_cell_angle_alpha   68.89883544
_cell_angle_beta   111.10116456
_cell_angle_gamma   65.46177012
_symmetry_Int_Tables_number   1
_chemical_formula_structural   DyNbO4
_chemical_formula_sum   'Dy2 Nb2 O8'
_cell_volume   152.81959380
_cell_formula_units_Z   2
loop_
 _symmetry_equiv_pos_site_id
 _symmetry_equiv_pos_as_xyz
  1  'x, y, z'
loop_
 _atom_site_type_symbol
 _atom_site_label
 _atom_site_symmetry_multiplicity
 _atom_site_fract_x
 _atom_site_fract_y
 _atom_site_fract_z
 _atom_site_occupancy
  Dy  Dy0  1  0.628301  0.628301  0.250000  1
  Dy  Dy1  1  0.371699  0.371699  0.750000  1
  Nb  Nb2  1  0.108016  0.108016  0.250000  1
  Nb  Nb3  1  0.891984  0.891984  0.750000  1
  O  O4  1  0.949934  0.629883  0.658750  1
  O  O5  1  0.629883  0.949934  0.841250  1
  O  O6  1  0.050066  0.370117  0.341250  1
  O  O7  1  0.370117  0.050066  0.158750  1
  O  O8  1  0.782533  0.282986  0.796320  1
  O  O9  1  0.282986  0.782533  0.703680  1
  O  O10  1  0.217467  0.717014  0.203680  1
  O  O11  1  0.717014  0.217467  0.296320  1
