# generated using pymatgen
data_Ba9Sm6Cl34
_symmetry_space_group_name_H-M   'P 1'
_cell_length_a   13.47719142
_cell_length_b   13.47719142
_cell_length_c   13.47719142
_cell_angle_alpha   130.20792915
_cell_angle_beta   130.20792915
_cell_angle_gamma   73.07457408
_symmetry_Int_Tables_number   1
_chemical_formula_structural   Ba9Sm6Cl34
_chemical_formula_sum   'Ba9 Sm6 Cl34'
_cell_volume   1394.23574566
_cell_formula_units_Z   1
loop_
 _symmetry_equiv_pos_site_id
 _symmetry_equiv_pos_as_xyz
  1  'x, y, z'
loop_
 _atom_site_type_symbol
 _atom_site_label
 _atom_site_symmetry_multiplicity
 _atom_site_fract_x
 _atom_site_fract_y
 _atom_site_fract_z
 _atom_site_occupancy
  Ba  Ba0  1  0.206240  0.659516  0.180699  1
  Ba  Ba1  1  0.974459  0.793760  0.453276  1
  Ba  Ba2  1  0.340484  0.521183  0.546724  1
  Ba  Ba3  1  0.793760  0.340484  0.819301  1
  Ba  Ba4  1  0.521183  0.974459  0.180699  1
  Ba  Ba5  1  0.025541  0.206240  0.546724  1
  Ba  Ba6  1  0.500000  0.500000  0.000000  1
  Ba  Ba7  1  0.659516  0.478817  0.453276  1
  Ba  Ba8  1  0.478817  0.025541  0.819301  1
  Sm  Sm9  1  0.185525  0.185525  0.000000  1
  Sm  Sm10  1  0.318482  0.105665  0.424146  1
  Sm  Sm11  1  0.681518  0.894336  0.575854  1
  Sm  Sm12  1  0.814475  0.814475  0.000000  1
  Sm  Sm13  1  0.894335  0.318482  0.212817  1
  Sm  Sm14  1  0.105664  0.681518  0.787183  1
  Cl  Cl15  1  0.449609  0.170484  0.102349  1
  Cl  Cl16  1  0.075596  0.575596  0.500000  1
  Cl  Cl17  1  0.924404  0.424404  0.500000  1
  Cl  Cl18  1  0.668603  0.794399  0.303287  1
  Cl  Cl19  1  0.859208  0.723025  0.582233  1
  Cl  Cl20  1  0.550391  0.829516  0.897651  1
  Cl  Cl21  1  0.276975  0.859208  0.136183  1
  Cl  Cl22  1  0.669684  0.809138  0.720339  1
  Cl  Cl23  1  0.347260  0.449609  0.279125  1
  Cl  Cl24  1  0.088799  0.949345  0.279661  1
  Cl  Cl25  1  0.829516  0.931864  0.279125  1
  Cl  Cl26  1  0.652740  0.550391  0.720875  1
  Cl  Cl27  1  0.424404  0.924404  0.500000  1
  Cl  Cl28  1  0.508888  0.634684  0.303287  1
  Cl  Cl29  1  0.050655  0.330316  0.139454  1
  Cl  Cl30  1  0.331397  0.205601  0.696713  1
  Cl  Cl31  1  0.809138  0.088799  0.139454  1
  Cl  Cl32  1  0.575596  0.075596  0.500000  1
  Cl  Cl33  1  0.723025  0.140792  0.863817  1
  Cl  Cl34  1  0.949345  0.669684  0.860546  1
  Cl  Cl35  1  0.750000  0.250000  0.500000  1
  Cl  Cl36  1  0.931864  0.652740  0.102349  1
  Cl  Cl37  1  0.491112  0.365316  0.696713  1
  Cl  Cl38  1  0.794399  0.491112  0.125796  1
  Cl  Cl39  1  0.190862  0.911201  0.860546  1
  Cl  Cl40  1  0.140792  0.276975  0.417767  1
  Cl  Cl41  1  0.911201  0.050655  0.720339  1
  Cl  Cl42  1  0.205601  0.508888  0.874204  1
  Cl  Cl43  1  0.330316  0.190862  0.279661  1
  Cl  Cl44  1  0.634684  0.331397  0.125796  1
  Cl  Cl45  1  0.365316  0.668603  0.874204  1
  Cl  Cl46  1  0.170484  0.068136  0.720875  1
  Cl  Cl47  1  0.068136  0.347260  0.897651  1
  Cl  Cl48  1  0.250000  0.750000  0.500000  1
