# generated using pymatgen
data_YRu2
_symmetry_space_group_name_H-M   'P 1'
_cell_length_a   5.27651557
_cell_length_b   5.27651557
_cell_length_c   8.96902197
_cell_angle_alpha   90.00000000
_cell_angle_beta   90.00000000
_cell_angle_gamma   120.00000000
_symmetry_Int_Tables_number   1
_chemical_formula_structural   YRu2
_chemical_formula_sum   'Y4 Ru8'
_cell_volume   216.25699677
_cell_formula_units_Z   4
loop_
 _symmetry_equiv_pos_site_id
 _symmetry_equiv_pos_as_xyz
  1  'x, y, z'
loop_
 _atom_site_type_symbol
 _atom_site_label
 _atom_site_symmetry_multiplicity
 _atom_site_fract_x
 _atom_site_fract_y
 _atom_site_fract_z
 _atom_site_occupancy
  Y  Y0  1  0.333333  0.666667  0.433258  1
  Y  Y1  1  0.666667  0.333333  0.566742  1
  Y  Y2  1  0.666667  0.333333  0.933258  1
  Y  Y3  1  0.333333  0.666667  0.066742  1
  Ru  Ru4  1  0.170194  0.340388  0.750000  1
  Ru  Ru5  1  0.170194  0.829806  0.750000  1
  Ru  Ru6  1  0.340388  0.170194  0.250000  1
  Ru  Ru7  1  0.829806  0.659612  0.250000  1
  Ru  Ru8  1  0.659612  0.829806  0.750000  1
  Ru  Ru9  1  0.000000  0.000000  0.000000  1
  Ru  Ru10  1  0.829806  0.170194  0.250000  1
  Ru  Ru11  1  0.000000  0.000000  0.500000  1
