# generated using pymatgen
data_GaN5O14
_symmetry_space_group_name_H-M   'P 1'
_cell_length_a   7.32411443
_cell_length_b   7.32411443
_cell_length_c   9.17075673
_cell_angle_alpha   52.29234970
_cell_angle_beta   127.70765030
_cell_angle_gamma   130.20763467
_symmetry_Int_Tables_number   1
_chemical_formula_structural   GaN5O14
_chemical_formula_sum   'Ga1 N5 O14'
_cell_volume   277.44249232
_cell_formula_units_Z   1
loop_
 _symmetry_equiv_pos_site_id
 _symmetry_equiv_pos_as_xyz
  1  'x, y, z'
loop_
 _atom_site_type_symbol
 _atom_site_label
 _atom_site_symmetry_multiplicity
 _atom_site_fract_x
 _atom_site_fract_y
 _atom_site_fract_z
 _atom_site_occupancy
  Ga  Ga0  1  0.006085  0.006085  0.000000  1
  N  N1  1  0.544665  0.872451  0.683832  1
  N  N2  1  0.872451  0.544665  0.316168  1
  N  N3  1  0.410982  0.143286  0.976303  1
  N  N4  1  0.143286  0.410982  0.023697  1
  N  N5  1  0.153913  0.153913  0.500000  1
  O  O6  1  0.670765  0.986749  0.812405  1
  O  O7  1  0.986749  0.670765  0.187595  1
  O  O8  1  0.627570  0.747289  0.710777  1
  O  O9  1  0.747289  0.627570  0.289223  1
  O  O10  1  0.350613  0.902852  0.548049  1
  O  O11  1  0.902852  0.350613  0.451951  1
  O  O12  1  0.168232  0.076354  0.850628  1
  O  O13  1  0.076354  0.168232  0.149372  1
  O  O14  1  0.441602  0.133670  0.132436  1
  O  O15  1  0.133670  0.441602  0.867564  1
  O  O16  1  0.577757  0.205648  0.935076  1
  O  O17  1  0.205648  0.577757  0.064924  1
  O  O18  1  0.338981  0.338981  0.500000  1
  O  O19  1  0.968735  0.968735  0.500000  1
