# generated using pymatgen
data_Dy11S16
_symmetry_space_group_name_H-M   'P 1'
_cell_length_a   8.28335299
_cell_length_b   8.33796846
_cell_length_c   16.72312805
_cell_angle_alpha   90.00000000
_cell_angle_beta   90.00000000
_cell_angle_gamma   90.00000000
_symmetry_Int_Tables_number   1
_chemical_formula_structural   Dy11S16
_chemical_formula_sum   'Dy22 S32'
_cell_volume   1155.00518038
_cell_formula_units_Z   2
loop_
 _symmetry_equiv_pos_site_id
 _symmetry_equiv_pos_as_xyz
  1  'x, y, z'
loop_
 _atom_site_type_symbol
 _atom_site_label
 _atom_site_symmetry_multiplicity
 _atom_site_fract_x
 _atom_site_fract_y
 _atom_site_fract_z
 _atom_site_occupancy
  Dy  Dy0  1  0.732995  0.124246  0.877497  1
  Dy  Dy1  1  0.499900  0.749705  0.819443  1
  Dy  Dy2  1  0.879307  0.504679  0.750134  1
  Dy  Dy3  1  0.742784  0.859799  0.620042  1
  Dy  Dy4  1  0.500100  0.249705  0.680557  1
  Dy  Dy5  1  0.267005  0.624246  0.622503  1
  Dy  Dy6  1  0.120693  0.004679  0.749866  1
  Dy  Dy7  1  0.980760  0.255873  0.561572  1
  Dy  Dy8  1  0.371271  0.000000  0.500000  1
  Dy  Dy9  1  0.267005  0.375754  0.377497  1
  Dy  Dy10  1  0.980760  0.744127  0.438428  1
  Dy  Dy11  1  0.742784  0.140201  0.379958  1
  Dy  Dy12  1  0.500100  0.750295  0.319443  1
  Dy  Dy13  1  0.879307  0.495321  0.249866  1
  Dy  Dy14  1  0.732995  0.875754  0.122503  1
  Dy  Dy15  1  0.499900  0.250295  0.180557  1
  Dy  Dy16  1  0.257216  0.640201  0.120042  1
  Dy  Dy17  1  0.120693  0.995321  0.250134  1
  Dy  Dy18  1  0.019240  0.244127  0.061572  1
  Dy  Dy19  1  0.257216  0.359799  0.879958  1
  Dy  Dy20  1  0.019240  0.755873  0.938428  1
  Dy  Dy21  1  0.628729  0.500000  0.000000  1
  S  S22  1  0.180275  0.685290  0.782961  1
  S  S23  1  0.575388  0.426490  0.842137  1
  S  S24  1  0.578948  0.571544  0.668075  1
  S  S25  1  0.421052  0.071544  0.831925  1
  S  S26  1  0.424612  0.926490  0.657863  1
  S  S27  1  0.183340  0.326091  0.717349  1
  S  S28  1  0.816660  0.826091  0.782651  1
  S  S29  1  0.819725  0.185290  0.717039  1
  S  S30  1  0.666811  0.173625  0.538786  1
  S  S31  1  0.061037  0.938643  0.590455  1
  S  S32  1  0.061037  0.061357  0.409545  1
  S  S33  1  0.943821  0.576438  0.592760  1
  S  S34  1  0.943821  0.423562  0.407240  1
  S  S35  1  0.666811  0.826375  0.461214  1
  S  S36  1  0.302511  0.315376  0.537173  1
  S  S37  1  0.302511  0.684624  0.462827  1
  S  S38  1  0.183340  0.673909  0.282651  1
  S  S39  1  0.578948  0.428456  0.331925  1
  S  S40  1  0.575388  0.573510  0.157863  1
  S  S41  1  0.424612  0.073510  0.342137  1
  S  S42  1  0.421052  0.928456  0.168075  1
  S  S43  1  0.180275  0.314710  0.217039  1
  S  S44  1  0.819725  0.814710  0.282961  1
  S  S45  1  0.816660  0.173909  0.217349  1
  S  S46  1  0.697489  0.184624  0.037173  1
  S  S47  1  0.056179  0.923562  0.092760  1
  S  S48  1  0.938963  0.561357  0.090455  1
  S  S49  1  0.056179  0.076438  0.907240  1
  S  S50  1  0.938963  0.438643  0.909545  1
  S  S51  1  0.697489  0.815376  0.962827  1
  S  S52  1  0.333189  0.326375  0.038786  1
  S  S53  1  0.333189  0.673625  0.961214  1
