# generated using pymatgen
data_NaSrB5O9
_symmetry_space_group_name_H-M   'P 1'
_cell_length_a   6.56194982
_cell_length_b   14.10479978
_cell_length_c   8.17882569
_cell_angle_alpha   90.00000000
_cell_angle_beta   106.69060145
_cell_angle_gamma   90.00000000
_symmetry_Int_Tables_number   1
_chemical_formula_structural   NaSrB5O9
_chemical_formula_sum   'Na4 Sr4 B20 O36'
_cell_volume   725.09879284
_cell_formula_units_Z   4
loop_
 _symmetry_equiv_pos_site_id
 _symmetry_equiv_pos_as_xyz
  1  'x, y, z'
loop_
 _atom_site_type_symbol
 _atom_site_label
 _atom_site_symmetry_multiplicity
 _atom_site_fract_x
 _atom_site_fract_y
 _atom_site_fract_z
 _atom_site_occupancy
  Na  Na0  1  0.534332  0.584094  0.349872  1
  Na  Na1  1  0.465668  0.415906  0.650128  1
  Na  Na2  1  0.465668  0.084094  0.150128  1
  Na  Na3  1  0.534332  0.915906  0.849872  1
  Sr  Sr4  1  0.897933  0.230041  0.439211  1
  Sr  Sr5  1  0.102067  0.730041  0.060789  1
  Sr  Sr6  1  0.102067  0.769959  0.560789  1
  Sr  Sr7  1  0.897933  0.269959  0.939211  1
  B  B8  1  0.442299  0.354481  0.130399  1
  B  B9  1  0.910455  0.056508  0.166174  1
  B  B10  1  0.841676  0.612497  0.732704  1
  B  B11  1  0.409751  0.252888  0.374452  1
  B  B12  1  0.785455  0.448888  0.232668  1
  B  B13  1  0.785455  0.051112  0.732668  1
  B  B14  1  0.557701  0.854481  0.369601  1
  B  B15  1  0.557701  0.645519  0.869601  1
  B  B16  1  0.841676  0.887503  0.232704  1
  B  B17  1  0.590249  0.747112  0.625548  1
  B  B18  1  0.442299  0.145519  0.630399  1
  B  B19  1  0.910455  0.443492  0.666174  1
  B  B20  1  0.089545  0.943492  0.833826  1
  B  B21  1  0.590249  0.752888  0.125548  1
  B  B22  1  0.214545  0.551112  0.767332  1
  B  B23  1  0.214545  0.948888  0.267332  1
  B  B24  1  0.089545  0.556508  0.333826  1
  B  B25  1  0.158324  0.387503  0.267296  1
  B  B26  1  0.409751  0.247112  0.874452  1
  B  B27  1  0.158324  0.112497  0.767296  1
  O  O28  1  0.838439  0.146107  0.145965  1
  O  O29  1  0.161561  0.646107  0.354035  1
  O  O30  1  0.868622  0.537642  0.289615  1
  O  O31  1  0.838439  0.353893  0.645965  1
  O  O32  1  0.920408  0.125212  0.722161  1
  O  O33  1  0.572126  0.439290  0.197069  1
  O  O34  1  0.226619  0.479240  0.350244  1
  O  O35  1  0.427874  0.939290  0.302931  1
  O  O36  1  0.486165  0.726606  0.745421  1
  O  O37  1  0.217952  0.372597  0.111629  1
  O  O38  1  0.753205  0.690757  0.603795  1
  O  O39  1  0.161561  0.853893  0.854035  1
  O  O40  1  0.226619  0.020760  0.850244  1
  O  O41  1  0.868622  0.962358  0.789615  1
  O  O42  1  0.246795  0.190757  0.896205  1
  O  O43  1  0.486165  0.773394  0.245421  1
  O  O44  1  0.782048  0.872597  0.388371  1
  O  O45  1  0.079592  0.874788  0.277839  1
  O  O46  1  0.513835  0.273394  0.254579  1
  O  O47  1  0.514662  0.673804  0.030233  1
  O  O48  1  0.572126  0.060710  0.697069  1
  O  O49  1  0.485338  0.173804  0.469767  1
  O  O50  1  0.131378  0.462358  0.710385  1
  O  O51  1  0.485338  0.326196  0.969767  1
  O  O52  1  0.773381  0.979240  0.149756  1
  O  O53  1  0.079592  0.625212  0.777839  1
  O  O54  1  0.427874  0.560710  0.802931  1
  O  O55  1  0.773381  0.520760  0.649756  1
  O  O56  1  0.753205  0.809243  0.103795  1
  O  O57  1  0.513835  0.226606  0.754579  1
  O  O58  1  0.131378  0.037642  0.210385  1
  O  O59  1  0.782048  0.627403  0.888371  1
  O  O60  1  0.920408  0.374788  0.222161  1
  O  O61  1  0.246795  0.309243  0.396205  1
  O  O62  1  0.514662  0.826196  0.530233  1
  O  O63  1  0.217952  0.127403  0.611629  1
