# generated using pymatgen
data_MnCrF5
_symmetry_space_group_name_H-M   'P 1'
_cell_length_a   5.43416150
_cell_length_b   5.43416150
_cell_length_c   7.51948568
_cell_angle_alpha   69.70123057
_cell_angle_beta   110.29876943
_cell_angle_gamma   107.64492477
_symmetry_Int_Tables_number   1
_chemical_formula_structural   MnCrF5
_chemical_formula_sum   'Mn2 Cr2 F10'
_cell_volume   191.06471423
_cell_formula_units_Z   2
loop_
 _symmetry_equiv_pos_site_id
 _symmetry_equiv_pos_as_xyz
  1  'x, y, z'
loop_
 _atom_site_type_symbol
 _atom_site_label
 _atom_site_symmetry_multiplicity
 _atom_site_fract_x
 _atom_site_fract_y
 _atom_site_fract_z
 _atom_site_occupancy
  Mn  Mn0  1  0.466848  0.466848  0.250000  1
  Mn  Mn1  1  0.533152  0.533152  0.750000  1
  Cr  Cr2  1  0.000000  0.000000  0.000000  1
  Cr  Cr3  1  0.000000  0.000000  0.500000  1
  F  F4  1  0.274021  0.790973  0.628326  1
  F  F5  1  0.790973  0.274021  0.871674  1
  F  F6  1  0.725979  0.209027  0.371674  1
  F  F7  1  0.209027  0.725979  0.128326  1
  F  F8  1  0.094693  0.094693  0.250000  1
  F  F9  1  0.905307  0.905307  0.750000  1
  F  F10  1  0.316375  0.280863  0.964970  1
  F  F11  1  0.280863  0.316375  0.535030  1
  F  F12  1  0.683625  0.719137  0.035030  1
  F  F13  1  0.719137  0.683625  0.464970  1
