# generated using pymatgen
data_Cs2U2O7
_symmetry_space_group_name_H-M   'P 1'
_cell_length_a   7.62754527
_cell_length_b   7.62754527
_cell_length_c   7.71132557
_cell_angle_alpha   67.75828471
_cell_angle_beta   112.24171529
_cell_angle_gamma   146.79048774
_symmetry_Int_Tables_number   1
_chemical_formula_structural   Cs2U2O7
_chemical_formula_sum   'Cs2 U2 O7'
_cell_volume   225.74111499
_cell_formula_units_Z   1
loop_
 _symmetry_equiv_pos_site_id
 _symmetry_equiv_pos_as_xyz
  1  'x, y, z'
loop_
 _atom_site_type_symbol
 _atom_site_label
 _atom_site_symmetry_multiplicity
 _atom_site_fract_x
 _atom_site_fract_y
 _atom_site_fract_z
 _atom_site_occupancy
  Cs  Cs0  1  0.396264  0.603736  0.082191  1
  Cs  Cs1  1  0.603736  0.396264  0.917809  1
  U  U2  1  0.147370  0.852630  0.492559  1
  U  U3  1  0.852630  0.147370  0.507441  1
  O  O4  1  0.800882  0.199118  0.242089  1
  O  O5  1  0.308802  0.691198  0.503545  1
  O  O6  1  0.088870  0.911130  0.227404  1
  O  O7  1  0.000000  0.000000  0.500000  1
  O  O8  1  0.691198  0.308802  0.496455  1
  O  O9  1  0.911130  0.088870  0.772596  1
  O  O10  1  0.199118  0.800882  0.757911  1
