# generated using pymatgen
data_CoPO4
_symmetry_space_group_name_H-M   'P 1'
_cell_length_a   4.76741477
_cell_length_b   5.82197734
_cell_length_c   9.95845366
_cell_angle_alpha   90.00000000
_cell_angle_beta   90.00000000
_cell_angle_gamma   90.00000000
_symmetry_Int_Tables_number   1
_chemical_formula_structural   CoPO4
_chemical_formula_sum   'Co4 P4 O16'
_cell_volume   276.40465651
_cell_formula_units_Z   4
loop_
 _symmetry_equiv_pos_site_id
 _symmetry_equiv_pos_as_xyz
  1  'x, y, z'
loop_
 _atom_site_type_symbol
 _atom_site_label
 _atom_site_symmetry_multiplicity
 _atom_site_fract_x
 _atom_site_fract_y
 _atom_site_fract_z
 _atom_site_occupancy
  Co  Co0  1  0.555661  0.250000  0.219175  1
  Co  Co1  1  0.055661  0.750000  0.280825  1
  Co  Co2  1  0.944339  0.250000  0.719175  1
  Co  Co3  1  0.444339  0.750000  0.780825  1
  P  P4  1  0.587206  0.750000  0.095360  1
  P  P5  1  0.087206  0.250000  0.404640  1
  P  P6  1  0.912794  0.750000  0.595360  1
  P  P7  1  0.412794  0.250000  0.904640  1
  O  O8  1  0.335228  0.250000  0.053564  1
  O  O9  1  0.269348  0.750000  0.115153  1
  O  O10  1  0.734791  0.956462  0.171354  1
  O  O11  1  0.734791  0.543538  0.171354  1
  O  O12  1  0.234792  0.456462  0.328646  1
  O  O13  1  0.234792  0.043538  0.328646  1
  O  O14  1  0.769348  0.250000  0.384847  1
  O  O15  1  0.835228  0.750000  0.446436  1
  O  O16  1  0.164772  0.250000  0.553564  1
  O  O17  1  0.230652  0.750000  0.615153  1
  O  O18  1  0.765209  0.956462  0.671354  1
  O  O19  1  0.765209  0.543538  0.671354  1
  O  O20  1  0.265209  0.456462  0.828646  1
  O  O21  1  0.265209  0.043538  0.828646  1
  O  O22  1  0.730652  0.250000  0.884847  1
  O  O23  1  0.664772  0.750000  0.946436  1
