# generated using pymatgen
data_La3NbO7
_symmetry_space_group_name_H-M   'P 1'
_cell_length_a   7.79004847
_cell_length_b   7.83106179
_cell_length_c   11.18163032
_cell_angle_alpha   90.00000000
_cell_angle_beta   90.00000000
_cell_angle_gamma   90.00000000
_symmetry_Int_Tables_number   1
_chemical_formula_structural   La3NbO7
_chemical_formula_sum   'La12 Nb4 O28'
_cell_volume   682.12809985
_cell_formula_units_Z   4
loop_
 _symmetry_equiv_pos_site_id
 _symmetry_equiv_pos_as_xyz
  1  'x, y, z'
loop_
 _atom_site_type_symbol
 _atom_site_label
 _atom_site_symmetry_multiplicity
 _atom_site_fract_x
 _atom_site_fract_y
 _atom_site_fract_z
 _atom_site_occupancy
  La  La0  1  0.043581  0.750997  0.477468  1
  La  La1  1  0.285764  0.491586  0.750000  1
  La  La2  1  0.714236  0.508414  0.250000  1
  La  La3  1  0.456419  0.250997  0.022532  1
  La  La4  1  0.785764  0.008414  0.250000  1
  La  La5  1  0.543581  0.749003  0.522532  1
  La  La6  1  0.543581  0.749003  0.977468  1
  La  La7  1  0.043581  0.750997  0.022532  1
  La  La8  1  0.956419  0.249003  0.977468  1
  La  La9  1  0.956419  0.249003  0.522532  1
  La  La10  1  0.456419  0.250997  0.477468  1
  La  La11  1  0.214236  0.991586  0.750000  1
  Nb  Nb12  1  0.747421  0.992905  0.750000  1
  Nb  Nb13  1  0.252579  0.007095  0.250000  1
  Nb  Nb14  1  0.752579  0.492905  0.750000  1
  Nb  Nb15  1  0.247421  0.507095  0.250000  1
  O  O16  1  0.227942  0.246457  0.618003  1
  O  O17  1  0.549445  0.468397  0.628243  1
  O  O18  1  0.590457  0.038206  0.616636  1
  O  O19  1  0.409543  0.961794  0.383364  1
  O  O20  1  0.049445  0.031603  0.371757  1
  O  O21  1  0.909543  0.538206  0.883364  1
  O  O22  1  0.318408  0.246942  0.250000  1
  O  O23  1  0.772058  0.753543  0.381997  1
  O  O24  1  0.950555  0.968397  0.628243  1
  O  O25  1  0.272058  0.746457  0.881997  1
  O  O26  1  0.727942  0.253543  0.118003  1
  O  O27  1  0.227942  0.246457  0.881997  1
  O  O28  1  0.818407  0.253058  0.750000  1
  O  O29  1  0.090457  0.461794  0.116636  1
  O  O30  1  0.727942  0.253543  0.381997  1
  O  O31  1  0.049445  0.031603  0.128243  1
  O  O32  1  0.950555  0.968397  0.871757  1
  O  O33  1  0.681593  0.753058  0.750000  1
  O  O34  1  0.272058  0.746457  0.618003  1
  O  O35  1  0.181592  0.746942  0.250000  1
  O  O36  1  0.450555  0.531603  0.371757  1
  O  O37  1  0.909543  0.538206  0.616636  1
  O  O38  1  0.090457  0.461794  0.383364  1
  O  O39  1  0.590457  0.038206  0.883364  1
  O  O40  1  0.450555  0.531603  0.128243  1
  O  O41  1  0.409543  0.961794  0.116636  1
  O  O42  1  0.549445  0.468397  0.871757  1
  O  O43  1  0.772058  0.753543  0.118003  1
