# generated using pymatgen
data_Ba2CaUO6
_symmetry_space_group_name_H-M   'P 1'
_cell_length_a   6.22773119
_cell_length_b   6.19140065
_cell_length_c   10.72007382
_cell_angle_alpha   90.00000000
_cell_angle_beta   125.34687849
_cell_angle_gamma   90.00000000
_symmetry_Int_Tables_number   1
_chemical_formula_structural   Ba2CaUO6
_chemical_formula_sum   'Ba4 Ca2 U2 O12'
_cell_volume   337.15384459
_cell_formula_units_Z   2
loop_
 _symmetry_equiv_pos_site_id
 _symmetry_equiv_pos_as_xyz
  1  'x, y, z'
loop_
 _atom_site_type_symbol
 _atom_site_label
 _atom_site_symmetry_multiplicity
 _atom_site_fract_x
 _atom_site_fract_y
 _atom_site_fract_z
 _atom_site_occupancy
  Ba  Ba0  1  0.244907  0.015349  0.250101  1
  Ba  Ba1  1  0.755093  0.515349  0.249899  1
  Ba  Ba2  1  0.755093  0.984651  0.749899  1
  Ba  Ba3  1  0.244907  0.484651  0.750101  1
  Ca  Ca4  1  0.500000  0.000000  0.000000  1
  Ca  Ca5  1  0.500000  0.500000  0.500000  1
  U  U6  1  0.000000  0.000000  0.500000  1
  U  U7  1  0.000000  0.500000  0.000000  1
  O  O8  1  0.218969  0.783674  0.464288  1
  O  O9  1  0.695720  0.512069  0.765147  1
  O  O10  1  0.175166  0.256831  0.460862  1
  O  O11  1  0.781031  0.216326  0.535712  1
  O  O12  1  0.695720  0.987931  0.265147  1
  O  O13  1  0.824834  0.756831  0.039138  1
  O  O14  1  0.218969  0.716326  0.964288  1
  O  O15  1  0.781031  0.283674  0.035712  1
  O  O16  1  0.304280  0.012069  0.734853  1
  O  O17  1  0.304280  0.487931  0.234853  1
  O  O18  1  0.175166  0.243169  0.960862  1
  O  O19  1  0.824834  0.743169  0.539138  1
