# generated using pymatgen
data_La2(MoO4)3
_symmetry_space_group_name_H-M   'P 1'
_cell_length_a   10.54018126
_cell_length_b   10.54018126
_cell_length_c   16.32239215
_cell_angle_alpha   75.06633762
_cell_angle_beta   104.93366238
_cell_angle_gamma   109.79970472
_symmetry_Int_Tables_number   1
_chemical_formula_structural   La2(MoO4)3
_chemical_formula_sum   'La12 Mo18 O72'
_cell_volume   1619.29706843
_cell_formula_units_Z   6
loop_
 _symmetry_equiv_pos_site_id
 _symmetry_equiv_pos_as_xyz
  1  'x, y, z'
loop_
 _atom_site_type_symbol
 _atom_site_label
 _atom_site_symmetry_multiplicity
 _atom_site_fract_x
 _atom_site_fract_y
 _atom_site_fract_z
 _atom_site_occupancy
  La  La0  1  0.382392  0.368872  0.588868  1
  La  La1  1  0.617608  0.631128  0.411132  1
  La  La2  1  0.704823  0.036498  0.697444  1
  La  La3  1  0.368872  0.382392  0.911132  1
  La  La4  1  0.036498  0.704823  0.802556  1
  La  La5  1  0.295177  0.963502  0.302556  1
  La  La6  1  0.286657  0.955647  0.976586  1
  La  La7  1  0.955647  0.286657  0.523414  1
  La  La8  1  0.713343  0.044353  0.023414  1
  La  La9  1  0.963502  0.295177  0.197444  1
  La  La10  1  0.631128  0.617608  0.088868  1
  La  La11  1  0.044353  0.713343  0.476586  1
  Mo  Mo12  1  0.863747  0.877601  0.578765  1
  Mo  Mo13  1  0.204819  0.547213  0.363102  1
  Mo  Mo14  1  0.799976  0.466916  0.309523  1
  Mo  Mo15  1  0.452787  0.795181  0.863102  1
  Mo  Mo16  1  0.223733  0.548578  0.033702  1
  Mo  Mo17  1  0.466916  0.799976  0.190477  1
  Mo  Mo18  1  0.533084  0.200024  0.809523  1
  Mo  Mo19  1  0.122399  0.136253  0.078765  1
  Mo  Mo20  1  0.136253  0.122399  0.421235  1
  Mo  Mo21  1  0.776267  0.451422  0.966298  1
  Mo  Mo22  1  0.795181  0.452787  0.636898  1
  Mo  Mo23  1  0.451422  0.776267  0.533702  1
  Mo  Mo24  1  0.875275  0.875275  0.250000  1
  Mo  Mo25  1  0.124725  0.124725  0.750000  1
  Mo  Mo26  1  0.547213  0.204819  0.136898  1
  Mo  Mo27  1  0.548578  0.223733  0.466298  1
  Mo  Mo28  1  0.877601  0.863747  0.921235  1
  Mo  Mo29  1  0.200024  0.533084  0.690477  1
  O  O30  1  0.642753  0.467978  0.332481  1
  O  O31  1  0.576108  0.816344  0.964444  1
  O  O32  1  0.536825  0.107943  0.566646  1
  O  O33  1  0.846443  0.579906  0.880943  1
  O  O34  1  0.290336  0.807990  0.875533  1
  O  O35  1  0.282397  0.751684  0.551543  1
  O  O36  1  0.751499  0.847810  0.147848  1
  O  O37  1  0.239345  0.150881  0.178389  1
  O  O38  1  0.383496  0.531154  0.016507  1
  O  O39  1  0.107943  0.536825  0.933354  1
  O  O40  1  0.274140  0.183899  0.504962  1
  O  O41  1  0.314363  0.801917  0.218450  1
  O  O42  1  0.357247  0.532022  0.667519  1
  O  O43  1  0.127333  0.983210  0.051942  1
  O  O44  1  0.140286  0.956813  0.404154  1
  O  O45  1  0.531154  0.383496  0.483493  1
  O  O46  1  0.430117  0.629662  0.844000  1
  O  O47  1  0.598798  0.822896  0.284547  1
  O  O48  1  0.725860  0.816101  0.495038  1
  O  O49  1  0.847810  0.751499  0.352152  1
  O  O50  1  0.822896  0.598798  0.215453  1
  O  O51  1  0.616504  0.468846  0.983493  1
  O  O52  1  0.423892  0.183656  0.035556  1
  O  O53  1  0.183899  0.274140  0.995038  1
  O  O54  1  0.468846  0.616504  0.516507  1
  O  O55  1  0.956813  0.140286  0.095846  1
  O  O56  1  0.807990  0.290336  0.624467  1
  O  O57  1  0.751684  0.282397  0.948457  1
  O  O58  1  0.512070  0.922181  0.774898  1
  O  O59  1  0.709664  0.192010  0.124467  1
  O  O60  1  0.849119  0.760655  0.678389  1
  O  O61  1  0.859714  0.043187  0.595846  1
  O  O62  1  0.892057  0.463175  0.066646  1
  O  O63  1  0.463175  0.892057  0.433354  1
  O  O64  1  0.816101  0.725860  0.004962  1
  O  O65  1  0.888580  0.039529  0.265824  1
  O  O66  1  0.500605  0.935540  0.093756  1
  O  O67  1  0.111420  0.960471  0.734176  1
  O  O68  1  0.192010  0.709664  0.375533  1
  O  O69  1  0.016790  0.872667  0.551942  1
  O  O70  1  0.717603  0.248316  0.448457  1
  O  O71  1  0.467978  0.642753  0.167519  1
  O  O72  1  0.579906  0.846443  0.619057  1
  O  O73  1  0.039529  0.888580  0.234176  1
  O  O74  1  0.487930  0.077819  0.225102  1
  O  O75  1  0.960471  0.111420  0.765824  1
  O  O76  1  0.077819  0.487930  0.274898  1
  O  O77  1  0.983210  0.127333  0.448058  1
  O  O78  1  0.198083  0.685637  0.718450  1
  O  O79  1  0.532022  0.357247  0.832481  1
  O  O80  1  0.401202  0.177104  0.715453  1
  O  O81  1  0.801917  0.314363  0.281550  1
  O  O82  1  0.248316  0.717603  0.051543  1
  O  O83  1  0.816344  0.576108  0.535556  1
  O  O84  1  0.922181  0.512070  0.725102  1
  O  O85  1  0.183656  0.423892  0.464444  1
  O  O86  1  0.872667  0.016790  0.948058  1
  O  O87  1  0.370338  0.569883  0.344000  1
  O  O88  1  0.043187  0.859714  0.904154  1
  O  O89  1  0.420094  0.153557  0.380943  1
  O  O90  1  0.177104  0.401202  0.784547  1
  O  O91  1  0.935540  0.500605  0.406244  1
  O  O92  1  0.499395  0.064460  0.906244  1
  O  O93  1  0.629662  0.430117  0.656000  1
  O  O94  1  0.153557  0.420094  0.119057  1
  O  O95  1  0.569883  0.370338  0.156000  1
  O  O96  1  0.064460  0.499395  0.593756  1
  O  O97  1  0.760655  0.849119  0.821611  1
  O  O98  1  0.685637  0.198083  0.781550  1
  O  O99  1  0.152190  0.248501  0.647848  1
  O  O100  1  0.150881  0.239345  0.321611  1
  O  O101  1  0.248501  0.152190  0.852152  1
