# generated using pymatgen
data_Ba21Al40
_symmetry_space_group_name_H-M   'P 1'
_cell_length_a   10.61866466
_cell_length_b   10.61866466
_cell_length_c   17.35057319
_cell_angle_alpha   90.00000000
_cell_angle_beta   90.00000000
_cell_angle_gamma   120.00000000
_symmetry_Int_Tables_number   1
_chemical_formula_structural   Ba21Al40
_chemical_formula_sum   'Ba21 Al40'
_cell_volume   1694.27643234
_cell_formula_units_Z   1
loop_
 _symmetry_equiv_pos_site_id
 _symmetry_equiv_pos_as_xyz
  1  'x, y, z'
loop_
 _atom_site_type_symbol
 _atom_site_label
 _atom_site_symmetry_multiplicity
 _atom_site_fract_x
 _atom_site_fract_y
 _atom_site_fract_z
 _atom_site_occupancy
  Ba  Ba0  1  0.000000  0.332140  0.391322  1
  Ba  Ba1  1  0.666667  0.333333  0.320183  1
  Ba  Ba2  1  0.670617  0.000000  0.679787  1
  Ba  Ba3  1  0.329383  0.329383  0.679787  1
  Ba  Ba4  1  0.000000  0.000000  0.107374  1
  Ba  Ba5  1  0.000000  0.323336  0.607267  1
  Ba  Ba6  1  0.329272  0.000000  0.000931  1
  Ba  Ba7  1  0.000000  0.670617  0.679787  1
  Ba  Ba8  1  0.667860  0.667860  0.391322  1
  Ba  Ba9  1  0.323336  0.000000  0.607267  1
  Ba  Ba10  1  0.333333  0.666667  0.105378  1
  Ba  Ba11  1  0.000000  0.664905  0.893046  1
  Ba  Ba12  1  0.676664  0.676664  0.607267  1
  Ba  Ba13  1  0.335095  0.335095  0.893046  1
  Ba  Ba14  1  0.666667  0.333333  0.105378  1
  Ba  Ba15  1  0.333333  0.666667  0.320183  1
  Ba  Ba16  1  0.000000  0.329272  0.000931  1
  Ba  Ba17  1  0.332140  0.000000  0.391322  1
  Ba  Ba18  1  0.670728  0.670728  0.000931  1
  Ba  Ba19  1  0.664905  0.000000  0.893046  1
  Ba  Ba20  1  0.000000  0.000000  0.322978  1
  Al  Al21  1  0.336868  0.520567  0.508952  1
  Al  Al22  1  0.155601  0.333321  0.211100  1
  Al  Al23  1  0.499868  0.163417  0.784956  1
  Al  Al24  1  0.822280  0.666679  0.211100  1
  Al  Al25  1  0.489337  0.000000  0.211716  1
  Al  Al26  1  0.000000  0.000000  0.533768  1
  Al  Al27  1  0.333333  0.666667  0.902868  1
  Al  Al28  1  0.177720  0.844399  0.211100  1
  Al  Al29  1  0.195038  0.000000  0.794085  1
  Al  Al30  1  0.000000  0.669155  0.330036  1
  Al  Al31  1  0.333321  0.155601  0.211100  1
  Al  Al32  1  0.241018  0.241018  0.478969  1
  Al  Al33  1  0.804962  0.804962  0.794085  1
  Al  Al34  1  0.666667  0.333333  0.902868  1
  Al  Al35  1  0.000000  0.758982  0.478969  1
  Al  Al36  1  0.510663  0.510663  0.211716  1
  Al  Al37  1  0.816301  0.479433  0.508952  1
  Al  Al38  1  0.500132  0.663549  0.784956  1
  Al  Al39  1  0.000000  0.489337  0.211716  1
  Al  Al40  1  0.844399  0.177720  0.211100  1
  Al  Al41  1  0.000000  0.665672  0.097779  1
  Al  Al42  1  0.330845  0.330845  0.330036  1
  Al  Al43  1  0.333333  0.666667  0.652872  1
  Al  Al44  1  0.000000  0.195038  0.794085  1
  Al  Al45  1  0.666667  0.333333  0.652872  1
  Al  Al46  1  0.163417  0.499868  0.784956  1
  Al  Al47  1  0.479433  0.816301  0.508952  1
  Al  Al48  1  0.183699  0.663132  0.508952  1
  Al  Al49  1  0.665672  0.000000  0.097779  1
  Al  Al50  1  0.334328  0.334328  0.097779  1
  Al  Al51  1  0.836583  0.336451  0.784956  1
  Al  Al52  1  0.669155  0.000000  0.330036  1
  Al  Al53  1  0.520567  0.336868  0.508952  1
  Al  Al54  1  0.666679  0.822280  0.211100  1
  Al  Al55  1  0.758982  0.000000  0.478969  1
  Al  Al56  1  0.663132  0.183699  0.508952  1
  Al  Al57  1  0.336451  0.836583  0.784956  1
  Al  Al58  1  0.000000  0.000000  0.899816  1
  Al  Al59  1  0.663549  0.500132  0.784956  1
  Al  Al60  1  0.000000  0.000000  0.692365  1
