# generated using pymatgen
data_Ta4BTe8
_symmetry_space_group_name_H-M   'P 1'
_cell_length_a   3.62254823
_cell_length_b   11.61534667
_cell_length_c   16.91439354
_cell_angle_alpha   90.00000000
_cell_angle_beta   90.00000000
_cell_angle_gamma   90.00000000
_symmetry_Int_Tables_number   1
_chemical_formula_structural   Ta4BTe8
_chemical_formula_sum   'Ta8 B2 Te16'
_cell_volume   711.70953368
_cell_formula_units_Z   2
loop_
 _symmetry_equiv_pos_site_id
 _symmetry_equiv_pos_as_xyz
  1  'x, y, z'
loop_
 _atom_site_type_symbol
 _atom_site_label
 _atom_site_symmetry_multiplicity
 _atom_site_fract_x
 _atom_site_fract_y
 _atom_site_fract_z
 _atom_site_occupancy
  Ta  Ta0  1  0.500000  0.072865  0.070873  1
  Ta  Ta1  1  0.500000  0.927134  0.929127  1
  Ta  Ta2  1  0.500000  0.572866  0.429127  1
  Ta  Ta3  1  0.500000  0.427134  0.570873  1
  Ta  Ta4  1  0.000000  0.342850  0.424830  1
  Ta  Ta5  1  0.000000  0.657150  0.575170  1
  Ta  Ta6  1  0.000000  0.842850  0.075170  1
  Ta  Ta7  1  0.000000  0.157150  0.924830  1
  B  B8  1  0.000000  0.000000  0.000000  1
  B  B9  1  0.000000  0.500000  0.500000  1
  Te  Te10  1  0.500000  0.300037  0.005672  1
  Te  Te11  1  0.500000  0.699963  0.994328  1
  Te  Te12  1  0.500000  0.800037  0.494328  1
  Te  Te13  1  0.500000  0.199963  0.505672  1
  Te  Te14  1  0.500000  0.411363  0.308250  1
  Te  Te15  1  0.500000  0.588637  0.691750  1
  Te  Te16  1  0.500000  0.911363  0.191750  1
  Te  Te17  1  0.500000  0.088637  0.808250  1
  Te  Te18  1  0.000000  0.127841  0.328830  1
  Te  Te19  1  0.000000  0.872159  0.671170  1
  Te  Te20  1  0.000000  0.627841  0.171170  1
  Te  Te21  1  0.000000  0.372159  0.828830  1
  Te  Te22  1  0.000000  0.202780  0.170835  1
  Te  Te23  1  0.000000  0.797220  0.829165  1
  Te  Te24  1  0.000000  0.702780  0.329165  1
  Te  Te25  1  0.000000  0.297220  0.670835  1
