# generated using pymatgen
data_LaErS3
_symmetry_space_group_name_H-M   'P 1'
_cell_length_a   4.00735766
_cell_length_b   16.53377805
_cell_length_c   21.46153538
_cell_angle_alpha   90.00000000
_cell_angle_beta   90.00000000
_cell_angle_gamma   90.00000000
_symmetry_Int_Tables_number   1
_chemical_formula_structural   LaErS3
_chemical_formula_sum   'La12 Er12 S36'
_cell_volume   1421.97184435
_cell_formula_units_Z   12
loop_
 _symmetry_equiv_pos_site_id
 _symmetry_equiv_pos_as_xyz
  1  'x, y, z'
loop_
 _atom_site_type_symbol
 _atom_site_label
 _atom_site_symmetry_multiplicity
 _atom_site_fract_x
 _atom_site_fract_y
 _atom_site_fract_z
 _atom_site_occupancy
  La  La0  1  0.750000  0.669965  0.087375  1
  La  La1  1  0.750000  0.840033  0.245565  1
  La  La2  1  0.250000  0.159967  0.754435  1
  La  La3  1  0.250000  0.330035  0.912625  1
  La  La4  1  0.750000  0.805677  0.921459  1
  La  La5  1  0.750000  0.340033  0.254435  1
  La  La6  1  0.250000  0.194323  0.078541  1
  La  La7  1  0.250000  0.830035  0.587375  1
  La  La8  1  0.750000  0.169965  0.412625  1
  La  La9  1  0.750000  0.305677  0.578541  1
  La  La10  1  0.250000  0.659967  0.745565  1
  La  La11  1  0.250000  0.694323  0.421459  1
  Er  Er12  1  0.250000  0.594846  0.250101  1
  Er  Er13  1  0.750000  0.056758  0.930752  1
  Er  Er14  1  0.250000  0.065977  0.579474  1
  Er  Er15  1  0.250000  0.565977  0.920526  1
  Er  Er16  1  0.250000  0.094846  0.249899  1
  Er  Er17  1  0.250000  0.443242  0.430752  1
  Er  Er18  1  0.750000  0.556758  0.569248  1
  Er  Er19  1  0.750000  0.405154  0.749899  1
  Er  Er20  1  0.250000  0.943242  0.069248  1
  Er  Er21  1  0.750000  0.434023  0.079474  1
  Er  Er22  1  0.750000  0.934023  0.420526  1
  Er  Er23  1  0.750000  0.905154  0.750101  1
  S  S24  1  0.250000  0.658889  0.563235  1
  S  S25  1  0.250000  0.208940  0.516885  1
  S  S26  1  0.250000  0.708940  0.983115  1
  S  S27  1  0.250000  0.440394  0.558156  1
  S  S28  1  0.750000  0.646008  0.851539  1
  S  S29  1  0.750000  0.052431  0.806251  1
  S  S30  1  0.750000  0.059606  0.058156  1
  S  S31  1  0.250000  0.323151  0.684295  1
  S  S32  1  0.750000  0.536938  0.182047  1
  S  S33  1  0.750000  0.456862  0.947746  1
  S  S34  1  0.750000  0.176849  0.184295  1
  S  S35  1  0.750000  0.552431  0.693749  1
  S  S36  1  0.250000  0.963062  0.682047  1
  S  S37  1  0.750000  0.270037  0.821541  1
  S  S38  1  0.750000  0.676849  0.315705  1
  S  S39  1  0.250000  0.463062  0.817953  1
  S  S40  1  0.750000  0.770037  0.678459  1
  S  S41  1  0.250000  0.729963  0.178459  1
  S  S42  1  0.750000  0.341111  0.436765  1
  S  S43  1  0.250000  0.043138  0.447746  1
  S  S44  1  0.750000  0.146008  0.648461  1
  S  S45  1  0.750000  0.956862  0.552254  1
  S  S46  1  0.250000  0.229963  0.321541  1
  S  S47  1  0.250000  0.447569  0.306251  1
  S  S48  1  0.250000  0.940394  0.941844  1
  S  S49  1  0.750000  0.036938  0.317953  1
  S  S50  1  0.250000  0.823151  0.815705  1
  S  S51  1  0.750000  0.791060  0.483115  1
  S  S52  1  0.250000  0.543138  0.052254  1
  S  S53  1  0.250000  0.158889  0.936765  1
  S  S54  1  0.750000  0.841111  0.063235  1
  S  S55  1  0.750000  0.291060  0.016885  1
  S  S56  1  0.250000  0.947569  0.193749  1
  S  S57  1  0.750000  0.559606  0.441844  1
  S  S58  1  0.250000  0.353992  0.148461  1
  S  S59  1  0.250000  0.853992  0.351539  1
