# generated using pymatgen
data_Na2Si3O7
_symmetry_space_group_name_H-M   'P 1'
_cell_length_a   7.29481107
_cell_length_b   10.73429100
_cell_length_c   9.93890706
_cell_angle_alpha   90.00000000
_cell_angle_beta   120.28193300
_cell_angle_gamma   90.00000000
_symmetry_Int_Tables_number   1
_chemical_formula_structural   Na2Si3O7
_chemical_formula_sum   'Na8 Si12 O28'
_cell_volume   672.07206503
_cell_formula_units_Z   4
loop_
 _symmetry_equiv_pos_site_id
 _symmetry_equiv_pos_as_xyz
  1  'x, y, z'
loop_
 _atom_site_type_symbol
 _atom_site_label
 _atom_site_symmetry_multiplicity
 _atom_site_fract_x
 _atom_site_fract_y
 _atom_site_fract_z
 _atom_site_occupancy
  Na  Na0  1  0.788894  0.303597  0.377578  1
  Na  Na1  1  0.748727  0.939541  0.429983  1
  Na  Na2  1  0.748727  0.560459  0.929983  1
  Na  Na3  1  0.251273  0.439541  0.070017  1
  Na  Na4  1  0.788894  0.196403  0.877578  1
  Na  Na5  1  0.251273  0.060459  0.570017  1
  Na  Na6  1  0.211106  0.696403  0.622422  1
  Na  Na7  1  0.211106  0.803597  0.122422  1
  Si  Si8  1  0.620572  0.816800  0.024073  1
  Si  Si9  1  0.835209  0.431614  0.684244  1
  Si  Si10  1  0.379428  0.183200  0.975927  1
  Si  Si11  1  0.277994  0.393828  0.727180  1
  Si  Si12  1  0.722006  0.893828  0.772820  1
  Si  Si13  1  0.277994  0.106172  0.227180  1
  Si  Si14  1  0.620572  0.683200  0.524073  1
  Si  Si15  1  0.835209  0.068386  0.184244  1
  Si  Si16  1  0.379428  0.316800  0.475927  1
  Si  Si17  1  0.722006  0.606172  0.272820  1
  Si  Si18  1  0.164791  0.568386  0.315756  1
  Si  Si19  1  0.164791  0.931614  0.815756  1
  O  O20  1  0.373209  0.855908  0.954112  1
  O  O21  1  0.672543  0.704498  0.382764  1
  O  O22  1  0.897630  0.105328  0.356652  1
  O  O23  1  0.897630  0.394672  0.856652  1
  O  O24  1  0.327457  0.204498  0.117236  1
  O  O25  1  0.389659  0.975336  0.256706  1
  O  O26  1  0.327457  0.295502  0.617236  1
  O  O27  1  0.985909  0.601830  0.366304  1
  O  O28  1  0.626791  0.144092  0.045888  1
  O  O29  1  0.216501  0.083291  0.847485  1
  O  O30  1  0.216501  0.416709  0.347485  1
  O  O31  1  0.014091  0.101830  0.133696  1
  O  O32  1  0.102370  0.894672  0.643348  1
  O  O33  1  0.985909  0.898170  0.866304  1
  O  O34  1  0.610341  0.024664  0.743294  1
  O  O35  1  0.350482  0.182343  0.392193  1
  O  O36  1  0.626791  0.355908  0.545888  1
  O  O37  1  0.783499  0.583291  0.652515  1
  O  O38  1  0.350482  0.317657  0.892193  1
  O  O39  1  0.389659  0.524664  0.756706  1
  O  O40  1  0.783499  0.916709  0.152515  1
  O  O41  1  0.373209  0.644092  0.454112  1
  O  O42  1  0.610341  0.475336  0.243294  1
  O  O43  1  0.672543  0.795502  0.882764  1
  O  O44  1  0.014091  0.398170  0.633696  1
  O  O45  1  0.649518  0.682343  0.107807  1
  O  O46  1  0.649518  0.817657  0.607807  1
  O  O47  1  0.102370  0.605328  0.143348  1
