# generated using pymatgen
data_ZnS
_symmetry_space_group_name_H-M   'P 1'
_cell_length_a   31.57174419
_cell_length_b   31.57174419
_cell_length_c   31.57174419
_cell_angle_alpha   7.01534676
_cell_angle_beta   7.01534676
_cell_angle_gamma   7.01534676
_symmetry_Int_Tables_number   1
_chemical_formula_structural   ZnS
_chemical_formula_sum   'Zn10 S10'
_cell_volume   407.05232545
_cell_formula_units_Z   10
loop_
 _symmetry_equiv_pos_site_id
 _symmetry_equiv_pos_as_xyz
  1  'x, y, z'
loop_
 _atom_site_type_symbol
 _atom_site_label
 _atom_site_symmetry_multiplicity
 _atom_site_fract_x
 _atom_site_fract_y
 _atom_site_fract_z
 _atom_site_occupancy
  Zn  Zn0  1  0.100020  0.100020  0.100020  1
  Zn  Zn1  1  0.800006  0.800006  0.800006  1
  Zn  Zn2  1  0.899996  0.899996  0.899996  1
  Zn  Zn3  1  0.366699  0.366699  0.366699  1
  Zn  Zn4  1  0.299992  0.299992  0.299992  1
  Zn  Zn5  1  0.200011  0.200011  0.200011  1
  Zn  Zn6  1  0.499990  0.499990  0.499990  1
  Zn  Zn7  1  0.000007  0.000007  0.000007  1
  Zn  Zn8  1  0.599993  0.599993  0.599993  1
  Zn  Zn9  1  0.733349  0.733349  0.733349  1
  S  S10  1  0.775036  0.775036  0.775036  1
  S  S11  1  0.275006  0.275006  0.275006  1
  S  S12  1  0.474998  0.474998  0.474998  1
  S  S13  1  0.574996  0.574996  0.574996  1
  S  S14  1  0.175010  0.175010  0.175010  1
  S  S15  1  0.075008  0.075008  0.075008  1
  S  S16  1  0.341714  0.341714  0.341714  1
  S  S17  1  0.708372  0.708372  0.708372  1
  S  S18  1  0.875008  0.875008  0.875008  1
  S  S19  1  0.974989  0.974989  0.974989  1
