# generated using pymatgen
data_Rb6U2Mo4O21
_symmetry_space_group_name_H-M   'P 1'
_cell_length_a   10.35353546
_cell_length_b   10.36330053
_cell_length_c   13.63263323
_cell_angle_alpha   76.86496751
_cell_angle_beta   76.35909622
_cell_angle_gamma   64.84506517
_symmetry_Int_Tables_number   1
_chemical_formula_structural   Rb6U2Mo4O21
_chemical_formula_sum   'Rb12 U4 Mo8 O42'
_cell_volume   1273.18643335
_cell_formula_units_Z   2
loop_
 _symmetry_equiv_pos_site_id
 _symmetry_equiv_pos_as_xyz
  1  'x, y, z'
loop_
 _atom_site_type_symbol
 _atom_site_label
 _atom_site_symmetry_multiplicity
 _atom_site_fract_x
 _atom_site_fract_y
 _atom_site_fract_z
 _atom_site_occupancy
  Rb  Rb0  1  0.589823  0.867416  0.276839  1
  Rb  Rb1  1  0.119389  0.335298  0.276901  1
  Rb  Rb2  1  0.299967  0.547116  0.561757  1
  Rb  Rb3  1  0.028819  0.277694  0.935325  1
  Rb  Rb4  1  0.971181  0.722306  0.064675  1
  Rb  Rb5  1  0.798707  0.053529  0.558067  1
  Rb  Rb6  1  0.880611  0.664702  0.723099  1
  Rb  Rb7  1  0.554622  0.273504  0.067497  1
  Rb  Rb8  1  0.201293  0.946471  0.441933  1
  Rb  Rb9  1  0.700033  0.452884  0.438243  1
  Rb  Rb10  1  0.445378  0.726496  0.932503  1
  Rb  Rb11  1  0.410177  0.132584  0.723161  1
  U  U12  1  0.297384  0.664735  0.231893  1
  U  U13  1  0.915147  0.055262  0.232208  1
  U  U14  1  0.702616  0.335265  0.768107  1
  U  U15  1  0.084853  0.944738  0.767792  1
  Mo  Mo16  1  0.739625  0.498295  0.127861  1
  Mo  Mo17  1  0.516949  0.762139  0.639576  1
  Mo  Mo18  1  0.260375  0.501705  0.872139  1
  Mo  Mo19  1  0.483051  0.237861  0.360424  1
  Mo  Mo20  1  0.951753  0.712100  0.404500  1
  Mo  Mo21  1  0.693871  0.956405  0.902822  1
  Mo  Mo22  1  0.048247  0.287900  0.595500  1
  Mo  Mo23  1  0.306129  0.043595  0.097178  1
  O  O24  1  0.387010  0.122859  0.394553  1
  O  O25  1  0.990671  0.245670  0.497478  1
  O  O26  1  0.077361  0.876058  0.655584  1
  O  O27  1  0.365591  0.669819  0.345134  1
  O  O28  1  0.655116  0.913843  0.037101  1
  O  O29  1  0.521880  0.273584  0.470156  1
  O  O30  1  0.377691  0.120079  0.164727  1
  O  O31  1  0.348488  0.848559  0.721874  1
  O  O32  1  0.156538  0.385792  0.537737  1
  O  O33  1  0.009329  0.754330  0.502522  1
  O  O34  1  0.212529  0.438075  0.779747  1
  O  O35  1  0.622309  0.879921  0.835273  1
  O  O36  1  0.544736  0.555747  0.140880  1
  O  O37  1  0.110500  0.864326  0.261170  1
  O  O38  1  0.922639  0.123942  0.344416  1
  O  O39  1  0.372713  0.849210  0.135975  1
  O  O40  1  0.820494  0.302741  0.144737  1
  O  O41  1  0.888822  0.879015  0.864916  1
  O  O42  1  0.619299  0.596026  0.715736  1
  O  O43  1  0.889500  0.135674  0.738830  1
  O  O44  1  0.478120  0.726416  0.529844  1
  O  O45  1  0.107093  0.997963  0.880500  1
  O  O46  1  0.189861  0.437266  0.995644  1
  O  O47  1  0.179506  0.697259  0.855263  1
  O  O48  1  0.627287  0.150790  0.864025  1
  O  O49  1  0.810139  0.562734  0.004356  1
  O  O50  1  0.344884  0.086157  0.962899  1
  O  O51  1  0.843462  0.614208  0.462263  1
  O  O52  1  0.102085  0.598654  0.319491  1
  O  O53  1  0.380701  0.403974  0.284264  1
  O  O54  1  0.248796  0.649677  0.114144  1
  O  O55  1  0.455264  0.444253  0.859120  1
  O  O56  1  0.833859  0.877046  0.334528  1
  O  O57  1  0.892907  0.002037  0.119500  1
  O  O58  1  0.166141  0.122954  0.665472  1
  O  O59  1  0.634409  0.330181  0.654866  1
  O  O60  1  0.612990  0.877141  0.605447  1
  O  O61  1  0.111178  0.120985  0.135084  1
  O  O62  1  0.787471  0.561925  0.220253  1
  O  O63  1  0.751204  0.350323  0.885856  1
  O  O64  1  0.651512  0.151441  0.278126  1
  O  O65  1  0.897915  0.401346  0.680509  1
