# generated using pymatgen
data_Ba23U8O48
_symmetry_space_group_name_H-M   'P 1'
_cell_length_a   13.05845154
_cell_length_b   13.05845154
_cell_length_c   13.05845154
_cell_angle_alpha   60.00000000
_cell_angle_beta   60.00000000
_cell_angle_gamma   60.00000000
_symmetry_Int_Tables_number   1
_chemical_formula_structural   Ba23U8O48
_chemical_formula_sum   'Ba23 U8 O48'
_cell_volume   1574.56301987
_cell_formula_units_Z   1
loop_
 _symmetry_equiv_pos_site_id
 _symmetry_equiv_pos_as_xyz
  1  'x, y, z'
loop_
 _atom_site_type_symbol
 _atom_site_label
 _atom_site_symmetry_multiplicity
 _atom_site_fract_x
 _atom_site_fract_y
 _atom_site_fract_z
 _atom_site_occupancy
  Ba  Ba0  1  0.500000  0.500000  1.000000  1
  Ba  Ba1  1  0.367592  0.367592  0.367592  1
  Ba  Ba2  1  0.632408  0.632408  0.102776  1
  Ba  Ba3  1  0.500000  0.500000  0.500000  1
  Ba  Ba4  1  0.000000  0.500000  0.500000  1
  Ba  Ba5  1  0.500000  0.000000  0.500000  1
  Ba  Ba6  1  0.000000  0.500000  0.000000  1
  Ba  Ba7  1  0.632408  0.102776  0.632408  1
  Ba  Ba8  1  0.897224  0.367592  0.367592  1
  Ba  Ba9  1  0.681236  0.106255  0.106255  1
  Ba  Ba10  1  0.893745  0.318764  0.893745  1
  Ba  Ba11  1  0.106255  0.106255  0.681236  1
  Ba  Ba12  1  0.893745  0.893745  0.893745  1
  Ba  Ba13  1  0.106255  0.106255  0.106255  1
  Ba  Ba14  1  0.893745  0.893745  0.318764  1
  Ba  Ba15  1  1.000000  1.000000  0.500000  1
  Ba  Ba16  1  0.106255  0.681236  0.106255  1
  Ba  Ba17  1  0.318764  0.893745  0.893745  1
  Ba  Ba18  1  0.102776  0.632408  0.632408  1
  Ba  Ba19  1  0.367592  0.897224  0.367592  1
  Ba  Ba20  1  0.500000  0.000000  1.000000  1
  Ba  Ba21  1  0.367592  0.367592  0.897224  1
  Ba  Ba22  1  0.632408  0.632408  0.632408  1
  U  U23  1  0.750000  0.750000  0.750000  1
  U  U24  1  0.749727  0.250273  0.749727  1
  U  U25  1  0.749727  0.250273  0.250273  1
  U  U26  1  0.749727  0.749727  0.250273  1
  U  U27  1  0.250273  0.250273  0.749727  1
  U  U28  1  0.250000  0.250000  0.250000  1
  U  U29  1  0.250273  0.749727  0.749727  1
  U  U30  1  0.250273  0.749727  0.250273  1
  O  O31  1  0.133169  0.866831  0.866831  1
  O  O32  1  0.134725  0.640652  0.865275  1
  O  O33  1  0.359348  0.865275  0.640652  1
  O  O34  1  0.640652  0.865275  0.359348  1
  O  O35  1  0.134725  0.359348  0.865275  1
  O  O36  1  0.361138  0.638862  0.638862  1
  O  O37  1  0.359348  0.640652  0.865275  1
  O  O38  1  0.133169  0.133169  0.866831  1
  O  O39  1  0.638862  0.638862  0.361138  1
  O  O40  1  0.866831  0.866831  0.133169  1
  O  O41  1  0.361138  0.361138  0.638862  1
  O  O42  1  0.638862  0.361138  0.361138  1
  O  O43  1  0.359348  0.134725  0.640652  1
  O  O44  1  0.865275  0.640652  0.134725  1
  O  O45  1  0.865275  0.640652  0.359348  1
  O  O46  1  0.359348  0.134725  0.865275  1
  O  O47  1  0.638862  0.361138  0.638862  1
  O  O48  1  0.640652  0.359348  0.865275  1
  O  O49  1  0.640652  0.134725  0.359348  1
  O  O50  1  0.865275  0.359348  0.134725  1
  O  O51  1  0.640652  0.134725  0.865275  1
  O  O52  1  0.865275  0.359348  0.640652  1
  O  O53  1  0.866831  0.133169  0.133169  1
  O  O54  1  0.865275  0.134725  0.359348  1
  O  O55  1  0.137697  0.362303  0.137697  1
  O  O56  1  0.637697  0.862303  0.637697  1
  O  O57  1  0.865275  0.134725  0.640652  1
  O  O58  1  0.137697  0.362303  0.362303  1
  O  O59  1  0.637697  0.862303  0.862303  1
  O  O60  1  0.866831  0.133169  0.866831  1
  O  O61  1  0.137697  0.137697  0.362303  1
  O  O62  1  0.637697  0.637697  0.862303  1
  O  O63  1  0.362303  0.362303  0.137697  1
  O  O64  1  0.862303  0.862303  0.637697  1
  O  O65  1  0.133169  0.866831  0.133169  1
  O  O66  1  0.862303  0.637697  0.637697  1
  O  O67  1  0.134725  0.865275  0.359348  1
  O  O68  1  0.362303  0.137697  0.137697  1
  O  O69  1  0.862303  0.637697  0.862303  1
  O  O70  1  0.134725  0.865275  0.640652  1
  O  O71  1  0.362303  0.137697  0.362303  1
  O  O72  1  0.134725  0.640652  0.359348  1
  O  O73  1  0.359348  0.865275  0.134725  1
  O  O74  1  0.359348  0.640652  0.134725  1
  O  O75  1  0.134725  0.359348  0.640652  1
  O  O76  1  0.640652  0.865275  0.134725  1
  O  O77  1  0.361138  0.638862  0.361138  1
  O  O78  1  0.640652  0.359348  0.134725  1
