# generated using pymatgen
data_NbBr2O
_symmetry_space_group_name_H-M   'P 1'
_cell_length_a   7.62410509
_cell_length_b   7.62410509
_cell_length_c   7.09595839
_cell_angle_alpha   76.00974946
_cell_angle_beta   103.99025054
_cell_angle_gamma   149.87026240
_symmetry_Int_Tables_number   1
_chemical_formula_structural   NbBr2O
_chemical_formula_sum   'Nb2 Br4 O2'
_cell_volume   200.44786602
_cell_formula_units_Z   2
loop_
 _symmetry_equiv_pos_site_id
 _symmetry_equiv_pos_as_xyz
  1  'x, y, z'
loop_
 _atom_site_type_symbol
 _atom_site_label
 _atom_site_symmetry_multiplicity
 _atom_site_fract_x
 _atom_site_fract_y
 _atom_site_fract_z
 _atom_site_occupancy
  Nb  Nb0  1  0.996494  0.996753  0.214835  1
  Nb  Nb1  1  0.996753  0.996494  0.785165  1
  Br  Br2  1  0.820317  0.070341  0.435494  1
  Br  Br3  1  0.804848  0.100533  0.922592  1
  Br  Br4  1  0.100533  0.804848  0.077408  1
  Br  Br5  1  0.070341  0.820317  0.564506  1
  O  O6  1  0.458262  0.458766  0.220919  1
  O  O7  1  0.458766  0.458262  0.779081  1
