# generated using pymatgen
data_Cr2HgO7
_symmetry_space_group_name_H-M   'P 1'
_cell_length_a   7.61779325
_cell_length_b   7.61779325
_cell_length_c   9.66456015
_cell_angle_alpha   90.00000000
_cell_angle_beta   90.00000000
_cell_angle_gamma   120.00000000
_symmetry_Int_Tables_number   1
_chemical_formula_structural   Cr2HgO7
_chemical_formula_sum   'Cr6 Hg3 O21'
_cell_volume   485.70333813
_cell_formula_units_Z   3
loop_
 _symmetry_equiv_pos_site_id
 _symmetry_equiv_pos_as_xyz
  1  'x, y, z'
loop_
 _atom_site_type_symbol
 _atom_site_label
 _atom_site_symmetry_multiplicity
 _atom_site_fract_x
 _atom_site_fract_y
 _atom_site_fract_z
 _atom_site_occupancy
  Cr  Cr0  1  0.420365  0.075579  0.991014  1
  Cr  Cr1  1  0.983945  0.238292  0.332297  1
  Cr  Cr2  1  0.254346  0.016055  0.665631  1
  Cr  Cr3  1  0.655215  0.579635  0.324348  1
  Cr  Cr4  1  0.761708  0.745654  0.998964  1
  Cr  Cr5  1  0.924421  0.344785  0.657681  1
  Hg  Hg6  1  0.597470  0.686393  0.663168  1
  Hg  Hg7  1  0.088923  0.402530  0.996501  1
  Hg  Hg8  1  0.313607  0.911077  0.329834  1
  O  O9  1  0.875659  0.619121  0.973672  1
  O  O10  1  0.104329  0.418438  0.785160  1
  O  O11  1  0.016413  0.944761  0.661139  1
  O  O12  1  0.380879  0.256538  0.640339  1
  O  O13  1  0.043703  0.357486  0.496863  1
  O  O14  1  0.378092  0.259574  0.016237  1
  O  O15  1  0.740426  0.118518  0.682904  1
  O  O16  1  0.313783  0.956297  0.830196  1
  O  O17  1  0.314109  0.895671  0.118494  1
  O  O18  1  0.580762  0.690729  0.874385  1
  O  O19  1  0.928348  0.983587  0.994472  1
  O  O20  1  0.642514  0.686217  0.163529  1
  O  O21  1  0.055239  0.071652  0.327806  1
  O  O22  1  0.504048  0.338256  0.320931  1
  O  O23  1  0.309271  0.890033  0.541052  1
  O  O24  1  0.109967  0.419238  0.207718  1
  O  O25  1  0.881482  0.621908  0.349570  1
  O  O26  1  0.581562  0.685891  0.451827  1
  O  O27  1  0.834208  0.495952  0.654265  1
  O  O28  1  0.661744  0.165792  0.987598  1
  O  O29  1  0.743462  0.124341  0.307006  1
