# generated using pymatgen
data_YbCu(WO4)2
_symmetry_space_group_name_H-M   'P 1'
_cell_length_a   5.06220712
_cell_length_b   6.03456724
_cell_length_c   10.83194071
_cell_angle_alpha   90.00000000
_cell_angle_beta   114.49256856
_cell_angle_gamma   90.00000000
_symmetry_Int_Tables_number   1
_chemical_formula_structural   YbCu(WO4)2
_chemical_formula_sum   'Yb2 Cu2 W4 O16'
_cell_volume   301.12089305
_cell_formula_units_Z   2
loop_
 _symmetry_equiv_pos_site_id
 _symmetry_equiv_pos_as_xyz
  1  'x, y, z'
loop_
 _atom_site_type_symbol
 _atom_site_label
 _atom_site_symmetry_multiplicity
 _atom_site_fract_x
 _atom_site_fract_y
 _atom_site_fract_z
 _atom_site_occupancy
  Yb  Yb0  1  0.000000  0.344861  0.750000  1
  Yb  Yb1  1  0.000000  0.655139  0.250000  1
  Cu  Cu2  1  0.500000  0.716835  0.750000  1
  Cu  Cu3  1  0.500000  0.283165  0.250000  1
  W  W4  1  0.749324  0.167444  0.004640  1
  W  W5  1  0.250676  0.832556  0.995360  1
  W  W6  1  0.250676  0.167444  0.495360  1
  W  W7  1  0.749324  0.832556  0.504640  1
  O  O8  1  0.717027  0.338983  0.141254  1
  O  O9  1  0.282973  0.338983  0.358746  1
  O  O10  1  0.282973  0.661017  0.858746  1
  O  O11  1  0.717027  0.661017  0.641254  1
  O  O12  1  0.165133  0.908979  0.606574  1
  O  O13  1  0.834867  0.908979  0.893426  1
  O  O14  1  0.834867  0.091021  0.393426  1
  O  O15  1  0.165133  0.091021  0.106574  1
  O  O16  1  0.224927  0.620355  0.107590  1
  O  O17  1  0.775073  0.620355  0.392410  1
  O  O18  1  0.775073  0.379645  0.892410  1
  O  O19  1  0.224927  0.379645  0.607590  1
  O  O20  1  0.657156  0.112099  0.601328  1
  O  O21  1  0.342844  0.112099  0.898672  1
  O  O22  1  0.342844  0.887901  0.398672  1
  O  O23  1  0.657156  0.887901  0.101328  1
