# generated using pymatgen
data_Ba3Cu2(ClO2)2
_symmetry_space_group_name_H-M   'P 1'
_cell_length_a   6.05308168
_cell_length_b   6.65363094
_cell_length_c   10.73416757
_cell_angle_alpha   90.00000000
_cell_angle_beta   90.00000000
_cell_angle_gamma   90.00000000
_symmetry_Int_Tables_number   1
_chemical_formula_structural   Ba3Cu2(ClO2)2
_chemical_formula_sum   'Ba6 Cu4 Cl4 O8'
_cell_volume   432.31829348
_cell_formula_units_Z   2
loop_
 _symmetry_equiv_pos_site_id
 _symmetry_equiv_pos_as_xyz
  1  'x, y, z'
loop_
 _atom_site_type_symbol
 _atom_site_label
 _atom_site_symmetry_multiplicity
 _atom_site_fract_x
 _atom_site_fract_y
 _atom_site_fract_z
 _atom_site_occupancy
  Ba  Ba0  1  0.500000  0.750000  0.446924  1
  Ba  Ba1  1  0.000000  0.750000  0.211381  1
  Ba  Ba2  1  0.000000  0.250000  0.788619  1
  Ba  Ba3  1  0.500000  0.250000  0.553076  1
  Ba  Ba4  1  0.500000  0.250000  0.203395  1
  Ba  Ba5  1  0.500000  0.750000  0.796605  1
  Cu  Cu6  1  0.000000  0.250000  0.331779  1
  Cu  Cu7  1  0.000000  0.500000  0.500000  1
  Cu  Cu8  1  0.000000  0.750000  0.668221  1
  Cu  Cu9  1  0.000000  0.000000  0.500000  1
  Cl  Cl10  1  0.000000  0.750000  0.913564  1
  Cl  Cl11  1  0.500000  0.250000  0.884349  1
  Cl  Cl12  1  0.500000  0.750000  0.115651  1
  Cl  Cl13  1  0.000000  0.250000  0.086436  1
  O  O14  1  0.222016  0.469587  0.361041  1
  O  O15  1  0.222016  0.030413  0.361041  1
  O  O16  1  0.777984  0.969587  0.638959  1
  O  O17  1  0.222016  0.969587  0.638959  1
  O  O18  1  0.777984  0.469587  0.361041  1
  O  O19  1  0.222016  0.530413  0.638959  1
  O  O20  1  0.777984  0.030413  0.361041  1
  O  O21  1  0.777984  0.530413  0.638959  1
