# generated using pymatgen
data_V2Cd4(TeO5)3
_symmetry_space_group_name_H-M   'P 1'
_cell_length_a   5.47985495
_cell_length_b   16.37836946
_cell_length_c   16.68679695
_cell_angle_alpha   90.00000000
_cell_angle_beta   90.00000000
_cell_angle_gamma   90.00000000
_symmetry_Int_Tables_number   1
_chemical_formula_structural   V2Cd4(TeO5)3
_chemical_formula_sum   'V8 Cd16 Te12 O60'
_cell_volume   1497.65819749
_cell_formula_units_Z   4
loop_
 _symmetry_equiv_pos_site_id
 _symmetry_equiv_pos_as_xyz
  1  'x, y, z'
loop_
 _atom_site_type_symbol
 _atom_site_label
 _atom_site_symmetry_multiplicity
 _atom_site_fract_x
 _atom_site_fract_y
 _atom_site_fract_z
 _atom_site_occupancy
  V  V0  1  0.214749  0.916942  0.431019  1
  V  V1  1  0.691718  0.750886  0.061279  1
  V  V2  1  0.808282  0.249114  0.561279  1
  V  V3  1  0.191718  0.749114  0.938721  1
  V  V4  1  0.308282  0.250886  0.438721  1
  V  V5  1  0.714749  0.583058  0.568981  1
  V  V6  1  0.785251  0.416942  0.068981  1
  V  V7  1  0.285251  0.083058  0.931019  1
  Cd  Cd8  1  0.752744  0.413286  0.762700  1
  Cd  Cd9  1  0.738924  0.912878  0.584570  1
  Cd  Cd10  1  0.825514  0.085444  0.729848  1
  Cd  Cd11  1  0.674486  0.914556  0.229848  1
  Cd  Cd12  1  0.684536  0.746152  0.734833  1
  Cd  Cd13  1  0.325514  0.414556  0.270152  1
  Cd  Cd14  1  0.315464  0.246152  0.765167  1
  Cd  Cd15  1  0.261076  0.412878  0.915430  1
  Cd  Cd16  1  0.815464  0.253848  0.234833  1
  Cd  Cd17  1  0.252744  0.086714  0.237300  1
  Cd  Cd18  1  0.238924  0.587122  0.415430  1
  Cd  Cd19  1  0.747256  0.586714  0.262700  1
  Cd  Cd20  1  0.174486  0.585444  0.770152  1
  Cd  Cd21  1  0.247256  0.913286  0.737300  1
  Cd  Cd22  1  0.761076  0.087122  0.084570  1
  Cd  Cd23  1  0.184536  0.753848  0.265167  1
  Te  Te24  1  0.270817  0.425458  0.618961  1
  Te  Te25  1  0.202851  0.927381  0.106070  1
  Te  Te26  1  0.796601  0.249775  0.887737  1
  Te  Te27  1  0.797149  0.427381  0.393930  1
  Te  Te28  1  0.770817  0.074542  0.381039  1
  Te  Te29  1  0.702851  0.572619  0.893930  1
  Te  Te30  1  0.296601  0.250225  0.112263  1
  Te  Te31  1  0.229183  0.574542  0.118961  1
  Te  Te32  1  0.703399  0.750225  0.387737  1
  Te  Te33  1  0.729183  0.925458  0.881039  1
  Te  Te34  1  0.297149  0.072619  0.606070  1
  Te  Te35  1  0.203399  0.749775  0.612263  1
  O  O36  1  0.313732  0.854363  0.186810  1
  O  O37  1  0.539861  0.505794  0.626529  1
  O  O38  1  0.435590  0.177873  0.380887  1
  O  O39  1  0.438787  0.522114  0.192414  1
  O  O40  1  0.854693  0.655088  0.628459  1
  O  O41  1  0.534467  0.325265  0.866372  1
  O  O42  1  0.509637  0.180935  0.174935  1
  O  O43  1  0.940391  0.143890  0.309973  1
  O  O44  1  0.645307  0.344912  0.128459  1
  O  O45  1  0.935590  0.322127  0.619113  1
  O  O46  1  0.034467  0.174735  0.133628  1
  O  O47  1  0.440391  0.356110  0.690027  1
  O  O48  1  0.490363  0.680935  0.325065  1
  O  O49  1  0.806872  0.829248  0.114424  1
  O  O50  1  0.487372  0.507760  0.828886  1
  O  O51  1  0.009637  0.319065  0.825065  1
  O  O52  1  0.354693  0.844912  0.371541  1
  O  O53  1  0.948333  0.709306  0.003112  1
  O  O54  1  0.529965  0.498045  0.370103  1
  O  O55  1  0.686268  0.354363  0.313190  1
  O  O56  1  0.994623  0.366278  0.009545  1
  O  O57  1  0.938787  0.977886  0.807586  1
  O  O58  1  0.448333  0.790694  0.996888  1
  O  O59  1  0.965533  0.674735  0.366372  1
  O  O60  1  0.061213  0.477886  0.692414  1
  O  O61  1  0.505377  0.633722  0.509545  1
  O  O62  1  0.064155  0.038502  0.991376  1
  O  O63  1  0.470035  0.998045  0.129897  1
  O  O64  1  0.005377  0.866278  0.490455  1
  O  O65  1  0.813732  0.645637  0.813190  1
  O  O66  1  0.327775  0.684495  0.697158  1
  O  O67  1  0.935845  0.538502  0.508624  1
  O  O68  1  0.145307  0.155088  0.871541  1
  O  O69  1  0.435845  0.961498  0.491376  1
  O  O70  1  0.029965  0.001955  0.629897  1
  O  O71  1  0.460139  0.005794  0.873471  1
  O  O72  1  0.193128  0.329248  0.385576  1
  O  O73  1  0.039861  0.994206  0.373471  1
  O  O74  1  0.672225  0.184495  0.802842  1
  O  O75  1  0.059609  0.643890  0.190027  1
  O  O76  1  0.551667  0.290694  0.503112  1
  O  O77  1  0.970035  0.501955  0.870103  1
  O  O78  1  0.960139  0.494206  0.126529  1
  O  O79  1  0.827775  0.815505  0.302842  1
  O  O80  1  0.051667  0.209306  0.496888  1
  O  O81  1  0.564410  0.677873  0.119113  1
  O  O82  1  0.987372  0.992240  0.171114  1
  O  O83  1  0.561213  0.022114  0.307586  1
  O  O84  1  0.012628  0.492240  0.328886  1
  O  O85  1  0.494623  0.133722  0.990455  1
  O  O86  1  0.990363  0.819065  0.674935  1
  O  O87  1  0.172225  0.315505  0.197158  1
  O  O88  1  0.693128  0.170752  0.614424  1
  O  O89  1  0.064410  0.822127  0.880887  1
  O  O90  1  0.186268  0.145637  0.686810  1
  O  O91  1  0.512628  0.007760  0.671114  1
  O  O92  1  0.564155  0.461498  0.008624  1
  O  O93  1  0.465533  0.825265  0.633628  1
  O  O94  1  0.559609  0.856110  0.809973  1
  O  O95  1  0.306872  0.670752  0.885576  1
