# generated using pymatgen
data_Na5P3O10
_symmetry_space_group_name_H-M   'P 1'
_cell_length_a   5.61432473
_cell_length_b   5.61432473
_cell_length_c   18.72673472
_cell_angle_alpha   83.99023700
_cell_angle_beta   96.00976300
_cell_angle_gamma   122.41540488
_symmetry_Int_Tables_number   1
_chemical_formula_structural   Na5P3O10
_chemical_formula_sum   'Na10 P6 O20'
_cell_volume   494.73494036
_cell_formula_units_Z   2
loop_
 _symmetry_equiv_pos_site_id
 _symmetry_equiv_pos_as_xyz
  1  'x, y, z'
loop_
 _atom_site_type_symbol
 _atom_site_label
 _atom_site_symmetry_multiplicity
 _atom_site_fract_x
 _atom_site_fract_y
 _atom_site_fract_z
 _atom_site_occupancy
  Na  Na0  1  0.689907  0.840925  0.932757  1
  Na  Na1  1  0.964077  0.394341  0.176261  1
  Na  Na2  1  0.394341  0.964077  0.323739  1
  Na  Na3  1  0.840925  0.689907  0.567243  1
  Na  Na4  1  0.310093  0.159075  0.067243  1
  Na  Na5  1  0.605659  0.035923  0.676261  1
  Na  Na6  1  0.000000  0.500000  0.000000  1
  Na  Na7  1  0.035923  0.605659  0.823739  1
  Na  Na8  1  0.159075  0.310093  0.432757  1
  Na  Na9  1  0.500000  1.000000  0.500000  1
  P  P10  1  0.189075  0.355544  0.599733  1
  P  P11  1  0.644456  0.810925  0.099733  1
  P  P12  1  0.401086  0.401086  0.750000  1
  P  P13  1  0.598914  0.598914  0.250000  1
  P  P14  1  0.355544  0.189075  0.900267  1
  P  P15  1  0.810925  0.644456  0.400267  1
  O  O16  1  0.570521  0.334052  0.403361  1
  O  O17  1  0.843477  0.755983  0.313016  1
  O  O18  1  0.421116  0.667850  0.767670  1
  O  O19  1  0.836175  0.747409  0.064010  1
  O  O20  1  0.103104  0.694613  0.422718  1
  O  O21  1  0.332150  0.578884  0.267670  1
  O  O22  1  0.896896  0.305387  0.577282  1
  O  O23  1  0.305387  0.896896  0.922718  1
  O  O24  1  0.334052  0.570521  0.096639  1
  O  O25  1  0.694613  0.103104  0.077282  1
  O  O26  1  0.747409  0.836175  0.435990  1
  O  O27  1  0.429479  0.665948  0.596639  1
  O  O28  1  0.665948  0.429479  0.903361  1
  O  O29  1  0.667850  0.421116  0.732330  1
  O  O30  1  0.252591  0.163825  0.564010  1
  O  O31  1  0.163825  0.252591  0.935990  1
  O  O32  1  0.156523  0.244017  0.686984  1
  O  O33  1  0.578884  0.332150  0.232330  1
  O  O34  1  0.244017  0.156523  0.813016  1
  O  O35  1  0.755983  0.843477  0.186984  1
