# generated using pymatgen
data_Tl3PbBr5
_symmetry_space_group_name_H-M   'P 1'
_cell_length_a   8.99785753
_cell_length_b   8.99785753
_cell_length_c   15.67350101
_cell_angle_alpha   90.00000000
_cell_angle_beta   90.00000000
_cell_angle_gamma   90.00000000
_symmetry_Int_Tables_number   1
_chemical_formula_structural   Tl3PbBr5
_chemical_formula_sum   'Tl12 Pb4 Br20'
_cell_volume   1268.94921365
_cell_formula_units_Z   4
loop_
 _symmetry_equiv_pos_site_id
 _symmetry_equiv_pos_as_xyz
  1  'x, y, z'
loop_
 _atom_site_type_symbol
 _atom_site_label
 _atom_site_symmetry_multiplicity
 _atom_site_fract_x
 _atom_site_fract_y
 _atom_site_fract_z
 _atom_site_occupancy
  Tl  Tl0  1  0.992820  0.812111  0.803805  1
  Tl  Tl1  1  0.882089  0.682397  0.377517  1
  Tl  Tl2  1  0.187889  0.992820  0.053805  1
  Tl  Tl3  1  0.174287  0.362533  0.567528  1
  Tl  Tl4  1  0.682397  0.117911  0.127517  1
  Tl  Tl5  1  0.362533  0.825713  0.317528  1
  Tl  Tl6  1  0.117911  0.317603  0.877517  1
  Tl  Tl7  1  0.007180  0.187889  0.303805  1
  Tl  Tl8  1  0.637467  0.174287  0.817528  1
  Tl  Tl9  1  0.825713  0.637467  0.067528  1
  Tl  Tl10  1  0.317603  0.882089  0.627517  1
  Tl  Tl11  1  0.812111  0.007180  0.553805  1
  Pb  Pb12  1  0.695577  0.515335  0.644497  1
  Pb  Pb13  1  0.484665  0.695577  0.894497  1
  Pb  Pb14  1  0.515335  0.304423  0.394497  1
  Pb  Pb15  1  0.304423  0.484665  0.144497  1
  Br  Br16  1  0.360632  0.517482  0.756657  1
  Br  Br17  1  0.494358  0.797183  0.104351  1
  Br  Br18  1  0.202817  0.494358  0.354351  1
  Br  Br19  1  0.670753  0.019201  0.350817  1
  Br  Br20  1  0.646816  0.822822  0.725297  1
  Br  Br21  1  0.505642  0.202817  0.604351  1
  Br  Br22  1  0.639368  0.482518  0.256657  1
  Br  Br23  1  0.482518  0.360632  0.006657  1
  Br  Br24  1  0.019201  0.329247  0.100817  1
  Br  Br25  1  0.975010  0.171747  0.706531  1
  Br  Br26  1  0.797183  0.505642  0.854351  1
  Br  Br27  1  0.828253  0.975010  0.956531  1
  Br  Br28  1  0.171747  0.024990  0.456531  1
  Br  Br29  1  0.177178  0.646816  0.975297  1
  Br  Br30  1  0.329247  0.980799  0.850817  1
  Br  Br31  1  0.822822  0.353184  0.475297  1
  Br  Br32  1  0.980799  0.670753  0.600817  1
  Br  Br33  1  0.517482  0.639368  0.506657  1
  Br  Br34  1  0.353184  0.177178  0.225297  1
  Br  Br35  1  0.024990  0.828253  0.206531  1
