# generated using pymatgen
data_Ca(CuSn)2
_symmetry_space_group_name_H-M   'P 1'
_cell_length_a   5.89567977
_cell_length_b   5.89567977
_cell_length_c   4.87702701
_cell_angle_alpha   73.43397693
_cell_angle_beta   106.56602307
_cell_angle_gamma   137.74094873
_symmetry_Int_Tables_number   1
_chemical_formula_structural   Ca(CuSn)2
_chemical_formula_sum   'Ca1 Cu2 Sn2'
_cell_volume   108.54360999
_cell_formula_units_Z   1
loop_
 _symmetry_equiv_pos_site_id
 _symmetry_equiv_pos_as_xyz
  1  'x, y, z'
loop_
 _atom_site_type_symbol
 _atom_site_label
 _atom_site_symmetry_multiplicity
 _atom_site_fract_x
 _atom_site_fract_y
 _atom_site_fract_z
 _atom_site_occupancy
  Ca  Ca0  1  0.000000  0.000000  0.000000  1
  Cu  Cu1  1  0.736745  0.263255  0.133274  1
  Cu  Cu2  1  0.263255  0.736745  0.866726  1
  Sn  Sn3  1  0.356985  0.643015  0.431824  1
  Sn  Sn4  1  0.643015  0.356985  0.568176  1
