# generated using pymatgen
data_Ba2PrIrO6
_symmetry_space_group_name_H-M   'P 1'
_cell_length_a   6.08855768
_cell_length_b   6.08855768
_cell_length_c   8.65586507
_cell_angle_alpha   90.00000000
_cell_angle_beta   90.00000000
_cell_angle_gamma   90.00000000
_symmetry_Int_Tables_number   1
_chemical_formula_structural   Ba2PrIrO6
_chemical_formula_sum   'Ba4 Pr2 Ir2 O12'
_cell_volume   320.87754577
_cell_formula_units_Z   2
loop_
 _symmetry_equiv_pos_site_id
 _symmetry_equiv_pos_as_xyz
  1  'x, y, z'
loop_
 _atom_site_type_symbol
 _atom_site_label
 _atom_site_symmetry_multiplicity
 _atom_site_fract_x
 _atom_site_fract_y
 _atom_site_fract_z
 _atom_site_occupancy
  Ba  Ba0  1  0.500000  0.000000  0.250000  1
  Ba  Ba1  1  0.500000  0.000000  0.750000  1
  Ba  Ba2  1  0.000000  0.500000  0.750000  1
  Ba  Ba3  1  0.000000  0.500000  0.250000  1
  Pr  Pr4  1  0.500000  0.500000  0.000000  1
  Pr  Pr5  1  0.000000  0.000000  0.500000  1
  Ir  Ir6  1  0.500000  0.500000  0.500000  1
  Ir  Ir7  1  0.000000  0.000000  0.000000  1
  O  O8  1  0.791311  0.250598  0.000000  1
  O  O9  1  0.500000  0.500000  0.269829  1
  O  O10  1  0.000000  0.000000  0.769829  1
  O  O11  1  0.208689  0.749402  0.000000  1
  O  O12  1  0.708689  0.750598  0.500000  1
  O  O13  1  0.291311  0.249402  0.500000  1
  O  O14  1  0.000000  0.000000  0.230171  1
  O  O15  1  0.500000  0.500000  0.730171  1
  O  O16  1  0.249402  0.708689  0.500000  1
  O  O17  1  0.750598  0.291311  0.500000  1
  O  O18  1  0.749402  0.791311  0.000000  1
  O  O19  1  0.250598  0.208689  0.000000  1
