# generated using pymatgen
data_AlHg2SbCl4
_symmetry_space_group_name_H-M   'P 1'
_cell_length_a   8.99104607
_cell_length_b   12.44215090
_cell_length_c   18.19549724
_cell_angle_alpha   90.00000000
_cell_angle_beta   90.00000000
_cell_angle_gamma   90.00000000
_symmetry_Int_Tables_number   1
_chemical_formula_structural   AlHg2SbCl4
_chemical_formula_sum   'Al8 Hg16 Sb8 Cl32'
_cell_volume   2035.49301098
_cell_formula_units_Z   8
loop_
 _symmetry_equiv_pos_site_id
 _symmetry_equiv_pos_as_xyz
  1  'x, y, z'
loop_
 _atom_site_type_symbol
 _atom_site_label
 _atom_site_symmetry_multiplicity
 _atom_site_fract_x
 _atom_site_fract_y
 _atom_site_fract_z
 _atom_site_occupancy
  Al  Al0  1  0.084346  0.608429  0.374040  1
  Al  Al1  1  0.415654  0.891571  0.874040  1
  Al  Al2  1  0.915654  0.608429  0.874040  1
  Al  Al3  1  0.415654  0.108429  0.625960  1
  Al  Al4  1  0.584346  0.891571  0.374040  1
  Al  Al5  1  0.915654  0.391571  0.625960  1
  Al  Al6  1  0.084346  0.391571  0.125960  1
  Al  Al7  1  0.584346  0.108429  0.125960  1
  Hg  Hg8  1  0.538092  0.500000  0.250000  1
  Hg  Hg9  1  0.961908  0.000000  0.750000  1
  Hg  Hg10  1  0.823949  0.262780  0.377629  1
  Hg  Hg11  1  0.461908  0.500000  0.750000  1
  Hg  Hg12  1  0.176051  0.737220  0.622371  1
  Hg  Hg13  1  0.176051  0.262780  0.877629  1
  Hg  Hg14  1  0.323949  0.237220  0.377629  1
  Hg  Hg15  1  0.823949  0.737220  0.122371  1
  Hg  Hg16  1  0.500000  0.500000  0.000000  1
  Hg  Hg17  1  0.038092  0.000000  0.250000  1
  Hg  Hg18  1  0.676051  0.237220  0.877629  1
  Hg  Hg19  1  0.323949  0.762780  0.122371  1
  Hg  Hg20  1  0.000000  0.000000  0.000000  1
  Hg  Hg21  1  0.676051  0.762780  0.622371  1
  Hg  Hg22  1  0.500000  0.500000  0.500000  1
  Hg  Hg23  1  0.000000  0.000000  0.500000  1
  Sb  Sb24  1  0.939108  0.122060  0.876176  1
  Sb  Sb25  1  0.939108  0.877940  0.623824  1
  Sb  Sb26  1  0.560892  0.622060  0.123824  1
  Sb  Sb27  1  0.560892  0.377940  0.376176  1
  Sb  Sb28  1  0.439108  0.622060  0.623824  1
  Sb  Sb29  1  0.060892  0.877940  0.123824  1
  Sb  Sb30  1  0.060892  0.122060  0.376176  1
  Sb  Sb31  1  0.439108  0.377940  0.876176  1
  Cl  Cl32  1  0.136240  0.419266  0.665709  1
  Cl  Cl33  1  0.340016  0.967349  0.566518  1
  Cl  Cl34  1  0.735015  0.858674  0.284094  1
  Cl  Cl35  1  0.840016  0.467349  0.933482  1
  Cl  Cl36  1  0.159984  0.532651  0.066518  1
  Cl  Cl37  1  0.840016  0.532651  0.566518  1
  Cl  Cl38  1  0.659984  0.967349  0.066518  1
  Cl  Cl39  1  0.264985  0.858674  0.784094  1
  Cl  Cl40  1  0.735015  0.141326  0.215906  1
  Cl  Cl41  1  0.589131  0.755010  0.447724  1
  Cl  Cl42  1  0.264985  0.141326  0.715906  1
  Cl  Cl43  1  0.910869  0.255010  0.552276  1
  Cl  Cl44  1  0.589131  0.244990  0.052276  1
  Cl  Cl45  1  0.636240  0.919266  0.834291  1
  Cl  Cl46  1  0.136240  0.580734  0.834291  1
  Cl  Cl47  1  0.089131  0.744990  0.447724  1
  Cl  Cl48  1  0.410869  0.755010  0.947724  1
  Cl  Cl49  1  0.340016  0.032651  0.933482  1
  Cl  Cl50  1  0.764985  0.641326  0.784094  1
  Cl  Cl51  1  0.363760  0.919266  0.334291  1
  Cl  Cl52  1  0.410869  0.244990  0.552276  1
  Cl  Cl53  1  0.910869  0.744990  0.947724  1
  Cl  Cl54  1  0.636240  0.080734  0.665709  1
  Cl  Cl55  1  0.159984  0.467349  0.433482  1
  Cl  Cl56  1  0.863760  0.419266  0.165709  1
  Cl  Cl57  1  0.235015  0.358674  0.215906  1
  Cl  Cl58  1  0.235015  0.641326  0.284094  1
  Cl  Cl59  1  0.659984  0.032651  0.433482  1
  Cl  Cl60  1  0.764985  0.358674  0.715906  1
  Cl  Cl61  1  0.089131  0.255010  0.052276  1
  Cl  Cl62  1  0.363760  0.080734  0.165709  1
  Cl  Cl63  1  0.863760  0.580734  0.334291  1
