# generated using pymatgen
data_Ca3V2O8
_symmetry_space_group_name_H-M   'P 1'
_cell_length_a   7.10018846
_cell_length_b   7.10018846
_cell_length_c   7.10018846
_cell_angle_alpha   46.78191085
_cell_angle_beta   46.78191085
_cell_angle_gamma   46.78191085
_symmetry_Int_Tables_number   1
_chemical_formula_structural   Ca3V2O8
_chemical_formula_sum   'Ca3 V2 O8'
_cell_volume   173.68430361
_cell_formula_units_Z   1
loop_
 _symmetry_equiv_pos_site_id
 _symmetry_equiv_pos_as_xyz
  1  'x, y, z'
loop_
 _atom_site_type_symbol
 _atom_site_label
 _atom_site_symmetry_multiplicity
 _atom_site_fract_x
 _atom_site_fract_y
 _atom_site_fract_z
 _atom_site_occupancy
  Ca  Ca0  1  0.000000  0.000000  0.000000  1
  Ca  Ca1  1  0.804788  0.804788  0.804788  1
  Ca  Ca2  1  0.195212  0.195212  0.195212  1
  V  V3  1  0.596235  0.596235  0.596235  1
  V  V4  1  0.403765  0.403765  0.403765  1
  O  O5  1  0.737056  0.737056  0.226415  1
  O  O6  1  0.262944  0.262944  0.773585  1
  O  O7  1  0.686566  0.686566  0.686566  1
  O  O8  1  0.313434  0.313434  0.313434  1
  O  O9  1  0.773585  0.262944  0.262944  1
  O  O10  1  0.737056  0.226415  0.737056  1
  O  O11  1  0.226415  0.737056  0.737056  1
  O  O12  1  0.262944  0.773585  0.262944  1
