# generated using pymatgen
data_Li2Fe3(P2O7)2
_symmetry_space_group_name_H-M   'P 1'
_cell_length_a   5.61247933
_cell_length_b   6.91442156
_cell_length_c   7.42129849
_cell_angle_alpha   75.21133047
_cell_angle_beta   81.97890742
_cell_angle_gamma   67.99681872
_symmetry_Int_Tables_number   1
_chemical_formula_structural   Li2Fe3(P2O7)2
_chemical_formula_sum   'Li2 Fe3 P4 O14'
_cell_volume   257.86652726
_cell_formula_units_Z   1
loop_
 _symmetry_equiv_pos_site_id
 _symmetry_equiv_pos_as_xyz
  1  'x, y, z'
loop_
 _atom_site_type_symbol
 _atom_site_label
 _atom_site_symmetry_multiplicity
 _atom_site_fract_x
 _atom_site_fract_y
 _atom_site_fract_z
 _atom_site_occupancy
  Li  Li0  1  0.628180  0.014496  0.688881  1
  Li  Li1  1  0.371820  0.985504  0.311119  1
  Fe  Fe2  1  0.190441  0.517633  0.309649  1
  Fe  Fe3  1  0.000000  0.000000  0.000000  1
  Fe  Fe4  1  0.809559  0.482367  0.690351  1
  P  P5  1  0.801244  0.260017  0.346904  1
  P  P6  1  0.198756  0.739983  0.653096  1
  P  P7  1  0.650631  0.682816  0.069636  1
  P  P8  1  0.349369  0.317184  0.930364  1
  O  O9  1  0.739159  0.430407  0.146208  1
  O  O10  1  0.065403  0.648028  0.544497  1
  O  O11  1  0.367359  0.773312  0.142985  1
  O  O12  1  0.319527  0.288579  0.141602  1
  O  O13  1  0.548371  0.248266  0.447646  1
  O  O14  1  0.632641  0.226688  0.857015  1
  O  O15  1  0.451629  0.751734  0.552354  1
  O  O16  1  0.680473  0.711421  0.858398  1
  O  O17  1  0.019937  0.939628  0.717826  1
  O  O18  1  0.172830  0.232731  0.854453  1
  O  O19  1  0.980063  0.060372  0.282174  1
  O  O20  1  0.827170  0.767269  0.145547  1
  O  O21  1  0.934597  0.351972  0.455503  1
  O  O22  1  0.260841  0.569593  0.853792  1
