# generated using pymatgen
data_CuGeO3
_symmetry_space_group_name_H-M   'P 1'
_cell_length_a   7.73822062
_cell_length_b   7.73822062
_cell_length_c   8.71446972
_cell_angle_alpha   90.00000000
_cell_angle_beta   90.00000000
_cell_angle_gamma   100.64867607
_symmetry_Int_Tables_number   1
_chemical_formula_structural   CuGeO3
_chemical_formula_sum   'Cu8 Ge8 O24'
_cell_volume   512.83649475
_cell_formula_units_Z   8
loop_
 _symmetry_equiv_pos_site_id
 _symmetry_equiv_pos_as_xyz
  1  'x, y, z'
loop_
 _atom_site_type_symbol
 _atom_site_label
 _atom_site_symmetry_multiplicity
 _atom_site_fract_x
 _atom_site_fract_y
 _atom_site_fract_z
 _atom_site_occupancy
  Cu  Cu0  1  0.247814  0.752186  0.500000  1
  Cu  Cu1  1  0.000000  0.000000  0.500000  1
  Cu  Cu2  1  0.747814  0.252186  0.000000  1
  Cu  Cu3  1  0.000000  0.000000  0.000000  1
  Cu  Cu4  1  0.500000  0.500000  0.500000  1
  Cu  Cu5  1  0.752186  0.247814  0.500000  1
  Cu  Cu6  1  0.252186  0.747814  0.000000  1
  Cu  Cu7  1  0.500000  0.500000  0.000000  1
  Ge  Ge8  1  0.078557  0.328709  0.749478  1
  Ge  Ge9  1  0.921443  0.671291  0.250522  1
  Ge  Ge10  1  0.828709  0.578557  0.750522  1
  Ge  Ge11  1  0.171291  0.421443  0.249478  1
  Ge  Ge12  1  0.421443  0.171291  0.249478  1
  Ge  Ge13  1  0.328709  0.078557  0.749478  1
  Ge  Ge14  1  0.578557  0.828709  0.750522  1
  Ge  Ge15  1  0.671291  0.921443  0.250522  1
  O  O16  1  0.516775  0.268291  0.078261  1
  O  O17  1  0.804809  0.804809  0.748396  1
  O  O18  1  0.224269  0.972396  0.913108  1
  O  O19  1  0.055259  0.555259  0.750000  1
  O  O20  1  0.027604  0.775731  0.086892  1
  O  O21  1  0.195191  0.195191  0.251604  1
  O  O22  1  0.695191  0.695191  0.248396  1
  O  O23  1  0.775731  0.027604  0.086892  1
  O  O24  1  0.304809  0.304809  0.751604  1
  O  O25  1  0.483225  0.731709  0.921739  1
  O  O26  1  0.268291  0.516775  0.078261  1
  O  O27  1  0.472396  0.724269  0.586892  1
  O  O28  1  0.731709  0.483225  0.921739  1
  O  O29  1  0.983225  0.231709  0.578261  1
  O  O30  1  0.231709  0.983225  0.578261  1
  O  O31  1  0.555259  0.055259  0.750000  1
  O  O32  1  0.972396  0.224269  0.913108  1
  O  O33  1  0.016775  0.768291  0.421739  1
  O  O34  1  0.768291  0.016775  0.421739  1
  O  O35  1  0.444741  0.944741  0.250000  1
  O  O36  1  0.724269  0.472396  0.586892  1
  O  O37  1  0.275731  0.527604  0.413108  1
  O  O38  1  0.944741  0.444741  0.250000  1
  O  O39  1  0.527604  0.275731  0.413108  1
