# generated using pymatgen
data_Mg44Ir7
_symmetry_space_group_name_H-M   'P 1'
_cell_length_a   14.21168473
_cell_length_b   14.21168473
_cell_length_c   14.21168473
_cell_angle_alpha   60.00000000
_cell_angle_beta   60.00000000
_cell_angle_gamma   60.00000000
_symmetry_Int_Tables_number   1
_chemical_formula_structural   Mg44Ir7
_chemical_formula_sum   'Mg88 Ir14'
_cell_volume   2029.65253883
_cell_formula_units_Z   2
loop_
 _symmetry_equiv_pos_site_id
 _symmetry_equiv_pos_as_xyz
  1  'x, y, z'
loop_
 _atom_site_type_symbol
 _atom_site_label
 _atom_site_symmetry_multiplicity
 _atom_site_fract_x
 _atom_site_fract_y
 _atom_site_fract_z
 _atom_site_occupancy
  Mg  Mg0  1  0.519818  0.868135  0.519818  1
  Mg  Mg1  1  0.661710  0.661710  0.442551  1
  Mg  Mg2  1  0.855830  0.644170  0.855830  1
  Mg  Mg3  1  0.430929  0.784488  0.784488  1
  Mg  Mg4  1  0.442551  0.234030  0.661710  1
  Mg  Mg5  1  0.868135  0.519818  0.519818  1
  Mg  Mg6  1  0.661710  0.442551  0.661710  1
  Mg  Mg7  1  0.661710  0.442551  0.234030  1
  Mg  Mg8  1  0.438261  0.685217  0.438261  1
  Mg  Mg9  1  0.525089  0.913759  0.280576  1
  Mg  Mg10  1  0.844321  0.051893  0.051893  1
  Mg  Mg11  1  0.180449  0.819551  0.180449  1
  Mg  Mg12  1  0.303586  0.303586  0.089242  1
  Mg  Mg13  1  0.092229  0.519818  0.868135  1
  Mg  Mg14  1  0.442551  0.661710  0.234030  1
  Mg  Mg15  1  0.020428  0.020428  0.665403  1
  Mg  Mg16  1  0.280576  0.913759  0.525089  1
  Mg  Mg17  1  0.234030  0.442551  0.661710  1
  Mg  Mg18  1  0.868135  0.519818  0.092229  1
  Mg  Mg19  1  0.020428  0.665403  0.293742  1
  Mg  Mg20  1  0.784488  0.430929  0.784488  1
  Mg  Mg21  1  0.438261  0.438261  0.685217  1
  Mg  Mg22  1  0.051893  0.051893  0.844321  1
  Mg  Mg23  1  0.092229  0.519818  0.519818  1
  Mg  Mg24  1  0.819551  0.819551  0.180449  1
  Mg  Mg25  1  0.661710  0.661710  0.234030  1
  Mg  Mg26  1  0.051893  0.844321  0.051893  1
  Mg  Mg27  1  0.685217  0.438261  0.438261  1
  Mg  Mg28  1  0.519818  0.519818  0.092229  1
  Mg  Mg29  1  0.519818  0.092229  0.868135  1
  Mg  Mg30  1  0.234030  0.661710  0.661710  1
  Mg  Mg31  1  0.293742  0.665403  0.020428  1
  Mg  Mg32  1  0.438261  0.438261  0.438261  1
  Mg  Mg33  1  0.020428  0.020428  0.293742  1
  Mg  Mg34  1  0.020428  0.293742  0.665403  1
  Mg  Mg35  1  0.167177  0.167177  0.498468  1
  Mg  Mg36  1  0.430929  0.000096  0.784488  1
  Mg  Mg37  1  0.000096  0.784488  0.430929  1
  Mg  Mg38  1  0.784488  0.430929  0.000096  1
  Mg  Mg39  1  0.303586  0.089242  0.303586  1
  Mg  Mg40  1  0.000096  0.784488  0.784488  1
  Mg  Mg41  1  0.280576  0.913759  0.280576  1
  Mg  Mg42  1  0.819551  0.180449  0.819551  1
  Mg  Mg43  1  0.644170  0.855830  0.855830  1
  Mg  Mg44  1  0.784488  0.784488  0.430929  1
  Mg  Mg45  1  0.180449  0.819551  0.819551  1
  Mg  Mg46  1  0.498468  0.167177  0.167177  1
  Mg  Mg47  1  0.855830  0.644170  0.644170  1
  Mg  Mg48  1  0.303586  0.303586  0.303586  1
  Mg  Mg49  1  0.913759  0.525089  0.280576  1
  Mg  Mg50  1  0.784488  0.000096  0.784488  1
  Mg  Mg51  1  0.868135  0.092229  0.519818  1
  Mg  Mg52  1  0.167177  0.498468  0.167177  1
  Mg  Mg53  1  0.665403  0.020428  0.293742  1
  Mg  Mg54  1  0.665403  0.020428  0.020428  1
  Mg  Mg55  1  0.280576  0.280576  0.525089  1
  Mg  Mg56  1  0.180449  0.180449  0.819551  1
  Mg  Mg57  1  0.665403  0.293742  0.020428  1
  Mg  Mg58  1  0.661710  0.234030  0.661710  1
  Mg  Mg59  1  0.293742  0.020428  0.665403  1
  Mg  Mg60  1  0.293742  0.020428  0.020428  1
  Mg  Mg61  1  0.280576  0.525089  0.280576  1
  Mg  Mg62  1  0.519818  0.519818  0.868135  1
  Mg  Mg63  1  0.644170  0.855830  0.644170  1
  Mg  Mg64  1  0.519818  0.092229  0.519818  1
  Mg  Mg65  1  0.525089  0.280576  0.280576  1
  Mg  Mg66  1  0.525089  0.280576  0.913759  1
  Mg  Mg67  1  0.280576  0.280576  0.913759  1
  Mg  Mg68  1  0.913759  0.280576  0.525089  1
  Mg  Mg69  1  0.167177  0.167177  0.167177  1
  Mg  Mg70  1  0.020428  0.293742  0.020428  1
  Mg  Mg71  1  0.234030  0.661710  0.442551  1
  Mg  Mg72  1  0.020428  0.665403  0.020428  1
  Mg  Mg73  1  0.644170  0.644170  0.855830  1
  Mg  Mg74  1  0.000096  0.430929  0.784488  1
  Mg  Mg75  1  0.430929  0.784488  0.000096  1
  Mg  Mg76  1  0.855830  0.855830  0.644170  1
  Mg  Mg77  1  0.819551  0.180449  0.180449  1
  Mg  Mg78  1  0.051893  0.051893  0.051893  1
  Mg  Mg79  1  0.784488  0.000096  0.430929  1
  Mg  Mg80  1  0.913759  0.280576  0.280576  1
  Mg  Mg81  1  0.519818  0.868135  0.092229  1
  Mg  Mg82  1  0.442551  0.661710  0.661710  1
  Mg  Mg83  1  0.280576  0.525089  0.913759  1
  Mg  Mg84  1  0.661710  0.234030  0.442551  1
  Mg  Mg85  1  0.092229  0.868135  0.519818  1
  Mg  Mg86  1  0.784488  0.784488  0.000096  1
  Mg  Mg87  1  0.089242  0.303586  0.303586  1
  Ir  Ir88  1  0.086327  0.086327  0.413673  1
  Ir  Ir89  1  0.916812  0.916812  0.249565  1
  Ir  Ir90  1  0.651152  0.651152  0.651152  1
  Ir  Ir91  1  0.651152  0.046545  0.651152  1
  Ir  Ir92  1  0.916812  0.916812  0.916812  1
  Ir  Ir93  1  0.249565  0.916812  0.916812  1
  Ir  Ir94  1  0.916812  0.249565  0.916812  1
  Ir  Ir95  1  0.413673  0.086327  0.086327  1
  Ir  Ir96  1  0.413673  0.413673  0.086327  1
  Ir  Ir97  1  0.651152  0.651152  0.046545  1
  Ir  Ir98  1  0.046545  0.651152  0.651152  1
  Ir  Ir99  1  0.086327  0.413673  0.413673  1
  Ir  Ir100  1  0.413673  0.086327  0.413673  1
  Ir  Ir101  1  0.086327  0.413673  0.086327  1
