# generated using pymatgen
data_MgB4(H9O8)2
_symmetry_space_group_name_H-M   'P 1'
_cell_length_a   7.87413261
_cell_length_b   8.85661655
_cell_length_c   10.66171176
_cell_angle_alpha   97.65603624
_cell_angle_beta   102.89996774
_cell_angle_gamma   108.64297812
_symmetry_Int_Tables_number   1
_chemical_formula_structural   MgB4(H9O8)2
_chemical_formula_sum   'Mg2 B8 H36 O32'
_cell_volume   669.67340412
_cell_formula_units_Z   2
loop_
 _symmetry_equiv_pos_site_id
 _symmetry_equiv_pos_as_xyz
  1  'x, y, z'
loop_
 _atom_site_type_symbol
 _atom_site_label
 _atom_site_symmetry_multiplicity
 _atom_site_fract_x
 _atom_site_fract_y
 _atom_site_fract_z
 _atom_site_occupancy
  Mg  Mg0  1  0.129731  0.826960  0.225586  1
  Mg  Mg1  1  0.870269  0.173040  0.774414  1
  B  B2  1  0.483702  0.182691  0.303452  1
  B  B3  1  0.516298  0.817309  0.696548  1
  B  B4  1  0.527802  0.226359  0.082011  1
  B  B5  1  0.472198  0.773641  0.917989  1
  B  B6  1  0.797125  0.281301  0.276469  1
  B  B7  1  0.202875  0.718699  0.723531  1
  B  B8  1  0.691821  0.466801  0.412278  1
  B  B9  1  0.308179  0.533199  0.587722  1
  H  H10  1  0.344273  0.074574  0.427737  1
  H  H11  1  0.655727  0.925426  0.572263  1
  H  H12  1  0.532338  0.234657  0.894607  1
  H  H13  1  0.467662  0.765343  0.105393  1
  H  H14  1  0.065010  0.301360  0.376313  1
  H  H15  1  0.934990  0.698640  0.623687  1
  H  H16  1  0.633761  0.627572  0.533341  1
  H  H17  1  0.366239  0.372428  0.466659  1
  H  H18  1  0.855925  0.502681  0.125339  1
  H  H19  1  0.144075  0.497319  0.874661  1
  H  H20  1  0.876762  0.605741  0.013885  1
  H  H21  1  0.123238  0.394259  0.986115  1
  H  H22  1  0.189248  0.833638  0.981981  1
  H  H23  1  0.810752  0.166362  0.018019  1
  H  H24  1  0.224777  0.007935  0.067688  1
  H  H25  1  0.775223  0.992065  0.932312  1
  H  H26  1  0.298646  0.600715  0.201051  1
  H  H27  1  0.701354  0.399285  0.798949  1
  H  H28  1  0.453687  0.771590  0.295752  1
  H  H29  1  0.546313  0.228410  0.704248  1
  H  H30  1  0.189895  0.773929  0.485444  1
  H  H31  1  0.810105  0.226071  0.514556  1
  H  H32  1  0.010145  0.629112  0.386170  1
  H  H33  1  0.989855  0.370888  0.613830  1
  H  H34  1  0.945759  0.046063  0.248918  1
  H  H35  1  0.054241  0.953937  0.751082  1
  H  H36  1  0.800175  0.875578  0.160832  1
  H  H37  1  0.199825  0.124422  0.839168  1
  H  H38  1  0.284583  0.330443  0.154624  1
  H  H39  1  0.715417  0.669557  0.845376  1
  H  H40  1  0.110112  0.347778  0.194721  1
  H  H41  1  0.889888  0.652222  0.805279  1
  H  H42  1  0.670844  0.993529  0.370600  1
  H  H43  1  0.329156  0.006471  0.629400  1
  H  H44  1  0.756662  0.855963  0.397264  1
  H  H45  1  0.243338  0.144037  0.602736  1
  O  O46  1  0.410405  0.192652  0.161940  1
  O  O47  1  0.589595  0.807348  0.838060  1
  O  O48  1  0.719280  0.275249  0.131798  1
  O  O49  1  0.280720  0.724751  0.868202  1
  O  O50  1  0.826501  0.446735  0.355372  1
  O  O51  1  0.173499  0.553265  0.644628  1
  O  O52  1  0.521026  0.344311  0.391211  1
  O  O53  1  0.478974  0.655689  0.608789  1
  O  O54  1  0.662856  0.157229  0.320456  1
  O  O55  1  0.337144  0.842771  0.679544  1
  O  O56  1  0.339514  0.052658  0.332570  1
  O  O57  1  0.660486  0.947342  0.667430  1
  O  O58  1  0.444013  0.208070  0.950237  1
  O  O59  1  0.555987  0.791930  0.049763  1
  O  O60  1  0.973508  0.256212  0.287284  1
  O  O61  1  0.026492  0.743788  0.712716  1
  O  O62  1  0.734665  0.617256  0.493156  1
  O  O63  1  0.265335  0.382744  0.506844  1
  O  O64  1  0.921745  0.610040  0.110159  1
  O  O65  1  0.078255  0.389960  0.889841  1
  O  O66  1  0.144383  0.891030  0.045823  1
  O  O67  1  0.855617  0.108970  0.954177  1
  O  O68  1  0.343777  0.723282  0.214790  1
  O  O69  1  0.656223  0.276718  0.785210  1
  O  O70  1  0.108296  0.737308  0.394399  1
  O  O71  1  0.891704  0.262692  0.605601  1
  O  O72  1  0.919948  0.926313  0.231153  1
  O  O73  1  0.080052  0.073687  0.768847  1
  O  O74  1  0.206156  0.398879  0.149640  1
  O  O75  1  0.793844  0.601121  0.850360  1
  O  O76  1  0.655728  0.893118  0.409008  1
  O  O77  1  0.344272  0.106882  0.590992  1
