# generated using pymatgen
data_LiCo(PO3)3
_symmetry_space_group_name_H-M   'P 1'
_cell_length_a   5.16294405
_cell_length_b   12.07634305
_cell_length_c   13.20811489
_cell_angle_alpha   90.00000000
_cell_angle_beta   90.00000000
_cell_angle_gamma   90.00000000
_symmetry_Int_Tables_number   1
_chemical_formula_structural   LiCo(PO3)3
_chemical_formula_sum   'Li4 Co4 P12 O36'
_cell_volume   823.51914134
_cell_formula_units_Z   4
loop_
 _symmetry_equiv_pos_site_id
 _symmetry_equiv_pos_as_xyz
  1  'x, y, z'
loop_
 _atom_site_type_symbol
 _atom_site_label
 _atom_site_symmetry_multiplicity
 _atom_site_fract_x
 _atom_site_fract_y
 _atom_site_fract_z
 _atom_site_occupancy
  Li  Li0  1  0.992246  0.002888  0.750000  1
  Li  Li1  1  0.992246  0.497112  0.250000  1
  Li  Li2  1  0.007754  0.997112  0.250000  1
  Li  Li3  1  0.007754  0.502888  0.750000  1
  Co  Co4  1  0.000000  0.000000  0.500000  1
  Co  Co5  1  0.000000  0.000000  0.000000  1
  Co  Co6  1  0.000000  0.500000  0.000000  1
  Co  Co7  1  0.000000  0.500000  0.500000  1
  P  P8  1  0.505210  0.088859  0.861362  1
  P  P9  1  0.505210  0.411141  0.138638  1
  P  P10  1  0.494790  0.911141  0.361362  1
  P  P11  1  0.494790  0.911141  0.138638  1
  P  P12  1  0.494790  0.588859  0.638638  1
  P  P13  1  0.245083  0.750000  0.500000  1
  P  P14  1  0.754917  0.250000  0.000000  1
  P  P15  1  0.754917  0.250000  0.500000  1
  P  P16  1  0.494790  0.588859  0.861362  1
  P  P17  1  0.505210  0.411141  0.361362  1
  P  P18  1  0.245083  0.750000  0.000000  1
  P  P19  1  0.505210  0.088859  0.638638  1
  O  O20  1  0.287357  0.504598  0.884757  1
  O  O21  1  0.712643  0.004598  0.615243  1
  O  O22  1  0.900470  0.156203  0.452364  1
  O  O23  1  0.900470  0.156203  0.047636  1
  O  O24  1  0.099530  0.656203  0.047636  1
  O  O25  1  0.287357  0.995402  0.384757  1
  O  O26  1  0.564109  0.363154  0.250000  1
  O  O27  1  0.774872  0.945532  0.132952  1
  O  O28  1  0.543288  0.201866  0.578764  1
  O  O29  1  0.774872  0.554468  0.867048  1
  O  O30  1  0.900470  0.343797  0.547636  1
  O  O31  1  0.564109  0.136846  0.750000  1
  O  O32  1  0.456712  0.701866  0.578764  1
  O  O33  1  0.099530  0.843797  0.547636  1
  O  O34  1  0.225128  0.445532  0.367048  1
  O  O35  1  0.099530  0.656203  0.452364  1
  O  O36  1  0.774872  0.945532  0.367048  1
  O  O37  1  0.225128  0.054468  0.632952  1
  O  O38  1  0.456712  0.798134  0.078764  1
  O  O39  1  0.225128  0.054468  0.867048  1
  O  O40  1  0.099530  0.843797  0.952364  1
  O  O41  1  0.456712  0.701866  0.921236  1
  O  O42  1  0.712643  0.495402  0.384757  1
  O  O43  1  0.435891  0.636846  0.750000  1
  O  O44  1  0.287357  0.504598  0.615243  1
  O  O45  1  0.900470  0.343797  0.952364  1
  O  O46  1  0.774872  0.554468  0.632952  1
  O  O47  1  0.543288  0.201866  0.921236  1
  O  O48  1  0.712643  0.495402  0.115243  1
  O  O49  1  0.225128  0.445532  0.132952  1
  O  O50  1  0.456712  0.798134  0.421236  1
  O  O51  1  0.543288  0.298134  0.421236  1
  O  O52  1  0.543288  0.298134  0.078764  1
  O  O53  1  0.712643  0.004598  0.884757  1
  O  O54  1  0.435891  0.863154  0.250000  1
  O  O55  1  0.287357  0.995402  0.115243  1
