# generated using pymatgen
data_Cu8GeSe6
_symmetry_space_group_name_H-M   'P 1'
_cell_length_a   12.72122306
_cell_length_b   12.72122306
_cell_length_c   11.78547900
_cell_angle_alpha   90.00000000
_cell_angle_beta   90.00000000
_cell_angle_gamma   120.00000000
_symmetry_Int_Tables_number   1
_chemical_formula_structural   Cu8GeSe6
_chemical_formula_sum   'Cu48 Ge6 Se36'
_cell_volume   1651.71687361
_cell_formula_units_Z   6
loop_
 _symmetry_equiv_pos_site_id
 _symmetry_equiv_pos_as_xyz
  1  'x, y, z'
loop_
 _atom_site_type_symbol
 _atom_site_label
 _atom_site_symmetry_multiplicity
 _atom_site_fract_x
 _atom_site_fract_y
 _atom_site_fract_z
 _atom_site_occupancy
  Cu  Cu0  1  0.838937  0.194667  0.055308  1
  Cu  Cu1  1  0.161063  0.805333  0.555308  1
  Cu  Cu2  1  0.129148  0.640748  0.930155  1
  Cu  Cu3  1  0.805333  0.161063  0.555308  1
  Cu  Cu4  1  0.870852  0.359252  0.430155  1
  Cu  Cu5  1  0.838937  0.644270  0.555308  1
  Cu  Cu6  1  0.355730  0.161063  0.055308  1
  Cu  Cu7  1  0.194667  0.355730  0.555308  1
  Cu  Cu8  1  0.459412  0.000000  0.769251  1
  Cu  Cu9  1  0.805333  0.644270  0.055308  1
  Cu  Cu10  1  0.511599  0.870852  0.930155  1
  Cu  Cu11  1  0.808673  0.666218  0.836104  1
  Cu  Cu12  1  0.359252  0.488401  0.930155  1
  Cu  Cu13  1  0.142455  0.333782  0.836104  1
  Cu  Cu14  1  0.488401  0.359252  0.930155  1
  Cu  Cu15  1  0.540588  0.000000  0.269251  1
  Cu  Cu16  1  0.000000  0.186968  0.458226  1
  Cu  Cu17  1  0.359252  0.870852  0.430155  1
  Cu  Cu18  1  0.857545  0.666218  0.336104  1
  Cu  Cu19  1  0.186968  0.186968  0.958226  1
  Cu  Cu20  1  0.355730  0.194667  0.555308  1
  Cu  Cu21  1  0.333782  0.191327  0.336104  1
  Cu  Cu22  1  0.000000  0.459412  0.769251  1
  Cu  Cu23  1  0.644270  0.838937  0.555308  1
  Cu  Cu24  1  0.640748  0.511599  0.430155  1
  Cu  Cu25  1  0.333782  0.142455  0.836104  1
  Cu  Cu26  1  0.870852  0.511599  0.930155  1
  Cu  Cu27  1  0.640748  0.129148  0.930155  1
  Cu  Cu28  1  0.808673  0.142455  0.336104  1
  Cu  Cu29  1  0.857545  0.191327  0.836104  1
  Cu  Cu30  1  0.191327  0.333782  0.336104  1
  Cu  Cu31  1  0.511599  0.640748  0.430155  1
  Cu  Cu32  1  0.644270  0.805333  0.055308  1
  Cu  Cu33  1  0.813032  0.000000  0.958226  1
  Cu  Cu34  1  0.459412  0.459412  0.269251  1
  Cu  Cu35  1  0.000000  0.540588  0.269251  1
  Cu  Cu36  1  0.186968  0.000000  0.458226  1
  Cu  Cu37  1  0.000000  0.813032  0.958226  1
  Cu  Cu38  1  0.142455  0.808673  0.336104  1
  Cu  Cu39  1  0.488401  0.129148  0.430155  1
  Cu  Cu40  1  0.129148  0.488401  0.430155  1
  Cu  Cu41  1  0.540588  0.540588  0.769251  1
  Cu  Cu42  1  0.194667  0.838937  0.055308  1
  Cu  Cu43  1  0.666218  0.857545  0.336104  1
  Cu  Cu44  1  0.191327  0.857545  0.836104  1
  Cu  Cu45  1  0.813032  0.813032  0.458226  1
  Cu  Cu46  1  0.161063  0.355730  0.055308  1
  Cu  Cu47  1  0.666218  0.808673  0.836104  1
  Ge  Ge48  1  0.666667  0.333333  0.673138  1
  Ge  Ge49  1  0.666667  0.333333  0.173138  1
  Ge  Ge50  1  0.333333  0.666667  0.173138  1
  Ge  Ge51  1  0.000000  0.000000  0.700486  1
  Ge  Ge52  1  0.333333  0.666667  0.673138  1
  Ge  Ge53  1  0.000000  0.000000  0.200486  1
  Se  Se54  1  0.651638  0.000000  0.078678  1
  Se  Se55  1  0.000000  0.639974  0.444993  1
  Se  Se56  1  0.348362  0.348362  0.078678  1
  Se  Se57  1  0.000000  0.182523  0.246696  1
  Se  Se58  1  0.000000  0.348362  0.578678  1
  Se  Se59  1  0.817477  0.817477  0.246696  1
  Se  Se60  1  0.333333  0.666667  0.971445  1
  Se  Se61  1  0.651638  0.651638  0.578678  1
  Se  Se62  1  0.843691  0.518562  0.723399  1
  Se  Se63  1  0.182523  0.000000  0.246696  1
  Se  Se64  1  0.666667  0.333333  0.471445  1
  Se  Se65  1  0.325129  0.481438  0.723399  1
  Se  Se66  1  0.817477  0.000000  0.746696  1
  Se  Se67  1  0.000000  0.651638  0.078678  1
  Se  Se68  1  0.674871  0.518562  0.223399  1
  Se  Se69  1  0.000000  0.000000  0.499226  1
  Se  Se70  1  0.843691  0.325129  0.223399  1
  Se  Se71  1  0.348362  0.000000  0.578678  1
  Se  Se72  1  0.333333  0.666667  0.471445  1
  Se  Se73  1  0.182523  0.182523  0.746696  1
  Se  Se74  1  0.518562  0.843691  0.723399  1
  Se  Se75  1  0.325129  0.843691  0.223399  1
  Se  Se76  1  0.156309  0.481438  0.223399  1
  Se  Se77  1  0.156309  0.674871  0.723399  1
  Se  Se78  1  0.666667  0.333333  0.971445  1
  Se  Se79  1  0.000000  0.817477  0.746696  1
  Se  Se80  1  0.000000  0.360026  0.944993  1
  Se  Se81  1  0.360026  0.000000  0.944993  1
  Se  Se82  1  0.639974  0.000000  0.444993  1
  Se  Se83  1  0.518562  0.674871  0.223399  1
  Se  Se84  1  0.639974  0.639974  0.944993  1
  Se  Se85  1  0.360026  0.360026  0.444993  1
  Se  Se86  1  0.674871  0.156309  0.723399  1
  Se  Se87  1  0.481438  0.325129  0.723399  1
  Se  Se88  1  0.000000  0.000000  0.999226  1
  Se  Se89  1  0.481438  0.156309  0.223399  1
