# generated using pymatgen
data_CsLuP2O7
_symmetry_space_group_name_H-M   'P 1'
_cell_length_a   7.95798862
_cell_length_b   10.80255056
_cell_length_c   8.78242070
_cell_angle_alpha   90.00000000
_cell_angle_beta   104.47422786
_cell_angle_gamma   90.00000000
_symmetry_Int_Tables_number   1
_chemical_formula_structural   CsLuP2O7
_chemical_formula_sum   'Cs4 Lu4 P8 O28'
_cell_volume   731.03121775
_cell_formula_units_Z   4
loop_
 _symmetry_equiv_pos_site_id
 _symmetry_equiv_pos_as_xyz
  1  'x, y, z'
loop_
 _atom_site_type_symbol
 _atom_site_label
 _atom_site_symmetry_multiplicity
 _atom_site_fract_x
 _atom_site_fract_y
 _atom_site_fract_z
 _atom_site_occupancy
  Cs  Cs0  1  0.199654  0.694416  0.049875  1
  Cs  Cs1  1  0.199654  0.805584  0.549875  1
  Cs  Cs2  1  0.800346  0.305584  0.950125  1
  Cs  Cs3  1  0.800346  0.194416  0.450125  1
  Lu  Lu4  1  0.762216  0.900407  0.745966  1
  Lu  Lu5  1  0.237784  0.099593  0.254034  1
  Lu  Lu6  1  0.762216  0.599593  0.245966  1
  Lu  Lu7  1  0.237784  0.400407  0.754034  1
  P  P8  1  0.869138  0.904171  0.175712  1
  P  P9  1  0.130862  0.404171  0.324288  1
  P  P10  1  0.869138  0.595829  0.675712  1
  P  P11  1  0.427225  0.370981  0.182258  1
  P  P12  1  0.130862  0.095829  0.824288  1
  P  P13  1  0.572775  0.629019  0.817742  1
  P  P14  1  0.427225  0.129019  0.682258  1
  P  P15  1  0.572775  0.870981  0.317742  1
  O  O16  1  0.666783  0.896892  0.488518  1
  O  O17  1  0.607572  0.070070  0.731970  1
  O  O18  1  0.998602  0.002699  0.730949  1
  O  O19  1  0.333217  0.396892  0.011482  1
  O  O20  1  0.844864  0.915128  0.999346  1
  O  O21  1  0.564198  0.766471  0.773697  1
  O  O22  1  0.435802  0.266471  0.726303  1
  O  O23  1  0.333217  0.103108  0.511482  1
  O  O24  1  0.913041  0.728340  0.736758  1
  O  O25  1  0.155136  0.084872  0.000654  1
  O  O26  1  0.001398  0.997301  0.269051  1
  O  O27  1  0.683416  0.942205  0.209785  1
  O  O28  1  0.435802  0.233529  0.226303  1
  O  O29  1  0.998602  0.497301  0.230949  1
  O  O30  1  0.666783  0.603108  0.988518  1
  O  O31  1  0.316584  0.057795  0.790215  1
  O  O32  1  0.392428  0.570070  0.768030  1
  O  O33  1  0.683416  0.557795  0.709785  1
  O  O34  1  0.913041  0.771660  0.236758  1
  O  O35  1  0.001398  0.502699  0.769051  1
  O  O36  1  0.607572  0.429930  0.231970  1
  O  O37  1  0.564198  0.733529  0.273697  1
  O  O38  1  0.392428  0.929930  0.268030  1
  O  O39  1  0.844864  0.584872  0.499346  1
  O  O40  1  0.316584  0.442205  0.290215  1
  O  O41  1  0.086959  0.271660  0.263242  1
  O  O42  1  0.086959  0.228340  0.763242  1
  O  O43  1  0.155136  0.415128  0.500654  1
