# generated using pymatgen
data_CsLuS2
_symmetry_space_group_name_H-M   'P 1'
_cell_length_a   8.34884558
_cell_length_b   8.34884558
_cell_length_c   8.34884558
_cell_angle_alpha   27.92500911
_cell_angle_beta   27.92500911
_cell_angle_gamma   27.92500911
_symmetry_Int_Tables_number   1
_chemical_formula_structural   CsLuS2
_chemical_formula_sum   'Cs1 Lu1 S2'
_cell_volume   112.71736787
_cell_formula_units_Z   1
loop_
 _symmetry_equiv_pos_site_id
 _symmetry_equiv_pos_as_xyz
  1  'x, y, z'
loop_
 _atom_site_type_symbol
 _atom_site_label
 _atom_site_symmetry_multiplicity
 _atom_site_fract_x
 _atom_site_fract_y
 _atom_site_fract_z
 _atom_site_occupancy
  Cs  Cs0  1  0.000000  0.000000  0.000000  1
  Lu  Lu1  1  0.500000  0.500000  0.500000  1
  S  S2  1  0.226410  0.226410  0.226410  1
  S  S3  1  0.773590  0.773590  0.773590  1
