# generated using pymatgen
data_LiCo(PO3)3
_symmetry_space_group_name_H-M   'P 1'
_cell_length_a   9.43482207
_cell_length_b   9.43960071
_cell_length_c   9.71210780
_cell_angle_alpha   109.43722822
_cell_angle_beta   104.88937917
_cell_angle_gamma   108.65477759
_symmetry_Int_Tables_number   1
_chemical_formula_structural   LiCo(PO3)3
_chemical_formula_sum   'Li4 Co4 P12 O36'
_cell_volume   706.00849178
_cell_formula_units_Z   4
loop_
 _symmetry_equiv_pos_site_id
 _symmetry_equiv_pos_as_xyz
  1  'x, y, z'
loop_
 _atom_site_type_symbol
 _atom_site_label
 _atom_site_symmetry_multiplicity
 _atom_site_fract_x
 _atom_site_fract_y
 _atom_site_fract_z
 _atom_site_occupancy
  Li  Li0  1  0.355881  0.151100  0.324067  1
  Li  Li1  1  0.347042  0.932250  0.502720  1
  Li  Li2  1  0.644119  0.848900  0.675933  1
  Li  Li3  1  0.652958  0.067750  0.497280  1
  Co  Co4  1  0.098625  0.297568  0.212669  1
  Co  Co5  1  0.748326  0.230371  0.275342  1
  Co  Co6  1  0.251674  0.769629  0.724658  1
  Co  Co7  1  0.901375  0.702432  0.787331  1
  P  P8  1  0.306569  0.432945  0.591357  1
  P  P9  1  0.571152  0.338058  0.706442  1
  P  P10  1  0.944917  0.212422  0.838497  1
  P  P11  1  0.487526  0.849687  0.103607  1
  P  P12  1  0.002194  0.609248  0.354254  1
  P  P13  1  0.512474  0.150313  0.896393  1
  P  P14  1  0.997806  0.390752  0.645746  1
  P  P15  1  0.811282  0.911547  0.076784  1
  P  P16  1  0.693431  0.567055  0.408643  1
  P  P17  1  0.428848  0.661942  0.293558  1
  P  P18  1  0.188718  0.088453  0.923216  1
  P  P19  1  0.055083  0.787578  0.161503  1
  O  O20  1  0.155127  0.748610  0.495727  1
  O  O21  1  0.726466  0.479319  0.745503  1
  O  O22  1  0.634249  0.382007  0.355576  1
  O  O23  1  0.365618  0.186983  0.930379  1
  O  O24  1  0.151004  0.359573  0.629936  1
  O  O25  1  0.430942  0.400973  0.710313  1
  O  O26  1  0.502801  0.176371  0.555867  1
  O  O27  1  0.365751  0.617993  0.644424  1
  O  O28  1  0.955432  0.273759  0.004621  1
  O  O29  1  0.001369  0.373603  0.803930  1
  O  O30  1  0.196214  0.139601  0.090571  1
  O  O31  1  0.044568  0.726241  0.995379  1
  O  O32  1  0.367021  0.824489  0.954699  1
  O  O33  1  0.844873  0.251390  0.504273  1
  O  O34  1  0.906692  0.836235  0.170041  1
  O  O35  1  0.733386  0.681967  0.579780  1
  O  O36  1  0.803786  0.860399  0.909429  1
  O  O37  1  0.212777  0.925110  0.296828  1
  O  O38  1  0.404220  0.696736  0.139324  1
  O  O39  1  0.093308  0.163765  0.829959  1
  O  O40  1  0.497199  0.823629  0.444133  1
  O  O41  1  0.634382  0.813017  0.069621  1
  O  O42  1  0.569058  0.599027  0.289687  1
  O  O43  1  0.117678  0.902447  0.811706  1
  O  O44  1  0.559642  0.014904  0.252606  1
  O  O45  1  0.969866  0.431083  0.322916  1
  O  O46  1  0.273534  0.520681  0.254497  1
  O  O47  1  0.440358  0.985096  0.747394  1
  O  O48  1  0.882322  0.097553  0.188294  1
  O  O49  1  0.848996  0.640427  0.370064  1
  O  O50  1  0.595780  0.303264  0.860676  1
  O  O51  1  0.266614  0.318033  0.420220  1
  O  O52  1  0.030134  0.568917  0.677084  1
  O  O53  1  0.998631  0.626397  0.196070  1
  O  O54  1  0.787223  0.074890  0.703172  1
  O  O55  1  0.632979  0.175511  0.045301  1
