# generated using pymatgen
data_NaY(SeO3)2
_symmetry_space_group_name_H-M   'P 1'
_cell_length_a   5.47589993
_cell_length_b   8.70769530
_cell_length_c   12.96512349
_cell_angle_alpha   90.00000000
_cell_angle_beta   90.00000000
_cell_angle_gamma   90.00000000
_symmetry_Int_Tables_number   1
_chemical_formula_structural   NaY(SeO3)2
_chemical_formula_sum   'Na4 Y4 Se8 O24'
_cell_volume   618.20908701
_cell_formula_units_Z   4
loop_
 _symmetry_equiv_pos_site_id
 _symmetry_equiv_pos_as_xyz
  1  'x, y, z'
loop_
 _atom_site_type_symbol
 _atom_site_label
 _atom_site_symmetry_multiplicity
 _atom_site_fract_x
 _atom_site_fract_y
 _atom_site_fract_z
 _atom_site_occupancy
  Na  Na0  1  0.792398  0.989987  0.617807  1
  Na  Na1  1  0.792398  0.510013  0.117807  1
  Na  Na2  1  0.292398  0.010013  0.382193  1
  Na  Na3  1  0.292398  0.489987  0.882193  1
  Y  Y4  1  0.242936  0.175072  0.086399  1
  Y  Y5  1  0.742936  0.824928  0.913601  1
  Y  Y6  1  0.742936  0.675072  0.413601  1
  Y  Y7  1  0.242936  0.324928  0.586399  1
  Se  Se8  1  0.748341  0.969831  0.202636  1
  Se  Se9  1  0.248341  0.469831  0.297364  1
  Se  Se10  1  0.795039  0.266502  0.420039  1
  Se  Se11  1  0.295039  0.733498  0.579961  1
  Se  Se12  1  0.748341  0.530169  0.702636  1
  Se  Se13  1  0.295039  0.766502  0.079961  1
  Se  Se14  1  0.248341  0.030169  0.797364  1
  Se  Se15  1  0.795039  0.233498  0.920039  1
  O  O16  1  0.996334  0.151588  0.486707  1
  O  O17  1  0.057502  0.872265  0.798071  1
  O  O18  1  0.197939  0.097302  0.674040  1
  O  O19  1  0.380692  0.562759  0.516158  1
  O  O20  1  0.018839  0.780222  0.525748  1
  O  O21  1  0.496334  0.848412  0.513293  1
  O  O22  1  0.538279  0.548988  0.284803  1
  O  O23  1  0.057502  0.627735  0.298071  1
  O  O24  1  0.018839  0.719778  0.025748  1
  O  O25  1  0.697939  0.902698  0.325960  1
  O  O26  1  0.038279  0.048988  0.215197  1
  O  O27  1  0.518839  0.219778  0.474252  1
  O  O28  1  0.697939  0.597302  0.825960  1
  O  O29  1  0.197939  0.402698  0.174040  1
  O  O30  1  0.996334  0.348412  0.986707  1
  O  O31  1  0.380692  0.937241  0.016158  1
  O  O32  1  0.557502  0.372265  0.701929  1
  O  O33  1  0.880692  0.437241  0.483842  1
  O  O34  1  0.496334  0.651588  0.013293  1
  O  O35  1  0.038279  0.451012  0.715197  1
  O  O36  1  0.557502  0.127735  0.201929  1
  O  O37  1  0.538279  0.951012  0.784803  1
  O  O38  1  0.518839  0.280222  0.974252  1
  O  O39  1  0.880692  0.062759  0.983842  1
