# generated using pymatgen
data_ZnS
_symmetry_space_group_name_H-M   'P 1'
_cell_length_a   22.15738060
_cell_length_b   22.15738060
_cell_length_c   22.15738060
_cell_angle_alpha   9.99203100
_cell_angle_beta   9.99203100
_cell_angle_gamma   9.99203100
_symmetry_Int_Tables_number   1
_chemical_formula_structural   ZnS
_chemical_formula_sum   'Zn7 S7'
_cell_volume   284.34147386
_cell_formula_units_Z   7
loop_
 _symmetry_equiv_pos_site_id
 _symmetry_equiv_pos_as_xyz
  1  'x, y, z'
loop_
 _atom_site_type_symbol
 _atom_site_label
 _atom_site_symmetry_multiplicity
 _atom_site_fract_x
 _atom_site_fract_y
 _atom_site_fract_z
 _atom_site_occupancy
  Zn  Zn0  1  0.999982  0.999982  0.999982  1
  Zn  Zn1  1  0.285717  0.285717  0.285717  1
  Zn  Zn2  1  0.571435  0.571435  0.571435  1
  Zn  Zn3  1  0.190466  0.190466  0.190466  1
  Zn  Zn4  1  0.476173  0.476173  0.476173  1
  Zn  Zn5  1  0.095222  0.095222  0.095222  1
  Zn  Zn6  1  0.714281  0.714281  0.714281  1
  S  S7  1  0.964296  0.964296  0.964296  1
  S  S8  1  0.250038  0.250038  0.250038  1
  S  S9  1  0.535723  0.535723  0.535723  1
  S  S10  1  0.154769  0.154769  0.154769  1
  S  S11  1  0.440455  0.440455  0.440455  1
  S  S12  1  0.059557  0.059557  0.059557  1
  S  S13  1  0.678553  0.678553  0.678553  1
