# generated using pymatgen
data_GdTaO4
_symmetry_space_group_name_H-M   'P 1'
_cell_length_a   6.63576195
_cell_length_b   6.63576195
_cell_length_c   5.12911011
_cell_angle_alpha   69.71555800
_cell_angle_beta   110.28444200
_cell_angle_gamma   64.74949869
_symmetry_Int_Tables_number   1
_chemical_formula_structural   GdTaO4
_chemical_formula_sum   'Gd2 Ta2 O8'
_cell_volume   155.67703981
_cell_formula_units_Z   2
loop_
 _symmetry_equiv_pos_site_id
 _symmetry_equiv_pos_as_xyz
  1  'x, y, z'
loop_
 _atom_site_type_symbol
 _atom_site_label
 _atom_site_symmetry_multiplicity
 _atom_site_fract_x
 _atom_site_fract_y
 _atom_site_fract_z
 _atom_site_occupancy
  Gd  Gd0  1  0.631791  0.631791  0.250000  1
  Gd  Gd1  1  0.368209  0.368209  0.750000  1
  Ta  Ta2  1  0.100271  0.100271  0.250000  1
  Ta  Ta3  1  0.899729  0.899729  0.750000  1
  O  O4  1  0.272424  0.790986  0.708126  1
  O  O5  1  0.790986  0.272424  0.791874  1
  O  O6  1  0.727576  0.209014  0.291874  1
  O  O7  1  0.209014  0.727576  0.208126  1
  O  O8  1  0.053285  0.362299  0.340417  1
  O  O9  1  0.362299  0.053285  0.159583  1
  O  O10  1  0.946715  0.637701  0.659583  1
  O  O11  1  0.637701  0.946715  0.840417  1
