# generated using pymatgen
data_LaH6(ClO3)3
_symmetry_space_group_name_H-M   'P 1'
_cell_length_a   8.13910722
_cell_length_b   8.13910722
_cell_length_c   8.41197624
_cell_angle_alpha   90.00000000
_cell_angle_beta   90.00000000
_cell_angle_gamma   120.00000000
_symmetry_Int_Tables_number   1
_chemical_formula_structural   LaH6(ClO3)3
_chemical_formula_sum   'La2 H12 Cl6 O18'
_cell_volume   482.59432197
_cell_formula_units_Z   2
loop_
 _symmetry_equiv_pos_site_id
 _symmetry_equiv_pos_as_xyz
  1  'x, y, z'
loop_
 _atom_site_type_symbol
 _atom_site_label
 _atom_site_symmetry_multiplicity
 _atom_site_fract_x
 _atom_site_fract_y
 _atom_site_fract_z
 _atom_site_occupancy
  La  La0  1  0.666667  0.333333  0.250000  1
  La  La1  1  0.333333  0.666667  0.750000  1
  H  H2  1  0.650778  0.548636  0.656070  1
  H  H3  1  0.548636  0.650778  0.156070  1
  H  H4  1  0.102142  0.451364  0.156070  1
  H  H5  1  0.650778  0.548636  0.843930  1
  H  H6  1  0.349222  0.897858  0.156070  1
  H  H7  1  0.897858  0.349222  0.656070  1
  H  H8  1  0.451364  0.102142  0.843930  1
  H  H9  1  0.349222  0.897858  0.343930  1
  H  H10  1  0.451364  0.102142  0.656070  1
  H  H11  1  0.897858  0.349222  0.843930  1
  H  H12  1  0.102142  0.451364  0.343930  1
  H  H13  1  0.548636  0.650778  0.343930  1
  Cl  Cl14  1  0.762152  0.000000  0.000000  1
  Cl  Cl15  1  0.237848  0.237848  0.500000  1
  Cl  Cl16  1  0.000000  0.762152  0.000000  1
  Cl  Cl17  1  0.762152  0.000000  0.500000  1
  Cl  Cl18  1  0.000000  0.762152  0.500000  1
  Cl  Cl19  1  0.237848  0.237848  0.000000  1
  O  O20  1  0.978292  0.411308  0.750000  1
  O  O21  1  0.187153  0.748795  0.510529  1
  O  O22  1  0.561642  0.812847  0.989471  1
  O  O23  1  0.748795  0.187153  0.010529  1
  O  O24  1  0.588692  0.566984  0.750000  1
  O  O25  1  0.438358  0.251205  0.010529  1
  O  O26  1  0.566984  0.588692  0.250000  1
  O  O27  1  0.251205  0.438358  0.510529  1
  O  O28  1  0.812847  0.561642  0.010529  1
  O  O29  1  0.812847  0.561642  0.489471  1
  O  O30  1  0.251205  0.438358  0.989471  1
  O  O31  1  0.748795  0.187153  0.489471  1
  O  O32  1  0.411308  0.978292  0.250000  1
  O  O33  1  0.021708  0.433016  0.250000  1
  O  O34  1  0.438358  0.251205  0.489471  1
  O  O35  1  0.561642  0.812847  0.510529  1
  O  O36  1  0.187153  0.748795  0.989471  1
  O  O37  1  0.433016  0.021708  0.750000  1
