# generated using pymatgen
data_La2SiS5
_symmetry_space_group_name_H-M   'P 1'
_cell_length_a   7.65629070
_cell_length_b   12.69760175
_cell_length_c   7.94214155
_cell_angle_alpha   90.00000000
_cell_angle_beta   101.38285445
_cell_angle_gamma   90.00000000
_symmetry_Int_Tables_number   1
_chemical_formula_structural   La2SiS5
_chemical_formula_sum   'La8 Si4 S20'
_cell_volume   756.92030559
_cell_formula_units_Z   4
loop_
 _symmetry_equiv_pos_site_id
 _symmetry_equiv_pos_as_xyz
  1  'x, y, z'
loop_
 _atom_site_type_symbol
 _atom_site_label
 _atom_site_symmetry_multiplicity
 _atom_site_fract_x
 _atom_site_fract_y
 _atom_site_fract_z
 _atom_site_occupancy
  La  La0  1  0.739413  0.594995  0.545244  1
  La  La1  1  0.336167  0.835127  0.367104  1
  La  La2  1  0.739413  0.905005  0.045244  1
  La  La3  1  0.663833  0.335127  0.132896  1
  La  La4  1  0.260587  0.094995  0.954756  1
  La  La5  1  0.663833  0.164873  0.632896  1
  La  La6  1  0.336167  0.664873  0.867104  1
  La  La7  1  0.260587  0.405005  0.454756  1
  Si  Si8  1  0.829780  0.616624  0.096252  1
  Si  Si9  1  0.170220  0.383376  0.903748  1
  Si  Si10  1  0.170220  0.116624  0.403748  1
  Si  Si11  1  0.829780  0.883376  0.596252  1
  S  S12  1  0.023483  0.773436  0.550855  1
  S  S13  1  0.362178  0.621328  0.503573  1
  S  S14  1  0.372659  0.297524  0.805940  1
  S  S15  1  0.637822  0.378672  0.496427  1
  S  S16  1  0.362178  0.878672  0.003573  1
  S  S17  1  0.976517  0.273436  0.949145  1
  S  S18  1  0.675128  0.970069  0.388591  1
  S  S19  1  0.920252  0.001177  0.782116  1
  S  S20  1  0.324872  0.470069  0.111409  1
  S  S21  1  0.920252  0.498823  0.282116  1
  S  S22  1  0.627341  0.702476  0.194060  1
  S  S23  1  0.079748  0.998823  0.217884  1
  S  S24  1  0.023483  0.726564  0.050855  1
  S  S25  1  0.675128  0.529931  0.888591  1
  S  S26  1  0.976517  0.226564  0.449145  1
  S  S27  1  0.324872  0.029931  0.611409  1
  S  S28  1  0.079748  0.501177  0.717884  1
  S  S29  1  0.637822  0.121328  0.996427  1
  S  S30  1  0.627341  0.797524  0.694060  1
  S  S31  1  0.372659  0.202476  0.305940  1
