# generated using pymatgen
data_Ag2HgSI2
_symmetry_space_group_name_H-M   'P 1'
_cell_length_a   8.03896421
_cell_length_b   8.03896421
_cell_length_c   7.31767908
_cell_angle_alpha   90.00000000
_cell_angle_beta   90.00000000
_cell_angle_gamma   122.91307283
_symmetry_Int_Tables_number   1
_chemical_formula_structural   Ag2HgSI2
_chemical_formula_sum   'Ag4 Hg2 S2 I4'
_cell_volume   397.00148794
_cell_formula_units_Z   2
loop_
 _symmetry_equiv_pos_site_id
 _symmetry_equiv_pos_as_xyz
  1  'x, y, z'
loop_
 _atom_site_type_symbol
 _atom_site_label
 _atom_site_symmetry_multiplicity
 _atom_site_fract_x
 _atom_site_fract_y
 _atom_site_fract_z
 _atom_site_occupancy
  Ag  Ag0  1  0.505795  0.182497  0.229782  1
  Ag  Ag1  1  0.182497  0.505795  0.229782  1
  Ag  Ag2  1  0.817503  0.494205  0.729782  1
  Ag  Ag3  1  0.494205  0.817503  0.729782  1
  Hg  Hg4  1  0.024437  0.024437  0.585806  1
  Hg  Hg5  1  0.975563  0.975563  0.085806  1
  S  S6  1  0.202932  0.202932  0.314873  1
  S  S7  1  0.797068  0.797068  0.814873  1
  I  I8  1  0.456450  0.138012  0.832778  1
  I  I9  1  0.138012  0.456450  0.832778  1
  I  I10  1  0.543550  0.861988  0.332778  1
  I  I11  1  0.861988  0.543550  0.332778  1
