# generated using pymatgen
data_Sr3V4CdO14
_symmetry_space_group_name_H-M   'P 1'
_cell_length_a   7.17169692
_cell_length_b   7.17169692
_cell_length_c   25.95954794
_cell_angle_alpha   90.00000000
_cell_angle_beta   90.00000000
_cell_angle_gamma   90.00000000
_symmetry_Int_Tables_number   1
_chemical_formula_structural   Sr3V4CdO14
_chemical_formula_sum   'Sr12 V16 Cd4 O56'
_cell_volume   1335.18357414
_cell_formula_units_Z   4
loop_
 _symmetry_equiv_pos_site_id
 _symmetry_equiv_pos_as_xyz
  1  'x, y, z'
loop_
 _atom_site_type_symbol
 _atom_site_label
 _atom_site_symmetry_multiplicity
 _atom_site_fract_x
 _atom_site_fract_y
 _atom_site_fract_z
 _atom_site_occupancy
  Sr  Sr0  1  0.273278  0.273278  0.000000  1
  Sr  Sr1  1  0.337643  0.399803  0.380087  1
  Sr  Sr2  1  0.226722  0.773278  0.250000  1
  Sr  Sr3  1  0.662357  0.600197  0.880087  1
  Sr  Sr4  1  0.399803  0.337643  0.619913  1
  Sr  Sr5  1  0.100197  0.837643  0.630087  1
  Sr  Sr6  1  0.899803  0.162357  0.130087  1
  Sr  Sr7  1  0.162357  0.899803  0.869913  1
  Sr  Sr8  1  0.726722  0.726722  0.500000  1
  Sr  Sr9  1  0.773278  0.226722  0.750000  1
  Sr  Sr10  1  0.837643  0.100197  0.369913  1
  Sr  Sr11  1  0.600197  0.662357  0.119913  1
  V  V12  1  0.248678  0.640338  0.501675  1
  V  V13  1  0.590940  0.832997  0.647117  1
  V  V14  1  0.667003  0.090940  0.897117  1
  V  V15  1  0.748678  0.859662  0.248325  1
  V  V16  1  0.909060  0.332997  0.602883  1
  V  V17  1  0.640338  0.248678  0.498325  1
  V  V18  1  0.090940  0.667003  0.102883  1
  V  V19  1  0.167003  0.409060  0.852883  1
  V  V20  1  0.409060  0.167003  0.147117  1
  V  V21  1  0.751322  0.359662  0.001675  1
  V  V22  1  0.251322  0.140338  0.748325  1
  V  V23  1  0.332997  0.909060  0.397117  1
  V  V24  1  0.859662  0.748678  0.751675  1
  V  V25  1  0.832997  0.590940  0.352883  1
  V  V26  1  0.359662  0.751322  0.998325  1
  V  V27  1  0.140338  0.251322  0.251675  1
  Cd  Cd28  1  0.878251  0.878251  0.000000  1
  Cd  Cd29  1  0.121749  0.121749  0.500000  1
  Cd  Cd30  1  0.621749  0.378251  0.250000  1
  Cd  Cd31  1  0.378251  0.621749  0.750000  1
  O  O32  1  0.242347  0.709899  0.152022  1
  O  O33  1  0.561263  0.846029  0.022840  1
  O  O34  1  0.045015  0.142262  0.584824  1
  O  O35  1  0.498747  0.070127  0.382178  1
  O  O36  1  0.357738  0.545015  0.834824  1
  O  O37  1  0.597884  0.402624  0.049975  1
  O  O38  1  0.438737  0.153971  0.522840  1
  O  O39  1  0.097884  0.097376  0.700025  1
  O  O40  1  0.402624  0.597884  0.950025  1
  O  O41  1  0.761975  0.391769  0.546954  1
  O  O42  1  0.846029  0.561263  0.977160  1
  O  O43  1  0.142262  0.045015  0.415176  1
  O  O44  1  0.238025  0.608231  0.046954  1
  O  O45  1  0.001253  0.570127  0.867822  1
  O  O46  1  0.261975  0.108231  0.203046  1
  O  O47  1  0.346029  0.938737  0.772840  1
  O  O48  1  0.205590  0.923297  0.977442  1
  O  O49  1  0.742347  0.790101  0.597978  1
  O  O50  1  0.429873  0.998747  0.632178  1
  O  O51  1  0.653971  0.061263  0.272840  1
  O  O52  1  0.891769  0.738025  0.296954  1
  O  O53  1  0.097376  0.097884  0.299975  1
  O  O54  1  0.608231  0.238025  0.953046  1
  O  O55  1  0.938737  0.346029  0.227160  1
  O  O56  1  0.570127  0.001253  0.132178  1
  O  O57  1  0.576703  0.705590  0.227442  1
  O  O58  1  0.923297  0.205590  0.022558  1
  O  O59  1  0.738025  0.891769  0.703046  1
  O  O60  1  0.857738  0.954985  0.915176  1
  O  O61  1  0.709899  0.242347  0.847978  1
  O  O62  1  0.597376  0.402116  0.450025  1
  O  O63  1  0.929873  0.501253  0.117822  1
  O  O64  1  0.757653  0.290101  0.652022  1
  O  O65  1  0.402116  0.597376  0.549975  1
  O  O66  1  0.070127  0.498747  0.617822  1
  O  O67  1  0.153971  0.438737  0.477160  1
  O  O68  1  0.642262  0.454985  0.334824  1
  O  O69  1  0.794410  0.076703  0.477442  1
  O  O70  1  0.257653  0.209899  0.097978  1
  O  O71  1  0.294410  0.423297  0.272558  1
  O  O72  1  0.954985  0.857738  0.084824  1
  O  O73  1  0.423297  0.294410  0.727442  1
  O  O74  1  0.790101  0.742347  0.402022  1
  O  O75  1  0.290101  0.757653  0.347978  1
  O  O76  1  0.391769  0.761975  0.453046  1
  O  O77  1  0.076703  0.794410  0.522558  1
  O  O78  1  0.902116  0.902624  0.200025  1
  O  O79  1  0.902624  0.902116  0.799975  1
  O  O80  1  0.108231  0.261975  0.796954  1
  O  O81  1  0.209899  0.257653  0.902022  1
  O  O82  1  0.545015  0.357738  0.165176  1
  O  O83  1  0.705590  0.576703  0.772558  1
  O  O84  1  0.501253  0.929873  0.882178  1
  O  O85  1  0.998747  0.429873  0.367822  1
  O  O86  1  0.061263  0.653971  0.727160  1
  O  O87  1  0.454985  0.642262  0.665176  1
