# generated using pymatgen
data_B4Rh5
_symmetry_space_group_name_H-M   'P 1'
_cell_length_a   3.33590006
_cell_length_b   3.33590006
_cell_length_c   20.62344443
_cell_angle_alpha   90.00000000
_cell_angle_beta   90.00000000
_cell_angle_gamma   120.00000000
_symmetry_Int_Tables_number   1
_chemical_formula_structural   B4Rh5
_chemical_formula_sum   'B8 Rh10'
_cell_volume   198.75492307
_cell_formula_units_Z   2
loop_
 _symmetry_equiv_pos_site_id
 _symmetry_equiv_pos_as_xyz
  1  'x, y, z'
loop_
 _atom_site_type_symbol
 _atom_site_label
 _atom_site_symmetry_multiplicity
 _atom_site_fract_x
 _atom_site_fract_y
 _atom_site_fract_z
 _atom_site_occupancy
  B  B0  1  0.666667  0.333333  0.086282  1
  B  B1  1  0.333333  0.666667  0.586282  1
  B  B2  1  0.666667  0.333333  0.303622  1
  B  B3  1  0.333333  0.666667  0.696378  1
  B  B4  1  0.666667  0.333333  0.196378  1
  B  B5  1  0.333333  0.666667  0.803622  1
  B  B6  1  0.333333  0.666667  0.913718  1
  B  B7  1  0.666667  0.333333  0.413718  1
  Rh  Rh8  1  0.000000  0.000000  0.852238  1
  Rh  Rh9  1  0.000000  0.000000  0.647762  1
  Rh  Rh10  1  0.000000  0.000000  0.352238  1
  Rh  Rh11  1  0.666667  0.333333  0.952288  1
  Rh  Rh12  1  0.666667  0.333333  0.547712  1
  Rh  Rh13  1  0.666667  0.333333  0.750000  1
  Rh  Rh14  1  0.000000  0.000000  0.147762  1
  Rh  Rh15  1  0.333333  0.666667  0.452288  1
  Rh  Rh16  1  0.333333  0.666667  0.047712  1
  Rh  Rh17  1  0.333333  0.666667  0.250000  1
