# generated using pymatgen
data_CsZr6MnI14
_symmetry_space_group_name_H-M   'P 1'
_cell_length_a   11.14101761
_cell_length_b   11.14101761
_cell_length_c   13.41627328
_cell_angle_alpha   90.00000000
_cell_angle_beta   90.00000000
_cell_angle_gamma   95.21127944
_symmetry_Int_Tables_number   1
_chemical_formula_structural   CsZr6MnI14
_chemical_formula_sum   'Cs2 Zr12 Mn2 I28'
_cell_volume   1658.37505776
_cell_formula_units_Z   2
loop_
 _symmetry_equiv_pos_site_id
 _symmetry_equiv_pos_as_xyz
  1  'x, y, z'
loop_
 _atom_site_type_symbol
 _atom_site_label
 _atom_site_symmetry_multiplicity
 _atom_site_fract_x
 _atom_site_fract_y
 _atom_site_fract_z
 _atom_site_occupancy
  Cs  Cs0  1  0.000000  0.000000  0.000000  1
  Cs  Cs1  1  0.500000  0.500000  0.500000  1
  Zr  Zr2  1  0.864120  0.864120  0.600826  1
  Zr  Zr3  1  0.456745  0.674502  0.889447  1
  Zr  Zr4  1  0.825498  0.043255  0.389447  1
  Zr  Zr5  1  0.674502  0.456745  0.889447  1
  Zr  Zr6  1  0.364120  0.364120  0.899174  1
  Zr  Zr7  1  0.174502  0.956745  0.610553  1
  Zr  Zr8  1  0.635880  0.635880  0.100826  1
  Zr  Zr9  1  0.135880  0.135880  0.399174  1
  Zr  Zr10  1  0.543255  0.325498  0.110553  1
  Zr  Zr11  1  0.325498  0.543255  0.110553  1
  Zr  Zr12  1  0.956745  0.174502  0.610553  1
  Zr  Zr13  1  0.043255  0.825498  0.389447  1
  Mn  Mn14  1  0.500000  0.500000  1.000000  1
  Mn  Mn15  1  0.000000  0.000000  0.500000  1
  I  I16  1  0.385791  0.138236  0.005846  1
  I  I17  1  0.361764  0.114209  0.505846  1
  I  I18  1  0.963811  0.210283  0.252424  1
  I  I19  1  0.251135  0.748865  1.000000  1
  I  I20  1  0.156649  0.156649  0.756537  1
  I  I21  1  0.861764  0.614209  0.994154  1
  I  I22  1  0.463811  0.710283  0.247576  1
  I  I23  1  0.789717  0.036189  0.747576  1
  I  I24  1  0.103451  0.603451  0.250000  1
  I  I25  1  0.885791  0.638236  0.494154  1
  I  I26  1  0.751135  0.248865  0.500000  1
  I  I27  1  0.638236  0.885791  0.494154  1
  I  I28  1  0.656649  0.656649  0.743463  1
  I  I29  1  0.210283  0.963811  0.252424  1
  I  I30  1  0.843351  0.843351  0.243463  1
  I  I31  1  0.343351  0.343351  0.256537  1
  I  I32  1  0.396549  0.896549  0.750000  1
  I  I33  1  0.138236  0.385791  0.005846  1
  I  I34  1  0.710283  0.463811  0.247576  1
  I  I35  1  0.603451  0.103451  0.250000  1
  I  I36  1  0.748865  0.251135  1.000000  1
  I  I37  1  0.248865  0.751135  0.500000  1
  I  I38  1  0.614209  0.861764  0.994154  1
  I  I39  1  0.289717  0.536189  0.752424  1
  I  I40  1  0.896549  0.396549  0.750000  1
  I  I41  1  0.036189  0.789717  0.747576  1
  I  I42  1  0.536189  0.289717  0.752424  1
  I  I43  1  0.114209  0.361764  0.505846  1
