# generated using pymatgen
data_Sb2MoO6
_symmetry_space_group_name_H-M   'P 1'
_cell_length_a   7.66509045
_cell_length_b   7.69932818
_cell_length_c   10.34122671
_cell_angle_alpha   110.19882870
_cell_angle_beta   109.76937376
_cell_angle_gamma   83.94007190
_symmetry_Int_Tables_number   1
_chemical_formula_structural   Sb2MoO6
_chemical_formula_sum   'Sb8 Mo4 O24'
_cell_volume   538.96375384
_cell_formula_units_Z   4
loop_
 _symmetry_equiv_pos_site_id
 _symmetry_equiv_pos_as_xyz
  1  'x, y, z'
loop_
 _atom_site_type_symbol
 _atom_site_label
 _atom_site_symmetry_multiplicity
 _atom_site_fract_x
 _atom_site_fract_y
 _atom_site_fract_z
 _atom_site_occupancy
  Sb  Sb0  1  0.443334  0.375234  0.673812  1
  Sb  Sb1  1  0.075545  0.130618  0.336806  1
  Sb  Sb2  1  0.121200  0.577156  0.338124  1
  Sb  Sb3  1  0.631922  0.056424  0.329114  1
  Sb  Sb4  1  0.924455  0.869382  0.663194  1
  Sb  Sb5  1  0.556666  0.624766  0.326188  1
  Sb  Sb6  1  0.878800  0.422844  0.661876  1
  Sb  Sb7  1  0.368078  0.943576  0.670886  1
  Mo  Mo8  1  0.771053  0.276360  0.001696  1
  Mo  Mo9  1  0.273966  0.227142  0.014145  1
  Mo  Mo10  1  0.726034  0.772858  0.985855  1
  Mo  Mo11  1  0.228947  0.723640  0.998304  1
  O  O12  1  0.736501  0.581342  0.811816  1
  O  O13  1  0.112533  0.809467  0.556853  1
  O  O14  1  0.582797  0.223505  0.810594  1
  O  O15  1  0.221450  0.099615  0.810112  1
  O  O16  1  0.625614  0.294095  0.562259  1
  O  O17  1  0.030608  0.745194  0.058423  1
  O  O18  1  0.750351  0.969055  0.936427  1
  O  O19  1  0.887467  0.190533  0.443147  1
  O  O20  1  0.301216  0.126005  0.560675  1
  O  O21  1  0.195873  0.388328  0.441778  1
  O  O22  1  0.254904  0.477649  0.942186  1
  O  O23  1  0.417203  0.776495  0.189406  1
  O  O24  1  0.520998  0.242755  0.058917  1
  O  O25  1  0.249649  0.030945  0.063573  1
  O  O26  1  0.263499  0.418658  0.188184  1
  O  O27  1  0.698784  0.873995  0.439325  1
  O  O28  1  0.804127  0.611672  0.558222  1
  O  O29  1  0.778550  0.900385  0.189888  1
  O  O30  1  0.374386  0.705905  0.437741  1
  O  O31  1  0.969392  0.254806  0.941577  1
  O  O32  1  0.745096  0.522351  0.057814  1
  O  O33  1  0.479002  0.757245  0.941083  1
  O  O34  1  0.100447  0.737217  0.811389  1
  O  O35  1  0.899553  0.262783  0.188611  1
