# generated using pymatgen
data_La3Si2ClO8
_symmetry_space_group_name_H-M   'P 1'
_cell_length_a   8.02985401
_cell_length_b   8.02985401
_cell_length_c   8.90673534
_cell_angle_alpha   82.56603721
_cell_angle_beta   97.43396279
_cell_angle_gamma   131.73433285
_symmetry_Int_Tables_number   1
_chemical_formula_structural   La3Si2ClO8
_chemical_formula_sum   'La6 Si4 Cl2 O16'
_cell_volume   424.23150377
_cell_formula_units_Z   2
loop_
 _symmetry_equiv_pos_site_id
 _symmetry_equiv_pos_as_xyz
  1  'x, y, z'
loop_
 _atom_site_type_symbol
 _atom_site_label
 _atom_site_symmetry_multiplicity
 _atom_site_fract_x
 _atom_site_fract_y
 _atom_site_fract_z
 _atom_site_occupancy
  La  La0  1  0.930982  0.930982  0.250000  1
  La  La1  1  0.419601  0.788414  0.829347  1
  La  La2  1  0.788414  0.419601  0.670653  1
  La  La3  1  0.580399  0.211586  0.170653  1
  La  La4  1  0.211586  0.580399  0.329347  1
  La  La5  1  0.069018  0.069018  0.750000  1
  Si  Si6  1  0.101945  0.785490  0.026421  1
  Si  Si7  1  0.898055  0.214510  0.973579  1
  Si  Si8  1  0.785490  0.101945  0.473579  1
  Si  Si9  1  0.214510  0.898055  0.526421  1
  Cl  Cl10  1  0.475435  0.475435  0.250000  1
  Cl  Cl11  1  0.524565  0.524565  0.750000  1
  O  O12  1  0.381488  0.092927  0.646801  1
  O  O13  1  0.957141  0.799610  0.532618  1
  O  O14  1  0.796513  0.314817  0.419035  1
  O  O15  1  0.685183  0.203487  0.919035  1
  O  O16  1  0.799610  0.957141  0.967382  1
  O  O17  1  0.907073  0.618512  0.146801  1
  O  O18  1  0.618512  0.907073  0.353199  1
  O  O19  1  0.727917  0.035985  0.652402  1
  O  O20  1  0.272084  0.964015  0.347598  1
  O  O21  1  0.964015  0.272084  0.152402  1
  O  O22  1  0.314817  0.796513  0.080965  1
  O  O23  1  0.042859  0.200390  0.467382  1
  O  O24  1  0.203487  0.685183  0.580965  1
  O  O25  1  0.200390  0.042859  0.032618  1
  O  O26  1  0.092927  0.381488  0.853199  1
  O  O27  1  0.035985  0.727917  0.847598  1
