# generated using pymatgen
data_Ho4InIr
_symmetry_space_group_name_H-M   'P 1'
_cell_length_a   9.63198628
_cell_length_b   9.63198628
_cell_length_c   9.63198628
_cell_angle_alpha   60.00000000
_cell_angle_beta   60.00000000
_cell_angle_gamma   60.00000000
_symmetry_Int_Tables_number   1
_chemical_formula_structural   Ho4InIr
_chemical_formula_sum   'Ho16 In4 Ir4'
_cell_volume   631.87702935
_cell_formula_units_Z   4
loop_
 _symmetry_equiv_pos_site_id
 _symmetry_equiv_pos_as_xyz
  1  'x, y, z'
loop_
 _atom_site_type_symbol
 _atom_site_label
 _atom_site_symmetry_multiplicity
 _atom_site_fract_x
 _atom_site_fract_y
 _atom_site_fract_z
 _atom_site_occupancy
  Ho  Ho0  1  0.310114  0.689886  0.689886  1
  Ho  Ho1  1  0.900967  0.900967  0.900967  1
  Ho  Ho2  1  0.058993  0.058993  0.441007  1
  Ho  Ho3  1  0.689886  0.689886  0.310114  1
  Ho  Ho4  1  0.441007  0.058993  0.441007  1
  Ho  Ho5  1  0.310114  0.689886  0.310114  1
  Ho  Ho6  1  0.058993  0.441007  0.058993  1
  Ho  Ho7  1  0.297100  0.900967  0.900967  1
  Ho  Ho8  1  0.441007  0.441007  0.058993  1
  Ho  Ho9  1  0.058993  0.441007  0.441007  1
  Ho  Ho10  1  0.900967  0.900967  0.297100  1
  Ho  Ho11  1  0.689886  0.310114  0.689886  1
  Ho  Ho12  1  0.689886  0.310114  0.310114  1
  Ho  Ho13  1  0.900967  0.297100  0.900967  1
  Ho  Ho14  1  0.441007  0.058993  0.058993  1
  Ho  Ho15  1  0.310114  0.310114  0.689886  1
  In  In16  1  0.998902  0.667033  0.667033  1
  In  In17  1  0.667033  0.667033  0.667033  1
  In  In18  1  0.667033  0.998902  0.667033  1
  In  In19  1  0.667033  0.667033  0.998902  1
  Ir  Ir20  1  0.108701  0.108701  0.673896  1
  Ir  Ir21  1  0.673896  0.108701  0.108701  1
  Ir  Ir22  1  0.108701  0.673896  0.108701  1
  Ir  Ir23  1  0.108701  0.108701  0.108701  1
