# generated using pymatgen
data_CsMn(PO3)4
_symmetry_space_group_name_H-M   'P 1'
_cell_length_a   5.33326477
_cell_length_b   13.84409005
_cell_length_c   7.55547461
_cell_angle_alpha   90.00000000
_cell_angle_beta   102.24374841
_cell_angle_gamma   90.00000000
_symmetry_Int_Tables_number   1
_chemical_formula_structural   CsMn(PO3)4
_chemical_formula_sum   'Cs2 Mn2 P8 O24'
_cell_volume   545.16363603
_cell_formula_units_Z   2
loop_
 _symmetry_equiv_pos_site_id
 _symmetry_equiv_pos_as_xyz
  1  'x, y, z'
loop_
 _atom_site_type_symbol
 _atom_site_label
 _atom_site_symmetry_multiplicity
 _atom_site_fract_x
 _atom_site_fract_y
 _atom_site_fract_z
 _atom_site_occupancy
  Cs  Cs0  1  0.383962  0.001189  0.666107  1
  Cs  Cs1  1  0.616038  0.501189  0.333893  1
  Mn  Mn2  1  0.501913  0.235235  0.013594  1
  Mn  Mn3  1  0.498087  0.735235  0.986406  1
  P  P4  1  0.996579  0.875421  0.054702  1
  P  P5  1  0.789538  0.819483  0.363149  1
  P  P6  1  0.003421  0.375421  0.945298  1
  P  P7  1  0.862022  0.178462  0.402827  1
  P  P8  1  0.999889  0.095112  0.073042  1
  P  P9  1  0.000111  0.595112  0.926958  1
  P  P10  1  0.137978  0.678462  0.597173  1
  P  P11  1  0.210462  0.319483  0.636851  1
  O  O12  1  0.779804  0.154974  0.967122  1
  O  O13  1  0.254809  0.104641  0.023763  1
  O  O14  1  0.974425  0.612976  0.713637  1
  O  O15  1  0.896648  0.985841  0.043588  1
  O  O16  1  0.246925  0.866831  0.997987  1
  O  O17  1  0.026967  0.848552  0.264432  1
  O  O18  1  0.025575  0.112976  0.286363  1
  O  O19  1  0.170491  0.623496  0.436489  1
  O  O20  1  0.829509  0.123496  0.563511  1
  O  O21  1  0.363149  0.239835  0.753519  1
  O  O22  1  0.753075  0.366831  0.002013  1
  O  O23  1  0.745191  0.604641  0.976237  1
  O  O24  1  0.220196  0.654974  0.032878  1
  O  O25  1  0.103352  0.485841  0.956412  1
  O  O26  1  0.054598  0.269907  0.454271  1
  O  O27  1  0.659883  0.906671  0.410799  1
  O  O28  1  0.371804  0.720357  0.726264  1
  O  O29  1  0.945402  0.769907  0.545729  1
  O  O30  1  0.340117  0.406671  0.589201  1
  O  O31  1  0.770069  0.820780  0.941131  1
  O  O32  1  0.229931  0.320780  0.058869  1
  O  O33  1  0.973033  0.348552  0.735568  1
  O  O34  1  0.636851  0.739835  0.246481  1
  O  O35  1  0.628196  0.220357  0.273736  1
