# generated using pymatgen
data_HoSnAu
_symmetry_space_group_name_H-M   'P 1'
_cell_length_a   4.70036439
_cell_length_b   4.70036439
_cell_length_c   7.43229241
_cell_angle_alpha   90.00000000
_cell_angle_beta   90.00000000
_cell_angle_gamma   120.00000000
_symmetry_Int_Tables_number   1
_chemical_formula_structural   HoSnAu
_chemical_formula_sum   'Ho2 Sn2 Au2'
_cell_volume   142.20552632
_cell_formula_units_Z   2
loop_
 _symmetry_equiv_pos_site_id
 _symmetry_equiv_pos_as_xyz
  1  'x, y, z'
loop_
 _atom_site_type_symbol
 _atom_site_label
 _atom_site_symmetry_multiplicity
 _atom_site_fract_x
 _atom_site_fract_y
 _atom_site_fract_z
 _atom_site_occupancy
  Ho  Ho0  1  0.000000  0.000000  0.750146  1
  Ho  Ho1  1  0.000000  0.000000  0.250146  1
  Sn  Sn2  1  0.333333  0.666667  0.476483  1
  Sn  Sn3  1  0.666667  0.333333  0.976483  1
  Au  Au4  1  0.333333  0.666667  0.079471  1
  Au  Au5  1  0.666667  0.333333  0.579471  1
