# generated using pymatgen
data_Dy4Ni12Sn25
_symmetry_space_group_name_H-M   'P 1'
_cell_length_a   10.35010821
_cell_length_b   10.35010821
_cell_length_c   10.35010821
_cell_angle_alpha   109.47122063
_cell_angle_beta   109.47122063
_cell_angle_gamma   109.47122063
_symmetry_Int_Tables_number   1
_chemical_formula_structural   Dy4Ni12Sn25
_chemical_formula_sum   'Dy4 Ni12 Sn25'
_cell_volume   853.51818746
_cell_formula_units_Z   1
loop_
 _symmetry_equiv_pos_site_id
 _symmetry_equiv_pos_as_xyz
  1  'x, y, z'
loop_
 _atom_site_type_symbol
 _atom_site_label
 _atom_site_symmetry_multiplicity
 _atom_site_fract_x
 _atom_site_fract_y
 _atom_site_fract_z
 _atom_site_occupancy
  Dy  Dy0  1  0.000000  0.000000  0.500000  1
  Dy  Dy1  1  0.000000  0.500000  0.000000  1
  Dy  Dy2  1  0.500000  0.000000  0.000000  1
  Dy  Dy3  1  0.500000  0.500000  0.500000  1
  Ni  Ni4  1  0.517150  0.680045  0.837105  1
  Ni  Ni5  1  0.842940  0.680045  0.162895  1
  Ni  Ni6  1  0.837105  0.157060  0.319955  1
  Ni  Ni7  1  0.162895  0.842940  0.680045  1
  Ni  Ni8  1  0.319955  0.837105  0.157060  1
  Ni  Ni9  1  0.680045  0.837105  0.517150  1
  Ni  Ni10  1  0.482850  0.319955  0.162895  1
  Ni  Ni11  1  0.680045  0.162895  0.842940  1
  Ni  Ni12  1  0.162895  0.482850  0.319955  1
  Ni  Ni13  1  0.157060  0.319955  0.837105  1
  Ni  Ni14  1  0.837105  0.517150  0.680045  1
  Ni  Ni15  1  0.319955  0.162895  0.482850  1
  Sn  Sn16  1  0.877973  0.126577  0.751397  1
  Sn  Sn17  1  0.248603  0.122027  0.873423  1
  Sn  Sn18  1  0.998135  0.627421  0.370714  1
  Sn  Sn19  1  0.256707  0.627421  0.629286  1
  Sn  Sn20  1  0.624820  0.873423  0.751397  1
  Sn  Sn21  1  0.126577  0.248603  0.375180  1
  Sn  Sn22  1  0.751397  0.877973  0.126577  1
  Sn  Sn23  1  0.627421  0.370714  0.998135  1
  Sn  Sn24  1  0.001865  0.372579  0.629286  1
  Sn  Sn25  1  0.375180  0.126577  0.248603  1
  Sn  Sn26  1  0.629286  0.256707  0.627421  1
  Sn  Sn27  1  0.873423  0.248603  0.122027  1
  Sn  Sn28  1  0.122027  0.873423  0.248603  1
  Sn  Sn29  1  0.627421  0.629286  0.256707  1
  Sn  Sn30  1  0.126577  0.751397  0.877973  1
  Sn  Sn31  1  0.000000  0.000000  0.000000  1
  Sn  Sn32  1  0.873423  0.751397  0.624820  1
  Sn  Sn33  1  0.372579  0.629286  0.001865  1
  Sn  Sn34  1  0.370714  0.743293  0.372579  1
  Sn  Sn35  1  0.248603  0.375180  0.126577  1
  Sn  Sn36  1  0.372579  0.370714  0.743293  1
  Sn  Sn37  1  0.370714  0.998135  0.627421  1
  Sn  Sn38  1  0.629286  0.001865  0.372579  1
  Sn  Sn39  1  0.751397  0.624820  0.873423  1
  Sn  Sn40  1  0.743293  0.372579  0.370714  1
