# generated using pymatgen
data_Tl4Mo5O17
_symmetry_space_group_name_H-M   'P 1'
_cell_length_a   7.96938951
_cell_length_b   11.04753111
_cell_length_c   11.18268026
_cell_angle_alpha   73.98282061
_cell_angle_beta   80.63286095
_cell_angle_gamma   80.40709631
_symmetry_Int_Tables_number   1
_chemical_formula_structural   Tl4Mo5O17
_chemical_formula_sum   'Tl8 Mo10 O34'
_cell_volume   925.98211446
_cell_formula_units_Z   2
loop_
 _symmetry_equiv_pos_site_id
 _symmetry_equiv_pos_as_xyz
  1  'x, y, z'
loop_
 _atom_site_type_symbol
 _atom_site_label
 _atom_site_symmetry_multiplicity
 _atom_site_fract_x
 _atom_site_fract_y
 _atom_site_fract_z
 _atom_site_occupancy
  Tl  Tl0  1  0.108759  0.100967  0.197096  1
  Tl  Tl1  1  0.257657  0.572679  0.905056  1
  Tl  Tl2  1  0.570905  0.270401  0.786985  1
  Tl  Tl3  1  0.622774  0.176130  0.469964  1
  Tl  Tl4  1  0.429095  0.729599  0.213015  1
  Tl  Tl5  1  0.377226  0.823870  0.530036  1
  Tl  Tl6  1  0.891241  0.899033  0.802904  1
  Tl  Tl7  1  0.742343  0.427321  0.094944  1
  Mo  Mo8  1  0.392599  0.937877  0.829264  1
  Mo  Mo9  1  0.184268  0.480118  0.574051  1
  Mo  Mo10  1  0.922448  0.760659  0.183231  1
  Mo  Mo11  1  0.607401  0.062123  0.170736  1
  Mo  Mo12  1  0.129646  0.187513  0.524452  1
  Mo  Mo13  1  0.870354  0.812487  0.475548  1
  Mo  Mo14  1  0.077552  0.239341  0.816769  1
  Mo  Mo15  1  0.800774  0.569026  0.723386  1
  Mo  Mo16  1  0.815732  0.519882  0.425949  1
  Mo  Mo17  1  0.199226  0.430974  0.276614  1
  O  O18  1  0.022139  0.392993  0.457753  1
  O  O19  1  0.677335  0.183670  0.221375  1
  O  O20  1  0.006941  0.139839  0.432327  1
  O  O21  1  0.976220  0.415898  0.722766  1
  O  O22  1  0.209073  0.302533  0.890043  1
  O  O23  1  0.629375  0.501957  0.828629  1
  O  O24  1  0.789299  0.929805  0.154657  1
  O  O25  1  0.895726  0.211954  0.925508  1
  O  O26  1  0.464562  0.865979  0.975771  1
  O  O27  1  0.094547  0.370129  0.183105  1
  O  O28  1  0.535438  0.134021  0.024229  1
  O  O29  1  0.790927  0.697467  0.109957  1
  O  O30  1  0.210701  0.070195  0.845343  1
  O  O31  1  0.711213  0.453564  0.338761  1
  O  O32  1  0.322665  0.816330  0.778625  1
  O  O33  1  0.576529  0.995402  0.730352  1
  O  O34  1  0.905453  0.629871  0.816895  1
  O  O35  1  0.370625  0.498043  0.171371  1
  O  O36  1  0.748592  0.697240  0.370352  1
  O  O37  1  0.288381  0.057689  0.569889  1
  O  O38  1  0.983762  0.180813  0.673912  1
  O  O39  1  0.702876  0.723110  0.621904  1
  O  O40  1  0.977861  0.607007  0.542247  1
  O  O41  1  0.251408  0.302760  0.629648  1
  O  O42  1  0.288787  0.546436  0.661239  1
  O  O43  1  0.711619  0.942311  0.430111  1
  O  O44  1  0.297124  0.276890  0.378096  1
  O  O45  1  0.104274  0.788046  0.074492  1
  O  O46  1  0.423471  0.004598  0.269648  1
  O  O47  1  0.993059  0.860161  0.567673  1
  O  O48  1  0.016238  0.819187  0.326088  1
  O  O49  1  0.702630  0.482445  0.580339  1
  O  O50  1  0.297370  0.517555  0.419661  1
  O  O51  1  0.023780  0.584102  0.277234  1
