# generated using pymatgen
data_CuSb2(XeF5)4
_symmetry_space_group_name_H-M   'P 1'
_cell_length_a   9.07008225
_cell_length_b   9.07008225
_cell_length_c   9.07008225
_cell_angle_alpha   102.66147795
_cell_angle_beta   102.66147795
_cell_angle_gamma   124.16786873
_symmetry_Int_Tables_number   1
_chemical_formula_structural   CuSb2(XeF5)4
_chemical_formula_sum   'Cu1 Sb2 Xe4 F20'
_cell_volume   545.53111184
_cell_formula_units_Z   1
loop_
 _symmetry_equiv_pos_site_id
 _symmetry_equiv_pos_as_xyz
  1  'x, y, z'
loop_
 _atom_site_type_symbol
 _atom_site_label
 _atom_site_symmetry_multiplicity
 _atom_site_fract_x
 _atom_site_fract_y
 _atom_site_fract_z
 _atom_site_occupancy
  Cu  Cu0  1  0.500000  0.500000  0.000000  1
  Sb  Sb1  1  0.250000  0.750000  0.500000  1
  Sb  Sb2  1  0.000000  0.000000  0.000000  1
  Xe  Xe3  1  0.486644  0.905673  0.115722  1
  Xe  Xe4  1  0.094327  0.210049  0.580971  1
  Xe  Xe5  1  0.789951  0.370922  0.884278  1
  Xe  Xe6  1  0.629078  0.513356  0.419029  1
  F  F7  1  0.454109  0.654075  0.134106  1
  F  F8  1  0.353154  0.614600  0.476746  1
  F  F9  1  0.852035  0.961160  0.381088  1
  F  F10  1  0.123591  0.646846  0.261446  1
  F  F11  1  0.155381  0.078944  0.226189  1
  F  F12  1  0.385400  0.862146  0.738554  1
  F  F13  1  0.038840  0.419928  0.890875  1
  F  F14  1  0.580072  0.470948  0.618912  1
  F  F15  1  0.477198  0.977198  0.500000  1
  F  F16  1  0.852755  0.929192  0.773811  1
  F  F17  1  0.022802  0.522802  0.500000  1
  F  F18  1  0.679996  0.545891  0.199965  1
  F  F19  1  0.770806  0.770806  0.000000  1
  F  F20  1  0.345925  0.480031  0.800035  1
  F  F21  1  0.921055  0.147245  0.076436  1
  F  F22  1  0.529052  0.147965  0.109125  1
  F  F23  1  0.519969  0.320004  0.865894  1
  F  F24  1  0.137854  0.876409  0.523254  1
  F  F25  1  0.070808  0.844619  0.923564  1
  F  F26  1  0.229194  0.229194  0.000000  1
