# generated using pymatgen
data_Nb2(PO4)3
_symmetry_space_group_name_H-M   'P 1'
_cell_length_a   8.81149170
_cell_length_b   8.81396543
_cell_length_c   9.11407001
_cell_angle_alpha   90.18813371
_cell_angle_beta   118.67160637
_cell_angle_gamma   119.96998482
_symmetry_Int_Tables_number   1
_chemical_formula_structural   Nb2(PO4)3
_chemical_formula_sum   'Nb4 P6 O24'
_cell_volume   509.77595183
_cell_formula_units_Z   2
loop_
 _symmetry_equiv_pos_site_id
 _symmetry_equiv_pos_as_xyz
  1  'x, y, z'
loop_
 _atom_site_type_symbol
 _atom_site_label
 _atom_site_symmetry_multiplicity
 _atom_site_fract_x
 _atom_site_fract_y
 _atom_site_fract_z
 _atom_site_occupancy
  Nb  Nb0  1  0.215100  0.859026  0.073610  1
  Nb  Nb1  1  0.786576  0.641852  0.429433  1
  Nb  Nb2  1  0.213424  0.358148  0.570567  1
  Nb  Nb3  1  0.784900  0.140974  0.926390  1
  P  P4  1  0.997204  0.966380  0.247455  1
  P  P5  1  0.281143  0.531974  0.251021  1
  P  P6  1  0.282171  0.751608  0.746994  1
  P  P7  1  0.717829  0.248392  0.253006  1
  P  P8  1  0.718857  0.468026  0.748979  1
  P  P9  1  0.002796  0.033620  0.752545  1
  O  O10  1  0.290871  0.706828  0.216521  1
  O  O11  1  0.859167  0.989143  0.076743  1
  O  O12  1  0.857843  0.855500  0.595625  1
  O  O13  1  0.851344  0.802586  0.282441  1
  O  O14  1  0.137573  0.925610  0.225441  1
  O  O15  1  0.482265  0.553846  0.287669  1
  O  O16  1  0.094743  0.733549  0.581645  1
  O  O17  1  0.910906  0.637831  0.913148  1
  O  O18  1  0.278676  0.784274  0.910977  1
  O  O19  1  0.486983  0.916589  0.774269  1
  O  O20  1  0.734217  0.489276  0.588066  1
  O  O21  1  0.725623  0.426093  0.277874  1
  O  O22  1  0.274377  0.573907  0.722126  1
  O  O23  1  0.265783  0.510724  0.411934  1
  O  O24  1  0.513017  0.083411  0.225731  1
  O  O25  1  0.721324  0.215726  0.089023  1
  O  O26  1  0.089094  0.362169  0.086852  1
  O  O27  1  0.905257  0.266451  0.418355  1
  O  O28  1  0.517735  0.446154  0.712331  1
  O  O29  1  0.862427  0.074390  0.774559  1
  O  O30  1  0.148656  0.197414  0.717559  1
  O  O31  1  0.142157  0.144500  0.404375  1
  O  O32  1  0.140833  0.010857  0.923257  1
  O  O33  1  0.709129  0.293172  0.783479  1
