# generated using pymatgen
data_PICl8
_symmetry_space_group_name_H-M   'P 1'
_cell_length_a   12.29507505
_cell_length_b   12.29507505
_cell_length_c   12.29507505
_cell_angle_alpha   118.30554657
_cell_angle_beta   117.24832523
_cell_angle_gamma   93.89789457
_symmetry_Int_Tables_number   1
_chemical_formula_structural   PICl8
_chemical_formula_sum   'P4 I4 Cl32'
_cell_volume   1354.88771337
_cell_formula_units_Z   4
loop_
 _symmetry_equiv_pos_site_id
 _symmetry_equiv_pos_as_xyz
  1  'x, y, z'
loop_
 _atom_site_type_symbol
 _atom_site_label
 _atom_site_symmetry_multiplicity
 _atom_site_fract_x
 _atom_site_fract_y
 _atom_site_fract_z
 _atom_site_occupancy
  P  P0  1  0.246484  0.746484  0.500000  1
  P  P1  1  0.253516  0.253516  1.000000  1
  P  P2  1  0.746484  0.746484  1.000000  1
  P  P3  1  0.753516  0.253516  0.500000  1
  I  I4  1  0.750000  0.310377  0.060377  1
  I  I5  1  0.750000  0.821557  0.571557  1
  I  I6  1  0.250000  0.178443  0.428443  1
  I  I7  1  0.250000  0.689623  0.939623  1
  Cl  Cl8  1  0.226237  0.241306  0.824173  1
  Cl  Cl9  1  0.750000  0.021098  0.771098  1
  Cl  Cl10  1  0.393089  0.912605  0.677053  1
  Cl  Cl11  1  0.106911  0.283964  0.019516  1
  Cl  Cl12  1  0.400904  0.332093  0.431189  1
  Cl  Cl13  1  0.764448  0.283964  0.677053  1
  Cl  Cl14  1  0.099096  0.030285  0.431189  1
  Cl  Cl15  1  0.250000  0.978902  0.228902  1
  Cl  Cl16  1  0.582867  0.597936  0.824173  1
  Cl  Cl17  1  0.098856  0.539895  0.941038  1
  Cl  Cl18  1  0.235552  0.716036  0.322947  1
  Cl  Cl19  1  0.552837  0.307723  0.860560  1
  Cl  Cl20  1  0.250000  0.381117  0.631117  1
  Cl  Cl21  1  0.773763  0.758694  0.175827  1
  Cl  Cl22  1  0.598856  0.157818  0.058962  1
  Cl  Cl23  1  0.947163  0.307723  0.254886  1
  Cl  Cl24  1  0.726237  0.402064  0.484931  1
  Cl  Cl25  1  0.900904  0.969715  0.568811  1
  Cl  Cl26  1  0.901144  0.460105  0.058962  1
  Cl  Cl27  1  0.264448  0.087395  0.980484  1
  Cl  Cl28  1  0.052837  0.692277  0.745114  1
  Cl  Cl29  1  0.417133  0.402064  0.175827  1
  Cl  Cl30  1  0.735552  0.912605  0.019516  1
  Cl  Cl31  1  0.082867  0.758694  0.484931  1
  Cl  Cl32  1  0.750000  0.618883  0.368883  1
  Cl  Cl33  1  0.273763  0.597936  0.515069  1
  Cl  Cl34  1  0.401144  0.842182  0.941038  1
  Cl  Cl35  1  0.606911  0.087395  0.322947  1
  Cl  Cl36  1  0.917133  0.241306  0.515069  1
  Cl  Cl37  1  0.893089  0.716036  0.980484  1
  Cl  Cl38  1  0.599096  0.667907  0.568811  1
  Cl  Cl39  1  0.447163  0.692277  0.139440  1
