# generated using pymatgen
data_Na3Bi(PO4)2
_symmetry_space_group_name_H-M   'P 1'
_cell_length_a   14.14678035
_cell_length_b   5.42055202
_cell_length_c   20.03795741
_cell_angle_alpha   90.00000000
_cell_angle_beta   110.52038299
_cell_angle_gamma   90.00000000
_symmetry_Int_Tables_number   1
_chemical_formula_structural   Na3Bi(PO4)2
_chemical_formula_sum   'Na24 Bi8 P16 O64'
_cell_volume   1439.07823683
_cell_formula_units_Z   8
loop_
 _symmetry_equiv_pos_site_id
 _symmetry_equiv_pos_as_xyz
  1  'x, y, z'
loop_
 _atom_site_type_symbol
 _atom_site_label
 _atom_site_symmetry_multiplicity
 _atom_site_fract_x
 _atom_site_fract_y
 _atom_site_fract_z
 _atom_site_occupancy
  Na  Na0  1  0.054447  0.291515  0.801570  1
  Na  Na1  1  0.332007  0.245806  0.639482  1
  Na  Na2  1  0.193012  0.751282  0.862722  1
  Na  Na3  1  0.310882  0.252335  0.964599  1
  Na  Na4  1  0.445553  0.791515  0.198430  1
  Na  Na5  1  0.667993  0.754194  0.360518  1
  Na  Na6  1  0.749494  0.744733  0.696948  1
  Na  Na7  1  0.844949  0.748196  0.534834  1
  Na  Na8  1  0.167993  0.745806  0.360518  1
  Na  Na9  1  0.945553  0.708485  0.198430  1
  Na  Na10  1  0.250506  0.255267  0.303052  1
  Na  Na11  1  0.249494  0.755267  0.696948  1
  Na  Na12  1  0.655051  0.248196  0.465166  1
  Na  Na13  1  0.344949  0.751804  0.534834  1
  Na  Na14  1  0.810882  0.247665  0.964599  1
  Na  Na15  1  0.155051  0.251804  0.465166  1
  Na  Na16  1  0.306988  0.251282  0.137278  1
  Na  Na17  1  0.689118  0.747665  0.035401  1
  Na  Na18  1  0.806988  0.248718  0.137278  1
  Na  Na19  1  0.750506  0.244733  0.303052  1
  Na  Na20  1  0.693012  0.748718  0.862722  1
  Na  Na21  1  0.554447  0.208485  0.801570  1
  Na  Na22  1  0.832007  0.254194  0.639482  1
  Na  Na23  1  0.189118  0.752335  0.035401  1
  Bi  Bi24  1  0.044950  0.192984  0.119020  1
  Bi  Bi25  1  0.573099  0.208096  0.617443  1
  Bi  Bi26  1  0.426901  0.791904  0.382557  1
  Bi  Bi27  1  0.073099  0.291904  0.617443  1
  Bi  Bi28  1  0.955050  0.807016  0.880980  1
  Bi  Bi29  1  0.455050  0.692984  0.880980  1
  Bi  Bi30  1  0.544950  0.307016  0.119020  1
  Bi  Bi31  1  0.926901  0.708096  0.382557  1
  P  P32  1  0.082384  0.269107  0.960395  1
  P  P33  1  0.879606  0.235932  0.462288  1
  P  P34  1  0.120394  0.764068  0.537712  1
  P  P35  1  0.211632  0.725150  0.207793  1
  P  P36  1  0.495315  0.723120  0.707407  1
  P  P37  1  0.288368  0.225150  0.792207  1
  P  P38  1  0.004685  0.223120  0.292593  1
  P  P39  1  0.917616  0.730893  0.039605  1
  P  P40  1  0.995315  0.776880  0.707407  1
  P  P41  1  0.711632  0.774850  0.207793  1
  P  P42  1  0.504685  0.276880  0.292593  1
  P  P43  1  0.582384  0.230893  0.960395  1
  P  P44  1  0.788368  0.274850  0.792207  1
  P  P45  1  0.417616  0.769107  0.039605  1
  P  P46  1  0.379606  0.264068  0.462288  1
  P  P47  1  0.620394  0.735932  0.537712  1
  O  O48  1  0.599378  0.452359  0.913955  1
  O  O49  1  0.008775  0.739413  0.530223  1
  O  O50  1  0.582455  0.864403  0.692851  1
  O  O51  1  0.087828  0.512455  0.919750  1
  O  O52  1  0.330465  0.501045  0.419325  1
  O  O53  1  0.192393  0.444123  0.190368  1
  O  O54  1  0.400622  0.547641  0.086045  1
  O  O55  1  0.830465  0.998955  0.419325  1
  O  O56  1  0.608593  0.176861  0.338841  1
  O  O57  1  0.670714  0.232962  0.032504  1
  O  O58  1  0.978244  0.235465  0.967479  1
  O  O59  1  0.766425  0.657998  0.161789  1
  O  O60  1  0.135721  0.768249  0.464997  1
  O  O61  1  0.417545  0.135597  0.307149  1
  O  O62  1  0.015934  0.732735  0.789171  1
  O  O63  1  0.181629  0.536447  0.581537  1
  O  O64  1  0.773226  0.755382  0.290109  1
  O  O65  1  0.692393  0.055877  0.190368  1
  O  O66  1  0.726774  0.255382  0.709891  1
  O  O67  1  0.169535  0.001045  0.580675  1
  O  O68  1  0.829286  0.732962  0.967496  1
  O  O69  1  0.864279  0.231751  0.535003  1
  O  O70  1  0.521756  0.735465  0.032521  1
  O  O71  1  0.890344  0.139481  0.802725  1
  O  O72  1  0.273226  0.744618  0.290109  1
  O  O73  1  0.233575  0.342002  0.838211  1
  O  O74  1  0.669535  0.498955  0.580675  1
  O  O75  1  0.329286  0.767038  0.967496  1
  O  O76  1  0.412172  0.012455  0.080250  1
  O  O77  1  0.635721  0.731751  0.464997  1
  O  O78  1  0.226774  0.244618  0.709891  1
  O  O79  1  0.364279  0.268249  0.535003  1
  O  O80  1  0.391407  0.823139  0.661159  1
  O  O81  1  0.891407  0.676861  0.661159  1
  O  O82  1  0.515934  0.767265  0.789171  1
  O  O83  1  0.984066  0.267265  0.210829  1
  O  O84  1  0.733575  0.157998  0.838211  1
  O  O85  1  0.491225  0.239413  0.469777  1
  O  O86  1  0.108593  0.323139  0.338841  1
  O  O87  1  0.099378  0.047641  0.913955  1
  O  O88  1  0.609656  0.639481  0.197275  1
  O  O89  1  0.478244  0.264535  0.967479  1
  O  O90  1  0.484066  0.232735  0.210829  1
  O  O91  1  0.496038  0.559424  0.305285  1
  O  O92  1  0.900622  0.952359  0.086045  1
  O  O93  1  0.503962  0.440576  0.694715  1
  O  O94  1  0.912172  0.487545  0.080250  1
  O  O95  1  0.082455  0.635597  0.692851  1
  O  O96  1  0.109656  0.860519  0.197275  1
  O  O97  1  0.318371  0.036447  0.418463  1
  O  O98  1  0.818371  0.463553  0.418463  1
  O  O99  1  0.587828  0.987545  0.919750  1
  O  O100  1  0.991225  0.260587  0.469777  1
  O  O101  1  0.003962  0.059424  0.694715  1
  O  O102  1  0.681629  0.963553  0.581537  1
  O  O103  1  0.917545  0.364403  0.307149  1
  O  O104  1  0.390344  0.360519  0.802725  1
  O  O105  1  0.807607  0.555877  0.809632  1
  O  O106  1  0.170714  0.267038  0.032504  1
  O  O107  1  0.996038  0.940576  0.305285  1
  O  O108  1  0.307607  0.944123  0.809632  1
  O  O109  1  0.508775  0.760587  0.530223  1
  O  O110  1  0.266425  0.842002  0.161789  1
  O  O111  1  0.021756  0.764535  0.032521  1
