# generated using pymatgen
data_ZnS
_symmetry_space_group_name_H-M   'P 1'
_cell_length_a   3.85305326
_cell_length_b   3.85305326
_cell_length_c   88.15472661
_cell_angle_alpha   90.00000000
_cell_angle_beta   90.00000000
_cell_angle_gamma   120.00000000
_symmetry_Int_Tables_number   1
_chemical_formula_structural   ZnS
_chemical_formula_sum   'Zn28 S28'
_cell_volume   1133.40796166
_cell_formula_units_Z   28
loop_
 _symmetry_equiv_pos_site_id
 _symmetry_equiv_pos_as_xyz
  1  'x, y, z'
loop_
 _atom_site_type_symbol
 _atom_site_label
 _atom_site_symmetry_multiplicity
 _atom_site_fract_x
 _atom_site_fract_y
 _atom_site_fract_z
 _atom_site_occupancy
  Zn  Zn0  1  0.333333  0.666667  0.071430  1
  Zn  Zn1  1  0.666667  0.333333  0.928578  1
  Zn  Zn2  1  0.666667  0.333333  0.321430  1
  Zn  Zn3  1  0.666667  0.333333  0.678570  1
  Zn  Zn4  1  0.000000  0.000000  0.142860  1
  Zn  Zn5  1  0.000000  0.000000  0.357144  1
  Zn  Zn6  1  0.333333  0.666667  0.392860  1
  Zn  Zn7  1  0.000000  0.000000  0.464290  1
  Zn  Zn8  1  0.000000  0.000000  0.571426  1
  Zn  Zn9  1  0.666667  0.333333  0.214290  1
  Zn  Zn10  1  0.333333  0.666667  0.964287  1
  Zn  Zn11  1  0.000000  0.000000  0.642868  1
  Zn  Zn12  1  0.000000  0.000000  0.785718  1
  Zn  Zn13  1  0.333333  0.666667  0.285716  1
  Zn  Zn14  1  0.333333  0.666667  0.607141  1
  Zn  Zn15  1  0.666667  0.333333  0.535716  1
  Zn  Zn16  1  0.333333  0.666667  0.714288  1
  Zn  Zn17  1  0.333333  0.666667  0.821457  1
  Zn  Zn18  1  0.666667  0.333333  0.107143  1
  Zn  Zn19  1  0.000000  0.000000  0.035716  1
  Zn  Zn20  1  0.000000  0.000000  0.892858  1
  Zn  Zn21  1  0.333333  0.666667  0.178574  1
  Zn  Zn22  1  0.666667  0.333333  0.750011  1
  Zn  Zn23  1  0.333333  0.666667  0.500004  1
  Zn  Zn24  1  0.666667  0.333333  0.857142  1
  Zn  Zn25  1  0.666667  0.333333  0.428574  1
  Zn  Zn26  1  0.000000  0.000000  0.250004  1
  Zn  Zn27  1  0.666667  0.333333  0.000011  1
  S  S28  1  0.333333  0.666667  0.205355  1
  S  S29  1  0.666667  0.333333  0.348210  1
  S  S30  1  0.000000  0.000000  0.812508  1
  S  S31  1  0.666667  0.333333  0.776783  1
  S  S32  1  0.666667  0.333333  0.455355  1
  S  S33  1  0.666667  0.333333  0.026783  1
  S  S34  1  0.333333  0.666667  0.633947  1
  S  S35  1  0.333333  0.666667  0.848227  1
  S  S36  1  0.333333  0.666667  0.419640  1
  S  S37  1  0.333333  0.666667  0.526786  1
  S  S38  1  0.333333  0.666667  0.098208  1
  S  S39  1  0.666667  0.333333  0.133925  1
  S  S40  1  0.333333  0.666667  0.312496  1
  S  S41  1  0.000000  0.000000  0.169640  1
  S  S42  1  0.000000  0.000000  0.598190  1
  S  S43  1  0.666667  0.333333  0.883906  1
  S  S44  1  0.666667  0.333333  0.241070  1
  S  S45  1  0.666667  0.333333  0.705335  1
  S  S46  1  0.333333  0.666667  0.991090  1
  S  S47  1  0.000000  0.000000  0.919661  1
  S  S48  1  0.000000  0.000000  0.669639  1
  S  S49  1  0.333333  0.666667  0.741091  1
  S  S50  1  0.666667  0.333333  0.955334  1
  S  S51  1  0.000000  0.000000  0.276786  1
  S  S52  1  0.000000  0.000000  0.062496  1
  S  S53  1  0.000000  0.000000  0.383926  1
  S  S54  1  0.000000  0.000000  0.491070  1
  S  S55  1  0.666667  0.333333  0.562496  1
