# generated using pymatgen
data_Sr2UNiO6
_symmetry_space_group_name_H-M   'P 1'
_cell_length_a   5.83833456
_cell_length_b   5.83560477
_cell_length_c   10.04655988
_cell_angle_alpha   90.00000000
_cell_angle_beta   125.12840643
_cell_angle_gamma   90.00000000
_symmetry_Int_Tables_number   1
_chemical_formula_structural   Sr2UNiO6
_chemical_formula_sum   'Sr4 U2 Ni2 O12'
_cell_volume   279.94557282
_cell_formula_units_Z   2
loop_
 _symmetry_equiv_pos_site_id
 _symmetry_equiv_pos_as_xyz
  1  'x, y, z'
loop_
 _atom_site_type_symbol
 _atom_site_label
 _atom_site_symmetry_multiplicity
 _atom_site_fract_x
 _atom_site_fract_y
 _atom_site_fract_z
 _atom_site_occupancy
  Sr  Sr0  1  0.738589  0.473189  0.247510  1
  Sr  Sr1  1  0.738589  0.026811  0.747510  1
  Sr  Sr2  1  0.261411  0.526811  0.752490  1
  Sr  Sr3  1  0.261411  0.973189  0.252490  1
  U  U4  1  0.000000  0.500000  0.000000  1
  U  U5  1  0.000000  0.000000  0.500000  1
  Ni  Ni6  1  0.500000  0.000000  0.000000  1
  Ni  Ni7  1  0.500000  0.500000  0.500000  1
  O  O8  1  0.827872  0.485478  0.751939  1
  O  O9  1  0.314973  0.778476  0.538966  1
  O  O10  1  0.736950  0.724612  0.458544  1
  O  O11  1  0.736950  0.775388  0.958544  1
  O  O12  1  0.685027  0.278476  0.961034  1
  O  O13  1  0.314973  0.721524  0.038966  1
  O  O14  1  0.172128  0.514522  0.248061  1
  O  O15  1  0.827872  0.014522  0.251939  1
  O  O16  1  0.263050  0.275388  0.541456  1
  O  O17  1  0.685027  0.221524  0.461034  1
  O  O18  1  0.263050  0.224612  0.041456  1
  O  O19  1  0.172128  0.985478  0.748061  1
