# generated using pymatgen
data_LaSiO3F
_symmetry_space_group_name_H-M   'P 1'
_cell_length_a   7.12909468
_cell_length_b   7.12909468
_cell_length_c   10.99063364
_cell_angle_alpha   90.00000000
_cell_angle_beta   90.00000000
_cell_angle_gamma   120.00000000
_symmetry_Int_Tables_number   1
_chemical_formula_structural   LaSiO3F
_chemical_formula_sum   'La6 Si6 O18 F6'
_cell_volume   483.75128144
_cell_formula_units_Z   6
loop_
 _symmetry_equiv_pos_site_id
 _symmetry_equiv_pos_as_xyz
  1  'x, y, z'
loop_
 _atom_site_type_symbol
 _atom_site_label
 _atom_site_symmetry_multiplicity
 _atom_site_fract_x
 _atom_site_fract_y
 _atom_site_fract_z
 _atom_site_occupancy
  La  La0  1  0.643189  0.000000  0.000000  1
  La  La1  1  0.356811  0.356811  0.500000  1
  La  La2  1  0.000000  0.643189  0.500000  1
  La  La3  1  0.000000  0.643189  0.000000  1
  La  La4  1  0.356811  0.356811  0.000000  1
  La  La5  1  0.643189  0.000000  0.500000  1
  Si  Si6  1  0.272195  0.047008  0.250000  1
  Si  Si7  1  0.774813  0.727805  0.250000  1
  Si  Si8  1  0.952992  0.225187  0.250000  1
  Si  Si9  1  0.225187  0.952992  0.750000  1
  Si  Si10  1  0.727805  0.774813  0.750000  1
  Si  Si11  1  0.047008  0.272195  0.750000  1
  O  O12  1  0.194788  0.236575  0.250000  1
  O  O13  1  0.041787  0.805212  0.250000  1
  O  O14  1  0.763425  0.958213  0.250000  1
  O  O15  1  0.958213  0.763425  0.750000  1
  O  O16  1  0.805212  0.041787  0.750000  1
  O  O17  1  0.236575  0.194788  0.750000  1
  O  O18  1  0.396567  0.077712  0.122897  1
  O  O19  1  0.681145  0.603433  0.377103  1
  O  O20  1  0.922288  0.318855  0.377103  1
  O  O21  1  0.922288  0.318855  0.122897  1
  O  O22  1  0.681145  0.603433  0.122897  1
  O  O23  1  0.318855  0.922288  0.877103  1
  O  O24  1  0.603433  0.681145  0.877103  1
  O  O25  1  0.077712  0.396567  0.877103  1
  O  O26  1  0.396567  0.077712  0.377103  1
  O  O27  1  0.077712  0.396567  0.622897  1
  O  O28  1  0.318855  0.922288  0.622897  1
  O  O29  1  0.603433  0.681145  0.622897  1
  F  F30  1  0.000000  0.000000  0.000000  1
  F  F31  1  0.000000  0.000000  0.500000  1
  F  F32  1  0.333333  0.666667  0.073367  1
  F  F33  1  0.333333  0.666667  0.426633  1
  F  F34  1  0.666667  0.333333  0.926633  1
  F  F35  1  0.666667  0.333333  0.573367  1
