# generated using pymatgen
data_La2SiO5
_symmetry_space_group_name_H-M   'P 1'
_cell_length_a   7.01451008
_cell_length_b   7.72617780
_cell_length_c   9.35622625
_cell_angle_alpha   90.00000000
_cell_angle_beta   109.03781492
_cell_angle_gamma   90.00000000
_symmetry_Int_Tables_number   1
_chemical_formula_structural   La2SiO5
_chemical_formula_sum   'La8 Si4 O20'
_cell_volume   479.32934910
_cell_formula_units_Z   4
loop_
 _symmetry_equiv_pos_site_id
 _symmetry_equiv_pos_as_xyz
  1  'x, y, z'
loop_
 _atom_site_type_symbol
 _atom_site_label
 _atom_site_symmetry_multiplicity
 _atom_site_fract_x
 _atom_site_fract_y
 _atom_site_fract_z
 _atom_site_occupancy
  La  La0  1  0.731042  0.126437  0.509332  1
  La  La1  1  0.768958  0.626437  0.490668  1
  La  La2  1  0.268958  0.873563  0.490668  1
  La  La3  1  0.231042  0.373563  0.509332  1
  La  La4  1  0.904818  0.659841  0.110975  1
  La  La5  1  0.595182  0.159841  0.889025  1
  La  La6  1  0.095182  0.340159  0.889025  1
  La  La7  1  0.404818  0.840159  0.110975  1
  Si  Si8  1  0.957199  0.072139  0.200381  1
  Si  Si9  1  0.542801  0.572139  0.799619  1
  Si  Si10  1  0.042801  0.927861  0.799619  1
  Si  Si11  1  0.457199  0.427861  0.200381  1
  O  O12  1  0.549245  0.873895  0.389945  1
  O  O13  1  0.950755  0.373895  0.610055  1
  O  O14  1  0.450755  0.126105  0.610055  1
  O  O15  1  0.049245  0.626105  0.389945  1
  O  O16  1  0.949935  0.232737  0.087401  1
  O  O17  1  0.550065  0.732737  0.912599  1
  O  O18  1  0.050065  0.767263  0.912599  1
  O  O19  1  0.449935  0.267263  0.087401  1
  O  O20  1  0.003746  0.131376  0.378373  1
  O  O21  1  0.496254  0.631376  0.621627  1
  O  O22  1  0.996254  0.868624  0.621627  1
  O  O23  1  0.503746  0.368624  0.378373  1
  O  O24  1  0.632773  0.577309  0.212021  1
  O  O25  1  0.867227  0.077309  0.787979  1
  O  O26  1  0.367227  0.422691  0.787979  1
  O  O27  1  0.132773  0.922691  0.212021  1
  O  O28  1  0.243882  0.537760  0.131193  1
  O  O29  1  0.256118  0.037760  0.868807  1
  O  O30  1  0.756118  0.462240  0.868807  1
  O  O31  1  0.743882  0.962240  0.131193  1
