# generated using pymatgen
data_ZnCu3H6(ClO3)2
_symmetry_space_group_name_H-M   'P 1'
_cell_length_a   6.35584159
_cell_length_b   6.35584159
_cell_length_c   5.74483436
_cell_angle_alpha   90.00000000
_cell_angle_beta   90.00000000
_cell_angle_gamma   120.00000000
_symmetry_Int_Tables_number   1
_chemical_formula_structural   ZnCu3H6(ClO3)2
_chemical_formula_sum   'Zn1 Cu3 H6 Cl2 O6'
_cell_volume   200.98066164
_cell_formula_units_Z   1
loop_
 _symmetry_equiv_pos_site_id
 _symmetry_equiv_pos_as_xyz
  1  'x, y, z'
loop_
 _atom_site_type_symbol
 _atom_site_label
 _atom_site_symmetry_multiplicity
 _atom_site_fract_x
 _atom_site_fract_y
 _atom_site_fract_z
 _atom_site_occupancy
  Zn  Zn0  1  0.000000  0.000000  0.500000  1
  Cu  Cu1  1  0.000000  0.500000  0.500000  1
  Cu  Cu2  1  0.500000  0.000000  0.500000  1
  Cu  Cu3  1  0.500000  0.500000  0.500000  1
  H  H4  1  0.199278  0.800722  0.821462  1
  H  H5  1  0.800722  0.199278  0.178538  1
  H  H6  1  0.398555  0.199278  0.178538  1
  H  H7  1  0.601445  0.800722  0.821462  1
  H  H8  1  0.199278  0.398555  0.821462  1
  H  H9  1  0.800722  0.601445  0.178538  1
  Cl  Cl10  1  0.333333  0.666667  0.122346  1
  Cl  Cl11  1  0.666667  0.333333  0.877654  1
  O  O12  1  0.645336  0.822668  0.654656  1
  O  O13  1  0.822668  0.177332  0.345344  1
  O  O14  1  0.354664  0.177332  0.345344  1
  O  O15  1  0.177332  0.822668  0.654656  1
  O  O16  1  0.822668  0.645336  0.345344  1
  O  O17  1  0.177332  0.354664  0.654656  1
