# generated using pymatgen
data_La3Re2O9
_symmetry_space_group_name_H-M   'P 1'
_cell_length_a   5.70562032
_cell_length_b   6.92185461
_cell_length_c   11.22883630
_cell_angle_alpha   77.45230424
_cell_angle_beta   75.63723369
_cell_angle_gamma   69.23018824
_symmetry_Int_Tables_number   1
_chemical_formula_structural   La3Re2O9
_chemical_formula_sum   'La6 Re4 O18'
_cell_volume   397.57334052
_cell_formula_units_Z   2
loop_
 _symmetry_equiv_pos_site_id
 _symmetry_equiv_pos_as_xyz
  1  'x, y, z'
loop_
 _atom_site_type_symbol
 _atom_site_label
 _atom_site_symmetry_multiplicity
 _atom_site_fract_x
 _atom_site_fract_y
 _atom_site_fract_z
 _atom_site_occupancy
  La  La0  1  0.716854  0.905289  0.619575  1
  La  La1  1  0.283146  0.094711  0.380425  1
  La  La2  1  0.003514  0.722628  0.269369  1
  La  La3  1  0.996486  0.277372  0.730631  1
  La  La4  1  0.224309  0.661718  0.882459  1
  La  La5  1  0.775691  0.338282  0.117541  1
  Re  Re6  1  0.490280  0.111372  0.908775  1
  Re  Re7  1  0.509720  0.888628  0.091225  1
  Re  Re8  1  0.356406  0.622685  0.570478  1
  Re  Re9  1  0.643594  0.377315  0.429522  1
  O  O10  1  0.372775  0.321282  0.577642  1
  O  O11  1  0.627225  0.678718  0.422358  1
  O  O12  1  0.853664  0.688110  0.064093  1
  O  O13  1  0.146336  0.311890  0.935907  1
  O  O14  1  0.305519  0.916935  0.588865  1
  O  O15  1  0.694481  0.083065  0.411135  1
  O  O16  1  0.641190  0.021171  0.184076  1
  O  O17  1  0.358810  0.978829  0.815924  1
  O  O18  1  0.065043  0.615206  0.711241  1
  O  O19  1  0.934957  0.384794  0.288759  1
  O  O20  1  0.415279  0.440311  0.313169  1
  O  O21  1  0.584721  0.559689  0.686831  1
  O  O22  1  0.821245  0.991321  0.810174  1
  O  O23  1  0.178755  0.008679  0.189826  1
  O  O24  1  0.113311  0.751239  0.460947  1
  O  O25  1  0.886689  0.248761  0.539053  1
  O  O26  1  0.613689  0.328061  0.927966  1
  O  O27  1  0.386311  0.671939  0.072034  1
