# generated using pymatgen
data_BaCaSiO4
_symmetry_space_group_name_H-M   'P 1'
_cell_length_a   11.38265840
_cell_length_b   11.38265840
_cell_length_c   7.30520902
_cell_angle_alpha   90.00000000
_cell_angle_beta   90.00000000
_cell_angle_gamma   120.00000000
_symmetry_Int_Tables_number   1
_chemical_formula_structural   BaCaSiO4
_chemical_formula_sum   'Ba8 Ca8 Si8 O32'
_cell_volume   819.69197542
_cell_formula_units_Z   8
loop_
 _symmetry_equiv_pos_site_id
 _symmetry_equiv_pos_as_xyz
  1  'x, y, z'
loop_
 _atom_site_type_symbol
 _atom_site_label
 _atom_site_symmetry_multiplicity
 _atom_site_fract_x
 _atom_site_fract_y
 _atom_site_fract_z
 _atom_site_occupancy
  Ba  Ba0  1  0.666042  0.833021  0.954810  1
  Ba  Ba1  1  0.333958  0.166979  0.454810  1
  Ba  Ba2  1  0.833021  0.166979  0.454810  1
  Ba  Ba3  1  0.166979  0.333958  0.954810  1
  Ba  Ba4  1  0.166979  0.833021  0.954810  1
  Ba  Ba5  1  0.666667  0.333333  0.142880  1
  Ba  Ba6  1  0.833021  0.666042  0.454810  1
  Ba  Ba7  1  0.333333  0.666667  0.642880  1
  Ca  Ca8  1  0.470822  0.941644  0.277710  1
  Ca  Ca9  1  0.529178  0.058356  0.777710  1
  Ca  Ca10  1  0.941644  0.470822  0.777710  1
  Ca  Ca11  1  0.000000  0.000000  0.251604  1
  Ca  Ca12  1  0.000000  0.000000  0.751604  1
  Ca  Ca13  1  0.470822  0.529178  0.277710  1
  Ca  Ca14  1  0.058356  0.529178  0.277710  1
  Ca  Ca15  1  0.529178  0.470822  0.777710  1
  Si  Si16  1  0.342603  0.171301  0.005421  1
  Si  Si17  1  0.171301  0.828699  0.505421  1
  Si  Si18  1  0.333333  0.666667  0.070211  1
  Si  Si19  1  0.828699  0.171301  0.005421  1
  Si  Si20  1  0.657397  0.828699  0.505421  1
  Si  Si21  1  0.171301  0.342603  0.505421  1
  Si  Si22  1  0.828699  0.657397  0.005421  1
  Si  Si23  1  0.666667  0.333333  0.570211  1
  O  O24  1  0.373993  0.186997  0.787897  1
  O  O25  1  0.813003  0.626007  0.787897  1
  O  O26  1  0.186997  0.813003  0.287897  1
  O  O27  1  0.587944  0.175889  0.488215  1
  O  O28  1  0.587944  0.412056  0.488215  1
  O  O29  1  0.912657  0.825314  0.039430  1
  O  O30  1  0.912657  0.087343  0.039430  1
  O  O31  1  0.914388  0.590450  0.099352  1
  O  O32  1  0.590450  0.914388  0.599352  1
  O  O33  1  0.174686  0.087343  0.039430  1
  O  O34  1  0.666667  0.333333  0.792752  1
  O  O35  1  0.323938  0.409550  0.599352  1
  O  O36  1  0.333333  0.666667  0.292752  1
  O  O37  1  0.825314  0.912657  0.539430  1
  O  O38  1  0.676062  0.085612  0.099352  1
  O  O39  1  0.626007  0.813003  0.287897  1
  O  O40  1  0.676062  0.590450  0.099352  1
  O  O41  1  0.412056  0.587944  0.988215  1
  O  O42  1  0.409550  0.085612  0.099352  1
  O  O43  1  0.914388  0.323938  0.099352  1
  O  O44  1  0.323938  0.914388  0.599352  1
  O  O45  1  0.813003  0.186997  0.787897  1
  O  O46  1  0.087343  0.174686  0.539430  1
  O  O47  1  0.175889  0.587944  0.988215  1
  O  O48  1  0.085612  0.409550  0.599352  1
  O  O49  1  0.085612  0.676062  0.599352  1
  O  O50  1  0.824111  0.412056  0.488215  1
  O  O51  1  0.087343  0.912657  0.539430  1
  O  O52  1  0.186997  0.373993  0.287897  1
  O  O53  1  0.590450  0.676062  0.599352  1
  O  O54  1  0.412056  0.824111  0.988215  1
  O  O55  1  0.409550  0.323938  0.099352  1
