# generated using pymatgen
data_Rb2Sb8O13
_symmetry_space_group_name_H-M   'P 1'
_cell_length_a   7.69723902
_cell_length_b   17.34654836
_cell_length_c   14.36175703
_cell_angle_alpha   90.00000000
_cell_angle_beta   90.14902089
_cell_angle_gamma   90.00000000
_symmetry_Int_Tables_number   1
_chemical_formula_structural   Rb2Sb8O13
_chemical_formula_sum   'Rb8 Sb32 O52'
_cell_volume   1917.58290930
_cell_formula_units_Z   4
loop_
 _symmetry_equiv_pos_site_id
 _symmetry_equiv_pos_as_xyz
  1  'x, y, z'
loop_
 _atom_site_type_symbol
 _atom_site_label
 _atom_site_symmetry_multiplicity
 _atom_site_fract_x
 _atom_site_fract_y
 _atom_site_fract_z
 _atom_site_occupancy
  Rb  Rb0  1  0.469388  0.750000  0.806977  1
  Rb  Rb1  1  0.461360  0.250000  0.680035  1
  Rb  Rb2  1  0.023510  0.750000  0.466514  1
  Rb  Rb3  1  0.955692  0.750000  0.968419  1
  Rb  Rb4  1  0.044308  0.250000  0.031581  1
  Rb  Rb5  1  0.530612  0.250000  0.193023  1
  Rb  Rb6  1  0.976490  0.250000  0.533486  1
  Rb  Rb7  1  0.538640  0.750000  0.319965  1
  Sb  Sb8  1  0.478455  0.861931  0.075225  1
  Sb  Sb9  1  0.521545  0.361931  0.924775  1
  Sb  Sb10  1  0.983700  0.114590  0.789999  1
  Sb  Sb11  1  0.728764  0.939076  0.877653  1
  Sb  Sb12  1  0.271236  0.439076  0.122347  1
  Sb  Sb13  1  0.983700  0.385410  0.789999  1
  Sb  Sb14  1  0.669157  0.446768  0.634170  1
  Sb  Sb15  1  0.016300  0.614590  0.210001  1
  Sb  Sb16  1  0.016300  0.885410  0.210001  1
  Sb  Sb17  1  0.669157  0.053232  0.634170  1
  Sb  Sb18  1  0.521545  0.138069  0.924775  1
  Sb  Sb19  1  0.728764  0.560924  0.877653  1
  Sb  Sb20  1  0.830993  0.440986  0.082148  1
  Sb  Sb21  1  0.236389  0.450162  0.587159  1
  Sb  Sb22  1  0.993733  0.362255  0.286416  1
  Sb  Sb23  1  0.478455  0.638069  0.075225  1
  Sb  Sb24  1  0.006267  0.637745  0.713584  1
  Sb  Sb25  1  0.169007  0.940986  0.917852  1
  Sb  Sb26  1  0.486375  0.636164  0.565429  1
  Sb  Sb27  1  0.993733  0.137745  0.286416  1
  Sb  Sb28  1  0.763611  0.549838  0.412841  1
  Sb  Sb29  1  0.330843  0.553232  0.365830  1
  Sb  Sb30  1  0.513625  0.363836  0.434571  1
  Sb  Sb31  1  0.830993  0.059014  0.082148  1
  Sb  Sb32  1  0.236389  0.049838  0.587159  1
  Sb  Sb33  1  0.330843  0.946768  0.365830  1
  Sb  Sb34  1  0.763611  0.950162  0.412841  1
  Sb  Sb35  1  0.486375  0.863836  0.565429  1
  Sb  Sb36  1  0.513625  0.136164  0.434571  1
  Sb  Sb37  1  0.271236  0.060924  0.122347  1
  Sb  Sb38  1  0.169007  0.559014  0.917852  1
  Sb  Sb39  1  0.006267  0.862255  0.713584  1
  O  O40  1  0.080630  0.377872  0.661164  1
  O  O41  1  0.573672  0.931716  0.320400  1
  O  O42  1  0.259363  0.623760  0.255766  1
  O  O43  1  0.080630  0.122128  0.661164  1
  O  O44  1  0.740637  0.123760  0.744234  1
  O  O45  1  0.711470  0.640675  0.495060  1
  O  O46  1  0.333214  0.855181  0.451774  1
  O  O47  1  0.426328  0.068284  0.679600  1
  O  O48  1  0.237253  0.635685  0.025637  1
  O  O49  1  0.333214  0.644819  0.451774  1
  O  O50  1  0.837879  0.146506  0.175001  1
  O  O51  1  0.237253  0.864315  0.025637  1
  O  O52  1  0.413821  0.359083  0.051949  1
  O  O53  1  0.521115  0.250000  0.409752  1
  O  O54  1  0.711470  0.859325  0.495060  1
  O  O55  1  0.986852  0.999645  0.803283  1
  O  O56  1  0.259363  0.876240  0.255766  1
  O  O57  1  0.573672  0.568284  0.320400  1
  O  O58  1  0.981642  0.250000  0.318139  1
  O  O59  1  0.478885  0.750000  0.590248  1
  O  O60  1  0.288530  0.140675  0.504940  1
  O  O61  1  0.500000  0.000000  0.500000  1
  O  O62  1  0.666786  0.144819  0.548226  1
  O  O63  1  0.586179  0.640917  0.948051  1
  O  O64  1  0.785046  0.855387  0.786372  1
  O  O65  1  0.927764  0.920262  0.965683  1
  O  O66  1  0.072236  0.079738  0.034317  1
  O  O67  1  0.919370  0.877872  0.338836  1
  O  O68  1  0.013148  0.499645  0.196717  1
  O  O69  1  0.498845  0.250000  0.894986  1
  O  O70  1  0.762747  0.364315  0.974363  1
  O  O71  1  0.288530  0.359325  0.504940  1
  O  O72  1  0.986852  0.500355  0.803283  1
  O  O73  1  0.501155  0.750000  0.105014  1
  O  O74  1  0.162121  0.646506  0.824999  1
  O  O75  1  0.666786  0.355181  0.548226  1
  O  O76  1  0.500000  0.500000  0.500000  1
  O  O77  1  0.162121  0.853494  0.824999  1
  O  O78  1  0.837879  0.353494  0.175001  1
  O  O79  1  0.072236  0.420262  0.034317  1
  O  O80  1  0.018358  0.750000  0.681861  1
  O  O81  1  0.013148  0.000355  0.196717  1
  O  O82  1  0.919370  0.622128  0.338836  1
  O  O83  1  0.413821  0.140917  0.051949  1
  O  O84  1  0.740637  0.376240  0.744234  1
  O  O85  1  0.426328  0.431716  0.679600  1
  O  O86  1  0.762747  0.135685  0.974363  1
  O  O87  1  0.214954  0.355387  0.213628  1
  O  O88  1  0.214954  0.144613  0.213628  1
  O  O89  1  0.927764  0.579738  0.965683  1
  O  O90  1  0.785046  0.644613  0.786372  1
  O  O91  1  0.586179  0.859083  0.948051  1
