# generated using pymatgen
data_CaTa2Bi2O9
_symmetry_space_group_name_H-M   'P 1'
_cell_length_a   12.97167894
_cell_length_b   12.97167894
_cell_length_c   5.55636187
_cell_angle_alpha   90.00000000
_cell_angle_beta   90.00000000
_cell_angle_gamma   155.54772121
_symmetry_Int_Tables_number   1
_chemical_formula_structural   CaTa2Bi2O9
_chemical_formula_sum   'Ca2 Ta4 Bi4 O18'
_cell_volume   387.00382990
_cell_formula_units_Z   2
loop_
 _symmetry_equiv_pos_site_id
 _symmetry_equiv_pos_as_xyz
  1  'x, y, z'
loop_
 _atom_site_type_symbol
 _atom_site_label
 _atom_site_symmetry_multiplicity
 _atom_site_fract_x
 _atom_site_fract_y
 _atom_site_fract_z
 _atom_site_occupancy
  Ca  Ca0  1  0.755430  0.755430  0.500695  1
  Ca  Ca1  1  0.244570  0.244570  0.000695  1
  Ta  Ta2  1  0.666798  0.828999  0.965692  1
  Ta  Ta3  1  0.333202  0.171001  0.465692  1
  Ta  Ta4  1  0.171001  0.333202  0.465692  1
  Ta  Ta5  1  0.828999  0.666798  0.965692  1
  Bi  Bi6  1  0.417050  0.018587  0.042789  1
  Bi  Bi7  1  0.018587  0.417050  0.042789  1
  Bi  Bi8  1  0.981413  0.582950  0.542789  1
  Bi  Bi9  1  0.582950  0.981413  0.542789  1
  O  O10  1  0.985815  0.678703  0.948173  1
  O  O11  1  0.366927  0.538754  0.155309  1
  O  O12  1  0.672242  0.672242  0.927266  1
  O  O13  1  0.327758  0.327758  0.427266  1
  O  O14  1  0.538754  0.366927  0.155309  1
  O  O15  1  0.762347  0.263275  0.767075  1
  O  O16  1  0.321297  0.014185  0.448173  1
  O  O17  1  0.097165  0.974828  0.732033  1
  O  O18  1  0.974828  0.097165  0.732033  1
  O  O19  1  0.461246  0.633073  0.655309  1
  O  O20  1  0.014185  0.321297  0.448173  1
  O  O21  1  0.902835  0.025172  0.232033  1
  O  O22  1  0.237653  0.736725  0.267075  1
  O  O23  1  0.633073  0.461246  0.655309  1
  O  O24  1  0.736725  0.237653  0.267075  1
  O  O25  1  0.025172  0.902835  0.232033  1
  O  O26  1  0.678703  0.985815  0.948173  1
  O  O27  1  0.263275  0.762347  0.767075  1
