# generated using pymatgen
data_Ba(CuP2)2
_symmetry_space_group_name_H-M   'P 1'
_cell_length_a   10.82847261
_cell_length_b   9.91990117
_cell_length_c   5.81284063
_cell_angle_alpha   82.55776162
_cell_angle_beta   65.28201869
_cell_angle_gamma   32.16021970
_symmetry_Int_Tables_number   1
_chemical_formula_structural   Ba(CuP2)2
_chemical_formula_sum   'Ba2 Cu4 P8'
_cell_volume   267.40485033
_cell_formula_units_Z   2
loop_
 _symmetry_equiv_pos_site_id
 _symmetry_equiv_pos_as_xyz
  1  'x, y, z'
loop_
 _atom_site_type_symbol
 _atom_site_label
 _atom_site_symmetry_multiplicity
 _atom_site_fract_x
 _atom_site_fract_y
 _atom_site_fract_z
 _atom_site_occupancy
  Ba  Ba0  1  0.500000  0.500000  0.500000  1
  Ba  Ba1  1  0.750000  0.750000  0.750000  1
  Cu  Cu2  1  0.128419  0.128419  0.371581  1
  Cu  Cu3  1  0.121581  0.121581  0.878419  1
  Cu  Cu4  1  0.371581  0.371581  0.128419  1
  Cu  Cu5  1  0.878419  0.878419  0.121581  1
  P  P6  1  0.068942  0.822878  0.312173  1
  P  P7  1  0.822878  0.068942  0.796008  1
  P  P8  1  0.453992  0.937827  0.427122  1
  P  P9  1  0.796008  0.312173  0.822878  1
  P  P10  1  0.937827  0.453992  0.181058  1
  P  P11  1  0.427122  0.181058  0.453992  1
  P  P12  1  0.312173  0.796008  0.068942  1
  P  P13  1  0.181058  0.427122  0.937827  1
