# generated using pymatgen
data_Sr13Al6Si8O
_symmetry_space_group_name_H-M   'P 1'
_cell_length_a   11.70161561
_cell_length_b   11.70161561
_cell_length_c   17.56056340
_cell_angle_alpha   55.63057773
_cell_angle_beta   124.36942227
_cell_angle_gamma   156.12835686
_symmetry_Int_Tables_number   1
_chemical_formula_structural   Sr13Al6Si8O
_chemical_formula_sum   'Sr13 Al6 Si8 O1'
_cell_volume   794.76193166
_cell_formula_units_Z   1
loop_
 _symmetry_equiv_pos_site_id
 _symmetry_equiv_pos_as_xyz
  1  'x, y, z'
loop_
 _atom_site_type_symbol
 _atom_site_label
 _atom_site_symmetry_multiplicity
 _atom_site_fract_x
 _atom_site_fract_y
 _atom_site_fract_z
 _atom_site_occupancy
  Sr  Sr0  1  0.193940  0.806060  0.146960  1
  Sr  Sr1  1  0.997739  0.002261  0.640916  1
  Sr  Sr2  1  0.998522  0.001478  0.879421  1
  Sr  Sr3  1  0.193481  0.806519  0.391136  1
  Sr  Sr4  1  0.184846  0.815154  0.891430  1
  Sr  Sr5  1  0.154580  0.845420  0.617097  1
  Sr  Sr6  1  0.500000  0.500000  0.500000  1
  Sr  Sr7  1  0.845420  0.154580  0.382903  1
  Sr  Sr8  1  0.806519  0.193481  0.608864  1
  Sr  Sr9  1  0.815154  0.184846  0.108570  1
  Sr  Sr10  1  0.806060  0.193940  0.853040  1
  Sr  Sr11  1  0.001478  0.998522  0.120579  1
  Sr  Sr12  1  0.002261  0.997739  0.359084  1
  Al  Al13  1  0.433893  0.566107  0.190873  1
  Al  Al14  1  0.569336  0.430664  0.052500  1
  Al  Al15  1  0.427532  0.572468  0.705117  1
  Al  Al16  1  0.566107  0.433893  0.809127  1
  Al  Al17  1  0.572468  0.427532  0.294883  1
  Al  Al18  1  0.430664  0.569336  0.947500  1
  Si  Si19  1  0.639126  0.360874  0.983773  1
  Si  Si20  1  0.644755  0.355245  0.228568  1
  Si  Si21  1  0.355245  0.644755  0.771432  1
  Si  Si22  1  0.369252  0.630748  0.266129  1
  Si  Si23  1  0.367080  0.632920  0.534155  1
  Si  Si24  1  0.632920  0.367080  0.465845  1
  Si  Si25  1  0.630748  0.369252  0.733871  1
  Si  Si26  1  0.360874  0.639126  0.016227  1
  O  O27  1  0.000000  0.000000  0.500000  1
