# generated using pymatgen
data_KHg2S(ClO)3
_symmetry_space_group_name_H-M   'P 1'
_cell_length_a   11.61418537
_cell_length_b   11.61418537
_cell_length_c   7.03473784
_cell_angle_alpha   90.00000000
_cell_angle_beta   90.00000000
_cell_angle_gamma   149.09650627
_symmetry_Int_Tables_number   1
_chemical_formula_structural   KHg2S(ClO)3
_chemical_formula_sum   'K2 Hg4 S2 Cl6 O6'
_cell_volume   487.35452727
_cell_formula_units_Z   2
loop_
 _symmetry_equiv_pos_site_id
 _symmetry_equiv_pos_as_xyz
  1  'x, y, z'
loop_
 _atom_site_type_symbol
 _atom_site_label
 _atom_site_symmetry_multiplicity
 _atom_site_fract_x
 _atom_site_fract_y
 _atom_site_fract_z
 _atom_site_occupancy
  K  K0  1  0.738256  0.261744  0.304641  1
  K  K1  1  0.261744  0.738256  0.804641  1
  Hg  Hg2  1  0.098726  0.901274  0.157001  1
  Hg  Hg3  1  0.439276  0.560724  0.280343  1
  Hg  Hg4  1  0.901274  0.098726  0.657001  1
  Hg  Hg5  1  0.560724  0.439276  0.780343  1
  S  S6  1  0.332606  0.667394  0.349901  1
  S  S7  1  0.667394  0.332606  0.849901  1
  Cl  Cl8  1  0.153956  0.846044  0.436066  1
  Cl  Cl9  1  0.453217  0.546783  0.739104  1
  Cl  Cl10  1  0.846044  0.153956  0.936066  1
  Cl  Cl11  1  0.960134  0.039866  0.382386  1
  Cl  Cl12  1  0.039866  0.960134  0.882386  1
  Cl  Cl13  1  0.546783  0.453217  0.239104  1
  O  O14  1  0.480161  0.123876  0.964837  1
  O  O15  1  0.700992  0.299008  0.670586  1
  O  O16  1  0.519839  0.876124  0.464837  1
  O  O17  1  0.123876  0.480161  0.464837  1
  O  O18  1  0.299008  0.700992  0.170586  1
  O  O19  1  0.876124  0.519839  0.964837  1
