# generated using pymatgen
data_Tb11O20
_symmetry_space_group_name_H-M   'P 1'
_cell_length_a   6.56303486
_cell_length_b   6.69116999
_cell_length_c   10.29680205
_cell_angle_alpha   94.03706389
_cell_angle_beta   92.93645294
_cell_angle_gamma   98.91940181
_symmetry_Int_Tables_number   1
_chemical_formula_structural   Tb11O20
_chemical_formula_sum   'Tb11 O20'
_cell_volume   444.71439950
_cell_formula_units_Z   1
loop_
 _symmetry_equiv_pos_site_id
 _symmetry_equiv_pos_as_xyz
  1  'x, y, z'
loop_
 _atom_site_type_symbol
 _atom_site_label
 _atom_site_symmetry_multiplicity
 _atom_site_fract_x
 _atom_site_fract_y
 _atom_site_fract_z
 _atom_site_occupancy
  Tb  Tb0  1  0.128219  0.548814  0.172897  1
  Tb  Tb1  1  0.818478  0.888825  0.631333  1
  Tb  Tb2  1  0.729005  0.363667  0.478738  1
  Tb  Tb3  1  0.370081  0.145087  0.723688  1
  Tb  Tb4  1  0.871781  0.451186  0.827103  1
  Tb  Tb5  1  0.181522  0.111175  0.368667  1
  Tb  Tb6  1  0.469259  0.732299  0.924225  1
  Tb  Tb7  1  0.270995  0.636333  0.521262  1
  Tb  Tb8  1  0.629919  0.854913  0.276312  1
  Tb  Tb9  1  0.000000  0.000000  0.000000  1
  Tb  Tb10  1  0.530741  0.267701  0.075775  1
  O  O11  1  0.529470  0.409101  0.871581  1
  O  O12  1  0.877850  0.335961  0.037963  1
  O  O13  1  0.540080  0.183132  0.295797  1
  O  O14  1  0.459920  0.816868  0.704203  1
  O  O15  1  0.035101  0.427194  0.369906  1
  O  O16  1  0.668812  0.965734  0.069725  1
  O  O17  1  0.847648  0.057342  0.431587  1
  O  O18  1  0.470530  0.590899  0.128419  1
  O  O19  1  0.793597  0.780548  0.838811  1
  O  O20  1  0.152352  0.942658  0.568413  1
  O  O21  1  0.287289  0.799241  0.331104  1
  O  O22  1  0.959075  0.833014  0.200593  1
  O  O23  1  0.628538  0.676026  0.461924  1
  O  O24  1  0.206403  0.219452  0.161189  1
  O  O25  1  0.371462  0.323974  0.538076  1
  O  O26  1  0.122150  0.664039  0.962037  1
  O  O27  1  0.040925  0.166986  0.799407  1
  O  O28  1  0.964899  0.572806  0.630094  1
  O  O29  1  0.712711  0.200759  0.668896  1
  O  O30  1  0.331188  0.034266  0.930275  1
