# generated using pymatgen
data_In5Se5Br
_symmetry_space_group_name_H-M   'P 1'
_cell_length_a   4.17619155
_cell_length_b   9.52227859
_cell_length_c   15.59520046
_cell_angle_alpha   90.00000000
_cell_angle_beta   90.00000000
_cell_angle_gamma   90.00000000
_symmetry_Int_Tables_number   1
_chemical_formula_structural   In5Se5Br
_chemical_formula_sum   'In10 Se10 Br2'
_cell_volume   620.17214376
_cell_formula_units_Z   2
loop_
 _symmetry_equiv_pos_site_id
 _symmetry_equiv_pos_as_xyz
  1  'x, y, z'
loop_
 _atom_site_type_symbol
 _atom_site_label
 _atom_site_symmetry_multiplicity
 _atom_site_fract_x
 _atom_site_fract_y
 _atom_site_fract_z
 _atom_site_occupancy
  In  In0  1  0.000000  0.893656  0.405331  1
  In  In1  1  0.500000  0.106344  0.905331  1
  In  In2  1  0.500000  0.605440  0.523189  1
  In  In3  1  0.000000  0.394560  0.023189  1
  In  In4  1  0.500000  0.192849  0.303697  1
  In  In5  1  0.000000  0.807151  0.803697  1
  In  In6  1  0.500000  0.478008  0.254048  1
  In  In7  1  0.000000  0.521992  0.754048  1
  In  In8  1  0.500000  0.854101  0.110635  1
  In  In9  1  0.000000  0.145899  0.610635  1
  Se  Se10  1  0.500000  0.705885  0.359206  1
  Se  Se11  1  0.000000  0.294115  0.859206  1
  Se  Se12  1  0.500000  0.426815  0.659045  1
  Se  Se13  1  0.000000  0.573185  0.159045  1
  Se  Se14  1  0.000000  0.773736  0.567836  1
  Se  Se15  1  0.500000  0.226264  0.067836  1
  Se  Se16  1  0.500000  0.070617  0.459555  1
  Se  Se17  1  0.000000  0.929383  0.959555  1
  Se  Se18  1  0.000000  0.033365  0.249471  1
  Se  Se19  1  0.500000  0.966635  0.749471  1
  Br  Br20  1  0.000000  0.408526  0.456907  1
  Br  Br21  1  0.500000  0.591474  0.956907  1
