# generated using pymatgen
data_Zr7P4
_symmetry_space_group_name_H-M   'P 1'
_cell_length_a   8.16755961
_cell_length_b   8.16755961
_cell_length_c   14.82302031
_cell_angle_alpha   75.48766825
_cell_angle_beta   104.51233175
_cell_angle_gamma   154.32571186
_symmetry_Int_Tables_number   1
_chemical_formula_structural   Zr7P4
_chemical_formula_sum   'Zr14 P8'
_cell_volume   414.02366827
_cell_formula_units_Z   2
loop_
 _symmetry_equiv_pos_site_id
 _symmetry_equiv_pos_as_xyz
  1  'x, y, z'
loop_
 _atom_site_type_symbol
 _atom_site_label
 _atom_site_symmetry_multiplicity
 _atom_site_fract_x
 _atom_site_fract_y
 _atom_site_fract_z
 _atom_site_occupancy
  Zr  Zr0  1  0.340177  0.659823  0.029451  1
  Zr  Zr1  1  0.995593  0.004407  0.332468  1
  Zr  Zr2  1  0.175881  0.824119  0.541402  1
  Zr  Zr3  1  0.824119  0.175881  0.458598  1
  Zr  Zr4  1  0.568161  0.431839  0.168787  1
  Zr  Zr5  1  0.000000  0.000000  0.000000  1
  Zr  Zr6  1  0.431839  0.568161  0.831213  1
  Zr  Zr7  1  0.794929  0.205071  0.203024  1
  Zr  Zr8  1  0.004407  0.995593  0.667532  1
  Zr  Zr9  1  0.803965  0.196035  0.689265  1
  Zr  Zr10  1  0.205071  0.794929  0.796976  1
  Zr  Zr11  1  0.196035  0.803965  0.310735  1
  Zr  Zr12  1  0.659823  0.340177  0.970549  1
  Zr  Zr13  1  0.500000  0.500000  0.500000  1
  P  P14  1  0.625280  0.374720  0.398094  1
  P  P15  1  0.936969  0.063031  0.147522  1
  P  P16  1  0.374720  0.625280  0.601906  1
  P  P17  1  0.369606  0.630394  0.340353  1
  P  P18  1  0.063031  0.936969  0.852478  1
  P  P19  1  0.823423  0.176577  0.887994  1
  P  P20  1  0.630394  0.369606  0.659647  1
  P  P21  1  0.176577  0.823423  0.112006  1
