# generated using pymatgen
data_AlPO4
_symmetry_space_group_name_H-M   'P 1'
_cell_length_a   14.09720624
_cell_length_b   14.09720624
_cell_length_c   8.71598809
_cell_angle_alpha   90.00000000
_cell_angle_beta   90.00000000
_cell_angle_gamma   120.00000000
_symmetry_Int_Tables_number   1
_chemical_formula_structural   AlPO4
_chemical_formula_sum   'Al12 P12 O48'
_cell_volume   1500.07635857
_cell_formula_units_Z   12
loop_
 _symmetry_equiv_pos_site_id
 _symmetry_equiv_pos_as_xyz
  1  'x, y, z'
loop_
 _atom_site_type_symbol
 _atom_site_label
 _atom_site_symmetry_multiplicity
 _atom_site_fract_x
 _atom_site_fract_y
 _atom_site_fract_z
 _atom_site_occupancy
  Al  Al0  1  0.544049  0.878470  0.936929  1
  Al  Al1  1  0.121530  0.665579  0.936929  1
  Al  Al2  1  0.334421  0.455951  0.936929  1
  Al  Al3  1  0.665579  0.544049  0.936929  1
  Al  Al4  1  0.455951  0.121530  0.936929  1
  Al  Al5  1  0.878470  0.334421  0.936929  1
  Al  Al6  1  0.544049  0.665579  0.436929  1
  Al  Al7  1  0.878470  0.544049  0.436929  1
  Al  Al8  1  0.665579  0.121530  0.436929  1
  Al  Al9  1  0.334421  0.878470  0.436929  1
  Al  Al10  1  0.121530  0.455951  0.436929  1
  Al  Al11  1  0.455951  0.334421  0.436929  1
  P  P12  1  0.546185  0.877246  0.562133  1
  P  P13  1  0.122754  0.668939  0.562133  1
  P  P14  1  0.331061  0.453815  0.562133  1
  P  P15  1  0.668939  0.546185  0.562133  1
  P  P16  1  0.453815  0.122754  0.562133  1
  P  P17  1  0.877246  0.331061  0.562133  1
  P  P18  1  0.546185  0.668939  0.062133  1
  P  P19  1  0.877246  0.546185  0.062133  1
  P  P20  1  0.668939  0.122754  0.062133  1
  P  P21  1  0.331061  0.877246  0.062133  1
  P  P22  1  0.122754  0.453815  0.062133  1
  P  P23  1  0.453815  0.331061  0.062133  1
  O  O24  1  0.431325  0.843771  0.500093  1
  O  O25  1  0.156229  0.587554  0.500093  1
  O  O26  1  0.412446  0.568675  0.500093  1
  O  O27  1  0.587554  0.431325  0.500093  1
  O  O28  1  0.568675  0.156229  0.500093  1
  O  O29  1  0.843771  0.412446  0.500093  1
  O  O30  1  0.431325  0.587554  0.000093  1
  O  O31  1  0.843771  0.431325  0.000093  1
  O  O32  1  0.587554  0.156229  0.000093  1
  O  O33  1  0.412446  0.843771  0.000093  1
  O  O34  1  0.156229  0.568675  0.000093  1
  O  O35  1  0.568675  0.412446  0.000093  1
  O  O36  1  0.631396  0.991169  0.503114  1
  O  O37  1  0.008831  0.640227  0.503114  1
  O  O38  1  0.359773  0.368604  0.503114  1
  O  O39  1  0.640227  0.631396  0.503114  1
  O  O40  1  0.368604  0.008831  0.503114  1
  O  O41  1  0.544004  0.878440  0.737563  1
  O  O42  1  0.991169  0.359773  0.503114  1
  O  O43  1  0.991169  0.631396  0.003114  1
  O  O44  1  0.640227  0.008831  0.003114  1
  O  O45  1  0.359773  0.991169  0.003114  1
  O  O46  1  0.008831  0.368604  0.003114  1
  O  O47  1  0.368604  0.359773  0.003114  1
  O  O48  1  0.420440  0.215202  0.007470  1
  O  O49  1  0.205238  0.420440  0.007470  1
  O  O50  1  0.215202  0.794762  0.007470  1
  O  O51  1  0.784798  0.205238  0.007470  1
  O  O52  1  0.794762  0.579560  0.007470  1
  O  O53  1  0.579560  0.784798  0.007470  1
  O  O54  1  0.794762  0.215202  0.507470  1
  O  O55  1  0.420440  0.205238  0.507470  1
  O  O56  1  0.784798  0.579560  0.507470  1
  O  O57  1  0.215202  0.420440  0.507470  1
  O  O58  1  0.205238  0.784798  0.507470  1
  O  O59  1  0.579560  0.794762  0.507470  1
  O  O60  1  0.455996  0.334436  0.237563  1
  O  O61  1  0.121560  0.455996  0.237563  1
  O  O62  1  0.334436  0.878440  0.237563  1
  O  O63  1  0.665564  0.121560  0.237563  1
  O  O64  1  0.878440  0.544004  0.237563  1
  O  O65  1  0.544004  0.665564  0.237563  1
  O  O66  1  0.878440  0.334436  0.737563  1
  O  O67  1  0.455996  0.121560  0.737563  1
  O  O68  1  0.665564  0.544004  0.737563  1
  O  O69  1  0.334436  0.455996  0.737563  1
  O  O70  1  0.121560  0.665564  0.737563  1
  O  O71  1  0.631396  0.640227  0.003114  1
