# generated using pymatgen
data_NaUBO5
_symmetry_space_group_name_H-M   'P 1'
_cell_length_a   5.92790791
_cell_length_b   6.90112342
_cell_length_c   10.82057451
_cell_angle_alpha   90.00000000
_cell_angle_beta   90.00000000
_cell_angle_gamma   90.00000000
_symmetry_Int_Tables_number   1
_chemical_formula_structural   NaUBO5
_chemical_formula_sum   'Na4 U4 B4 O20'
_cell_volume   442.66130762
_cell_formula_units_Z   4
loop_
 _symmetry_equiv_pos_site_id
 _symmetry_equiv_pos_as_xyz
  1  'x, y, z'
loop_
 _atom_site_type_symbol
 _atom_site_label
 _atom_site_symmetry_multiplicity
 _atom_site_fract_x
 _atom_site_fract_y
 _atom_site_fract_z
 _atom_site_occupancy
  Na  Na0  1  0.602377  0.000000  0.250000  1
  Na  Na1  1  0.397623  0.500000  0.750000  1
  Na  Na2  1  0.602377  0.500000  0.250000  1
  Na  Na3  1  0.397623  0.000000  0.750000  1
  U  U4  1  0.902504  0.750000  0.567600  1
  U  U5  1  0.097496  0.250000  0.432400  1
  U  U6  1  0.902504  0.250000  0.932400  1
  U  U7  1  0.097496  0.750000  0.067600  1
  B  B8  1  0.196234  0.750000  0.351361  1
  B  B9  1  0.803766  0.250000  0.648639  1
  B  B10  1  0.803766  0.750000  0.851361  1
  B  B11  1  0.196234  0.250000  0.148639  1
  O  O12  1  0.871874  0.082360  0.588595  1
  O  O13  1  0.871874  0.582360  0.911405  1
  O  O14  1  0.152688  0.750000  0.671225  1
  O  O15  1  0.659108  0.250000  0.038045  1
  O  O16  1  0.128126  0.082360  0.088595  1
  O  O17  1  0.686560  0.750000  0.741647  1
  O  O18  1  0.128126  0.917640  0.411405  1
  O  O19  1  0.313440  0.250000  0.258353  1
  O  O20  1  0.659108  0.750000  0.461955  1
  O  O21  1  0.847312  0.750000  0.171225  1
  O  O22  1  0.340892  0.250000  0.538045  1
  O  O23  1  0.128126  0.582360  0.411405  1
  O  O24  1  0.313440  0.750000  0.241647  1
  O  O25  1  0.871874  0.417640  0.588595  1
  O  O26  1  0.152688  0.250000  0.828775  1
  O  O27  1  0.686560  0.250000  0.758353  1
  O  O28  1  0.128126  0.417640  0.088595  1
  O  O29  1  0.340892  0.750000  0.961955  1
  O  O30  1  0.871874  0.917640  0.911405  1
  O  O31  1  0.847312  0.250000  0.328775  1
