# generated using pymatgen
data_Al3Pb5F19
_symmetry_space_group_name_H-M   'P 1'
_cell_length_a   7.32981664
_cell_length_b   10.83475489
_cell_length_c   10.84609265
_cell_angle_alpha   83.98425708
_cell_angle_beta   109.38016580
_cell_angle_gamma   108.86412196
_symmetry_Int_Tables_number   1
_chemical_formula_structural   Al3Pb5F19
_chemical_formula_sum   'Al6 Pb10 F38'
_cell_volume   768.90785689
_cell_formula_units_Z   2
loop_
 _symmetry_equiv_pos_site_id
 _symmetry_equiv_pos_as_xyz
  1  'x, y, z'
loop_
 _atom_site_type_symbol
 _atom_site_label
 _atom_site_symmetry_multiplicity
 _atom_site_fract_x
 _atom_site_fract_y
 _atom_site_fract_z
 _atom_site_occupancy
  Al  Al0  1  0.246280  0.000836  0.997609  1
  Al  Al1  1  0.673551  0.516894  0.829923  1
  Al  Al2  1  0.834698  0.167841  0.517585  1
  Al  Al3  1  0.326449  0.483106  0.170077  1
  Al  Al4  1  0.753720  0.999164  0.002391  1
  Al  Al5  1  0.165302  0.832159  0.482415  1
  Pb  Pb6  1  0.761007  0.539666  0.477833  1
  Pb  Pb7  1  0.720927  0.279501  0.160427  1
  Pb  Pb8  1  0.076655  0.325722  0.841785  1
  Pb  Pb9  1  0.249290  0.157373  0.324372  1
  Pb  Pb10  1  0.750710  0.842627  0.675628  1
  Pb  Pb11  1  0.439520  0.155215  0.724078  1
  Pb  Pb12  1  0.279073  0.720499  0.839573  1
  Pb  Pb13  1  0.923345  0.674278  0.158215  1
  Pb  Pb14  1  0.560480  0.844785  0.275922  1
  Pb  Pb15  1  0.238993  0.460334  0.522167  1
  F  F16  1  0.407271  0.286998  0.540299  1
  F  F17  1  0.067595  0.165101  0.649410  1
  F  F18  1  0.759775  0.385692  0.800806  1
  F  F19  1  0.904557  0.340803  0.562398  1
  F  F20  1  0.274705  0.519860  0.995770  1
  F  F21  1  0.699018  0.834417  0.067925  1
  F  F22  1  0.793780  0.163481  0.936477  1
  F  F23  1  0.634193  0.933075  0.838021  1
  F  F24  1  0.240225  0.614308  0.199194  1
  F  F25  1  0.725295  0.480140  0.004230  1
  F  F26  1  0.206220  0.836519  0.063523  1
  F  F27  1  0.766184  0.995683  0.479084  1
  F  F28  1  0.095443  0.659197  0.437602  1
  F  F29  1  0.592729  0.713002  0.459701  1
  F  F30  1  0.365807  0.066925  0.161979  1
  F  F31  1  0.126907  0.537435  0.706901  1
  F  F32  1  0.617675  0.558655  0.653643  1
  F  F33  1  0.076750  0.362704  0.140206  1
  F  F34  1  0.382325  0.441345  0.346357  1
  F  F35  1  0.981239  0.223112  0.400520  1
  F  F36  1  0.233816  0.004317  0.520916  1
  F  F37  1  0.617004  0.191148  0.385172  1
  F  F38  1  0.873093  0.462565  0.293099  1
  F  F39  1  0.000000  0.000000  0.000000  1
  F  F40  1  0.422699  0.351485  0.155281  1
  F  F41  1  0.923250  0.637296  0.859794  1
  F  F42  1  0.859529  0.064670  0.168183  1
  F  F43  1  0.932405  0.834899  0.350590  1
  F  F44  1  0.413790  0.397330  0.783466  1
  F  F45  1  0.300844  0.876217  0.363354  1
  F  F46  1  0.699156  0.123783  0.636646  1
  F  F47  1  0.586210  0.602670  0.216534  1
  F  F48  1  0.382996  0.808852  0.614828  1
  F  F49  1  0.500000  0.000000  0.000000  1
  F  F50  1  0.577301  0.648515  0.844719  1
  F  F51  1  0.140471  0.935330  0.831817  1
  F  F52  1  0.300982  0.165583  0.932075  1
  F  F53  1  0.018761  0.776888  0.599480  1
