# generated using pymatgen
data_NbCrF6
_symmetry_space_group_name_H-M   'P 1'
_cell_length_a   5.96407300
_cell_length_b   5.96407300
_cell_length_c   5.96407300
_cell_angle_alpha   122.17379897
_cell_angle_beta   122.17379897
_cell_angle_gamma   86.27438005
_symmetry_Int_Tables_number   1
_chemical_formula_structural   NbCrF6
_chemical_formula_sum   'Nb1 Cr1 F6'
_cell_volume   144.74576458
_cell_formula_units_Z   1
loop_
 _symmetry_equiv_pos_site_id
 _symmetry_equiv_pos_as_xyz
  1  'x, y, z'
loop_
 _atom_site_type_symbol
 _atom_site_label
 _atom_site_symmetry_multiplicity
 _atom_site_fract_x
 _atom_site_fract_y
 _atom_site_fract_z
 _atom_site_occupancy
  Nb  Nb0  1  0.000000  0.000000  0.000000  1
  Cr  Cr1  1  0.500000  0.500000  0.000000  1
  F  F2  1  0.776771  0.776771  0.000000  1
  F  F3  1  0.223229  0.223229  0.000000  1
  F  F4  1  0.251516  0.251516  0.503031  1
  F  F5  1  0.251516  0.748484  0.000000  1
  F  F6  1  0.748484  0.251516  0.000000  1
  F  F7  1  0.748484  0.748484  0.496969  1
