# generated using pymatgen
data_Nd10(B3C4)3
_symmetry_space_group_name_H-M   'P 1'
_cell_length_a   8.45931620
_cell_length_b   8.45931620
_cell_length_c   25.32152822
_cell_angle_alpha   90.00000000
_cell_angle_beta   90.00000000
_cell_angle_gamma   90.00000000
_symmetry_Int_Tables_number   1
_chemical_formula_structural   Nd10(B3C4)3
_chemical_formula_sum   'Nd40 B36 C48'
_cell_volume   1812.00933354
_cell_formula_units_Z   4
loop_
 _symmetry_equiv_pos_site_id
 _symmetry_equiv_pos_as_xyz
  1  'x, y, z'
loop_
 _atom_site_type_symbol
 _atom_site_label
 _atom_site_symmetry_multiplicity
 _atom_site_fract_x
 _atom_site_fract_y
 _atom_site_fract_z
 _atom_site_occupancy
  Nd  Nd0  1  0.396467  0.092980  0.209692  1
  Nd  Nd1  1  0.804846  0.914668  0.196249  1
  Nd  Nd2  1  0.514506  0.599038  0.810513  1
  Nd  Nd3  1  0.198355  0.713755  0.178371  1
  Nd  Nd4  1  0.914668  0.804846  0.803751  1
  Nd  Nd5  1  0.183153  0.487315  0.417149  1
  Nd  Nd6  1  0.487315  0.183153  0.582851  1
  Nd  Nd7  1  0.987315  0.316847  0.167149  1
  Nd  Nd8  1  0.286245  0.801645  0.321629  1
  Nd  Nd9  1  0.985494  0.099038  0.439487  1
  Nd  Nd10  1  0.599038  0.514506  0.189487  1
  Nd  Nd11  1  0.900962  0.014506  0.060513  1
  Nd  Nd12  1  0.695154  0.414668  0.053751  1
  Nd  Nd13  1  0.085332  0.195154  0.303751  1
  Nd  Nd14  1  0.099038  0.985494  0.560513  1
  Nd  Nd15  1  0.304846  0.585332  0.553751  1
  Nd  Nd16  1  0.407020  0.896467  0.459692  1
  Nd  Nd17  1  0.512685  0.816847  0.082851  1
  Nd  Nd18  1  0.786245  0.698355  0.428371  1
  Nd  Nd19  1  0.816847  0.512685  0.917149  1
  Nd  Nd20  1  0.585332  0.304846  0.446249  1
  Nd  Nd21  1  0.698355  0.786245  0.571629  1
  Nd  Nd22  1  0.103533  0.592980  0.040308  1
  Nd  Nd23  1  0.683153  0.012685  0.332851  1
  Nd  Nd24  1  0.907020  0.603533  0.290308  1
  Nd  Nd25  1  0.301645  0.213755  0.071629  1
  Nd  Nd26  1  0.896467  0.407020  0.540308  1
  Nd  Nd27  1  0.012685  0.683153  0.667149  1
  Nd  Nd28  1  0.603533  0.907020  0.709692  1
  Nd  Nd29  1  0.316847  0.987315  0.832851  1
  Nd  Nd30  1  0.213755  0.301645  0.928371  1
  Nd  Nd31  1  0.414668  0.695154  0.946249  1
  Nd  Nd32  1  0.092980  0.396467  0.790308  1
  Nd  Nd33  1  0.014506  0.900962  0.939487  1
  Nd  Nd34  1  0.592980  0.103533  0.959692  1
  Nd  Nd35  1  0.713755  0.198355  0.821629  1
  Nd  Nd36  1  0.400962  0.485494  0.689487  1
  Nd  Nd37  1  0.801645  0.286245  0.678371  1
  Nd  Nd38  1  0.195154  0.085332  0.696249  1
  Nd  Nd39  1  0.485494  0.400962  0.310513  1
  B  B40  1  0.089108  0.801575  0.407635  1
  B  B41  1  0.410892  0.301575  0.842365  1
  B  B42  1  0.511019  0.376624  0.892465  1
  B  B43  1  0.635761  0.141315  0.116480  1
  B  B44  1  0.876624  0.988981  0.642465  1
  B  B45  1  0.698425  0.589108  0.657635  1
  B  B46  1  0.801575  0.089108  0.592365  1
  B  B47  1  0.203294  0.282389  0.524760  1
  B  B48  1  0.917775  0.082225  0.750000  1
  B  B49  1  0.717611  0.796706  0.975240  1
  B  B50  1  0.858685  0.364239  0.383520  1
  B  B51  1  0.011019  0.123376  0.857535  1
  B  B52  1  0.582225  0.582225  0.500000  1
  B  B53  1  0.782389  0.296706  0.274760  1
  B  B54  1  0.123376  0.011019  0.142465  1
  B  B55  1  0.703294  0.217611  0.225240  1
  B  B56  1  0.296706  0.782389  0.725240  1
  B  B57  1  0.082225  0.917775  0.250000  1
  B  B58  1  0.910892  0.198425  0.907635  1
  B  B59  1  0.417775  0.417775  0.000000  1
  B  B60  1  0.198425  0.910892  0.092365  1
  B  B61  1  0.488981  0.623376  0.392465  1
  B  B62  1  0.217611  0.703294  0.774760  1
  B  B63  1  0.376624  0.511019  0.107535  1
  B  B64  1  0.589108  0.698425  0.342365  1
  B  B65  1  0.301575  0.410892  0.157635  1
  B  B66  1  0.864239  0.641315  0.133520  1
  B  B67  1  0.988981  0.876624  0.357535  1
  B  B68  1  0.282389  0.203294  0.475240  1
  B  B69  1  0.141315  0.635761  0.883520  1
  B  B70  1  0.364239  0.858685  0.616480  1
  B  B71  1  0.796706  0.717611  0.024760  1
  B  B72  1  0.641315  0.864239  0.866480  1
  B  B73  1  0.358685  0.135762  0.366480  1
  B  B74  1  0.623376  0.488981  0.607535  1
  B  B75  1  0.135762  0.358685  0.633520  1
  C  C76  1  0.179833  0.297557  0.581743  1
  C  C77  1  0.297557  0.179833  0.418257  1
  C  C78  1  0.689871  0.005799  0.435418  1
  C  C79  1  0.810129  0.505799  0.814582  1
  C  C80  1  0.310129  0.994201  0.935418  1
  C  C81  1  0.893831  0.614741  0.189559  1
  C  C82  1  0.215806  0.924881  0.033588  1
  C  C83  1  0.606169  0.114741  0.060441  1
  C  C84  1  0.715806  0.575119  0.716412  1
  C  C85  1  0.924881  0.215806  0.966412  1
  C  C86  1  0.797557  0.320167  0.331743  1
  C  C87  1  0.494201  0.189871  0.685418  1
  C  C88  1  0.679833  0.202443  0.168257  1
  C  C89  1  0.202443  0.679833  0.831743  1
  C  C90  1  0.010812  0.097386  0.799374  1
  C  C91  1  0.189871  0.494201  0.314582  1
  C  C92  1  0.885259  0.393831  0.439559  1
  C  C93  1  0.489188  0.597386  0.450626  1
  C  C94  1  0.575119  0.715806  0.283588  1
  C  C95  1  0.385259  0.106169  0.310441  1
  C  C96  1  0.510812  0.402614  0.950626  1
  C  C97  1  0.597386  0.489188  0.549374  1
  C  C98  1  0.994201  0.310129  0.064582  1
  C  C99  1  0.288319  0.973329  0.988062  1
  C  C100  1  0.114741  0.606169  0.939559  1
  C  C101  1  0.614741  0.893831  0.810441  1
  C  C102  1  0.320167  0.797557  0.668257  1
  C  C103  1  0.902614  0.989188  0.700626  1
  C  C104  1  0.393831  0.885259  0.560441  1
  C  C105  1  0.788319  0.526671  0.761938  1
  C  C106  1  0.989188  0.902614  0.299374  1
  C  C107  1  0.005799  0.689871  0.564582  1
  C  C108  1  0.526671  0.788319  0.238062  1
  C  C109  1  0.711681  0.026671  0.488062  1
  C  C110  1  0.473329  0.211681  0.738062  1
  C  C111  1  0.075119  0.784194  0.466412  1
  C  C112  1  0.973329  0.288319  0.011938  1
  C  C113  1  0.211681  0.473329  0.261938  1
  C  C114  1  0.820167  0.702443  0.081743  1
  C  C115  1  0.402614  0.510812  0.049374  1
  C  C116  1  0.702443  0.820167  0.918257  1
  C  C117  1  0.505799  0.810129  0.185418  1
  C  C118  1  0.026671  0.711681  0.511938  1
  C  C119  1  0.284194  0.424881  0.216412  1
  C  C120  1  0.784194  0.075119  0.533588  1
  C  C121  1  0.106169  0.385259  0.689559  1
  C  C122  1  0.097386  0.010812  0.200626  1
  C  C123  1  0.424881  0.284194  0.783588  1
