# generated using pymatgen
data_MgAl2O4
_symmetry_space_group_name_H-M   'P 1'
_cell_length_a   2.81448446
_cell_length_b   8.75890602
_cell_length_c   10.03259804
_cell_angle_alpha   90.00000000
_cell_angle_beta   90.00000000
_cell_angle_gamma   90.00000000
_symmetry_Int_Tables_number   1
_chemical_formula_structural   MgAl2O4
_chemical_formula_sum   'Mg4 Al8 O16'
_cell_volume   247.32164932
_cell_formula_units_Z   4
loop_
 _symmetry_equiv_pos_site_id
 _symmetry_equiv_pos_as_xyz
  1  'x, y, z'
loop_
 _atom_site_type_symbol
 _atom_site_label
 _atom_site_symmetry_multiplicity
 _atom_site_fract_x
 _atom_site_fract_y
 _atom_site_fract_z
 _atom_site_occupancy
  Mg  Mg0  1  0.750000  0.245560  0.348182  1
  Mg  Mg1  1  0.250000  0.754440  0.651818  1
  Mg  Mg2  1  0.750000  0.745560  0.151818  1
  Mg  Mg3  1  0.250000  0.254440  0.848182  1
  Al  Al4  1  0.250000  0.941303  0.883330  1
  Al  Al5  1  0.750000  0.058697  0.116670  1
  Al  Al6  1  0.250000  0.441303  0.616670  1
  Al  Al7  1  0.750000  0.558697  0.383330  1
  Al  Al8  1  0.750000  0.586723  0.896477  1
  Al  Al9  1  0.250000  0.413277  0.103523  1
  Al  Al10  1  0.750000  0.086723  0.603523  1
  Al  Al11  1  0.250000  0.913277  0.396477  1
  O  O12  1  0.250000  0.911815  0.070335  1
  O  O13  1  0.750000  0.088185  0.929665  1
  O  O14  1  0.250000  0.411815  0.429665  1
  O  O15  1  0.750000  0.588185  0.570335  1
  O  O16  1  0.250000  0.036941  0.716399  1
  O  O17  1  0.750000  0.963059  0.283601  1
  O  O18  1  0.250000  0.536941  0.783601  1
  O  O19  1  0.750000  0.463059  0.216399  1
  O  O20  1  0.250000  0.619850  0.029309  1
  O  O21  1  0.750000  0.380150  0.970691  1
  O  O22  1  0.250000  0.119850  0.470691  1
  O  O23  1  0.750000  0.880150  0.529309  1
  O  O24  1  0.750000  0.799338  0.831635  1
  O  O25  1  0.250000  0.200662  0.168365  1
  O  O26  1  0.750000  0.299338  0.668365  1
  O  O27  1  0.250000  0.700662  0.331635  1
