# generated using pymatgen
data_Pr3Si2ClO8
_symmetry_space_group_name_H-M   'P 1'
_cell_length_a   7.90467353
_cell_length_b   7.90467353
_cell_length_c   8.87446778
_cell_angle_alpha   82.59443673
_cell_angle_beta   97.40556327
_cell_angle_gamma   131.44983173
_symmetry_Int_Tables_number   1
_chemical_formula_structural   Pr3Si2ClO8
_chemical_formula_sum   'Pr6 Si4 Cl2 O16'
_cell_volume   411.45017262
_cell_formula_units_Z   2
loop_
 _symmetry_equiv_pos_site_id
 _symmetry_equiv_pos_as_xyz
  1  'x, y, z'
loop_
 _atom_site_type_symbol
 _atom_site_label
 _atom_site_symmetry_multiplicity
 _atom_site_fract_x
 _atom_site_fract_y
 _atom_site_fract_z
 _atom_site_occupancy
  Pr  Pr0  1  0.710057  0.080296  0.828900  1
  Pr  Pr1  1  0.919704  0.289943  0.328900  1
  Pr  Pr2  1  0.573701  0.573701  0.250000  1
  Pr  Pr3  1  0.289943  0.919704  0.171100  1
  Pr  Pr4  1  0.080296  0.710057  0.671100  1
  Pr  Pr5  1  0.426299  0.426299  0.750000  1
  Si  Si6  1  0.396525  0.712399  0.474740  1
  Si  Si7  1  0.603475  0.287601  0.525260  1
  Si  Si8  1  0.712399  0.396525  0.025260  1
  Si  Si9  1  0.287601  0.603475  0.974740  1
  Cl  Cl10  1  0.024402  0.024402  0.250000  1
  Cl  Cl11  1  0.975598  0.975598  0.750000  1
  O  O12  1  0.767958  0.458924  0.845366  1
  O  O13  1  0.232042  0.541076  0.154634  1
  O  O14  1  0.704179  0.182589  0.081281  1
  O  O15  1  0.548680  0.704268  0.968157  1
  O  O16  1  0.182589  0.704179  0.418719  1
  O  O17  1  0.541076  0.232042  0.345366  1
  O  O18  1  0.595681  0.881441  0.355589  1
  O  O19  1  0.295821  0.817411  0.918719  1
  O  O20  1  0.817411  0.295821  0.581281  1
  O  O21  1  0.404319  0.118559  0.644411  1
  O  O22  1  0.458924  0.767958  0.654634  1
  O  O23  1  0.704268  0.548680  0.531843  1
  O  O24  1  0.118559  0.404319  0.855589  1
  O  O25  1  0.881441  0.595681  0.144411  1
  O  O26  1  0.295732  0.451320  0.468157  1
  O  O27  1  0.451320  0.295732  0.031843  1
