# generated using pymatgen
data_MgH6(CO3)2
_symmetry_space_group_name_H-M   'P 1'
_cell_length_a   8.72493775
_cell_length_b   7.20379097
_cell_length_c   9.45934971
_cell_angle_alpha   90.00000000
_cell_angle_beta   98.05593975
_cell_angle_gamma   90.00000000
_symmetry_Int_Tables_number   1
_chemical_formula_structural   MgH6(CO3)2
_chemical_formula_sum   'Mg4 H24 C8 O24'
_cell_volume   588.67784874
_cell_formula_units_Z   4
loop_
 _symmetry_equiv_pos_site_id
 _symmetry_equiv_pos_as_xyz
  1  'x, y, z'
loop_
 _atom_site_type_symbol
 _atom_site_label
 _atom_site_symmetry_multiplicity
 _atom_site_fract_x
 _atom_site_fract_y
 _atom_site_fract_z
 _atom_site_occupancy
  Mg  Mg0  1  0.000000  0.000000  0.000000  1
  Mg  Mg1  1  0.000000  0.500000  0.500000  1
  Mg  Mg2  1  0.500000  0.500000  0.000000  1
  Mg  Mg3  1  0.500000  0.000000  0.500000  1
  H  H4  1  0.208621  0.609616  0.007554  1
  H  H5  1  0.791379  0.109616  0.492446  1
  H  H6  1  0.791379  0.390384  0.992446  1
  H  H7  1  0.208621  0.890384  0.507554  1
  H  H8  1  0.233466  0.393688  0.045318  1
  H  H9  1  0.766534  0.893688  0.454682  1
  H  H10  1  0.766534  0.606312  0.954682  1
  H  H11  1  0.233466  0.106312  0.545318  1
  H  H12  1  0.329912  0.525171  0.386873  1
  H  H13  1  0.670088  0.025171  0.113127  1
  H  H14  1  0.670088  0.474829  0.613127  1
  H  H15  1  0.329912  0.974829  0.886873  1
  H  H16  1  0.926784  0.707554  0.224274  1
  H  H17  1  0.073216  0.207554  0.275726  1
  H  H18  1  0.073216  0.292446  0.775726  1
  H  H19  1  0.926784  0.792446  0.724274  1
  H  H20  1  0.468147  0.847625  0.222733  1
  H  H21  1  0.531853  0.347625  0.277267  1
  H  H22  1  0.531853  0.152375  0.777267  1
  H  H23  1  0.468147  0.652375  0.722733  1
  H  H24  1  0.301856  0.898611  0.263084  1
  H  H25  1  0.698144  0.398611  0.236916  1
  H  H26  1  0.698144  0.101389  0.736916  1
  H  H27  1  0.301856  0.601389  0.763084  1
  C  C28  1  0.034763  0.774853  0.273835  1
  C  C29  1  0.965237  0.274853  0.226165  1
  C  C30  1  0.965237  0.225147  0.726165  1
  C  C31  1  0.034763  0.725147  0.773835  1
  C  C32  1  0.325520  0.384934  0.434091  1
  C  C33  1  0.674480  0.884934  0.065909  1
  C  C34  1  0.674480  0.615066  0.565909  1
  C  C35  1  0.325520  0.115066  0.934091  1
  O  O36  1  0.097764  0.892505  0.200410  1
  O  O37  1  0.902236  0.392505  0.299590  1
  O  O38  1  0.902236  0.107495  0.799590  1
  O  O39  1  0.097764  0.607495  0.700410  1
  O  O40  1  0.087675  0.728336  0.401053  1
  O  O41  1  0.912325  0.228336  0.098947  1
  O  O42  1  0.912325  0.271664  0.598947  1
  O  O43  1  0.087675  0.771664  0.901053  1
  O  O44  1  0.436635  0.275602  0.420813  1
  O  O45  1  0.563365  0.775602  0.079187  1
  O  O46  1  0.563365  0.724398  0.579187  1
  O  O47  1  0.436635  0.224398  0.920813  1
  O  O48  1  0.208832  0.345329  0.496085  1
  O  O49  1  0.791168  0.845329  0.003915  1
  O  O50  1  0.791168  0.654671  0.503915  1
  O  O51  1  0.208832  0.154671  0.996085  1
  O  O52  1  0.279158  0.519629  0.063469  1
  O  O53  1  0.720842  0.019629  0.436531  1
  O  O54  1  0.720842  0.480371  0.936531  1
  O  O55  1  0.279158  0.980371  0.563469  1
  O  O56  1  0.413151  0.890780  0.301777  1
  O  O57  1  0.586849  0.390780  0.198223  1
  O  O58  1  0.586849  0.109220  0.698223  1
  O  O59  1  0.413151  0.609220  0.801777  1
