# generated using pymatgen
data_Na2Te4WO12
_symmetry_space_group_name_H-M   'P 1'
_cell_length_a   9.24997944
_cell_length_b   9.24997944
_cell_length_c   11.46642166
_cell_angle_alpha   75.91153358
_cell_angle_beta   104.08846642
_cell_angle_gamma   142.93688004
_symmetry_Int_Tables_number   1
_chemical_formula_structural   Na2Te4WO12
_chemical_formula_sum   'Na4 Te8 W2 O24'
_cell_volume   571.47962622
_cell_formula_units_Z   2
loop_
 _symmetry_equiv_pos_site_id
 _symmetry_equiv_pos_as_xyz
  1  'x, y, z'
loop_
 _atom_site_type_symbol
 _atom_site_label
 _atom_site_symmetry_multiplicity
 _atom_site_fract_x
 _atom_site_fract_y
 _atom_site_fract_z
 _atom_site_occupancy
  Na  Na0  1  0.560036  0.983181  0.733963  1
  Na  Na1  1  0.983181  0.560036  0.766037  1
  Na  Na2  1  0.439964  0.016819  0.266037  1
  Na  Na3  1  0.016819  0.439964  0.233963  1
  Te  Te4  1  0.309508  0.121235  0.598659  1
  Te  Te5  1  0.121235  0.309508  0.901341  1
  Te  Te6  1  0.690492  0.878765  0.401341  1
  Te  Te7  1  0.878765  0.690492  0.098659  1
  Te  Te8  1  0.486303  0.172347  0.936282  1
  Te  Te9  1  0.172347  0.486303  0.563718  1
  Te  Te10  1  0.513697  0.827653  0.063718  1
  Te  Te11  1  0.827653  0.513697  0.436282  1
  W  W12  1  0.660032  0.660032  0.750000  1
  W  W13  1  0.339968  0.339968  0.250000  1
  O  O14  1  0.494666  0.716931  0.661898  1
  O  O15  1  0.716931  0.494666  0.838102  1
  O  O16  1  0.505334  0.283069  0.338102  1
  O  O17  1  0.283069  0.505334  0.161898  1
  O  O18  1  0.684950  0.166498  0.929209  1
  O  O19  1  0.166498  0.684950  0.570791  1
  O  O20  1  0.315050  0.833502  0.070791  1
  O  O21  1  0.833502  0.315050  0.429209  1
  O  O22  1  0.645783  0.320237  0.589601  1
  O  O23  1  0.320237  0.645783  0.910399  1
  O  O24  1  0.354217  0.679763  0.410399  1
  O  O25  1  0.679763  0.354217  0.089601  1
  O  O26  1  0.311436  0.993355  0.754787  1
  O  O27  1  0.993355  0.311436  0.745213  1
  O  O28  1  0.688564  0.006645  0.245213  1
  O  O29  1  0.006645  0.688564  0.254787  1
  O  O30  1  0.392401  0.369254  0.635962  1
  O  O31  1  0.369254  0.392401  0.864038  1
  O  O32  1  0.607599  0.630746  0.364038  1
  O  O33  1  0.630746  0.607599  0.135962  1
  O  O34  1  0.832982  0.880477  0.857531  1
  O  O35  1  0.880477  0.832982  0.642469  1
  O  O36  1  0.167018  0.119523  0.142469  1
  O  O37  1  0.119523  0.167018  0.357531  1
