# generated using pymatgen
data_Al2SnCl6O
_symmetry_space_group_name_H-M   'P 1'
_cell_length_a   9.57824367
_cell_length_b   12.62857072
_cell_length_c   12.82734009
_cell_angle_alpha   90.00000000
_cell_angle_beta   131.38579227
_cell_angle_gamma   90.00000000
_symmetry_Int_Tables_number   1
_chemical_formula_structural   Al2SnCl6O
_chemical_formula_sum   'Al8 Sn4 Cl24 O4'
_cell_volume   1164.11848626
_cell_formula_units_Z   4
loop_
 _symmetry_equiv_pos_site_id
 _symmetry_equiv_pos_as_xyz
  1  'x, y, z'
loop_
 _atom_site_type_symbol
 _atom_site_label
 _atom_site_symmetry_multiplicity
 _atom_site_fract_x
 _atom_site_fract_y
 _atom_site_fract_z
 _atom_site_occupancy
  Al  Al0  1  0.635418  0.108227  0.274542  1
  Al  Al1  1  0.635418  0.391773  0.774542  1
  Al  Al2  1  0.046637  0.007441  0.422636  1
  Al  Al3  1  0.364582  0.891773  0.725458  1
  Al  Al4  1  0.953363  0.992559  0.577364  1
  Al  Al5  1  0.046637  0.492559  0.922636  1
  Al  Al6  1  0.364582  0.608227  0.225458  1
  Al  Al7  1  0.953363  0.507441  0.077364  1
  Sn  Sn8  1  0.219710  0.977228  0.203504  1
  Sn  Sn9  1  0.219710  0.522772  0.703504  1
  Sn  Sn10  1  0.780290  0.022772  0.796496  1
  Sn  Sn11  1  0.780290  0.477228  0.296496  1
  Cl  Cl12  1  0.515229  0.166861  0.356886  1
  Cl  Cl13  1  0.672735  0.277344  0.673077  1
  Cl  Cl14  1  0.010690  0.133505  0.032168  1
  Cl  Cl15  1  0.327265  0.777344  0.826923  1
  Cl  Cl16  1  0.989310  0.633505  0.467832  1
  Cl  Cl17  1  0.556732  0.017856  0.869107  1
  Cl  Cl18  1  0.443268  0.982144  0.130893  1
  Cl  Cl19  1  0.672735  0.222656  0.173077  1
  Cl  Cl20  1  0.556732  0.482144  0.369107  1
  Cl  Cl21  1  0.772663  0.878167  0.554315  1
  Cl  Cl22  1  0.049665  0.097044  0.744604  1
  Cl  Cl23  1  0.227337  0.378167  0.945685  1
  Cl  Cl24  1  0.950335  0.597044  0.755396  1
  Cl  Cl25  1  0.989310  0.866495  0.967832  1
  Cl  Cl26  1  0.049665  0.402956  0.244604  1
  Cl  Cl27  1  0.227337  0.121833  0.445685  1
  Cl  Cl28  1  0.515229  0.333139  0.856886  1
  Cl  Cl29  1  0.010690  0.366495  0.532168  1
  Cl  Cl30  1  0.950335  0.902956  0.255396  1
  Cl  Cl31  1  0.772663  0.621833  0.054315  1
  Cl  Cl32  1  0.443268  0.517856  0.630893  1
  Cl  Cl33  1  0.484771  0.833139  0.643114  1
  Cl  Cl34  1  0.327265  0.722656  0.326923  1
  Cl  Cl35  1  0.484771  0.666861  0.143114  1
  O  O36  1  0.143293  0.948559  0.588013  1
  O  O37  1  0.143293  0.551441  0.088013  1
  O  O38  1  0.856707  0.448559  0.911987  1
  O  O39  1  0.856707  0.051441  0.411987  1
