# generated using pymatgen
data_Ho5Si4
_symmetry_space_group_name_H-M   'P 1'
_cell_length_a   7.38568716
_cell_length_b   7.66687412
_cell_length_c   14.50025666
_cell_angle_alpha   90.00000000
_cell_angle_beta   90.00000000
_cell_angle_gamma   90.00000000
_symmetry_Int_Tables_number   1
_chemical_formula_structural   Ho5Si4
_chemical_formula_sum   'Ho20 Si16'
_cell_volume   821.07897272
_cell_formula_units_Z   4
loop_
 _symmetry_equiv_pos_site_id
 _symmetry_equiv_pos_as_xyz
  1  'x, y, z'
loop_
 _atom_site_type_symbol
 _atom_site_label
 _atom_site_symmetry_multiplicity
 _atom_site_fract_x
 _atom_site_fract_y
 _atom_site_fract_z
 _atom_site_occupancy
  Ho  Ho0  1  0.650616  0.987520  0.250000  1
  Ho  Ho1  1  0.150616  0.512480  0.250000  1
  Ho  Ho2  1  0.849384  0.487520  0.750000  1
  Ho  Ho3  1  0.349384  0.012480  0.750000  1
  Ho  Ho4  1  0.974182  0.817735  0.097755  1
  Ho  Ho5  1  0.474182  0.682265  0.402245  1
  Ho  Ho6  1  0.525818  0.317735  0.902245  1
  Ho  Ho7  1  0.025818  0.182265  0.597755  1
  Ho  Ho8  1  0.025818  0.182265  0.902245  1
  Ho  Ho9  1  0.525818  0.317735  0.597755  1
  Ho  Ho10  1  0.474182  0.682265  0.097755  1
  Ho  Ho11  1  0.974182  0.817735  0.402245  1
  Ho  Ho12  1  0.680744  0.820472  0.876813  1
  Ho  Ho13  1  0.180744  0.679528  0.623187  1
  Ho  Ho14  1  0.819256  0.320472  0.123187  1
  Ho  Ho15  1  0.319256  0.179528  0.376813  1
  Ho  Ho16  1  0.319256  0.179528  0.123187  1
  Ho  Ho17  1  0.819256  0.320472  0.376813  1
  Ho  Ho18  1  0.180744  0.679528  0.876813  1
  Ho  Ho19  1  0.680744  0.820472  0.623187  1
  Si  Si20  1  0.768952  0.628228  0.250000  1
  Si  Si21  1  0.268952  0.871772  0.250000  1
  Si  Si22  1  0.731048  0.128228  0.750000  1
  Si  Si23  1  0.231048  0.371772  0.750000  1
  Si  Si24  1  0.022851  0.103236  0.250000  1
  Si  Si25  1  0.522851  0.396764  0.250000  1
  Si  Si26  1  0.477149  0.603236  0.750000  1
  Si  Si27  1  0.977149  0.896764  0.750000  1
  Si  Si28  1  0.851825  0.528704  0.960213  1
  Si  Si29  1  0.351825  0.971296  0.539787  1
  Si  Si30  1  0.648175  0.028704  0.039787  1
  Si  Si31  1  0.148175  0.471296  0.460213  1
  Si  Si32  1  0.148175  0.471296  0.039787  1
  Si  Si33  1  0.648175  0.028704  0.460213  1
  Si  Si34  1  0.351825  0.971296  0.960213  1
  Si  Si35  1  0.851825  0.528704  0.539787  1
