# generated using pymatgen
data_BaDy2MnO5
_symmetry_space_group_name_H-M   'P 1'
_cell_length_a   5.80415323
_cell_length_b   7.21398547
_cell_length_c   12.51656468
_cell_angle_alpha   90.00000000
_cell_angle_beta   90.00000000
_cell_angle_gamma   90.00000000
_symmetry_Int_Tables_number   1
_chemical_formula_structural   BaDy2MnO5
_chemical_formula_sum   'Ba4 Dy8 Mn4 O20'
_cell_volume   524.08204433
_cell_formula_units_Z   4
loop_
 _symmetry_equiv_pos_site_id
 _symmetry_equiv_pos_as_xyz
  1  'x, y, z'
loop_
 _atom_site_type_symbol
 _atom_site_label
 _atom_site_symmetry_multiplicity
 _atom_site_fract_x
 _atom_site_fract_y
 _atom_site_fract_z
 _atom_site_occupancy
  Ba  Ba0  1  0.250000  0.918604  0.899003  1
  Ba  Ba1  1  0.750000  0.081396  0.100997  1
  Ba  Ba2  1  0.750000  0.418604  0.600997  1
  Ba  Ba3  1  0.250000  0.581396  0.399003  1
  Dy  Dy4  1  0.250000  0.123009  0.293330  1
  Dy  Dy5  1  0.750000  0.876991  0.706670  1
  Dy  Dy6  1  0.750000  0.623009  0.206670  1
  Dy  Dy7  1  0.250000  0.376991  0.793330  1
  Dy  Dy8  1  0.250000  0.400124  0.074046  1
  Dy  Dy9  1  0.750000  0.599876  0.925954  1
  Dy  Dy10  1  0.750000  0.900124  0.425954  1
  Dy  Dy11  1  0.250000  0.099876  0.574046  1
  Mn  Mn12  1  0.250000  0.691983  0.652026  1
  Mn  Mn13  1  0.750000  0.308017  0.347974  1
  Mn  Mn14  1  0.750000  0.191983  0.847974  1
  Mn  Mn15  1  0.250000  0.808017  0.152026  1
  O  O16  1  0.001676  0.162248  0.434707  1
  O  O17  1  0.501676  0.837752  0.565293  1
  O  O18  1  0.998324  0.662248  0.065293  1
  O  O19  1  0.498324  0.337752  0.934707  1
  O  O20  1  0.998324  0.837752  0.565293  1
  O  O21  1  0.498324  0.162248  0.434707  1
  O  O22  1  0.001676  0.337752  0.934707  1
  O  O23  1  0.501676  0.662248  0.065293  1
  O  O24  1  0.498822  0.361690  0.224094  1
  O  O25  1  0.998822  0.638310  0.775906  1
  O  O26  1  0.501178  0.861690  0.275906  1
  O  O27  1  0.001178  0.138310  0.724094  1
  O  O28  1  0.501178  0.638310  0.775906  1
  O  O29  1  0.001178  0.361690  0.224094  1
  O  O30  1  0.498822  0.138310  0.724094  1
  O  O31  1  0.998822  0.861690  0.275906  1
  O  O32  1  0.250000  0.079338  0.101011  1
  O  O33  1  0.750000  0.920662  0.898989  1
  O  O34  1  0.750000  0.579338  0.398989  1
  O  O35  1  0.250000  0.420662  0.601011  1
