# generated using pymatgen
data_Co21(SnB3)2
_symmetry_space_group_name_H-M   'P 1'
_cell_length_a   7.47683755
_cell_length_b   7.47683755
_cell_length_c   7.47683755
_cell_angle_alpha   60.00000000
_cell_angle_beta   60.00000000
_cell_angle_gamma   60.00000000
_symmetry_Int_Tables_number   1
_chemical_formula_structural   Co21(SnB3)2
_chemical_formula_sum   'Co21 Sn2 B6'
_cell_volume   295.55535718
_cell_formula_units_Z   1
loop_
 _symmetry_equiv_pos_site_id
 _symmetry_equiv_pos_as_xyz
  1  'x, y, z'
loop_
 _atom_site_type_symbol
 _atom_site_label
 _atom_site_symmetry_multiplicity
 _atom_site_fract_x
 _atom_site_fract_y
 _atom_site_fract_z
 _atom_site_occupancy
  Co  Co0  1  0.000000  0.000000  0.000000  1
  Co  Co1  1  0.614654  0.614654  0.156038  1
  Co  Co2  1  0.156038  0.614654  0.614654  1
  Co  Co3  1  0.614654  0.614654  0.614654  1
  Co  Co4  1  0.614654  0.156038  0.614654  1
  Co  Co5  1  0.385346  0.385346  0.843962  1
  Co  Co6  1  0.843962  0.385346  0.385346  1
  Co  Co7  1  0.385346  0.385346  0.385346  1
  Co  Co8  1  0.385346  0.843962  0.385346  1
  Co  Co9  1  0.000000  0.665161  0.334839  1
  Co  Co10  1  1.000000  1.000000  0.334839  1
  Co  Co11  1  0.665161  0.000000  0.334839  1
  Co  Co12  1  0.334839  0.000000  0.000000  1
  Co  Co13  1  0.334839  0.665161  1.000000  1
  Co  Co14  1  0.334839  0.000000  0.665161  1
  Co  Co15  1  0.665161  0.000000  0.000000  1
  Co  Co16  1  1.000000  1.000000  0.665161  1
  Co  Co17  1  0.000000  0.665161  1.000000  1
  Co  Co18  1  0.000000  0.334839  0.665161  1
  Co  Co19  1  0.665161  0.334839  1.000000  1
  Co  Co20  1  0.000000  0.334839  1.000000  1
  Sn  Sn21  1  0.750000  0.750000  0.750000  1
  Sn  Sn22  1  0.250000  0.250000  0.250000  1
  B  B23  1  0.724039  0.275961  0.275961  1
  B  B24  1  0.724039  0.724039  0.275961  1
  B  B25  1  0.275961  0.724039  0.275961  1
  B  B26  1  0.275961  0.724039  0.724039  1
  B  B27  1  0.275961  0.275961  0.724039  1
  B  B28  1  0.724039  0.275961  0.724039  1
