# generated using pymatgen
data_Cs2SiO3
_symmetry_space_group_name_H-M   'P 1'
_cell_length_a   6.95645944
_cell_length_b   14.08238431
_cell_length_c   17.36277168
_cell_angle_alpha   90.00000000
_cell_angle_beta   108.17850786
_cell_angle_gamma   90.00000000
_symmetry_Int_Tables_number   1
_chemical_formula_structural   Cs2SiO3
_chemical_formula_sum   'Cs24 Si12 O36'
_cell_volume   1616.02419891
_cell_formula_units_Z   12
loop_
 _symmetry_equiv_pos_site_id
 _symmetry_equiv_pos_as_xyz
  1  'x, y, z'
loop_
 _atom_site_type_symbol
 _atom_site_label
 _atom_site_symmetry_multiplicity
 _atom_site_fract_x
 _atom_site_fract_y
 _atom_site_fract_z
 _atom_site_occupancy
  Cs  Cs0  1  0.453977  0.656116  0.492012  1
  Cs  Cs1  1  0.546023  0.156116  0.007988  1
  Cs  Cs2  1  0.864763  0.191502  0.691703  1
  Cs  Cs3  1  0.281245  0.585685  0.032966  1
  Cs  Cs4  1  0.016095  0.894064  0.085525  1
  Cs  Cs5  1  0.016095  0.605936  0.585525  1
  Cs  Cs6  1  0.135237  0.691502  0.808297  1
  Cs  Cs7  1  0.877797  0.622686  0.135759  1
  Cs  Cs8  1  0.718755  0.414315  0.967034  1
  Cs  Cs9  1  0.877797  0.877314  0.635759  1
  Cs  Cs10  1  0.864763  0.308498  0.191703  1
  Cs  Cs11  1  0.345408  0.988029  0.781651  1
  Cs  Cs12  1  0.281245  0.914315  0.532966  1
  Cs  Cs13  1  0.654592  0.011971  0.218349  1
  Cs  Cs14  1  0.122203  0.122686  0.364241  1
  Cs  Cs15  1  0.983905  0.105936  0.914475  1
  Cs  Cs16  1  0.983905  0.394064  0.414475  1
  Cs  Cs17  1  0.122203  0.377314  0.864241  1
  Cs  Cs18  1  0.453977  0.843884  0.992012  1
  Cs  Cs19  1  0.718755  0.085685  0.467034  1
  Cs  Cs20  1  0.345408  0.511971  0.281651  1
  Cs  Cs21  1  0.654592  0.488029  0.718349  1
  Cs  Cs22  1  0.135237  0.808498  0.308297  1
  Cs  Cs23  1  0.546023  0.343884  0.507988  1
  Si  Si24  1  0.723392  0.655009  0.893579  1
  Si  Si25  1  0.451394  0.253500  0.278165  1
  Si  Si26  1  0.276608  0.155009  0.606421  1
  Si  Si27  1  0.829756  0.865712  0.865537  1
  Si  Si28  1  0.548606  0.753500  0.221835  1
  Si  Si29  1  0.548606  0.746500  0.721835  1
  Si  Si30  1  0.451394  0.246500  0.778165  1
  Si  Si31  1  0.723392  0.844991  0.393579  1
  Si  Si32  1  0.829756  0.634288  0.365537  1
  Si  Si33  1  0.170244  0.134288  0.134463  1
  Si  Si34  1  0.276608  0.344991  0.106421  1
  Si  Si35  1  0.170244  0.365712  0.634463  1
  O  O36  1  0.686292  0.226831  0.324768  1
  O  O37  1  0.322419  0.297251  0.333623  1
  O  O38  1  0.593888  0.861256  0.455826  1
  O  O39  1  0.671581  0.844656  0.770529  1
  O  O40  1  0.686292  0.273169  0.824768  1
  O  O41  1  0.328419  0.344656  0.729471  1
  O  O42  1  0.852897  0.759170  0.913665  1
  O  O43  1  0.671581  0.655344  0.270529  1
  O  O44  1  0.328419  0.155344  0.229471  1
  O  O45  1  0.441749  0.171078  0.700869  1
  O  O46  1  0.882802  0.571131  0.891820  1
  O  O47  1  0.117198  0.071131  0.608180  1
  O  O48  1  0.274055  0.440401  0.587955  1
  O  O49  1  0.950543  0.102793  0.140135  1
  O  O50  1  0.558251  0.828922  0.299131  1
  O  O51  1  0.313708  0.773169  0.675232  1
  O  O52  1  0.852897  0.740830  0.413665  1
  O  O53  1  0.147103  0.240830  0.086335  1
  O  O54  1  0.406112  0.138744  0.544174  1
  O  O55  1  0.322419  0.202749  0.833623  1
  O  O56  1  0.049457  0.602793  0.359865  1
  O  O57  1  0.441749  0.328922  0.200869  1
  O  O58  1  0.950543  0.397207  0.640135  1
  O  O59  1  0.313708  0.726831  0.175232  1
  O  O60  1  0.147103  0.259170  0.586335  1
  O  O61  1  0.677581  0.797251  0.166377  1
  O  O62  1  0.558251  0.671078  0.799131  1
  O  O63  1  0.677581  0.702749  0.666377  1
  O  O64  1  0.406112  0.361256  0.044174  1
  O  O65  1  0.725945  0.559599  0.412045  1
  O  O66  1  0.593888  0.638744  0.955826  1
  O  O67  1  0.049457  0.897207  0.859865  1
  O  O68  1  0.882802  0.928869  0.391820  1
  O  O69  1  0.274055  0.059599  0.087955  1
  O  O70  1  0.725945  0.940401  0.912045  1
  O  O71  1  0.117198  0.428869  0.108180  1
