# generated using pymatgen
data_BaMo2(PO4)3
_symmetry_space_group_name_H-M   'P 1'
_cell_length_a   9.53146742
_cell_length_b   9.53146742
_cell_length_c   9.53146742
_cell_angle_alpha   54.72538541
_cell_angle_beta   54.72538541
_cell_angle_gamma   54.72538541
_symmetry_Int_Tables_number   1
_chemical_formula_structural   BaMo2(PO4)3
_chemical_formula_sum   'Ba2 Mo4 P6 O24'
_cell_volume   537.07258363
_cell_formula_units_Z   2
loop_
 _symmetry_equiv_pos_site_id
 _symmetry_equiv_pos_as_xyz
  1  'x, y, z'
loop_
 _atom_site_type_symbol
 _atom_site_label
 _atom_site_symmetry_multiplicity
 _atom_site_fract_x
 _atom_site_fract_y
 _atom_site_fract_z
 _atom_site_occupancy
  Ba  Ba0  1  0.000000  0.000000  0.000000  1
  Ba  Ba1  1  0.500000  0.500000  0.500000  1
  Mo  Mo2  1  0.849249  0.849249  0.849249  1
  Mo  Mo3  1  0.650751  0.650751  0.650751  1
  Mo  Mo4  1  0.150751  0.150751  0.150751  1
  Mo  Mo5  1  0.349249  0.349249  0.349249  1
  P  P6  1  0.037521  0.750000  0.462479  1
  P  P7  1  0.462479  0.037521  0.750000  1
  P  P8  1  0.750000  0.462479  0.037521  1
  P  P9  1  0.962479  0.250000  0.537521  1
  P  P10  1  0.537521  0.962479  0.250000  1
  P  P11  1  0.250000  0.537521  0.962479  1
  O  O12  1  0.630569  0.019175  0.755941  1
  O  O13  1  0.755941  0.630569  0.019175  1
  O  O14  1  0.019175  0.755941  0.630569  1
  O  O15  1  0.744059  0.480825  0.869431  1
  O  O16  1  0.869431  0.744059  0.480825  1
  O  O17  1  0.480825  0.869431  0.744059  1
  O  O18  1  0.369431  0.980825  0.244059  1
  O  O19  1  0.244059  0.369431  0.980825  1
  O  O20  1  0.980825  0.244059  0.369431  1
  O  O21  1  0.255941  0.519175  0.130569  1
  O  O22  1  0.130569  0.255941  0.519175  1
  O  O23  1  0.519175  0.130569  0.255941  1
  O  O24  1  0.930436  0.076617  0.711133  1
  O  O25  1  0.711133  0.930436  0.076617  1
  O  O26  1  0.076617  0.711133  0.930436  1
  O  O27  1  0.788867  0.423383  0.569564  1
  O  O28  1  0.569564  0.788867  0.423383  1
  O  O29  1  0.423383  0.569564  0.788867  1
  O  O30  1  0.069564  0.923383  0.288867  1
  O  O31  1  0.288867  0.069564  0.923383  1
  O  O32  1  0.923383  0.288867  0.069564  1
  O  O33  1  0.211133  0.576617  0.430436  1
  O  O34  1  0.430436  0.211133  0.576617  1
  O  O35  1  0.576617  0.430436  0.211133  1
