# generated using pymatgen
data_Sm2Zr2O7
_symmetry_space_group_name_H-M   'P 1'
_cell_length_a   7.60915577
_cell_length_b   7.60915577
_cell_length_c   25.03974595
_cell_angle_alpha   80.94827476
_cell_angle_beta   99.05172524
_cell_angle_gamma   120.23760521
_symmetry_Int_Tables_number   1
_chemical_formula_structural   Sm2Zr2O7
_chemical_formula_sum   'Sm16 Zr16 O56'
_cell_volume   1231.74034185
_cell_formula_units_Z   8
loop_
 _symmetry_equiv_pos_site_id
 _symmetry_equiv_pos_as_xyz
  1  'x, y, z'
loop_
 _atom_site_type_symbol
 _atom_site_label
 _atom_site_symmetry_multiplicity
 _atom_site_fract_x
 _atom_site_fract_y
 _atom_site_fract_z
 _atom_site_occupancy
  Sm  Sm0  1  0.361998  0.638002  0.114454  1
  Sm  Sm1  1  0.861049  0.629652  0.126314  1
  Sm  Sm2  1  0.744738  0.255262  0.250672  1
  Sm  Sm3  1  0.638002  0.361998  0.885546  1
  Sm  Sm4  1  0.370348  0.138951  0.126314  1
  Sm  Sm5  1  0.138951  0.370348  0.873686  1
  Sm  Sm6  1  0.000000  0.000000  0.000000  1
  Sm  Sm7  1  0.629652  0.861049  0.873686  1
  Sm  Sm8  1  0.374246  0.625754  0.623461  1
  Sm  Sm9  1  0.374143  0.125008  0.625433  1
  Sm  Sm10  1  0.255262  0.744738  0.749328  1
  Sm  Sm11  1  0.874992  0.625857  0.625433  1
  Sm  Sm12  1  0.625754  0.374246  0.376539  1
  Sm  Sm13  1  0.625857  0.874992  0.374567  1
  Sm  Sm14  1  0.500000  0.500000  0.500000  1
  Sm  Sm15  1  0.125008  0.374143  0.374567  1
  Zr  Zr16  1  0.744167  0.750014  0.248653  1
  Zr  Zr17  1  0.249986  0.255833  0.248653  1
  Zr  Zr18  1  0.246754  0.753246  0.247072  1
  Zr  Zr19  1  0.000000  0.500000  0.000000  1
  Zr  Zr20  1  0.877678  0.122322  0.134323  1
  Zr  Zr21  1  0.500000  1.000000  0.000000  1
  Zr  Zr22  1  0.500000  0.500000  0.000000  1
  Zr  Zr23  1  0.255833  0.249986  0.751347  1
  Zr  Zr24  1  0.122322  0.877678  0.865677  1
  Zr  Zr25  1  0.875852  0.124148  0.626367  1
  Zr  Zr26  1  0.750014  0.744167  0.751347  1
  Zr  Zr27  1  0.753246  0.246754  0.752928  1
  Zr  Zr28  1  0.500000  1.000000  0.500000  1
  Zr  Zr29  1  0.124148  0.875852  0.373633  1
  Zr  Zr30  1  1.000000  0.500000  0.500000  1
  Zr  Zr31  1  0.000000  1.000000  0.500000  1
  O  O32  1  0.683268  0.762858  0.164462  1
  O  O33  1  0.562594  0.437406  0.270961  1
  O  O34  1  0.237142  0.316732  0.164462  1
  O  O35  1  0.561008  0.857461  0.269839  1
  O  O36  1  0.998536  0.390543  0.083596  1
  O  O37  1  0.227500  0.772500  0.159533  1
  O  O38  1  0.142539  0.438992  0.269839  1
  O  O39  1  0.929446  0.070554  0.225073  1
  O  O40  1  0.001464  0.609457  0.916404  1
  O  O41  1  0.745753  0.254247  0.970175  1
  O  O42  1  0.609457  0.001464  0.083596  1
  O  O43  1  0.390543  0.998536  0.916404  1
  O  O44  1  0.930512  0.639631  0.229294  1
  O  O45  1  0.830432  0.630400  0.019340  1
  O  O46  1  0.722371  0.277629  0.159851  1
  O  O47  1  0.316732  0.237142  0.835538  1
  O  O48  1  0.482255  0.517745  0.915807  1
  O  O49  1  0.369600  0.169568  0.019340  1
  O  O50  1  0.254247  0.745753  0.029825  1
  O  O51  1  0.360369  0.069488  0.229294  1
  O  O52  1  0.517745  0.482255  0.084193  1
  O  O53  1  0.172806  0.248762  0.666353  1
  O  O54  1  0.070554  0.929446  0.774927  1
  O  O55  1  0.762858  0.683268  0.835538  1
  O  O56  1  0.751238  0.827194  0.666353  1
  O  O57  1  0.169568  0.369600  0.980660  1
  O  O58  1  0.011292  0.988708  0.094923  1
  O  O59  1  0.069488  0.360369  0.770706  1
  O  O60  1  0.988708  0.011292  0.905076  1
  O  O61  1  0.579928  0.996380  0.584546  1
  O  O62  1  0.437406  0.562594  0.729039  1
  O  O63  1  0.639631  0.930512  0.770706  1
  O  O64  1  0.750352  0.249648  0.667735  1
  O  O65  1  0.630400  0.830432  0.980660  1
  O  O66  1  0.420072  0.003620  0.415454  1
  O  O67  1  0.772500  0.227500  0.840467  1
  O  O68  1  0.315655  0.684345  0.522200  1
  O  O69  1  0.003620  0.420072  0.584546  1
  O  O70  1  0.996380  0.579928  0.415454  1
  O  O71  1  0.438992  0.142539  0.730161  1
  O  O72  1  0.277629  0.722371  0.840149  1
  O  O73  1  0.316037  0.108686  0.521918  1
  O  O74  1  0.219233  0.780767  0.654916  1
  O  O75  1  0.827194  0.751238  0.333647  1
  O  O76  1  0.997246  0.002754  0.415572  1
  O  O77  1  0.891314  0.683963  0.521918  1
  O  O78  1  0.684345  0.315655  0.477800  1
  O  O79  1  0.857461  0.561008  0.730161  1
  O  O80  1  0.002754  0.997246  0.584428  1
  O  O81  1  0.248762  0.172806  0.333647  1
  O  O82  1  0.683963  0.891314  0.478082  1
  O  O83  1  0.531531  0.468469  0.593983  1
  O  O84  1  0.468469  0.531531  0.406017  1
  O  O85  1  0.108686  0.316037  0.478082  1
  O  O86  1  0.249648  0.750352  0.332265  1
  O  O87  1  0.780767  0.219233  0.345084  1
