# generated using pymatgen
data_KEu(MoO4)2
_symmetry_space_group_name_H-M   'P 1'
_cell_length_a   5.42272799
_cell_length_b   7.08092641
_cell_length_c   10.86797103
_cell_angle_alpha   75.59905300
_cell_angle_beta   76.51795416
_cell_angle_gamma   67.58459590
_symmetry_Int_Tables_number   1
_chemical_formula_structural   KEu(MoO4)2
_chemical_formula_sum   'K2 Eu2 Mo4 O16'
_cell_volume   369.17157665
_cell_formula_units_Z   2
loop_
 _symmetry_equiv_pos_site_id
 _symmetry_equiv_pos_as_xyz
  1  'x, y, z'
loop_
 _atom_site_type_symbol
 _atom_site_label
 _atom_site_symmetry_multiplicity
 _atom_site_fract_x
 _atom_site_fract_y
 _atom_site_fract_z
 _atom_site_occupancy
  K  K0  1  0.118148  0.195227  0.555760  1
  K  K1  1  0.881852  0.804773  0.444240  1
  Eu  Eu2  1  0.120362  0.686948  0.063695  1
  Eu  Eu3  1  0.879638  0.313052  0.936305  1
  Mo  Mo4  1  0.364111  0.562847  0.714807  1
  Mo  Mo5  1  0.386616  0.069443  0.171379  1
  Mo  Mo6  1  0.613384  0.930557  0.828621  1
  Mo  Mo7  1  0.635889  0.437153  0.285193  1
  O  O8  1  0.792202  0.986518  0.932290  1
  O  O9  1  0.458091  0.310335  0.090106  1
  O  O10  1  0.119227  0.562068  0.868707  1
  O  O11  1  0.696300  0.857762  0.195807  1
  O  O12  1  0.207798  0.013482  0.067710  1
  O  O13  1  0.410012  0.805479  0.651719  1
  O  O14  1  0.750198  0.496124  0.404671  1
  O  O15  1  0.306078  0.624888  0.255329  1
  O  O16  1  0.828166  0.913739  0.680348  1
  O  O17  1  0.589988  0.194521  0.348281  1
  O  O18  1  0.249802  0.503876  0.595329  1
  O  O19  1  0.541909  0.689665  0.909894  1
  O  O20  1  0.171834  0.086261  0.319652  1
  O  O21  1  0.693922  0.375112  0.744671  1
  O  O22  1  0.303700  0.142238  0.804193  1
  O  O23  1  0.880773  0.437932  0.131293  1
