# generated using pymatgen
data_Dy10Si17
_symmetry_space_group_name_H-M   'P 1'
_cell_length_a   10.98713901
_cell_length_b   10.98713901
_cell_length_c   10.98713901
_cell_angle_alpha   144.46493019
_cell_angle_beta   135.77539009
_cell_angle_gamma   57.96947345
_symmetry_Int_Tables_number   1
_chemical_formula_structural   Dy10Si17
_chemical_formula_sum   'Dy10 Si17'
_cell_volume   533.08346589
_cell_formula_units_Z   1
loop_
 _symmetry_equiv_pos_site_id
 _symmetry_equiv_pos_as_xyz
  1  'x, y, z'
loop_
 _atom_site_type_symbol
 _atom_site_label
 _atom_site_symmetry_multiplicity
 _atom_site_fract_x
 _atom_site_fract_y
 _atom_site_fract_z
 _atom_site_occupancy
  Dy  Dy0  1  0.755406  0.760629  0.516035  1
  Dy  Dy1  1  0.451697  0.962909  0.015060  1
  Dy  Dy2  1  0.848121  0.367913  0.015272  1
  Dy  Dy3  1  0.947849  0.962909  0.511211  1
  Dy  Dy4  1  0.151879  0.167151  0.519792  1
  Dy  Dy5  1  0.352641  0.367913  0.519792  1
  Dy  Dy6  1  0.244594  0.760629  0.005224  1
  Dy  Dy7  1  0.548303  0.563363  0.511211  1
  Dy  Dy8  1  0.052151  0.563363  0.015060  1
  Dy  Dy9  1  0.647359  0.167151  0.015272  1
  Si  Si10  1  0.714378  0.669239  0.954861  1
  Si  Si11  1  0.199079  0.578020  0.378940  1
  Si  Si12  1  1.000000  0.080655  0.080655  1
  Si  Si13  1  0.699510  0.295478  0.595968  1
  Si  Si14  1  0.800921  0.179861  0.378940  1
  Si  Si15  1  0.895765  0.504754  0.608989  1
  Si  Si16  1  0.417144  0.871996  0.454852  1
  Si  Si17  1  0.104235  0.713224  0.608989  1
  Si  Si18  1  0.300490  0.896458  0.595968  1
  Si  Si19  1  0.582856  0.037708  0.454852  1
  Si  Si20  1  1.000000  0.430650  0.430650  1
  Si  Si21  1  0.879640  0.843787  0.964148  1
  Si  Si22  1  0.399829  0.500502  0.100673  1
  Si  Si23  1  0.120360  0.084508  0.964148  1
  Si  Si24  1  0.285622  0.240482  0.954861  1
  Si  Si25  1  0.500000  0.389403  0.889403  1
  Si  Si26  1  0.600171  0.700844  0.100673  1
