# generated using pymatgen
data_Li3Mo2(PO4)3
_symmetry_space_group_name_H-M   'P 1'
_cell_length_a   8.96234822
_cell_length_b   8.94618825
_cell_length_c   15.40031561
_cell_angle_alpha   90.00000000
_cell_angle_beta   125.45704039
_cell_angle_gamma   90.00000000
_symmetry_Int_Tables_number   1
_chemical_formula_structural   Li3Mo2(PO4)3
_chemical_formula_sum   'Li12 Mo8 P12 O48'
_cell_volume   1005.79062859
_cell_formula_units_Z   4
loop_
 _symmetry_equiv_pos_site_id
 _symmetry_equiv_pos_as_xyz
  1  'x, y, z'
loop_
 _atom_site_type_symbol
 _atom_site_label
 _atom_site_symmetry_multiplicity
 _atom_site_fract_x
 _atom_site_fract_y
 _atom_site_fract_z
 _atom_site_occupancy
  Li  Li0  1  0.691192  0.296228  0.756211  1
  Li  Li1  1  0.606807  0.902210  0.693228  1
  Li  Li2  1  0.973470  0.231195  0.177988  1
  Li  Li3  1  0.026530  0.731195  0.322012  1
  Li  Li4  1  0.393193  0.402210  0.806772  1
  Li  Li5  1  0.308808  0.796228  0.743789  1
  Li  Li6  1  0.691192  0.203772  0.256211  1
  Li  Li7  1  0.606807  0.597790  0.193228  1
  Li  Li8  1  0.973470  0.268805  0.677988  1
  Li  Li9  1  0.026530  0.768805  0.822012  1
  Li  Li10  1  0.393193  0.097790  0.306772  1
  Li  Li11  1  0.308808  0.703772  0.243789  1
  Mo  Mo12  1  0.862560  0.546779  0.111471  1
  Mo  Mo13  1  0.636276  0.960245  0.888219  1
  Mo  Mo14  1  0.363724  0.460245  0.611781  1
  Mo  Mo15  1  0.137440  0.046779  0.388529  1
  Mo  Mo16  1  0.862560  0.953221  0.611471  1
  Mo  Mo17  1  0.636276  0.539755  0.388219  1
  Mo  Mo18  1  0.363724  0.039755  0.111781  1
  Mo  Mo19  1  0.137440  0.453221  0.888529  1
  P  P20  1  0.449274  0.751953  0.491185  1
  P  P21  1  0.746406  0.608760  0.848591  1
  P  P22  1  0.048816  0.903426  0.151069  1
  P  P23  1  0.951184  0.403426  0.348931  1
  P  P24  1  0.253594  0.108760  0.651409  1
  P  P25  1  0.550726  0.251953  0.008815  1
  P  P26  1  0.449274  0.748047  0.991185  1
  P  P27  1  0.746406  0.891240  0.348591  1
  P  P28  1  0.048816  0.596574  0.651069  1
  P  P29  1  0.951184  0.096574  0.848931  1
  P  P30  1  0.253594  0.391240  0.151409  1
  P  P31  1  0.550726  0.248047  0.508815  1
  O  O32  1  0.395221  0.136088  0.432828  1
  O  O33  1  0.531516  0.305788  0.597076  1
  O  O34  1  0.102301  0.410414  0.170370  1
  O  O35  1  0.771413  0.109544  0.842739  1
  O  O36  1  0.459189  0.629063  0.562763  1
  O  O37  1  0.666371  0.769028  0.809187  1
  O  O38  1  0.880945  0.941332  0.041917  1
  O  O39  1  0.820536  0.589413  0.964932  1
  O  O40  1  0.033140  0.747872  0.192031  1
  O  O41  1  0.085023  0.029416  0.231752  1
  O  O42  1  0.259646  0.830264  0.432401  1
  O  O43  1  0.595631  0.485439  0.780887  1
  O  O44  1  0.404369  0.985439  0.719113  1
  O  O45  1  0.740354  0.330264  0.067599  1
  O  O46  1  0.914977  0.529416  0.268248  1
  O  O47  1  0.966860  0.247872  0.307969  1
  O  O48  1  0.119055  0.441332  0.458083  1
  O  O49  1  0.179464  0.089413  0.535068  1
  O  O50  1  0.333629  0.269028  0.690813  1
  O  O51  1  0.540811  0.129063  0.937237  1
  O  O52  1  0.897699  0.910414  0.329630  1
  O  O53  1  0.228587  0.609544  0.657261  1
  O  O54  1  0.468484  0.805788  0.902924  1
  O  O55  1  0.604779  0.636088  0.067172  1
  O  O56  1  0.395221  0.363912  0.932828  1
  O  O57  1  0.531516  0.194212  0.097076  1
  O  O58  1  0.771413  0.390456  0.342739  1
  O  O59  1  0.102301  0.089586  0.670370  1
  O  O60  1  0.459189  0.870937  0.062763  1
  O  O61  1  0.666371  0.730972  0.309187  1
  O  O62  1  0.820536  0.910587  0.464932  1
  O  O63  1  0.880945  0.558668  0.541917  1
  O  O64  1  0.033140  0.752128  0.692031  1
  O  O65  1  0.085023  0.470584  0.731752  1
  O  O66  1  0.259646  0.669736  0.932401  1
  O  O67  1  0.595631  0.014561  0.280887  1
  O  O68  1  0.404369  0.514561  0.219113  1
  O  O69  1  0.740354  0.169736  0.567599  1
  O  O70  1  0.914977  0.970584  0.768248  1
  O  O71  1  0.966860  0.252128  0.807969  1
  O  O72  1  0.179464  0.410587  0.035068  1
  O  O73  1  0.119055  0.058668  0.958083  1
  O  O74  1  0.333629  0.230972  0.190813  1
  O  O75  1  0.540811  0.370937  0.437237  1
  O  O76  1  0.228587  0.890456  0.157261  1
  O  O77  1  0.897699  0.589586  0.829630  1
  O  O78  1  0.468484  0.694212  0.402924  1
  O  O79  1  0.604779  0.863912  0.567172  1
