# generated using pymatgen
data_K(RuO2)4
_symmetry_space_group_name_H-M   'P 1'
_cell_length_a   7.23774860
_cell_length_b   7.23774860
_cell_length_c   7.23774860
_cell_angle_alpha   92.77366224
_cell_angle_beta   92.77366224
_cell_angle_gamma   154.58443493
_symmetry_Int_Tables_number   1
_chemical_formula_structural   K(RuO2)4
_chemical_formula_sum   'K1 Ru4 O8'
_cell_volume   158.73760986
_cell_formula_units_Z   1
loop_
 _symmetry_equiv_pos_site_id
 _symmetry_equiv_pos_as_xyz
  1  'x, y, z'
loop_
 _atom_site_type_symbol
 _atom_site_label
 _atom_site_symmetry_multiplicity
 _atom_site_fract_x
 _atom_site_fract_y
 _atom_site_fract_z
 _atom_site_occupancy
  K  K0  1  0.500000  0.500000  0.000000  1
  Ru  Ru1  1  0.351954  0.166700  0.518653  1
  Ru  Ru2  1  0.648046  0.833300  0.481347  1
  Ru  Ru3  1  0.833300  0.351954  0.185254  1
  Ru  Ru4  1  0.166700  0.648046  0.814746  1
  O  O5  1  0.156131  0.453391  0.609522  1
  O  O6  1  0.546609  0.156131  0.702740  1
  O  O7  1  0.453391  0.843869  0.297260  1
  O  O8  1  0.843869  0.546609  0.390478  1
  O  O9  1  0.200264  0.849530  0.049794  1
  O  O10  1  0.799736  0.150470  0.950206  1
  O  O11  1  0.849530  0.799736  0.649266  1
  O  O12  1  0.150470  0.200264  0.350734  1
