# generated using pymatgen
data_Na5Er(MoO4)4
_symmetry_space_group_name_H-M   'P 1'
_cell_length_a   9.99204554
_cell_length_b   9.99204554
_cell_length_c   9.99204554
_cell_angle_alpha   109.47270763
_cell_angle_beta   109.47270763
_cell_angle_gamma   109.46824668
_symmetry_Int_Tables_number   1
_chemical_formula_structural   Na5Er(MoO4)4
_chemical_formula_sum   'Na10 Er2 Mo8 O32'
_cell_volume   767.96481357
_cell_formula_units_Z   2
loop_
 _symmetry_equiv_pos_site_id
 _symmetry_equiv_pos_as_xyz
  1  'x, y, z'
loop_
 _atom_site_type_symbol
 _atom_site_label
 _atom_site_symmetry_multiplicity
 _atom_site_fract_x
 _atom_site_fract_y
 _atom_site_fract_z
 _atom_site_occupancy
  Na  Na0  1  0.651423  0.235854  0.824423  1
  Na  Na1  1  0.098577  0.014146  0.675577  1
  Na  Na2  1  0.338570  0.423001  0.324423  1
  Na  Na3  1  0.576999  0.901423  0.915569  1
  Na  Na4  1  0.985854  0.661430  0.084431  1
  Na  Na5  1  0.411430  0.826999  0.175577  1
  Na  Na6  1  0.173001  0.348577  0.584431  1
  Na  Na7  1  0.500000  0.500000  0.000000  1
  Na  Na8  1  0.764146  0.588570  0.415569  1
  Na  Na9  1  0.250000  0.750000  0.500000  1
  Er  Er10  1  0.000000  0.000000  0.000000  1
  Er  Er11  1  0.750000  0.250000  0.500000  1
  Mo  Mo12  1  0.669772  0.895624  0.588663  1
  Mo  Mo13  1  0.645624  0.556961  0.725852  1
  Mo  Mo14  1  0.443039  0.168891  0.088663  1
  Mo  Mo15  1  0.918891  0.330228  0.225852  1
  Mo  Mo16  1  0.080228  0.354376  0.911337  1
  Mo  Mo17  1  0.104376  0.693039  0.774148  1
  Mo  Mo18  1  0.306961  0.081109  0.411337  1
  Mo  Mo19  1  0.831109  0.919772  0.274148  1
  O  O20  1  0.573156  0.680458  0.460559  1
  O  O21  1  0.021732  0.473072  0.671082  1
  O  O22  1  0.855893  0.116224  0.095307  1
  O  O23  1  0.618961  0.797325  0.117004  1
  O  O24  1  0.894107  0.133776  0.404693  1
  O  O25  1  0.547325  0.930321  0.678364  1
  O  O26  1  0.020918  0.760586  0.904693  1
  O  O27  1  0.680321  0.501957  0.882996  1
  O  O28  1  0.728268  0.776928  0.828918  1
  O  O29  1  0.239414  0.144107  0.260331  1
  O  O30  1  0.223072  0.051990  0.951340  1
  O  O31  1  0.176844  0.569542  0.039441  1
  O  O32  1  0.887403  0.426844  0.107302  1
  O  O33  1  0.251957  0.868961  0.321636  1
  O  O34  1  0.069679  0.748043  0.617004  1
  O  O35  1  0.866224  0.270918  0.760331  1
  O  O36  1  0.649350  0.978268  0.451340  1
  O  O37  1  0.883776  0.979082  0.739669  1
  O  O38  1  0.319542  0.780101  0.892698  1
  O  O39  1  0.948010  0.899350  0.171082  1
  O  O40  1  0.526928  0.198010  0.548660  1
  O  O41  1  0.202675  0.319679  0.821636  1
  O  O42  1  0.801990  0.350650  0.328918  1
  O  O43  1  0.131039  0.452675  0.382996  1
  O  O44  1  0.219899  0.112597  0.539441  1
  O  O45  1  0.530101  0.137403  0.960559  1
  O  O46  1  0.498043  0.381039  0.178364  1
  O  O47  1  0.510586  0.105893  0.239669  1
  O  O48  1  0.729082  0.489414  0.595307  1
  O  O49  1  0.430458  0.469899  0.607302  1
  O  O50  1  0.862597  0.823156  0.392698  1
  O  O51  1  0.100650  0.271732  0.048660  1
