# generated using pymatgen
data_NaNbO3
_symmetry_space_group_name_H-M   'P 1'
_cell_length_a   5.56653829
_cell_length_b   5.64486284
_cell_length_c   15.93417865
_cell_angle_alpha   90.00000000
_cell_angle_beta   90.00000000
_cell_angle_gamma   90.00000000
_symmetry_Int_Tables_number   1
_chemical_formula_structural   NaNbO3
_chemical_formula_sum   'Na8 Nb8 O24'
_cell_volume   500.68926107
_cell_formula_units_Z   8
loop_
 _symmetry_equiv_pos_site_id
 _symmetry_equiv_pos_as_xyz
  1  'x, y, z'
loop_
 _atom_site_type_symbol
 _atom_site_label
 _atom_site_symmetry_multiplicity
 _atom_site_fract_x
 _atom_site_fract_y
 _atom_site_fract_z
 _atom_site_occupancy
  Na  Na0  1  0.240148  0.781614  0.876400  1
  Na  Na1  1  0.240148  0.718386  0.376400  1
  Na  Na2  1  0.755142  0.223966  0.628627  1
  Na  Na3  1  0.244858  0.776034  0.128627  1
  Na  Na4  1  0.755142  0.276034  0.128627  1
  Na  Na5  1  0.759852  0.218386  0.376400  1
  Na  Na6  1  0.759852  0.281614  0.876400  1
  Na  Na7  1  0.244858  0.723966  0.628627  1
  Nb  Nb8  1  0.251609  0.271270  0.002313  1
  Nb  Nb9  1  0.258266  0.241788  0.252707  1
  Nb  Nb10  1  0.748391  0.771270  0.002313  1
  Nb  Nb11  1  0.258266  0.258212  0.752707  1
  Nb  Nb12  1  0.741734  0.741788  0.252707  1
  Nb  Nb13  1  0.251609  0.228730  0.502313  1
  Nb  Nb14  1  0.748391  0.728730  0.502313  1
  Nb  Nb15  1  0.741734  0.758212  0.752707  1
  O  O16  1  0.183504  0.247810  0.619564  1
  O  O17  1  0.963164  0.025765  0.976682  1
  O  O18  1  0.681373  0.775100  0.369815  1
  O  O19  1  0.036836  0.974235  0.476682  1
  O  O20  1  0.541531  0.451482  0.010699  1
  O  O21  1  0.036836  0.525765  0.976682  1
  O  O22  1  0.183504  0.252190  0.119564  1
  O  O23  1  0.318627  0.275100  0.369815  1
  O  O24  1  0.541531  0.048518  0.510699  1
  O  O25  1  0.816496  0.747810  0.619564  1
  O  O26  1  0.031383  0.515360  0.761559  1
  O  O27  1  0.534036  0.045812  0.227235  1
  O  O28  1  0.963164  0.474235  0.476682  1
  O  O29  1  0.968617  0.015360  0.761559  1
  O  O30  1  0.681373  0.724900  0.869815  1
  O  O31  1  0.458469  0.548518  0.510699  1
  O  O32  1  0.458469  0.951482  0.010699  1
  O  O33  1  0.534036  0.454188  0.727235  1
  O  O34  1  0.318627  0.224900  0.869815  1
  O  O35  1  0.031383  0.984640  0.261559  1
  O  O36  1  0.465964  0.545812  0.227235  1
  O  O37  1  0.465964  0.954188  0.727235  1
  O  O38  1  0.968617  0.484640  0.261559  1
  O  O39  1  0.816496  0.752190  0.119564  1
