# generated using pymatgen
data_Tl2Te
_symmetry_space_group_name_H-M   'P 1'
_cell_length_a   9.33611061
_cell_length_b   9.33611061
_cell_length_c   32.06625640
_cell_angle_alpha   81.91211785
_cell_angle_beta   98.08788215
_cell_angle_gamma   121.15342480
_symmetry_Int_Tables_number   1
_chemical_formula_structural   Tl2Te
_chemical_formula_sum   'Tl44 Te22'
_cell_volume   2360.50095966
_cell_formula_units_Z   22
loop_
 _symmetry_equiv_pos_site_id
 _symmetry_equiv_pos_as_xyz
  1  'x, y, z'
loop_
 _atom_site_type_symbol
 _atom_site_label
 _atom_site_symmetry_multiplicity
 _atom_site_fract_x
 _atom_site_fract_y
 _atom_site_fract_z
 _atom_site_occupancy
  Tl  Tl0  1  0.403450  0.794254  0.688180  1
  Tl  Tl1  1  0.205746  0.596550  0.188180  1
  Tl  Tl2  1  0.482481  0.318939  0.586370  1
  Tl  Tl3  1  0.008029  0.165825  0.571411  1
  Tl  Tl4  1  0.717777  0.803108  0.190425  1
  Tl  Tl5  1  0.526217  0.944042  0.564763  1
  Tl  Tl6  1  0.561946  0.289743  0.998294  1
  Tl  Tl7  1  0.169536  0.954298  0.240553  1
  Tl  Tl8  1  0.045702  0.830464  0.740553  1
  Tl  Tl9  1  0.794254  0.403450  0.811820  1
  Tl  Tl10  1  0.517679  0.965473  0.877063  1
  Tl  Tl11  1  0.991971  0.834175  0.428589  1
  Tl  Tl12  1  0.944042  0.526217  0.935237  1
  Tl  Tl13  1  0.196892  0.282223  0.690425  1
  Tl  Tl14  1  0.734434  0.745139  0.855316  1
  Tl  Tl15  1  0.834175  0.991971  0.071411  1
  Tl  Tl16  1  0.392993  0.692162  0.302736  1
  Tl  Tl17  1  0.307838  0.607007  0.802736  1
  Tl  Tl18  1  0.482321  0.034527  0.122937  1
  Tl  Tl19  1  0.265566  0.254861  0.144684  1
  Tl  Tl20  1  0.954298  0.169536  0.259447  1
  Tl  Tl21  1  0.055958  0.473783  0.064763  1
  Tl  Tl22  1  0.607007  0.307838  0.697264  1
  Tl  Tl23  1  0.438054  0.710257  0.001706  1
  Tl  Tl24  1  0.106236  0.845222  0.537123  1
  Tl  Tl25  1  0.517519  0.681061  0.413630  1
  Tl  Tl26  1  0.282223  0.196892  0.809575  1
  Tl  Tl27  1  0.845222  0.106236  0.962877  1
  Tl  Tl28  1  0.165825  0.008029  0.928589  1
  Tl  Tl29  1  0.254861  0.265566  0.355316  1
  Tl  Tl30  1  0.692162  0.392993  0.197264  1
  Tl  Tl31  1  0.473783  0.055958  0.435237  1
  Tl  Tl32  1  0.745139  0.734434  0.644684  1
  Tl  Tl33  1  0.154778  0.893764  0.037123  1
  Tl  Tl34  1  0.965473  0.517679  0.622937  1
  Tl  Tl35  1  0.681061  0.517519  0.086370  1
  Tl  Tl36  1  0.318939  0.482481  0.913630  1
  Tl  Tl37  1  0.803108  0.717777  0.309575  1
  Tl  Tl38  1  0.289743  0.561946  0.501706  1
  Tl  Tl39  1  0.710257  0.438054  0.498294  1
  Tl  Tl40  1  0.596550  0.205746  0.311820  1
  Tl  Tl41  1  0.893764  0.154778  0.462877  1
  Tl  Tl42  1  0.830464  0.045702  0.759447  1
  Tl  Tl43  1  0.034527  0.482321  0.377063  1
  Te  Te44  1  0.773646  0.093086  0.648043  1
  Te  Te45  1  0.093086  0.773646  0.851957  1
  Te  Te46  1  0.981135  0.518419  0.273703  1
  Te  Te47  1  0.906914  0.226354  0.148043  1
  Te  Te48  1  0.226354  0.906914  0.351957  1
  Te  Te49  1  0.321171  0.546869  0.605250  1
  Te  Te50  1  0.396748  0.396748  0.250000  1
  Te  Te51  1  0.019078  0.814165  0.129145  1
  Te  Te52  1  0.219769  0.288406  0.015367  1
  Te  Te53  1  0.546869  0.321171  0.894750  1
  Te  Te54  1  0.711594  0.780231  0.515367  1
  Te  Te55  1  0.814165  0.019078  0.370855  1
  Te  Te56  1  0.603252  0.603252  0.750000  1
  Te  Te57  1  0.518419  0.981135  0.226297  1
  Te  Te58  1  0.453131  0.678829  0.105250  1
  Te  Te59  1  0.980922  0.185835  0.870855  1
  Te  Te60  1  0.780231  0.711594  0.984633  1
  Te  Te61  1  0.678829  0.453131  0.394750  1
  Te  Te62  1  0.185835  0.980922  0.629145  1
  Te  Te63  1  0.018865  0.481581  0.726297  1
  Te  Te64  1  0.288406  0.219769  0.484633  1
  Te  Te65  1  0.481581  0.018865  0.773703  1
