# generated using pymatgen
data_NiRhF6
_symmetry_space_group_name_H-M   'P 1'
_cell_length_a   5.42135380
_cell_length_b   5.42135380
_cell_length_c   5.42135380
_cell_angle_alpha   56.16887813
_cell_angle_beta   56.16887813
_cell_angle_gamma   56.16887813
_symmetry_Int_Tables_number   1
_chemical_formula_structural   NiRhF6
_chemical_formula_sum   'Ni1 Rh1 F6'
_cell_volume   102.67755472
_cell_formula_units_Z   1
loop_
 _symmetry_equiv_pos_site_id
 _symmetry_equiv_pos_as_xyz
  1  'x, y, z'
loop_
 _atom_site_type_symbol
 _atom_site_label
 _atom_site_symmetry_multiplicity
 _atom_site_fract_x
 _atom_site_fract_y
 _atom_site_fract_z
 _atom_site_occupancy
  Ni  Ni0  1  0.500000  0.500000  0.500000  1
  Rh  Rh1  1  0.000000  0.000000  0.000000  1
  F  F2  1  0.890620  0.242759  0.619305  1
  F  F3  1  0.242759  0.619305  0.890620  1
  F  F4  1  0.380695  0.109380  0.757241  1
  F  F5  1  0.757241  0.380695  0.109380  1
  F  F6  1  0.109380  0.757241  0.380695  1
  F  F7  1  0.619305  0.890620  0.242759  1
