# generated using pymatgen
data_Ce3CuSiS7
_symmetry_space_group_name_H-M   'P 1'
_cell_length_a   10.20840004
_cell_length_b   10.20840004
_cell_length_c   5.78174767
_cell_angle_alpha   90.00000000
_cell_angle_beta   90.00000000
_cell_angle_gamma   120.00000000
_symmetry_Int_Tables_number   1
_chemical_formula_structural   Ce3CuSiS7
_chemical_formula_sum   'Ce6 Cu2 Si2 S14'
_cell_volume   521.80126378
_cell_formula_units_Z   2
loop_
 _symmetry_equiv_pos_site_id
 _symmetry_equiv_pos_as_xyz
  1  'x, y, z'
loop_
 _atom_site_type_symbol
 _atom_site_label
 _atom_site_symmetry_multiplicity
 _atom_site_fract_x
 _atom_site_fract_y
 _atom_site_fract_z
 _atom_site_occupancy
  Ce  Ce0  1  0.232300  0.356073  0.750480  1
  Ce  Ce1  1  0.356073  0.123774  0.250480  1
  Ce  Ce2  1  0.876226  0.232300  0.250480  1
  Ce  Ce3  1  0.123774  0.767700  0.750480  1
  Ce  Ce4  1  0.767700  0.643927  0.250480  1
  Ce  Ce5  1  0.643927  0.876226  0.750480  1
  Cu  Cu6  1  0.000000  0.000000  0.773886  1
  Cu  Cu7  1  0.000000  0.000000  0.273886  1
  Si  Si8  1  0.333333  0.666667  0.164416  1
  Si  Si9  1  0.666667  0.333333  0.664416  1
  S  S10  1  0.250305  0.086037  0.762478  1
  S  S11  1  0.524341  0.412065  0.522363  1
  S  S12  1  0.412065  0.887724  0.022363  1
  S  S13  1  0.112276  0.524341  0.022363  1
  S  S14  1  0.887724  0.475659  0.522363  1
  S  S15  1  0.086037  0.835731  0.262478  1
  S  S16  1  0.164269  0.250305  0.262478  1
  S  S17  1  0.749695  0.913963  0.262478  1
  S  S18  1  0.587935  0.112276  0.522363  1
  S  S19  1  0.835731  0.749695  0.762478  1
  S  S20  1  0.475659  0.587935  0.022363  1
  S  S21  1  0.666667  0.333333  0.029801  1
  S  S22  1  0.333333  0.666667  0.529801  1
  S  S23  1  0.913963  0.164269  0.762478  1
