# generated using pymatgen
data_PrCo3
_symmetry_space_group_name_H-M   'P 1'
_cell_length_a   8.86520561
_cell_length_b   8.86520561
_cell_length_c   8.86520561
_cell_angle_alpha   33.40112857
_cell_angle_beta   33.40112857
_cell_angle_gamma   33.40112857
_symmetry_Int_Tables_number   1
_chemical_formula_structural   PrCo3
_chemical_formula_sum   'Pr3 Co9'
_cell_volume   188.02182647
_cell_formula_units_Z   3
loop_
 _symmetry_equiv_pos_site_id
 _symmetry_equiv_pos_as_xyz
  1  'x, y, z'
loop_
 _atom_site_type_symbol
 _atom_site_label
 _atom_site_symmetry_multiplicity
 _atom_site_fract_x
 _atom_site_fract_y
 _atom_site_fract_z
 _atom_site_occupancy
  Pr  Pr0  1  0.139643  0.139643  0.139643  1
  Pr  Pr1  1  0.860357  0.860357  0.860357  1
  Pr  Pr2  1  0.000000  0.000000  0.000000  1
  Co  Co3  1  0.577560  0.577560  0.082091  1
  Co  Co4  1  0.666242  0.666242  0.666242  1
  Co  Co5  1  0.422440  0.917909  0.422440  1
  Co  Co6  1  0.577560  0.082091  0.577560  1
  Co  Co7  1  0.333758  0.333758  0.333758  1
  Co  Co8  1  0.082091  0.577560  0.577560  1
  Co  Co9  1  0.917909  0.422440  0.422440  1
  Co  Co10  1  0.500000  0.500000  0.500000  1
  Co  Co11  1  0.422440  0.422440  0.917909  1
