# generated using pymatgen
data_Na2SbSO4F3
_symmetry_space_group_name_H-M   'P 1'
_cell_length_a   8.46568228
_cell_length_b   8.46568228
_cell_length_c   11.25367329
_cell_angle_alpha   90.00000000
_cell_angle_beta   90.00000000
_cell_angle_gamma   128.72816159
_symmetry_Int_Tables_number   1
_chemical_formula_structural   Na2SbSO4F3
_chemical_formula_sum   'Na8 Sb4 S4 O16 F12'
_cell_volume   629.18928007
_cell_formula_units_Z   4
loop_
 _symmetry_equiv_pos_site_id
 _symmetry_equiv_pos_as_xyz
  1  'x, y, z'
loop_
 _atom_site_type_symbol
 _atom_site_label
 _atom_site_symmetry_multiplicity
 _atom_site_fract_x
 _atom_site_fract_y
 _atom_site_fract_z
 _atom_site_occupancy
  Na  Na0  1  0.969784  0.469784  0.250000  1
  Na  Na1  1  0.618030  0.381970  0.000000  1
  Na  Na2  1  0.030216  0.530216  0.750000  1
  Na  Na3  1  0.381970  0.618030  0.000000  1
  Na  Na4  1  0.118030  0.881970  0.500000  1
  Na  Na5  1  0.530216  0.030216  0.750000  1
  Na  Na6  1  0.469784  0.969784  0.250000  1
  Na  Na7  1  0.881970  0.118030  0.500000  1
  Sb  Sb8  1  0.112541  0.112541  0.162839  1
  Sb  Sb9  1  0.387459  0.387459  0.662839  1
  Sb  Sb10  1  0.887459  0.887459  0.837161  1
  Sb  Sb11  1  0.612541  0.612541  0.337161  1
  S  S12  1  0.317074  0.682926  0.500000  1
  S  S13  1  0.817074  0.182926  1.000000  1
  S  S14  1  0.682926  0.317074  0.500000  1
  S  S15  1  0.182926  0.817074  0.000000  1
  O  O16  1  0.795568  0.273470  0.894404  1
  O  O17  1  0.273470  0.795568  0.894404  1
  O  O18  1  0.713339  0.962903  0.976496  1
  O  O19  1  0.786661  0.537097  0.476496  1
  O  O20  1  0.226530  0.704432  0.394404  1
  O  O21  1  0.726530  0.204432  0.105596  1
  O  O22  1  0.704432  0.226530  0.394404  1
  O  O23  1  0.295568  0.773470  0.605596  1
  O  O24  1  0.537097  0.786661  0.476496  1
  O  O25  1  0.286661  0.037097  0.023504  1
  O  O26  1  0.962903  0.713339  0.976496  1
  O  O27  1  0.773470  0.295568  0.605596  1
  O  O28  1  0.213339  0.462903  0.523504  1
  O  O29  1  0.462903  0.213339  0.523504  1
  O  O30  1  0.204432  0.726530  0.105596  1
  O  O31  1  0.037097  0.286661  0.023504  1
  F  F32  1  0.904124  0.720296  0.719226  1
  F  F33  1  0.376901  0.376901  0.116059  1
  F  F34  1  0.279704  0.095876  0.280774  1
  F  F35  1  0.876901  0.876901  0.383941  1
  F  F36  1  0.220296  0.404124  0.780774  1
  F  F37  1  0.623099  0.623099  0.883941  1
  F  F38  1  0.720296  0.904124  0.719226  1
  F  F39  1  0.779704  0.595876  0.219226  1
  F  F40  1  0.404124  0.220296  0.780774  1
  F  F41  1  0.123099  0.123099  0.616059  1
  F  F42  1  0.095876  0.279704  0.280774  1
  F  F43  1  0.595876  0.779704  0.219226  1
