# generated using pymatgen
data_Tl(MoO3)3
_symmetry_space_group_name_H-M   'P 1'
_cell_length_a   8.64807471
_cell_length_b   8.64807471
_cell_length_c   6.57871767
_cell_angle_alpha   87.52736355
_cell_angle_beta   92.47263645
_cell_angle_gamma   126.00915866
_symmetry_Int_Tables_number   1
_chemical_formula_structural   Tl(MoO3)3
_chemical_formula_sum   'Tl2 Mo6 O18'
_cell_volume   397.53709713
_cell_formula_units_Z   2
loop_
 _symmetry_equiv_pos_site_id
 _symmetry_equiv_pos_as_xyz
  1  'x, y, z'
loop_
 _atom_site_type_symbol
 _atom_site_label
 _atom_site_symmetry_multiplicity
 _atom_site_fract_x
 _atom_site_fract_y
 _atom_site_fract_z
 _atom_site_occupancy
  Tl  Tl0  1  0.698498  0.301502  0.822948  1
  Tl  Tl1  1  0.301502  0.698498  0.177052  1
  Mo  Mo2  1  0.882967  0.117033  0.361958  1
  Mo  Mo3  1  0.117033  0.882967  0.638042  1
  Mo  Mo4  1  0.684407  0.795901  0.731622  1
  Mo  Mo5  1  0.795901  0.684407  0.268378  1
  Mo  Mo6  1  0.315593  0.204099  0.268378  1
  Mo  Mo7  1  0.204099  0.315593  0.731622  1
  O  O8  1  0.748321  0.748321  0.000000  1
  O  O9  1  0.251679  0.251679  0.000000  1
  O  O10  1  0.785332  0.214668  0.483751  1
  O  O11  1  0.214668  0.785332  0.516249  1
  O  O12  1  0.852242  0.147758  0.105508  1
  O  O13  1  0.147758  0.852242  0.894492  1
  O  O14  1  0.463320  0.536680  0.704085  1
  O  O15  1  0.536680  0.463320  0.295915  1
  O  O16  1  0.964638  0.035362  0.693345  1
  O  O17  1  0.035362  0.964638  0.306655  1
  O  O18  1  0.576145  0.902944  0.788896  1
  O  O19  1  0.902944  0.576145  0.211104  1
  O  O20  1  0.423855  0.097056  0.211104  1
  O  O21  1  0.097056  0.423855  0.788896  1
  O  O22  1  0.684747  0.843011  0.413473  1
  O  O23  1  0.843011  0.684747  0.586527  1
  O  O24  1  0.315253  0.156989  0.586527  1
  O  O25  1  0.156989  0.315253  0.413473  1
