# generated using pymatgen
data_Rb3(FeSe2)2
_symmetry_space_group_name_H-M   'P 1'
_cell_length_a   7.83148055
_cell_length_b   11.38353962
_cell_length_c   12.66780285
_cell_angle_alpha   90.00000000
_cell_angle_beta   90.00000000
_cell_angle_gamma   90.00000000
_symmetry_Int_Tables_number   1
_chemical_formula_structural   Rb3(FeSe2)2
_chemical_formula_sum   'Rb12 Fe8 Se16'
_cell_volume   1129.33423295
_cell_formula_units_Z   4
loop_
 _symmetry_equiv_pos_site_id
 _symmetry_equiv_pos_as_xyz
  1  'x, y, z'
loop_
 _atom_site_type_symbol
 _atom_site_label
 _atom_site_symmetry_multiplicity
 _atom_site_fract_x
 _atom_site_fract_y
 _atom_site_fract_z
 _atom_site_occupancy
  Rb  Rb0  1  0.913734  0.750000  0.232536  1
  Rb  Rb1  1  0.071175  0.429780  0.136337  1
  Rb  Rb2  1  0.928825  0.570220  0.863663  1
  Rb  Rb3  1  0.928825  0.929780  0.863663  1
  Rb  Rb4  1  0.413734  0.750000  0.267464  1
  Rb  Rb5  1  0.071175  0.070220  0.136337  1
  Rb  Rb6  1  0.586266  0.250000  0.732536  1
  Rb  Rb7  1  0.428825  0.570220  0.636337  1
  Rb  Rb8  1  0.428825  0.929780  0.636337  1
  Rb  Rb9  1  0.571175  0.070220  0.363663  1
  Rb  Rb10  1  0.571175  0.429780  0.363663  1
  Rb  Rb11  1  0.086266  0.250000  0.767464  1
  Fe  Fe12  1  0.549684  0.366856  0.028911  1
  Fe  Fe13  1  0.049684  0.133144  0.471089  1
  Fe  Fe14  1  0.450316  0.866856  0.971089  1
  Fe  Fe15  1  0.549684  0.133144  0.028911  1
  Fe  Fe16  1  0.950316  0.633144  0.528911  1
  Fe  Fe17  1  0.950316  0.866856  0.528911  1
  Fe  Fe18  1  0.049684  0.366856  0.471089  1
  Fe  Fe19  1  0.450316  0.633144  0.971089  1
  Se  Se20  1  0.586441  0.750000  0.837948  1
  Se  Se21  1  0.913559  0.250000  0.337948  1
  Se  Se22  1  0.413559  0.250000  0.162052  1
  Se  Se23  1  0.208081  0.750000  0.032317  1
  Se  Se24  1  0.086441  0.750000  0.662052  1
  Se  Se25  1  0.708081  0.750000  0.467683  1
  Se  Se26  1  0.791919  0.250000  0.967683  1
  Se  Se27  1  0.853043  0.053525  0.605947  1
  Se  Se28  1  0.146957  0.553525  0.394053  1
  Se  Se29  1  0.646957  0.946475  0.105947  1
  Se  Se30  1  0.353043  0.053525  0.894053  1
  Se  Se31  1  0.291919  0.250000  0.532317  1
  Se  Se32  1  0.353043  0.446475  0.894053  1
  Se  Se33  1  0.853043  0.446475  0.605947  1
  Se  Se34  1  0.646957  0.553525  0.105947  1
  Se  Se35  1  0.146957  0.946475  0.394053  1
