# generated using pymatgen
data_K3Bi(PS4)2
_symmetry_space_group_name_H-M   'P 1'
_cell_length_a   6.95283522
_cell_length_b   9.26403041
_cell_length_c   24.37786138
_cell_angle_alpha   90.00000000
_cell_angle_beta   90.00000000
_cell_angle_gamma   90.00000000
_symmetry_Int_Tables_number   1
_chemical_formula_structural   K3Bi(PS4)2
_chemical_formula_sum   'K12 Bi4 P8 S32'
_cell_volume   1570.20917991
_cell_formula_units_Z   4
loop_
 _symmetry_equiv_pos_site_id
 _symmetry_equiv_pos_as_xyz
  1  'x, y, z'
loop_
 _atom_site_type_symbol
 _atom_site_label
 _atom_site_symmetry_multiplicity
 _atom_site_fract_x
 _atom_site_fract_y
 _atom_site_fract_z
 _atom_site_occupancy
  K  K0  1  0.992430  0.755486  0.922298  1
  K  K1  1  0.007570  0.255486  0.577702  1
  K  K2  1  0.492763  0.480448  0.812807  1
  K  K3  1  0.507237  0.980448  0.687193  1
  K  K4  1  0.002950  0.088285  0.787968  1
  K  K5  1  0.497050  0.911715  0.287968  1
  K  K6  1  0.492430  0.744514  0.077702  1
  K  K7  1  0.997050  0.588285  0.712032  1
  K  K8  1  0.992763  0.019552  0.187193  1
  K  K9  1  0.502950  0.411715  0.212032  1
  K  K10  1  0.007237  0.519552  0.312807  1
  K  K11  1  0.507570  0.244514  0.422298  1
  Bi  Bi12  1  0.061765  0.350324  0.052638  1
  Bi  Bi13  1  0.438235  0.649676  0.552638  1
  Bi  Bi14  1  0.561765  0.149676  0.947362  1
  Bi  Bi15  1  0.938235  0.850324  0.447362  1
  P  P16  1  0.505379  0.389774  0.654570  1
  P  P17  1  0.035460  0.854261  0.592134  1
  P  P18  1  0.964540  0.354261  0.907866  1
  P  P19  1  0.005379  0.110226  0.345430  1
  P  P20  1  0.464540  0.145739  0.092134  1
  P  P21  1  0.494621  0.889774  0.845430  1
  P  P22  1  0.994621  0.610226  0.154570  1
  P  P23  1  0.535460  0.645739  0.407866  1
  S  S24  1  0.267396  0.941810  0.552367  1
  S  S25  1  0.732295  0.811864  0.808368  1
  S  S26  1  0.245258  0.207441  0.317297  1
  S  S27  1  0.732604  0.441810  0.947633  1
  S  S28  1  0.970046  0.387012  0.164477  1
  S  S29  1  0.564955  0.869908  0.420089  1
  S  S30  1  0.520256  0.590850  0.328511  1
  S  S31  1  0.518580  0.861518  0.931444  1
  S  S32  1  0.232604  0.058190  0.052367  1
  S  S33  1  0.232295  0.688136  0.191632  1
  S  S34  1  0.785857  0.918289  0.553134  1
  S  S35  1  0.745258  0.292559  0.682703  1
  S  S36  1  0.064955  0.630092  0.579911  1
  S  S37  1  0.979744  0.409150  0.828511  1
  S  S38  1  0.481420  0.361518  0.568556  1
  S  S39  1  0.029954  0.887012  0.335523  1
  S  S40  1  0.981420  0.138482  0.431444  1
  S  S41  1  0.935045  0.130092  0.920089  1
  S  S42  1  0.214143  0.418289  0.946866  1
  S  S43  1  0.470046  0.112988  0.835523  1
  S  S44  1  0.435045  0.369908  0.079911  1
  S  S45  1  0.254742  0.792559  0.817297  1
  S  S46  1  0.020256  0.909150  0.671489  1
  S  S47  1  0.714143  0.081711  0.053134  1
  S  S48  1  0.267705  0.311864  0.691632  1
  S  S49  1  0.754742  0.707441  0.182703  1
  S  S50  1  0.767705  0.188136  0.308368  1
  S  S51  1  0.529954  0.612988  0.664477  1
  S  S52  1  0.285857  0.581711  0.446866  1
  S  S53  1  0.018580  0.638482  0.068556  1
  S  S54  1  0.479744  0.090850  0.171489  1
  S  S55  1  0.767396  0.558190  0.447633  1
