# generated using pymatgen
data_NbTlCl4O
_symmetry_space_group_name_H-M   'P 1'
_cell_length_a   8.08540746
_cell_length_b   13.05887275
_cell_length_c   15.33044695
_cell_angle_alpha   90.00000000
_cell_angle_beta   90.00000000
_cell_angle_gamma   90.00000000
_symmetry_Int_Tables_number   1
_chemical_formula_structural   NbTlCl4O
_chemical_formula_sum   'Nb8 Tl8 Cl32 O8'
_cell_volume   1618.68528044
_cell_formula_units_Z   8
loop_
 _symmetry_equiv_pos_site_id
 _symmetry_equiv_pos_as_xyz
  1  'x, y, z'
loop_
 _atom_site_type_symbol
 _atom_site_label
 _atom_site_symmetry_multiplicity
 _atom_site_fract_x
 _atom_site_fract_y
 _atom_site_fract_z
 _atom_site_occupancy
  Nb  Nb0  1  0.691016  0.753804  0.591742  1
  Nb  Nb1  1  0.808984  0.753804  0.091742  1
  Nb  Nb2  1  0.691016  0.253804  0.908258  1
  Nb  Nb3  1  0.308984  0.246196  0.408258  1
  Nb  Nb4  1  0.308984  0.746196  0.091742  1
  Nb  Nb5  1  0.808984  0.253804  0.408258  1
  Nb  Nb6  1  0.191016  0.246196  0.908258  1
  Nb  Nb7  1  0.191016  0.746196  0.591742  1
  Tl  Tl8  1  0.010885  0.395433  0.155087  1
  Tl  Tl9  1  0.489115  0.895433  0.844913  1
  Tl  Tl10  1  0.510885  0.604567  0.344913  1
  Tl  Tl11  1  0.010885  0.895433  0.344913  1
  Tl  Tl12  1  0.510885  0.104567  0.155087  1
  Tl  Tl13  1  0.489115  0.395433  0.655087  1
  Tl  Tl14  1  0.989115  0.104567  0.655087  1
  Tl  Tl15  1  0.989115  0.604567  0.844913  1
  Cl  Cl16  1  0.149400  0.186760  0.055603  1
  Cl  Cl17  1  0.144763  0.075905  0.853294  1
  Cl  Cl18  1  0.855237  0.424095  0.353294  1
  Cl  Cl19  1  0.149400  0.686760  0.444397  1
  Cl  Cl20  1  0.850600  0.313240  0.555603  1
  Cl  Cl21  1  0.649400  0.313240  0.055603  1
  Cl  Cl22  1  0.671380  0.579612  0.538510  1
  Cl  Cl23  1  0.154568  0.312748  0.761346  1
  Cl  Cl24  1  0.828620  0.079612  0.461490  1
  Cl  Cl25  1  0.154568  0.812748  0.738654  1
  Cl  Cl26  1  0.671380  0.079612  0.961490  1
  Cl  Cl27  1  0.345432  0.312748  0.261346  1
  Cl  Cl28  1  0.350600  0.186760  0.555603  1
  Cl  Cl29  1  0.144763  0.575905  0.646706  1
  Cl  Cl30  1  0.845432  0.187252  0.261346  1
  Cl  Cl31  1  0.355237  0.575905  0.146706  1
  Cl  Cl32  1  0.355237  0.075905  0.353294  1
  Cl  Cl33  1  0.654568  0.687252  0.738654  1
  Cl  Cl34  1  0.654568  0.187252  0.761346  1
  Cl  Cl35  1  0.171380  0.920388  0.538510  1
  Cl  Cl36  1  0.850600  0.813240  0.944397  1
  Cl  Cl37  1  0.328620  0.420388  0.461490  1
  Cl  Cl38  1  0.171380  0.420388  0.961490  1
  Cl  Cl39  1  0.845432  0.687252  0.238654  1
  Cl  Cl40  1  0.855237  0.924095  0.146706  1
  Cl  Cl41  1  0.644763  0.424095  0.853294  1
  Cl  Cl42  1  0.328620  0.920388  0.038510  1
  Cl  Cl43  1  0.350600  0.686760  0.944397  1
  Cl  Cl44  1  0.644763  0.924095  0.646706  1
  Cl  Cl45  1  0.828620  0.579612  0.038510  1
  Cl  Cl46  1  0.345432  0.812748  0.238654  1
  Cl  Cl47  1  0.649400  0.813240  0.444397  1
  O  O48  1  0.588478  0.257225  0.408059  1
  O  O49  1  0.911522  0.757224  0.591941  1
  O  O50  1  0.411522  0.242775  0.908059  1
  O  O51  1  0.088478  0.242775  0.408059  1
  O  O52  1  0.588478  0.757224  0.091941  1
  O  O53  1  0.411522  0.742776  0.591941  1
  O  O54  1  0.911522  0.257225  0.908059  1
  O  O55  1  0.088478  0.742776  0.091941  1
