# generated using pymatgen
data_K3SbTe3
_symmetry_space_group_name_H-M   'P 1'
_cell_length_a   10.58717040
_cell_length_b   10.58717040
_cell_length_c   10.58717040
_cell_angle_alpha   90.00000000
_cell_angle_beta   90.00000000
_cell_angle_gamma   90.00000000
_symmetry_Int_Tables_number   1
_chemical_formula_structural   K3SbTe3
_chemical_formula_sum   'K12 Sb4 Te12'
_cell_volume   1186.69663056
_cell_formula_units_Z   4
loop_
 _symmetry_equiv_pos_site_id
 _symmetry_equiv_pos_as_xyz
  1  'x, y, z'
loop_
 _atom_site_type_symbol
 _atom_site_label
 _atom_site_symmetry_multiplicity
 _atom_site_fract_x
 _atom_site_fract_y
 _atom_site_fract_z
 _atom_site_occupancy
  K  K0  1  0.580912  0.580912  0.580912  1
  K  K1  1  0.919088  0.419088  0.080912  1
  K  K2  1  0.080912  0.919088  0.419088  1
  K  K3  1  0.419088  0.080912  0.919088  1
  K  K4  1  0.321444  0.321444  0.321444  1
  K  K5  1  0.178556  0.678556  0.821444  1
  K  K6  1  0.821444  0.178556  0.678556  1
  K  K7  1  0.678556  0.821444  0.178556  1
  K  K8  1  0.816382  0.816382  0.816382  1
  K  K9  1  0.683618  0.183618  0.316382  1
  K  K10  1  0.316382  0.683618  0.183618  1
  K  K11  1  0.183618  0.316382  0.683618  1
  Sb  Sb12  1  0.028969  0.028969  0.028969  1
  Sb  Sb13  1  0.471031  0.971031  0.528969  1
  Sb  Sb14  1  0.528969  0.471031  0.971031  1
  Sb  Sb15  1  0.971031  0.528969  0.471031  1
  Te  Te16  1  0.224422  0.608447  0.497684  1
  Te  Te17  1  0.497684  0.224422  0.608447  1
  Te  Te18  1  0.608447  0.497684  0.224422  1
  Te  Te19  1  0.891553  0.502316  0.724422  1
  Te  Te20  1  0.997684  0.275578  0.391553  1
  Te  Te21  1  0.391553  0.997684  0.275578  1
  Te  Te22  1  0.002316  0.775578  0.108447  1
  Te  Te23  1  0.502316  0.724422  0.891553  1
  Te  Te24  1  0.108447  0.002316  0.775578  1
  Te  Te25  1  0.724422  0.891553  0.502316  1
  Te  Te26  1  0.775578  0.108447  0.002316  1
  Te  Te27  1  0.275578  0.391553  0.997684  1
