# generated using pymatgen
data_Cu4P2O9
_symmetry_space_group_name_H-M   'P 1'
_cell_length_a   6.29589403
_cell_length_b   7.63369317
_cell_length_c   8.09218975
_cell_angle_alpha   99.17227875
_cell_angle_beta   111.87034827
_cell_angle_gamma   98.19200479
_symmetry_Int_Tables_number   1
_chemical_formula_structural   Cu4P2O9
_chemical_formula_sum   'Cu8 P4 O18'
_cell_volume   347.55508821
_cell_formula_units_Z   2
loop_
 _symmetry_equiv_pos_site_id
 _symmetry_equiv_pos_as_xyz
  1  'x, y, z'
loop_
 _atom_site_type_symbol
 _atom_site_label
 _atom_site_symmetry_multiplicity
 _atom_site_fract_x
 _atom_site_fract_y
 _atom_site_fract_z
 _atom_site_occupancy
  Cu  Cu0  1  0.883426  0.104161  0.755588  1
  Cu  Cu1  1  0.404608  0.126917  0.760920  1
  Cu  Cu2  1  0.116574  0.895839  0.244412  1
  Cu  Cu3  1  0.652672  0.381677  0.587839  1
  Cu  Cu4  1  0.347328  0.618323  0.412161  1
  Cu  Cu5  1  0.595392  0.873083  0.239080  1
  Cu  Cu6  1  0.152901  0.671299  0.936515  1
  Cu  Cu7  1  0.847099  0.328701  0.063485  1
  P  P8  1  0.000040  0.784955  0.580228  1
  P  P9  1  0.370481  0.264201  0.151045  1
  P  P10  1  0.629519  0.735799  0.848955  1
  P  P11  1  0.999960  0.215045  0.419772  1
  O  O12  1  0.514118  0.583693  0.668375  1
  O  O13  1  0.344224  0.072994  0.190155  1
  O  O14  1  0.131273  0.300422  0.025808  1
  O  O15  1  0.485882  0.416307  0.331625  1
  O  O16  1  0.655776  0.927006  0.809845  1
  O  O17  1  0.149918  0.779814  0.464852  1
  O  O18  1  0.297319  0.724089  0.200681  1
  O  O19  1  0.702681  0.275911  0.799319  1
  O  O20  1  0.004460  0.623527  0.673806  1
  O  O21  1  0.748335  0.794118  0.465797  1
  O  O22  1  0.868727  0.699578  0.974192  1
  O  O23  1  0.850082  0.220186  0.535148  1
  O  O24  1  0.117214  0.966268  0.739178  1
  O  O25  1  0.995540  0.376473  0.326194  1
  O  O26  1  0.477674  0.725838  0.963191  1
  O  O27  1  0.882786  0.033732  0.260822  1
  O  O28  1  0.251665  0.205882  0.534203  1
  O  O29  1  0.522326  0.274162  0.036809  1
