# generated using pymatgen
data_Nd6S4N3Cl
_symmetry_space_group_name_H-M   'P 1'
_cell_length_a   4.02346737
_cell_length_b   11.82081740
_cell_length_c   26.71453531
_cell_angle_alpha   90.00000000
_cell_angle_beta   90.00000000
_cell_angle_gamma   90.00000000
_symmetry_Int_Tables_number   1
_chemical_formula_structural   Nd6S4N3Cl
_chemical_formula_sum   'Nd24 S16 N12 Cl4'
_cell_volume   1270.56128078
_cell_formula_units_Z   4
loop_
 _symmetry_equiv_pos_site_id
 _symmetry_equiv_pos_as_xyz
  1  'x, y, z'
loop_
 _atom_site_type_symbol
 _atom_site_label
 _atom_site_symmetry_multiplicity
 _atom_site_fract_x
 _atom_site_fract_y
 _atom_site_fract_z
 _atom_site_occupancy
  Nd  Nd0  1  0.250000  0.883742  0.205455  1
  Nd  Nd1  1  0.750000  0.587368  0.459508  1
  Nd  Nd2  1  0.750000  0.087368  0.040492  1
  Nd  Nd3  1  0.250000  0.733028  0.831257  1
  Nd  Nd4  1  0.250000  0.912632  0.959508  1
  Nd  Nd5  1  0.250000  0.383742  0.294545  1
  Nd  Nd6  1  0.750000  0.055045  0.309180  1
  Nd  Nd7  1  0.750000  0.555045  0.190820  1
  Nd  Nd8  1  0.250000  0.734246  0.565362  1
  Nd  Nd9  1  0.750000  0.116258  0.794545  1
  Nd  Nd10  1  0.750000  0.266972  0.168743  1
  Nd  Nd11  1  0.250000  0.444955  0.809180  1
  Nd  Nd12  1  0.250000  0.442367  0.073701  1
  Nd  Nd13  1  0.250000  0.942367  0.426299  1
  Nd  Nd14  1  0.250000  0.234246  0.934638  1
  Nd  Nd15  1  0.750000  0.765754  0.065362  1
  Nd  Nd16  1  0.750000  0.616258  0.705455  1
  Nd  Nd17  1  0.750000  0.057633  0.573701  1
  Nd  Nd18  1  0.750000  0.557633  0.926299  1
  Nd  Nd19  1  0.750000  0.766972  0.331257  1
  Nd  Nd20  1  0.250000  0.944955  0.690820  1
  Nd  Nd21  1  0.750000  0.265754  0.434638  1
  Nd  Nd22  1  0.250000  0.412632  0.540492  1
  Nd  Nd23  1  0.250000  0.233028  0.668743  1
  S  S24  1  0.750000  0.816997  0.641439  1
  S  S25  1  0.250000  0.714873  0.396644  1
  S  S26  1  0.250000  0.045552  0.865514  1
  S  S27  1  0.750000  0.454448  0.365514  1
  S  S28  1  0.750000  0.785127  0.896644  1
  S  S29  1  0.750000  0.954448  0.134486  1
  S  S30  1  0.250000  0.545552  0.634486  1
  S  S31  1  0.250000  0.214873  0.103356  1
  S  S32  1  0.250000  0.645501  0.007510  1
  S  S33  1  0.750000  0.354499  0.992490  1
  S  S34  1  0.750000  0.316997  0.858561  1
  S  S35  1  0.250000  0.145501  0.492490  1
  S  S36  1  0.750000  0.854499  0.507510  1
  S  S37  1  0.250000  0.683003  0.141439  1
  S  S38  1  0.750000  0.285127  0.603356  1
  S  S39  1  0.250000  0.183003  0.358561  1
  N  N40  1  0.750000  0.902189  0.009331  1
  N  N41  1  0.250000  0.060581  0.623576  1
  N  N42  1  0.750000  0.888717  0.260472  1
  N  N43  1  0.750000  0.439419  0.123576  1
  N  N44  1  0.750000  0.939419  0.376424  1
  N  N45  1  0.250000  0.560581  0.876424  1
  N  N46  1  0.250000  0.611283  0.760472  1
  N  N47  1  0.250000  0.097811  0.990669  1
  N  N48  1  0.750000  0.388717  0.239528  1
  N  N49  1  0.750000  0.402189  0.490669  1
  N  N50  1  0.250000  0.111283  0.739528  1
  N  N51  1  0.250000  0.597811  0.509331  1
  Cl  Cl52  1  0.250000  0.131563  0.232041  1
  Cl  Cl53  1  0.750000  0.868437  0.767959  1
  Cl  Cl54  1  0.250000  0.631563  0.267959  1
  Cl  Cl55  1  0.750000  0.368437  0.732041  1
