# generated using pymatgen
data_LiAlB2O5
_symmetry_space_group_name_H-M   'P 1'
_cell_length_a   7.16464019
_cell_length_b   7.16464019
_cell_length_c   9.46906148
_cell_angle_alpha   69.24688485
_cell_angle_beta   110.75311515
_cell_angle_gamma   89.29091784
_symmetry_Int_Tables_number   1
_chemical_formula_structural   LiAlB2O5
_chemical_formula_sum   'Li4 Al4 B8 O20'
_cell_volume   419.71578442
_cell_formula_units_Z   4
loop_
 _symmetry_equiv_pos_site_id
 _symmetry_equiv_pos_as_xyz
  1  'x, y, z'
loop_
 _atom_site_type_symbol
 _atom_site_label
 _atom_site_symmetry_multiplicity
 _atom_site_fract_x
 _atom_site_fract_y
 _atom_site_fract_z
 _atom_site_occupancy
  Li  Li0  1  0.376701  0.376701  0.250000  1
  Li  Li1  1  0.623299  0.623299  0.750000  1
  Li  Li2  1  0.160283  0.160283  0.750000  1
  Li  Li3  1  0.839717  0.839717  0.250000  1
  Al  Al4  1  0.653526  0.043849  0.847892  1
  Al  Al5  1  0.346474  0.956151  0.152108  1
  Al  Al6  1  0.043849  0.653526  0.652108  1
  Al  Al7  1  0.956151  0.346474  0.347892  1
  B  B8  1  0.772036  0.237910  0.591669  1
  B  B9  1  0.237910  0.772036  0.908331  1
  B  B10  1  0.603691  0.739993  0.471395  1
  B  B11  1  0.739993  0.603691  0.028605  1
  B  B12  1  0.260007  0.396309  0.971395  1
  B  B13  1  0.396309  0.260007  0.528605  1
  B  B14  1  0.227964  0.762090  0.408331  1
  B  B15  1  0.762090  0.227964  0.091669  1
  O  O16  1  0.218953  0.331565  0.394326  1
  O  O17  1  0.293204  0.917196  0.970518  1
  O  O18  1  0.917196  0.293204  0.529482  1
  O  O19  1  0.433662  0.714086  0.517668  1
  O  O20  1  0.584935  0.827802  0.313063  1
  O  O21  1  0.172198  0.415065  0.813063  1
  O  O22  1  0.415065  0.172198  0.686937  1
  O  O23  1  0.082804  0.706796  0.470518  1
  O  O24  1  0.824812  0.140330  0.754999  1
  O  O25  1  0.827802  0.584935  0.186937  1
  O  O26  1  0.668435  0.781047  0.894326  1
  O  O27  1  0.140330  0.824812  0.745001  1
  O  O28  1  0.859670  0.175188  0.254999  1
  O  O29  1  0.714086  0.433662  0.982332  1
  O  O30  1  0.706796  0.082804  0.029482  1
  O  O31  1  0.331565  0.218953  0.105674  1
  O  O32  1  0.285914  0.566338  0.017668  1
  O  O33  1  0.175188  0.859670  0.245001  1
  O  O34  1  0.566338  0.285914  0.482332  1
  O  O35  1  0.781047  0.668435  0.605674  1
