# generated using pymatgen
data_Co2(SnSe)3
_symmetry_space_group_name_H-M   'P 1'
_cell_length_a   8.79713435
_cell_length_b   8.79713435
_cell_length_c   8.79713435
_cell_angle_alpha   90.12344200
_cell_angle_beta   90.12344200
_cell_angle_gamma   90.12344200
_symmetry_Int_Tables_number   1
_chemical_formula_structural   Co2(SnSe)3
_chemical_formula_sum   'Co8 Sn12 Se12'
_cell_volume   680.80172264
_cell_formula_units_Z   4
loop_
 _symmetry_equiv_pos_site_id
 _symmetry_equiv_pos_as_xyz
  1  'x, y, z'
loop_
 _atom_site_type_symbol
 _atom_site_label
 _atom_site_symmetry_multiplicity
 _atom_site_fract_x
 _atom_site_fract_y
 _atom_site_fract_z
 _atom_site_occupancy
  Co  Co0  1  0.741677  0.244589  0.237923  1
  Co  Co1  1  0.755411  0.762077  0.258323  1
  Co  Co2  1  0.237923  0.741677  0.244589  1
  Co  Co3  1  0.762077  0.258323  0.755411  1
  Co  Co4  1  0.741476  0.741476  0.741476  1
  Co  Co5  1  0.258524  0.258524  0.258524  1
  Co  Co6  1  0.244589  0.237923  0.741677  1
  Co  Co7  1  0.258323  0.755411  0.762077  1
  Sn  Sn8  1  0.326409  0.999410  0.155797  1
  Sn  Sn9  1  0.500067  0.657627  0.171531  1
  Sn  Sn10  1  0.673591  0.000590  0.844203  1
  Sn  Sn11  1  0.828469  0.499933  0.342373  1
  Sn  Sn12  1  0.999410  0.155797  0.326409  1
  Sn  Sn13  1  0.000590  0.844203  0.673591  1
  Sn  Sn14  1  0.171531  0.500067  0.657627  1
  Sn  Sn15  1  0.499933  0.342373  0.828469  1
  Sn  Sn16  1  0.657627  0.171531  0.500067  1
  Sn  Sn17  1  0.844203  0.673591  0.000590  1
  Sn  Sn18  1  0.342373  0.828469  0.499933  1
  Sn  Sn19  1  0.155797  0.326409  0.999410  1
  Se  Se20  1  0.001414  0.843405  0.339723  1
  Se  Se21  1  0.660277  0.998586  0.156595  1
  Se  Se22  1  0.843405  0.339723  0.001414  1
  Se  Se23  1  0.655486  0.838863  0.502218  1
  Se  Se24  1  0.502218  0.655486  0.838863  1
  Se  Se25  1  0.497782  0.344514  0.161137  1
  Se  Se26  1  0.344514  0.161137  0.497782  1
  Se  Se27  1  0.161137  0.497782  0.344514  1
  Se  Se28  1  0.998586  0.156595  0.660277  1
  Se  Se29  1  0.339723  0.001414  0.843405  1
  Se  Se30  1  0.838863  0.502218  0.655486  1
  Se  Se31  1  0.156595  0.660277  0.998586  1
