# generated using pymatgen
data_RbP2WO8
_symmetry_space_group_name_H-M   'P 1'
_cell_length_a   5.20395325
_cell_length_b   12.21013614
_cell_length_c   12.93196928
_cell_angle_alpha   90.00000000
_cell_angle_beta   112.89669736
_cell_angle_gamma   90.00000000
_symmetry_Int_Tables_number   1
_chemical_formula_structural   RbP2WO8
_chemical_formula_sum   'Rb4 P8 W4 O32'
_cell_volume   756.96566269
_cell_formula_units_Z   4
loop_
 _symmetry_equiv_pos_site_id
 _symmetry_equiv_pos_as_xyz
  1  'x, y, z'
loop_
 _atom_site_type_symbol
 _atom_site_label
 _atom_site_symmetry_multiplicity
 _atom_site_fract_x
 _atom_site_fract_y
 _atom_site_fract_z
 _atom_site_occupancy
  Rb  Rb0  1  0.298628  0.122685  0.538742  1
  Rb  Rb1  1  0.701372  0.622685  0.961258  1
  Rb  Rb2  1  0.701372  0.877315  0.461258  1
  Rb  Rb3  1  0.298628  0.377315  0.038742  1
  P  P4  1  0.383122  0.428849  0.627006  1
  P  P5  1  0.616878  0.928849  0.872994  1
  P  P6  1  0.616878  0.571151  0.372994  1
  P  P7  1  0.383122  0.071151  0.127006  1
  P  P8  1  0.602485  0.295130  0.835145  1
  P  P9  1  0.397515  0.795130  0.664855  1
  P  P10  1  0.397515  0.704870  0.164855  1
  P  P11  1  0.602485  0.204870  0.335145  1
  W  W12  1  0.088194  0.107886  0.829256  1
  W  W13  1  0.911806  0.607886  0.670744  1
  W  W14  1  0.911806  0.892114  0.170744  1
  W  W15  1  0.088194  0.392114  0.329256  1
  O  O16  1  0.981642  0.105969  0.682589  1
  O  O17  1  0.018358  0.605969  0.817411  1
  O  O18  1  0.018358  0.894031  0.317411  1
  O  O19  1  0.981642  0.394031  0.182589  1
  O  O20  1  0.883015  0.248595  0.839009  1
  O  O21  1  0.116985  0.748595  0.660991  1
  O  O22  1  0.116985  0.751405  0.160991  1
  O  O23  1  0.883015  0.251405  0.339009  1
  O  O24  1  0.434494  0.204363  0.863042  1
  O  O25  1  0.565506  0.704363  0.636958  1
  O  O26  1  0.565506  0.795637  0.136958  1
  O  O27  1  0.434494  0.295637  0.363042  1
  O  O28  1  0.758782  0.014484  0.827671  1
  O  O29  1  0.241218  0.514484  0.672329  1
  O  O30  1  0.241218  0.985516  0.172329  1
  O  O31  1  0.758782  0.485516  0.327671  1
  O  O32  1  0.323982  0.966451  0.859479  1
  O  O33  1  0.676018  0.466451  0.640521  1
  O  O34  1  0.676018  0.033549  0.140521  1
  O  O35  1  0.323982  0.533549  0.359479  1
  O  O36  1  0.209619  0.110442  0.008758  1
  O  O37  1  0.790381  0.610442  0.491242  1
  O  O38  1  0.790381  0.889558  0.991242  1
  O  O39  1  0.209619  0.389558  0.508758  1
  O  O40  1  0.422331  0.319006  0.701168  1
  O  O41  1  0.577669  0.819006  0.798832  1
  O  O42  1  0.577669  0.680994  0.298832  1
  O  O43  1  0.422331  0.180994  0.201168  1
  O  O44  1  0.641746  0.396963  0.903351  1
  O  O45  1  0.358254  0.896963  0.596649  1
  O  O46  1  0.358254  0.603037  0.096649  1
  O  O47  1  0.641746  0.103037  0.403351  1
