# generated using pymatgen
data_RbC8
_symmetry_space_group_name_H-M   'P 1'
_cell_length_a   12.27187142
_cell_length_b   11.75634278
_cell_length_c   4.97534158
_cell_angle_alpha   83.93170389
_cell_angle_beta   72.29275302
_cell_angle_gamma   23.77554309
_symmetry_Int_Tables_number   1
_chemical_formula_structural   RbC8
_chemical_formula_sum   'Rb2 C16'
_cell_volume   246.25789457
_cell_formula_units_Z   2
loop_
 _symmetry_equiv_pos_site_id
 _symmetry_equiv_pos_as_xyz
  1  'x, y, z'
loop_
 _atom_site_type_symbol
 _atom_site_label
 _atom_site_symmetry_multiplicity
 _atom_site_fract_x
 _atom_site_fract_y
 _atom_site_fract_z
 _atom_site_occupancy
  Rb  Rb0  1  0.500000  0.500000  0.500000  1
  Rb  Rb1  1  0.750000  0.750000  0.750000  1
  C  C2  1  0.791662  0.458305  0.541471  1
  C  C3  1  0.541471  0.208562  0.791662  1
  C  C4  1  0.458305  0.791662  0.208562  1
  C  C5  1  0.791695  0.458338  0.041438  1
  C  C6  1  0.957156  0.290702  0.709581  1
  C  C7  1  0.042561  0.709581  0.290702  1
  C  C8  1  0.708529  0.041438  0.458338  1
  C  C9  1  0.292844  0.959298  0.540419  1
  C  C10  1  0.959298  0.292844  0.207439  1
  C  C11  1  0.207439  0.540419  0.959298  1
  C  C12  1  0.041438  0.708529  0.791695  1
  C  C13  1  0.458338  0.791695  0.708529  1
  C  C14  1  0.208562  0.541471  0.458305  1
  C  C15  1  0.290702  0.957156  0.042561  1
  C  C16  1  0.540419  0.207439  0.292844  1
  C  C17  1  0.709581  0.042561  0.957156  1
