# generated using pymatgen
data_Cs2U(SiO4)2
_symmetry_space_group_name_H-M   'P 1'
_cell_length_a   13.71619731
_cell_length_b   13.71619731
_cell_length_c   13.71619731
_cell_angle_alpha   111.98933572
_cell_angle_beta   110.97838489
_cell_angle_gamma   105.51854493
_symmetry_Int_Tables_number   1
_chemical_formula_structural   Cs2U(SiO4)2
_chemical_formula_sum   'Cs16 U8 Si16 O64'
_cell_volume   1979.26453105
_cell_formula_units_Z   8
loop_
 _symmetry_equiv_pos_site_id
 _symmetry_equiv_pos_as_xyz
  1  'x, y, z'
loop_
 _atom_site_type_symbol
 _atom_site_label
 _atom_site_symmetry_multiplicity
 _atom_site_fract_x
 _atom_site_fract_y
 _atom_site_fract_z
 _atom_site_occupancy
  Cs  Cs0  1  0.650628  0.400628  0.750000  1
  Cs  Cs1  1  0.897983  0.647983  0.750000  1
  Cs  Cs2  1  0.629647  0.250000  0.379647  1
  Cs  Cs3  1  0.602017  0.852017  0.250000  1
  Cs  Cs4  1  0.150628  0.900628  0.750000  1
  Cs  Cs5  1  0.849372  0.099372  0.250000  1
  Cs  Cs6  1  0.750000  0.356393  0.106393  1
  Cs  Cs7  1  0.102017  0.352017  0.250000  1
  Cs  Cs8  1  0.870353  0.750000  0.120353  1
  Cs  Cs9  1  0.349372  0.599372  0.250000  1
  Cs  Cs10  1  0.129647  0.250000  0.879647  1
  Cs  Cs11  1  0.250000  0.643607  0.893607  1
  Cs  Cs12  1  0.750000  0.856393  0.606393  1
  Cs  Cs13  1  0.397983  0.147983  0.750000  1
  Cs  Cs14  1  0.370353  0.750000  0.620353  1
  Cs  Cs15  1  0.250000  0.143607  0.393607  1
  U  U16  1  0.500000  1.000000  1.000000  1
  U  U17  1  0.500000  0.500000  0.500000  1
  U  U18  1  1.000000  0.500000  0.500000  1
  U  U19  1  0.000000  1.000000  0.500000  1
  U  U20  1  0.000000  0.500000  0.000000  1
  U  U21  1  0.000000  0.000000  0.000000  1
  U  U22  1  0.500000  0.000000  0.500000  1
  U  U23  1  0.500000  0.500000  0.000000  1
  Si  Si24  1  0.892239  0.693308  0.439458  1
  Si  Si25  1  0.692510  0.788218  0.815077  1
  Si  Si26  1  0.307490  0.211782  0.184923  1
  Si  Si27  1  0.607761  0.547219  0.301069  1
  Si  Si28  1  0.192510  0.877433  0.404292  1
  Si  Si29  1  0.473141  0.288218  0.095708  1
  Si  Si30  1  0.107761  0.306692  0.560542  1
  Si  Si31  1  0.973141  0.377433  0.684923  1
  Si  Si32  1  0.526859  0.711782  0.904292  1
  Si  Si33  1  0.246149  0.806692  0.198931  1
  Si  Si34  1  0.746149  0.047219  0.939458  1
  Si  Si35  1  0.392239  0.452781  0.698931  1
  Si  Si36  1  0.253851  0.952781  0.060542  1
  Si  Si37  1  0.807490  0.122567  0.595708  1
  Si  Si38  1  0.753851  0.193308  0.801069  1
  Si  Si39  1  0.026859  0.622567  0.315077  1
  O  O40  1  0.167568  0.175611  0.126393  1
  O  O41  1  0.628310  0.468952  0.550615  1
  O  O42  1  0.675857  0.906880  0.825061  1
  O  O43  1  0.250000  0.367129  0.617129  1
  O  O44  1  0.674992  0.069126  0.012227  1
  O  O45  1  0.443101  0.430874  0.605866  1
  O  O46  1  0.750000  0.132871  0.882871  1
  O  O47  1  0.081664  0.422305  0.050615  1
  O  O48  1  0.832432  0.824389  0.873607  1
  O  O49  1  0.371690  0.531048  0.449385  1
  O  O50  1  0.056899  0.162765  0.487773  1
  O  O51  1  0.649506  0.750000  0.899506  1
  O  O52  1  0.388387  0.316795  0.328721  1
  O  O53  1  0.511926  0.183205  0.071591  1
  O  O54  1  0.943101  0.837235  0.512227  1
  O  O55  1  0.325008  0.930874  0.987773  1
  O  O56  1  0.888387  0.059666  0.571591  1
  O  O57  1  0.548277  0.580266  0.198980  1
  O  O58  1  0.011926  0.440334  0.828721  1
  O  O59  1  0.418336  0.968952  0.840641  1
  O  O60  1  0.175857  0.850795  0.268977  1
  O  O61  1  0.048277  0.349296  0.468010  1
  O  O62  1  0.022396  0.985186  0.134841  1
  O  O63  1  0.488074  0.816795  0.928409  1
  O  O64  1  0.951723  0.650704  0.531990  1
  O  O65  1  0.549218  0.675611  0.008043  1
  O  O66  1  0.556899  0.569126  0.394134  1
  O  O67  1  0.649655  0.514814  0.037210  1
  O  O68  1  0.381286  0.849296  0.301020  1
  O  O69  1  0.611613  0.683205  0.671279  1
  O  O70  1  0.918181  0.649205  0.325061  1
  O  O71  1  0.118714  0.919734  0.968010  1
  O  O72  1  0.174992  0.662765  0.105866  1
  O  O73  1  0.977604  0.014814  0.865159  1
  O  O74  1  0.049218  0.541175  0.373607  1
  O  O75  1  0.850494  0.250000  0.600494  1
  O  O76  1  0.450782  0.324389  0.991957  1
  O  O77  1  0.477604  0.112446  0.462790  1
  O  O78  1  0.881286  0.080266  0.031990  1
  O  O79  1  0.128310  0.077695  0.659359  1
  O  O80  1  0.618714  0.150704  0.698980  1
  O  O81  1  0.988074  0.559666  0.171279  1
  O  O82  1  0.750000  0.632871  0.382871  1
  O  O83  1  0.149506  0.750000  0.399506  1
  O  O84  1  0.324143  0.093120  0.174939  1
  O  O85  1  0.871690  0.922305  0.340641  1
  O  O86  1  0.850345  0.387554  0.365159  1
  O  O87  1  0.950782  0.458825  0.626393  1
  O  O88  1  0.522396  0.887554  0.537210  1
  O  O89  1  0.350345  0.485186  0.962790  1
  O  O90  1  0.451723  0.419734  0.801020  1
  O  O91  1  0.111613  0.940334  0.428409  1
  O  O92  1  0.581664  0.031048  0.159359  1
  O  O93  1  0.418181  0.593120  0.768977  1
  O  O94  1  0.250000  0.867129  0.117129  1
  O  O95  1  0.918336  0.577695  0.949385  1
  O  O96  1  0.825008  0.337235  0.894134  1
  O  O97  1  0.824143  0.149205  0.731023  1
  O  O98  1  0.081819  0.350795  0.674939  1
  O  O99  1  0.149655  0.612446  0.634841  1
  O  O100  1  0.332432  0.958825  0.508043  1
  O  O101  1  0.667568  0.041175  0.491957  1
  O  O102  1  0.350494  0.250000  0.100494  1
  O  O103  1  0.581819  0.406880  0.231023  1
