# generated using pymatgen
data_MgV2(CuO4)2
_symmetry_space_group_name_H-M   'P 1'
_cell_length_a   6.51646916
_cell_length_b   8.35940919
_cell_length_c   11.84075154
_cell_angle_alpha   90.00000000
_cell_angle_beta   90.39814327
_cell_angle_gamma   90.00000000
_symmetry_Int_Tables_number   1
_chemical_formula_structural   MgV2(CuO4)2
_chemical_formula_sum   'Mg4 V8 Cu8 O32'
_cell_volume   644.99553944
_cell_formula_units_Z   4
loop_
 _symmetry_equiv_pos_site_id
 _symmetry_equiv_pos_as_xyz
  1  'x, y, z'
loop_
 _atom_site_type_symbol
 _atom_site_label
 _atom_site_symmetry_multiplicity
 _atom_site_fract_x
 _atom_site_fract_y
 _atom_site_fract_z
 _atom_site_occupancy
  Mg  Mg0  1  0.887511  0.837688  0.949987  1
  Mg  Mg1  1  0.112489  0.162312  0.050013  1
  Mg  Mg2  1  0.112489  0.337688  0.550013  1
  Mg  Mg3  1  0.887511  0.662312  0.449987  1
  V  V4  1  0.896890  0.539629  0.154470  1
  V  V5  1  0.896890  0.960371  0.654470  1
  V  V6  1  0.390992  0.913418  0.866555  1
  V  V7  1  0.103110  0.039629  0.345530  1
  V  V8  1  0.609008  0.086582  0.133445  1
  V  V9  1  0.609008  0.413418  0.633445  1
  V  V10  1  0.390992  0.586582  0.366555  1
  V  V11  1  0.103110  0.460371  0.845530  1
  Cu  Cu12  1  0.235539  0.815134  0.127247  1
  Cu  Cu13  1  0.622937  0.942975  0.372738  1
  Cu  Cu14  1  0.377063  0.057025  0.627262  1
  Cu  Cu15  1  0.764461  0.184866  0.872753  1
  Cu  Cu16  1  0.235539  0.684866  0.627247  1
  Cu  Cu17  1  0.622937  0.557025  0.872738  1
  Cu  Cu18  1  0.764461  0.315134  0.372753  1
  Cu  Cu19  1  0.377063  0.442975  0.127262  1
  O  O20  1  0.963324  0.766893  0.604264  1
  O  O21  1  0.338398  0.987963  0.402748  1
  O  O22  1  0.810511  0.424506  0.529893  1
  O  O23  1  0.189489  0.924506  0.970107  1
  O  O24  1  0.963324  0.733107  0.104264  1
  O  O25  1  0.036676  0.233107  0.395736  1
  O  O26  1  0.915793  0.894434  0.384866  1
  O  O27  1  0.493533  0.099670  0.860734  1
  O  O28  1  0.493533  0.400330  0.360734  1
  O  O29  1  0.686599  0.130722  0.275325  1
  O  O30  1  0.313401  0.630722  0.224675  1
  O  O31  1  0.506467  0.900330  0.139266  1
  O  O32  1  0.084207  0.105566  0.615134  1
  O  O33  1  0.122478  0.461057  0.700929  1
  O  O34  1  0.580116  0.718277  0.414125  1
  O  O35  1  0.580116  0.781723  0.914125  1
  O  O36  1  0.877522  0.961057  0.799071  1
  O  O37  1  0.506467  0.599670  0.639266  1
  O  O38  1  0.877522  0.538943  0.299071  1
  O  O39  1  0.189489  0.575494  0.470107  1
  O  O40  1  0.338398  0.512037  0.902748  1
  O  O41  1  0.313401  0.869278  0.724675  1
  O  O42  1  0.036676  0.266893  0.895736  1
  O  O43  1  0.915793  0.605566  0.884866  1
  O  O44  1  0.810511  0.075494  0.029893  1
  O  O45  1  0.419884  0.218277  0.085875  1
  O  O46  1  0.661602  0.012037  0.597252  1
  O  O47  1  0.661602  0.487963  0.097252  1
  O  O48  1  0.084207  0.394434  0.115134  1
  O  O49  1  0.419884  0.281723  0.585875  1
  O  O50  1  0.686599  0.369278  0.775325  1
  O  O51  1  0.122478  0.038943  0.200929  1
