# generated using pymatgen
data_YbAg2
_symmetry_space_group_name_H-M   'P 1'
_cell_length_a   5.94179132
_cell_length_b   5.94179132
_cell_length_c   5.94179132
_cell_angle_alpha   133.35815527
_cell_angle_beta   105.46377903
_cell_angle_gamma   92.68323510
_symmetry_Int_Tables_number   1
_chemical_formula_structural   YbAg2
_chemical_formula_sum   'Yb2 Ag4'
_cell_volume   138.86643901
_cell_formula_units_Z   2
loop_
 _symmetry_equiv_pos_site_id
 _symmetry_equiv_pos_as_xyz
  1  'x, y, z'
loop_
 _atom_site_type_symbol
 _atom_site_label
 _atom_site_symmetry_multiplicity
 _atom_site_fract_x
 _atom_site_fract_y
 _atom_site_fract_z
 _atom_site_occupancy
  Yb  Yb0  1  0.793015  0.543015  0.750000  1
  Yb  Yb1  1  0.206985  0.456985  0.250000  1
  Ag  Ag2  1  0.790232  0.837526  0.452705  1
  Ag  Ag3  1  0.615179  0.162474  0.952705  1
  Ag  Ag4  1  0.209769  0.162474  0.547295  1
  Ag  Ag5  1  0.384821  0.837526  0.047295  1
