# generated using pymatgen
data_Dy3S4
_symmetry_space_group_name_H-M   'P 1'
_cell_length_a   7.19321308
_cell_length_b   7.19321308
_cell_length_c   7.19321308
_cell_angle_alpha   109.47122063
_cell_angle_beta   109.47122063
_cell_angle_gamma   109.47122063
_symmetry_Int_Tables_number   1
_chemical_formula_structural   Dy3S4
_chemical_formula_sum   'Dy6 S8'
_cell_volume   286.51468476
_cell_formula_units_Z   2
loop_
 _symmetry_equiv_pos_site_id
 _symmetry_equiv_pos_as_xyz
  1  'x, y, z'
loop_
 _atom_site_type_symbol
 _atom_site_label
 _atom_site_symmetry_multiplicity
 _atom_site_fract_x
 _atom_site_fract_y
 _atom_site_fract_z
 _atom_site_occupancy
  Dy  Dy0  1  0.125000  0.750000  0.875000  1
  Dy  Dy1  1  0.625000  0.375000  0.250000  1
  Dy  Dy2  1  0.375000  0.250000  0.625000  1
  Dy  Dy3  1  0.750000  0.875000  0.125000  1
  Dy  Dy4  1  0.250000  0.625000  0.375000  1
  Dy  Dy5  1  0.875000  0.125000  0.750000  1
  S  S6  1  0.642668  0.642668  0.642668  1
  S  S7  1  1.000000  0.857332  0.500000  1
  S  S8  1  0.857332  0.500000  1.000000  1
  S  S9  1  1.000000  0.357332  0.500000  1
  S  S10  1  0.500000  1.000000  0.857332  1
  S  S11  1  0.500000  1.000000  0.357332  1
  S  S12  1  0.357332  0.500000  0.000000  1
  S  S13  1  0.142668  0.142668  0.142668  1
