# generated using pymatgen
data_AlS2(NCl2)2
_symmetry_space_group_name_H-M   'P 1'
_cell_length_a   7.03229782
_cell_length_b   16.68894189
_cell_length_c   8.14926985
_cell_angle_alpha   90.00000000
_cell_angle_beta   104.26155886
_cell_angle_gamma   90.00000000
_symmetry_Int_Tables_number   1
_chemical_formula_structural   AlS2(NCl2)2
_chemical_formula_sum   'Al4 S8 N8 Cl16'
_cell_volume   926.93600405
_cell_formula_units_Z   4
loop_
 _symmetry_equiv_pos_site_id
 _symmetry_equiv_pos_as_xyz
  1  'x, y, z'
loop_
 _atom_site_type_symbol
 _atom_site_label
 _atom_site_symmetry_multiplicity
 _atom_site_fract_x
 _atom_site_fract_y
 _atom_site_fract_z
 _atom_site_occupancy
  Al  Al0  1  0.600569  0.350021  0.644991  1
  Al  Al1  1  0.399431  0.850021  0.855009  1
  Al  Al2  1  0.399431  0.649979  0.355009  1
  Al  Al3  1  0.600569  0.149979  0.144991  1
  S  S4  1  0.146143  0.397918  0.922045  1
  S  S5  1  0.030016  0.446112  0.242831  1
  S  S6  1  0.969984  0.946112  0.257169  1
  S  S7  1  0.853857  0.897918  0.577955  1
  S  S8  1  0.030016  0.053888  0.742831  1
  S  S9  1  0.969984  0.553888  0.757169  1
  S  S10  1  0.853857  0.602082  0.077955  1
  S  S11  1  0.146143  0.102082  0.422045  1
  N  N12  1  0.888147  0.901876  0.394805  1
  N  N13  1  0.926054  0.528967  0.198001  1
  N  N14  1  0.888147  0.598124  0.894805  1
  N  N15  1  0.111853  0.401876  0.105195  1
  N  N16  1  0.073946  0.471033  0.801999  1
  N  N17  1  0.111853  0.098124  0.605195  1
  N  N18  1  0.926054  0.971033  0.698001  1
  N  N19  1  0.073946  0.028967  0.301999  1
  Cl  Cl20  1  0.393322  0.921150  0.628300  1
  Cl  Cl21  1  0.606678  0.421150  0.871700  1
  Cl  Cl22  1  0.828785  0.261832  0.721280  1
  Cl  Cl23  1  0.310743  0.197874  0.055350  1
  Cl  Cl24  1  0.674544  0.426961  0.456499  1
  Cl  Cl25  1  0.689257  0.802126  0.944650  1
  Cl  Cl26  1  0.606678  0.078850  0.371700  1
  Cl  Cl27  1  0.325456  0.573039  0.543501  1
  Cl  Cl28  1  0.171215  0.738168  0.278720  1
  Cl  Cl29  1  0.393322  0.578850  0.128300  1
  Cl  Cl30  1  0.325456  0.926961  0.043501  1
  Cl  Cl31  1  0.828785  0.238168  0.221280  1
  Cl  Cl32  1  0.674544  0.073039  0.956499  1
  Cl  Cl33  1  0.689257  0.697874  0.444650  1
  Cl  Cl34  1  0.310743  0.302126  0.555350  1
  Cl  Cl35  1  0.171215  0.761832  0.778720  1
