# generated using pymatgen
data_TlV5Se8
_symmetry_space_group_name_H-M   'P 1'
_cell_length_a   9.31860994
_cell_length_b   9.31860994
_cell_length_c   9.24011903
_cell_angle_alpha   76.99164578
_cell_angle_beta   103.00835422
_cell_angle_gamma   158.44901810
_symmetry_Int_Tables_number   1
_chemical_formula_structural   TlV5Se8
_chemical_formula_sum   'Tl1 V5 Se8'
_cell_volume   286.89576774
_cell_formula_units_Z   1
loop_
 _symmetry_equiv_pos_site_id
 _symmetry_equiv_pos_as_xyz
  1  'x, y, z'
loop_
 _atom_site_type_symbol
 _atom_site_label
 _atom_site_symmetry_multiplicity
 _atom_site_fract_x
 _atom_site_fract_y
 _atom_site_fract_z
 _atom_site_occupancy
  Tl  Tl0  1  0.000000  0.000000  0.000000  1
  V  V1  1  0.854800  0.145200  0.502994  1
  V  V2  1  0.207102  0.792898  0.833942  1
  V  V3  1  0.792898  0.207102  0.166058  1
  V  V4  1  0.500000  0.500000  0.500000  1
  V  V5  1  0.145200  0.854800  0.497006  1
  Se  Se6  1  0.335717  0.664283  0.004103  1
  Se  Se7  1  0.740406  0.259594  0.649558  1
  Se  Se8  1  0.930392  0.069608  0.319712  1
  Se  Se9  1  0.259594  0.740406  0.350442  1
  Se  Se10  1  0.069608  0.930392  0.680288  1
  Se  Se11  1  0.413283  0.586717  0.679967  1
  Se  Se12  1  0.664283  0.335717  0.995897  1
  Se  Se13  1  0.586717  0.413283  0.320033  1
