# generated using pymatgen
data_YMn2O5
_symmetry_space_group_name_H-M   'P 1'
_cell_length_a   5.79430836
_cell_length_b   7.37479535
_cell_length_c   8.58164254
_cell_angle_alpha   90.00000000
_cell_angle_beta   90.00000000
_cell_angle_gamma   90.00000000
_symmetry_Int_Tables_number   1
_chemical_formula_structural   YMn2O5
_chemical_formula_sum   'Y4 Mn8 O20'
_cell_volume   366.70936179
_cell_formula_units_Z   4
loop_
 _symmetry_equiv_pos_site_id
 _symmetry_equiv_pos_as_xyz
  1  'x, y, z'
loop_
 _atom_site_type_symbol
 _atom_site_label
 _atom_site_symmetry_multiplicity
 _atom_site_fract_x
 _atom_site_fract_y
 _atom_site_fract_z
 _atom_site_occupancy
  Y  Y0  1  0.000000  0.637912  0.329014  1
  Y  Y1  1  0.000000  0.362088  0.670986  1
  Y  Y2  1  0.000000  0.137912  0.170986  1
  Y  Y3  1  0.000000  0.862088  0.829014  1
  Mn  Mn4  1  0.500000  0.911395  0.151551  1
  Mn  Mn5  1  0.500000  0.088605  0.848449  1
  Mn  Mn6  1  0.500000  0.411395  0.348449  1
  Mn  Mn7  1  0.500000  0.588605  0.651551  1
  Mn  Mn8  1  0.253839  0.500000  0.000000  1
  Mn  Mn9  1  0.746161  0.000000  0.500000  1
  Mn  Mn10  1  0.746161  0.500000  0.000000  1
  Mn  Mn11  1  0.253839  0.000000  0.500000  1
  O  O12  1  0.270758  0.500000  0.500000  1
  O  O13  1  0.729242  0.000000  0.000000  1
  O  O14  1  0.729242  0.500000  0.500000  1
  O  O15  1  0.270758  0.000000  0.000000  1
  O  O16  1  0.000000  0.663085  0.056974  1
  O  O17  1  0.000000  0.336915  0.943026  1
  O  O18  1  0.000000  0.163085  0.443026  1
  O  O19  1  0.000000  0.836915  0.556974  1
  O  O20  1  0.500000  0.650643  0.069937  1
  O  O21  1  0.500000  0.349357  0.930063  1
  O  O22  1  0.500000  0.150643  0.430063  1
  O  O23  1  0.500000  0.849357  0.569937  1
  O  O24  1  0.241062  0.893206  0.293236  1
  O  O25  1  0.241062  0.106794  0.706764  1
  O  O26  1  0.758938  0.393206  0.206764  1
  O  O27  1  0.758938  0.606794  0.793236  1
  O  O28  1  0.758938  0.106794  0.706764  1
  O  O29  1  0.758938  0.893206  0.293236  1
  O  O30  1  0.241062  0.606794  0.793236  1
  O  O31  1  0.241062  0.393206  0.206764  1
