# generated using pymatgen
data_CdCu2
_symmetry_space_group_name_H-M   'P 1'
_cell_length_a   5.04570448
_cell_length_b   5.04570448
_cell_length_c   16.17610860
_cell_angle_alpha   90.00000000
_cell_angle_beta   90.00000000
_cell_angle_gamma   120.00000000
_symmetry_Int_Tables_number   1
_chemical_formula_structural   CdCu2
_chemical_formula_sum   'Cd8 Cu16'
_cell_volume   356.65499241
_cell_formula_units_Z   8
loop_
 _symmetry_equiv_pos_site_id
 _symmetry_equiv_pos_as_xyz
  1  'x, y, z'
loop_
 _atom_site_type_symbol
 _atom_site_label
 _atom_site_symmetry_multiplicity
 _atom_site_fract_x
 _atom_site_fract_y
 _atom_site_fract_z
 _atom_site_occupancy
  Cd  Cd0  1  0.333333  0.666667  0.843955  1
  Cd  Cd1  1  0.000000  0.000000  0.594270  1
  Cd  Cd2  1  0.666667  0.333333  0.156045  1
  Cd  Cd3  1  0.000000  0.000000  0.405730  1
  Cd  Cd4  1  0.000000  0.000000  0.905730  1
  Cd  Cd5  1  0.000000  0.000000  0.094270  1
  Cd  Cd6  1  0.333333  0.666667  0.656045  1
  Cd  Cd7  1  0.666667  0.333333  0.343955  1
  Cu  Cu8  1  0.835615  0.671229  0.750000  1
  Cu  Cu9  1  0.164385  0.328771  0.250000  1
  Cu  Cu10  1  0.164385  0.835615  0.250000  1
  Cu  Cu11  1  0.666667  0.333333  0.874587  1
  Cu  Cu12  1  0.500000  0.000000  0.500000  1
  Cu  Cu13  1  0.666667  0.333333  0.625413  1
  Cu  Cu14  1  0.328771  0.164385  0.750000  1
  Cu  Cu15  1  0.000000  0.500000  0.500000  1
  Cu  Cu16  1  0.500000  0.500000  0.500000  1
  Cu  Cu17  1  0.835615  0.164385  0.750000  1
  Cu  Cu18  1  0.333333  0.666667  0.374587  1
  Cu  Cu19  1  0.671229  0.835615  0.250000  1
  Cu  Cu20  1  0.000000  0.500000  0.000000  1
  Cu  Cu21  1  0.500000  0.500000  0.000000  1
  Cu  Cu22  1  0.333333  0.666667  0.125413  1
  Cu  Cu23  1  0.500000  0.000000  0.000000  1
