# generated using pymatgen
data_K3U3Si2O13
_symmetry_space_group_name_H-M   'P 1'
_cell_length_a   9.66601735
_cell_length_b   9.66601735
_cell_length_c   8.46371225
_cell_angle_alpha   90.00000000
_cell_angle_beta   90.00000000
_cell_angle_gamma   120.00000000
_symmetry_Int_Tables_number   1
_chemical_formula_structural   K3U3Si2O13
_chemical_formula_sum   'K6 U6 Si4 O26'
_cell_volume   684.83612674
_cell_formula_units_Z   2
loop_
 _symmetry_equiv_pos_site_id
 _symmetry_equiv_pos_as_xyz
  1  'x, y, z'
loop_
 _atom_site_type_symbol
 _atom_site_label
 _atom_site_symmetry_multiplicity
 _atom_site_fract_x
 _atom_site_fract_y
 _atom_site_fract_z
 _atom_site_occupancy
  K  K0  1  0.958944  0.573835  0.750000  1
  K  K1  1  0.041056  0.614890  0.250000  1
  K  K2  1  0.426165  0.385110  0.750000  1
  K  K3  1  0.385110  0.426165  0.250000  1
  K  K4  1  0.614890  0.041056  0.750000  1
  K  K5  1  0.573835  0.958944  0.250000  1
  U  U6  1  0.756142  0.756142  0.000000  1
  U  U7  1  0.000000  0.243858  0.000000  1
  U  U8  1  0.243858  0.000000  0.500000  1
  U  U9  1  0.243858  0.000000  0.000000  1
  U  U10  1  0.756142  0.756142  0.500000  1
  U  U11  1  0.000000  0.243858  0.500000  1
  Si  Si12  1  0.333333  0.666667  0.555188  1
  Si  Si13  1  0.666667  0.333333  0.055188  1
  Si  Si14  1  0.333333  0.666667  0.944812  1
  Si  Si15  1  0.666667  0.333333  0.444812  1
  O  O16  1  0.001201  0.253971  0.250000  1
  O  O17  1  0.323456  0.821142  0.007962  1
  O  O18  1  0.323456  0.821142  0.492038  1
  O  O19  1  0.000000  0.808908  0.000000  1
  O  O20  1  0.252770  0.998799  0.250000  1
  O  O21  1  0.808908  0.000000  0.500000  1
  O  O22  1  0.502314  0.178858  0.507962  1
  O  O23  1  0.000000  0.808908  0.500000  1
  O  O24  1  0.676544  0.497686  0.992038  1
  O  O25  1  0.821142  0.323456  0.992038  1
  O  O26  1  0.497686  0.676544  0.007962  1
  O  O27  1  0.808908  0.000000  0.000000  1
  O  O28  1  0.497686  0.676544  0.492038  1
  O  O29  1  0.178858  0.502314  0.007962  1
  O  O30  1  0.746029  0.747230  0.250000  1
  O  O31  1  0.191092  0.191092  0.000000  1
  O  O32  1  0.821142  0.323456  0.507962  1
  O  O33  1  0.253971  0.001201  0.750000  1
  O  O34  1  0.998799  0.252770  0.750000  1
  O  O35  1  0.676544  0.497686  0.507962  1
  O  O36  1  0.502314  0.178858  0.992038  1
  O  O37  1  0.747230  0.746029  0.750000  1
  O  O38  1  0.191092  0.191092  0.500000  1
  O  O39  1  0.178858  0.502314  0.492038  1
  O  O40  1  0.666667  0.333333  0.250000  1
  O  O41  1  0.333333  0.666667  0.750000  1
