# generated using pymatgen
data_CaLaGaO4
_symmetry_space_group_name_H-M   'P 1'
_cell_length_a   5.39248531
_cell_length_b   6.89319257
_cell_length_c   11.90555242
_cell_angle_alpha   90.00000000
_cell_angle_beta   90.00000000
_cell_angle_gamma   90.00000000
_symmetry_Int_Tables_number   1
_chemical_formula_structural   CaLaGaO4
_chemical_formula_sum   'Ca4 La4 Ga4 O16'
_cell_volume   442.54652355
_cell_formula_units_Z   4
loop_
 _symmetry_equiv_pos_site_id
 _symmetry_equiv_pos_as_xyz
  1  'x, y, z'
loop_
 _atom_site_type_symbol
 _atom_site_label
 _atom_site_symmetry_multiplicity
 _atom_site_fract_x
 _atom_site_fract_y
 _atom_site_fract_z
 _atom_site_occupancy
  Ca  Ca0  1  0.000000  0.000000  0.000000  1
  Ca  Ca1  1  0.500000  0.000000  0.500000  1
  Ca  Ca2  1  0.000000  0.500000  0.000000  1
  Ca  Ca3  1  0.500000  0.500000  0.500000  1
  La  La4  1  0.507111  0.750000  0.779419  1
  La  La5  1  0.992889  0.750000  0.279419  1
  La  La6  1  0.007111  0.250000  0.720581  1
  La  La7  1  0.492889  0.250000  0.220581  1
  Ga  Ga8  1  0.433133  0.750000  0.090007  1
  Ga  Ga9  1  0.566867  0.250000  0.909993  1
  Ga  Ga10  1  0.933133  0.250000  0.409993  1
  Ga  Ga11  1  0.066867  0.750000  0.590007  1
  O  O12  1  0.270652  0.959162  0.162622  1
  O  O13  1  0.270652  0.540838  0.162622  1
  O  O14  1  0.723245  0.250000  0.050559  1
  O  O15  1  0.725382  0.750000  0.591990  1
  O  O16  1  0.229348  0.540838  0.662622  1
  O  O17  1  0.223245  0.750000  0.449441  1
  O  O18  1  0.770652  0.040838  0.337378  1
  O  O19  1  0.274618  0.250000  0.408010  1
  O  O20  1  0.229348  0.959162  0.662622  1
  O  O21  1  0.774618  0.750000  0.091990  1
  O  O22  1  0.225382  0.250000  0.908010  1
  O  O23  1  0.729348  0.040838  0.837378  1
  O  O24  1  0.770652  0.459162  0.337378  1
  O  O25  1  0.729348  0.459162  0.837378  1
  O  O26  1  0.276755  0.750000  0.949441  1
  O  O27  1  0.776755  0.250000  0.550559  1
