# generated using pymatgen
data_GaS5N5Cl4
_symmetry_space_group_name_H-M   'P 1'
_cell_length_a   9.93614844
_cell_length_b   14.38904984
_cell_length_c   21.45415762
_cell_angle_alpha   90.00000000
_cell_angle_beta   90.00000000
_cell_angle_gamma   90.00000000
_symmetry_Int_Tables_number   1
_chemical_formula_structural   GaS5N5Cl4
_chemical_formula_sum   'Ga8 S40 N40 Cl32'
_cell_volume   3067.33814049
_cell_formula_units_Z   8
loop_
 _symmetry_equiv_pos_site_id
 _symmetry_equiv_pos_as_xyz
  1  'x, y, z'
loop_
 _atom_site_type_symbol
 _atom_site_label
 _atom_site_symmetry_multiplicity
 _atom_site_fract_x
 _atom_site_fract_y
 _atom_site_fract_z
 _atom_site_occupancy
  Ga  Ga0  1  0.534105  0.250000  0.618912  1
  Ga  Ga1  1  0.445802  0.250000  0.129764  1
  Ga  Ga2  1  0.554198  0.750000  0.870236  1
  Ga  Ga3  1  0.465895  0.750000  0.381088  1
  Ga  Ga4  1  0.945802  0.250000  0.370236  1
  Ga  Ga5  1  0.965895  0.750000  0.118912  1
  Ga  Ga6  1  0.034105  0.250000  0.881088  1
  Ga  Ga7  1  0.054198  0.750000  0.629764  1
  S  S8  1  0.927209  0.392633  0.546587  1
  S  S9  1  0.300768  0.008382  0.479492  1
  S  S10  1  0.981544  0.601795  0.322019  1
  S  S11  1  0.295788  0.530452  0.771948  1
  S  S12  1  0.089010  0.604504  0.868824  1
  S  S13  1  0.704212  0.469548  0.228052  1
  S  S14  1  0.199232  0.991618  0.979492  1
  S  S15  1  0.981544  0.898205  0.322019  1
  S  S16  1  0.589010  0.604504  0.631176  1
  S  S17  1  0.481544  0.898205  0.177981  1
  S  S18  1  0.572791  0.892633  0.046587  1
  S  S19  1  0.018456  0.398205  0.677981  1
  S  S20  1  0.427209  0.392633  0.953413  1
  S  S21  1  0.300768  0.491618  0.479492  1
  S  S22  1  0.589010  0.895496  0.631176  1
  S  S23  1  0.795788  0.969548  0.728052  1
  S  S24  1  0.204212  0.469548  0.271948  1
  S  S25  1  0.072791  0.607367  0.453413  1
  S  S26  1  0.800768  0.491618  0.020508  1
  S  S27  1  0.199232  0.508382  0.979492  1
  S  S28  1  0.072791  0.892633  0.453413  1
  S  S29  1  0.910990  0.104504  0.131176  1
  S  S30  1  0.481544  0.601795  0.177981  1
  S  S31  1  0.295788  0.969548  0.771948  1
  S  S32  1  0.795788  0.530452  0.728052  1
  S  S33  1  0.518456  0.398205  0.822019  1
  S  S34  1  0.927209  0.107367  0.546587  1
  S  S35  1  0.699232  0.508382  0.520508  1
  S  S36  1  0.800768  0.008382  0.020508  1
  S  S37  1  0.572791  0.607367  0.046587  1
  S  S38  1  0.410990  0.104504  0.368824  1
  S  S39  1  0.089010  0.895496  0.868824  1
  S  S40  1  0.204212  0.030452  0.271948  1
  S  S41  1  0.699232  0.991618  0.520508  1
  S  S42  1  0.410990  0.395496  0.368824  1
  S  S43  1  0.910990  0.395496  0.131176  1
  S  S44  1  0.518456  0.101795  0.822019  1
  S  S45  1  0.018456  0.101795  0.677981  1
  S  S46  1  0.427209  0.107367  0.953413  1
  S  S47  1  0.704212  0.030452  0.228052  1
  N  N48  1  0.687894  0.567238  0.681649  1
  N  N49  1  0.313653  0.466242  0.936059  1
  N  N50  1  0.812106  0.432762  0.181649  1
  N  N51  1  0.485929  0.872488  0.106336  1
  N  N52  1  0.812106  0.067238  0.181649  1
  N  N53  1  0.606614  0.572889  0.561030  1
  N  N54  1  0.410925  0.465457  0.794626  1
  N  N55  1  0.187894  0.567238  0.818351  1
  N  N56  1  0.187894  0.932762  0.818351  1
  N  N57  1  0.393386  0.072889  0.438970  1
  N  N58  1  0.186347  0.966242  0.436059  1
  N  N59  1  0.014071  0.372488  0.606336  1
  N  N60  1  0.813653  0.466242  0.563941  1
  N  N61  1  0.910925  0.465457  0.705374  1
  N  N62  1  0.687894  0.932762  0.681649  1
  N  N63  1  0.089075  0.534543  0.294626  1
  N  N64  1  0.985929  0.627512  0.393664  1
  N  N65  1  0.106614  0.927111  0.938970  1
  N  N66  1  0.014071  0.127512  0.606336  1
  N  N67  1  0.893386  0.072889  0.061030  1
  N  N68  1  0.312106  0.067238  0.318351  1
  N  N69  1  0.686347  0.533758  0.063941  1
  N  N70  1  0.589075  0.965457  0.205374  1
  N  N71  1  0.985929  0.872488  0.393664  1
  N  N72  1  0.514071  0.127512  0.893664  1
  N  N73  1  0.485929  0.627512  0.106336  1
  N  N74  1  0.589075  0.534543  0.205374  1
  N  N75  1  0.106614  0.572889  0.938970  1
  N  N76  1  0.312106  0.432762  0.318351  1
  N  N77  1  0.089075  0.965457  0.294626  1
  N  N78  1  0.606614  0.927111  0.561030  1
  N  N79  1  0.893386  0.427111  0.061030  1
  N  N80  1  0.410925  0.034543  0.794626  1
  N  N81  1  0.813653  0.033758  0.563941  1
  N  N82  1  0.910925  0.034543  0.705374  1
  N  N83  1  0.514071  0.372488  0.893664  1
  N  N84  1  0.313653  0.033758  0.936059  1
  N  N85  1  0.393386  0.427111  0.438970  1
  N  N86  1  0.186347  0.533758  0.436059  1
  N  N87  1  0.686347  0.966242  0.063941  1
  Cl  Cl88  1  0.127579  0.250000  0.974541  1
  Cl  Cl89  1  0.589497  0.875984  0.369601  1
  Cl  Cl90  1  0.121536  0.250000  0.433399  1
  Cl  Cl91  1  0.627579  0.250000  0.525459  1
  Cl  Cl92  1  0.589497  0.624016  0.369601  1
  Cl  Cl93  1  0.983771  0.750000  0.727090  1
  Cl  Cl94  1  0.325708  0.376762  0.111944  1
  Cl  Cl95  1  0.372421  0.750000  0.474541  1
  Cl  Cl96  1  0.674292  0.623238  0.888056  1
  Cl  Cl97  1  0.197247  0.250000  0.810735  1
  Cl  Cl98  1  0.302753  0.750000  0.310735  1
  Cl  Cl99  1  0.802753  0.750000  0.189265  1
  Cl  Cl100  1  0.878464  0.750000  0.566601  1
  Cl  Cl101  1  0.516229  0.250000  0.227090  1
  Cl  Cl102  1  0.089497  0.624016  0.130399  1
  Cl  Cl103  1  0.825708  0.123238  0.388056  1
  Cl  Cl104  1  0.674292  0.876762  0.888056  1
  Cl  Cl105  1  0.174292  0.623238  0.611944  1
  Cl  Cl106  1  0.483771  0.750000  0.772910  1
  Cl  Cl107  1  0.872421  0.750000  0.025459  1
  Cl  Cl108  1  0.174292  0.876762  0.611944  1
  Cl  Cl109  1  0.089497  0.875984  0.130399  1
  Cl  Cl110  1  0.325708  0.123238  0.111944  1
  Cl  Cl111  1  0.697247  0.250000  0.689265  1
  Cl  Cl112  1  0.016229  0.250000  0.272910  1
  Cl  Cl113  1  0.825708  0.376762  0.388056  1
  Cl  Cl114  1  0.621536  0.250000  0.066601  1
  Cl  Cl115  1  0.910503  0.124016  0.869601  1
  Cl  Cl116  1  0.410503  0.375984  0.630399  1
  Cl  Cl117  1  0.410503  0.124016  0.630399  1
  Cl  Cl118  1  0.910503  0.375984  0.869601  1
  Cl  Cl119  1  0.378464  0.750000  0.933399  1
