# generated using pymatgen
data_Na3LaV2O8
_symmetry_space_group_name_H-M   'P 1'
_cell_length_a   5.71183623
_cell_length_b   14.31106440
_cell_length_c   20.00066437
_cell_angle_alpha   90.00000000
_cell_angle_beta   90.00000000
_cell_angle_gamma   90.00000000
_symmetry_Int_Tables_number   1
_chemical_formula_structural   Na3LaV2O8
_chemical_formula_sum   'Na24 La8 V16 O64'
_cell_volume   1634.90342983
_cell_formula_units_Z   8
loop_
 _symmetry_equiv_pos_site_id
 _symmetry_equiv_pos_as_xyz
  1  'x, y, z'
loop_
 _atom_site_type_symbol
 _atom_site_label
 _atom_site_symmetry_multiplicity
 _atom_site_fract_x
 _atom_site_fract_y
 _atom_site_fract_z
 _atom_site_occupancy
  Na  Na0  1  0.973916  0.784271  0.919983  1
  Na  Na1  1  0.455572  0.532336  0.814880  1
  Na  Na2  1  0.547997  0.703281  0.662083  1
  Na  Na3  1  0.026084  0.284271  0.919983  1
  Na  Na4  1  0.544428  0.032336  0.814880  1
  Na  Na5  1  0.547997  0.796719  0.162083  1
  Na  Na6  1  0.983057  0.364474  0.250866  1
  Na  Na7  1  0.510371  0.614605  0.479852  1
  Na  Na8  1  0.035439  0.953180  0.070284  1
  Na  Na9  1  0.964561  0.046820  0.570284  1
  Na  Na10  1  0.452003  0.296719  0.162083  1
  Na  Na11  1  0.510371  0.885395  0.979852  1
  Na  Na12  1  0.452003  0.203281  0.662083  1
  Na  Na13  1  0.489629  0.114605  0.479852  1
  Na  Na14  1  0.035439  0.546820  0.570284  1
  Na  Na15  1  0.455572  0.967664  0.314880  1
  Na  Na16  1  0.964561  0.453180  0.070284  1
  Na  Na17  1  0.544428  0.467664  0.314880  1
  Na  Na18  1  0.016943  0.635526  0.750866  1
  Na  Na19  1  0.026084  0.215729  0.419983  1
  Na  Na20  1  0.016943  0.864474  0.250866  1
  Na  Na21  1  0.973916  0.715729  0.419983  1
  Na  Na22  1  0.489629  0.385395  0.979852  1
  Na  Na23  1  0.983057  0.135526  0.750866  1
  La  La24  1  0.925205  0.388314  0.730879  1
  La  La25  1  0.074795  0.611686  0.230879  1
  La  La26  1  0.563612  0.138248  0.998352  1
  La  La27  1  0.436388  0.638248  0.998352  1
  La  La28  1  0.563612  0.361752  0.498352  1
  La  La29  1  0.074795  0.888314  0.730879  1
  La  La30  1  0.436388  0.861752  0.498352  1
  La  La31  1  0.925205  0.111686  0.230879  1
  V  V32  1  0.474462  0.022564  0.150567  1
  V  V33  1  0.015368  0.227244  0.079269  1
  V  V34  1  0.962909  0.526041  0.906479  1
  V  V35  1  0.037091  0.026041  0.906479  1
  V  V36  1  0.015368  0.272756  0.579269  1
  V  V37  1  0.525538  0.522564  0.150567  1
  V  V38  1  0.545777  0.724884  0.323096  1
  V  V39  1  0.984632  0.772756  0.579269  1
  V  V40  1  0.525538  0.977436  0.650567  1
  V  V41  1  0.984632  0.727244  0.079269  1
  V  V42  1  0.962909  0.973959  0.406479  1
  V  V43  1  0.037091  0.473959  0.406479  1
  V  V44  1  0.454223  0.275116  0.823096  1
  V  V45  1  0.454223  0.224884  0.323096  1
  V  V46  1  0.545777  0.775116  0.823096  1
  V  V47  1  0.474462  0.477436  0.650567  1
  O  O48  1  0.303525  0.037039  0.692202  1
  O  O49  1  0.531588  0.752694  0.909001  1
  O  O50  1  0.796295  0.003795  0.686637  1
  O  O51  1  0.544755  0.360919  0.658823  1
  O  O52  1  0.600334  0.120224  0.306960  1
  O  O53  1  0.468412  0.252694  0.909001  1
  O  O54  1  0.984123  0.002318  0.821942  1
  O  O55  1  0.105922  0.630883  0.924323  1
  O  O56  1  0.544755  0.139081  0.158823  1
  O  O57  1  0.909488  0.941051  0.955801  1
  O  O58  1  0.468412  0.247306  0.409001  1
  O  O59  1  0.015877  0.502318  0.821942  1
  O  O60  1  0.154721  0.284539  0.802203  1
  O  O61  1  0.465587  0.994871  0.065267  1
  O  O62  1  0.289297  0.252945  0.044843  1
  O  O63  1  0.339835  0.035843  0.923203  1
  O  O64  1  0.090512  0.441051  0.955801  1
  O  O65  1  0.303525  0.462961  0.192202  1
  O  O66  1  0.015877  0.997682  0.321942  1
  O  O67  1  0.289297  0.247055  0.544843  1
  O  O68  1  0.944040  0.389376  0.573146  1
  O  O69  1  0.845279  0.784539  0.802203  1
  O  O70  1  0.796295  0.496205  0.186637  1
  O  O71  1  0.982616  0.757448  0.163922  1
  O  O72  1  0.660165  0.535843  0.923203  1
  O  O73  1  0.798047  0.214021  0.534786  1
  O  O74  1  0.090512  0.058949  0.455801  1
  O  O75  1  0.534413  0.494871  0.065267  1
  O  O76  1  0.710703  0.752945  0.044843  1
  O  O77  1  0.455245  0.639081  0.158823  1
  O  O78  1  0.600334  0.379776  0.806960  1
  O  O79  1  0.201953  0.785979  0.034786  1
  O  O80  1  0.055960  0.610624  0.073146  1
  O  O81  1  0.055960  0.889376  0.573146  1
  O  O82  1  0.339835  0.464157  0.423203  1
  O  O83  1  0.534413  0.005129  0.565267  1
  O  O84  1  0.894078  0.369117  0.424323  1
  O  O85  1  0.982616  0.742552  0.663922  1
  O  O86  1  0.203705  0.503795  0.686637  1
  O  O87  1  0.660165  0.964157  0.423203  1
  O  O88  1  0.586598  0.310995  0.276152  1
  O  O89  1  0.696475  0.962961  0.192202  1
  O  O90  1  0.399666  0.879776  0.806960  1
  O  O91  1  0.465587  0.505129  0.565267  1
  O  O92  1  0.798047  0.285979  0.034786  1
  O  O93  1  0.531588  0.747306  0.409001  1
  O  O94  1  0.894078  0.130883  0.924323  1
  O  O95  1  0.455245  0.860919  0.658823  1
  O  O96  1  0.203705  0.996205  0.186637  1
  O  O97  1  0.909488  0.558949  0.455801  1
  O  O98  1  0.017384  0.242552  0.663922  1
  O  O99  1  0.413402  0.810995  0.276152  1
  O  O100  1  0.586598  0.189005  0.776152  1
  O  O101  1  0.696475  0.537039  0.692202  1
  O  O102  1  0.413402  0.689005  0.776152  1
  O  O103  1  0.201953  0.714021  0.534786  1
  O  O104  1  0.944040  0.110624  0.073146  1
  O  O105  1  0.984123  0.497682  0.321942  1
  O  O106  1  0.154721  0.215461  0.302203  1
  O  O107  1  0.399666  0.620224  0.306960  1
  O  O108  1  0.017384  0.257448  0.163922  1
  O  O109  1  0.710703  0.747055  0.544843  1
  O  O110  1  0.105922  0.869117  0.424323  1
  O  O111  1  0.845279  0.715461  0.302203  1
