# generated using pymatgen
data_Ca(LuS2)2
_symmetry_space_group_name_H-M   'P 1'
_cell_length_a   3.83602336
_cell_length_b   12.79064123
_cell_length_c   12.98780839
_cell_angle_alpha   90.00000000
_cell_angle_beta   90.00000000
_cell_angle_gamma   90.00000000
_symmetry_Int_Tables_number   1
_chemical_formula_structural   Ca(LuS2)2
_chemical_formula_sum   'Ca4 Lu8 S16'
_cell_volume   637.24939735
_cell_formula_units_Z   4
loop_
 _symmetry_equiv_pos_site_id
 _symmetry_equiv_pos_as_xyz
  1  'x, y, z'
loop_
 _atom_site_type_symbol
 _atom_site_label
 _atom_site_symmetry_multiplicity
 _atom_site_fract_x
 _atom_site_fract_y
 _atom_site_fract_z
 _atom_site_occupancy
  Ca  Ca0  1  0.750000  0.868567  0.083448  1
  Ca  Ca1  1  0.250000  0.131433  0.916552  1
  Ca  Ca2  1  0.750000  0.368567  0.416552  1
  Ca  Ca3  1  0.250000  0.631433  0.583448  1
  Lu  Lu4  1  0.750000  0.606827  0.916689  1
  Lu  Lu5  1  0.250000  0.393173  0.083311  1
  Lu  Lu6  1  0.750000  0.106827  0.583311  1
  Lu  Lu7  1  0.250000  0.893173  0.416689  1
  Lu  Lu8  1  0.750000  0.646883  0.297563  1
  Lu  Lu9  1  0.250000  0.353117  0.702437  1
  Lu  Lu10  1  0.750000  0.146883  0.202437  1
  Lu  Lu11  1  0.250000  0.853117  0.797563  1
  S  S12  1  0.750000  0.718062  0.738291  1
  S  S13  1  0.250000  0.281938  0.261709  1
  S  S14  1  0.750000  0.218062  0.761709  1
  S  S15  1  0.250000  0.781938  0.238291  1
  S  S16  1  0.750000  0.758152  0.472565  1
  S  S17  1  0.250000  0.241848  0.527435  1
  S  S18  1  0.750000  0.258152  0.027435  1
  S  S19  1  0.250000  0.741848  0.972565  1
  S  S20  1  0.750000  0.969370  0.880478  1
  S  S21  1  0.250000  0.030630  0.119522  1
  S  S22  1  0.750000  0.469370  0.619522  1
  S  S23  1  0.250000  0.530630  0.380478  1
  S  S24  1  0.750000  0.534193  0.117558  1
  S  S25  1  0.250000  0.465807  0.882442  1
  S  S26  1  0.750000  0.034193  0.382442  1
  S  S27  1  0.250000  0.965807  0.617558  1
