# generated using pymatgen
data_Yb2PbAu2
_symmetry_space_group_name_H-M   'P 1'
_cell_length_a   8.18857859
_cell_length_b   8.18857859
_cell_length_c   7.31990025
_cell_angle_alpha   90.00000000
_cell_angle_beta   90.00000000
_cell_angle_gamma   90.00000000
_symmetry_Int_Tables_number   1
_chemical_formula_structural   Yb2PbAu2
_chemical_formula_sum   'Yb8 Pb4 Au8'
_cell_volume   490.81994894
_cell_formula_units_Z   4
loop_
 _symmetry_equiv_pos_site_id
 _symmetry_equiv_pos_as_xyz
  1  'x, y, z'
loop_
 _atom_site_type_symbol
 _atom_site_label
 _atom_site_symmetry_multiplicity
 _atom_site_fract_x
 _atom_site_fract_y
 _atom_site_fract_z
 _atom_site_occupancy
  Yb  Yb0  1  0.679199  0.320801  0.000000  1
  Yb  Yb1  1  0.820801  0.820801  0.500000  1
  Yb  Yb2  1  0.179199  0.179199  0.500000  1
  Yb  Yb3  1  0.320801  0.679199  0.000000  1
  Yb  Yb4  1  0.165083  0.165083  0.000000  1
  Yb  Yb5  1  0.665083  0.334917  0.500000  1
  Yb  Yb6  1  0.334917  0.665083  0.500000  1
  Yb  Yb7  1  0.834917  0.834917  0.000000  1
  Pb  Pb8  1  0.500000  0.000000  0.250000  1
  Pb  Pb9  1  0.500000  0.000000  0.750000  1
  Pb  Pb10  1  0.000000  0.500000  0.250000  1
  Pb  Pb11  1  0.000000  0.500000  0.750000  1
  Au  Au12  1  0.375880  0.375880  0.236069  1
  Au  Au13  1  0.875880  0.124120  0.736069  1
  Au  Au14  1  0.124120  0.875880  0.736069  1
  Au  Au15  1  0.624120  0.624120  0.236069  1
  Au  Au16  1  0.124120  0.875880  0.263931  1
  Au  Au17  1  0.875880  0.124120  0.263931  1
  Au  Au18  1  0.375880  0.375880  0.763931  1
  Au  Au19  1  0.624120  0.624120  0.763931  1
