# generated using pymatgen
data_ZrTlCdF7
_symmetry_space_group_name_H-M   'P 1'
_cell_length_a   6.64345632
_cell_length_b   6.64345632
_cell_length_c   8.65134498
_cell_angle_alpha   90.00000000
_cell_angle_beta   90.00000000
_cell_angle_gamma   116.98728127
_symmetry_Int_Tables_number   1
_chemical_formula_structural   ZrTlCdF7
_chemical_formula_sum   'Zr2 Tl2 Cd2 F14'
_cell_volume   340.25286411
_cell_formula_units_Z   2
loop_
 _symmetry_equiv_pos_site_id
 _symmetry_equiv_pos_as_xyz
  1  'x, y, z'
loop_
 _atom_site_type_symbol
 _atom_site_label
 _atom_site_symmetry_multiplicity
 _atom_site_fract_x
 _atom_site_fract_y
 _atom_site_fract_z
 _atom_site_occupancy
  Zr  Zr0  1  0.808691  0.191309  0.750000  1
  Zr  Zr1  1  0.191309  0.808691  0.250000  1
  Tl  Tl2  1  0.500000  0.500000  0.000000  1
  Tl  Tl3  1  0.500000  0.500000  0.500000  1
  Cd  Cd4  1  0.192011  0.807988  0.750000  1
  Cd  Cd5  1  0.807988  0.192012  0.250000  1
  F  F6  1  0.200936  0.799064  0.013652  1
  F  F7  1  0.563840  0.845057  0.750000  1
  F  F8  1  0.154943  0.436160  0.750000  1
  F  F9  1  0.436160  0.154943  0.250000  1
  F  F10  1  0.200936  0.799064  0.486348  1
  F  F11  1  0.799064  0.200936  0.986348  1
  F  F12  1  0.523334  0.830148  0.250000  1
  F  F13  1  0.169852  0.476666  0.250000  1
  F  F14  1  0.845057  0.563840  0.250000  1
  F  F15  1  0.830148  0.523334  0.750000  1
  F  F16  1  0.799064  0.200936  0.513652  1
  F  F17  1  0.476666  0.169852  0.750000  1
  F  F18  1  0.990605  0.009395  0.750000  1
  F  F19  1  0.009395  0.990605  0.250000  1
