# generated using pymatgen
data_NaY(IO3)4
_symmetry_space_group_name_H-M   'P 1'
_cell_length_a   16.12048715
_cell_length_b   16.12048715
_cell_length_c   12.64819236
_cell_angle_alpha   89.18699650
_cell_angle_beta   90.81300350
_cell_angle_gamma   159.80284325
_symmetry_Int_Tables_number   1
_chemical_formula_structural   NaY(IO3)4
_chemical_formula_sum   'Na4 Y4 I16 O48'
_cell_volume   1134.68524914
_cell_formula_units_Z   4
loop_
 _symmetry_equiv_pos_site_id
 _symmetry_equiv_pos_as_xyz
  1  'x, y, z'
loop_
 _atom_site_type_symbol
 _atom_site_label
 _atom_site_symmetry_multiplicity
 _atom_site_fract_x
 _atom_site_fract_y
 _atom_site_fract_z
 _atom_site_occupancy
  Na  Na0  1  0.406414  0.034398  0.970686  1
  Na  Na1  1  0.838064  0.615942  0.065075  1
  Na  Na2  1  0.965602  0.593586  0.470686  1
  Na  Na3  1  0.384058  0.161936  0.565075  1
  Y  Y4  1  0.437808  0.984076  0.676207  1
  Y  Y5  1  0.015924  0.562192  0.176207  1
  Y  Y6  1  0.212192  0.167274  0.170487  1
  Y  Y7  1  0.832726  0.787808  0.670487  1
  I  I8  1  0.885448  0.716541  0.375549  1
  I  I9  1  0.705173  0.697028  0.964508  1
  I  I10  1  0.302972  0.294827  0.464508  1
  I  I11  1  0.210523  0.320043  0.768957  1
  I  I12  1  0.400524  0.115527  0.216994  1
  I  I13  1  0.561935  0.955884  0.084318  1
  I  I14  1  0.939051  0.445436  0.880365  1
  I  I15  1  0.679957  0.789477  0.268957  1
  I  I16  1  0.884473  0.599476  0.716994  1
  I  I17  1  0.157980  0.473107  0.312503  1
  I  I18  1  0.079069  0.267469  0.038169  1
  I  I19  1  0.732531  0.920931  0.538169  1
  I  I20  1  0.554564  0.060949  0.380365  1
  I  I21  1  0.526893  0.842020  0.812503  1
  I  I22  1  0.283459  0.114552  0.875549  1
  I  I23  1  0.044116  0.438065  0.584318  1
  O  O24  1  0.103933  0.858223  0.920294  1
  O  O25  1  0.674025  0.331486  0.650950  1
  O  O26  1  0.808902  0.362058  0.333150  1
  O  O27  1  0.902893  0.097329  0.916085  1
  O  O28  1  0.355882  0.595971  0.230568  1
  O  O29  1  0.975615  0.816687  0.235852  1
  O  O30  1  0.872568  0.131868  0.122277  1
  O  O31  1  0.340709  0.653989  0.432272  1
  O  O32  1  0.364096  0.294434  0.342816  1
  O  O33  1  0.902816  0.990949  0.593090  1
  O  O34  1  0.123791  0.045722  0.534501  1
  O  O35  1  0.009051  0.097184  0.093090  1
  O  O36  1  0.464212  0.409728  0.024155  1
  O  O37  1  0.590272  0.535788  0.524155  1
  O  O38  1  0.538015  0.105556  0.501425  1
  O  O39  1  0.954278  0.876209  0.034501  1
  O  O40  1  0.742740  0.143004  0.963933  1
  O  O41  1  0.404029  0.644118  0.730568  1
  O  O42  1  0.444571  0.500616  0.680313  1
  O  O43  1  0.417173  0.230823  0.142100  1
  O  O44  1  0.141777  0.896067  0.420294  1
  O  O45  1  0.116498  0.692609  0.807948  1
  O  O46  1  0.148560  0.820611  0.633709  1
  O  O47  1  0.232704  0.645243  0.250020  1
  O  O48  1  0.856996  0.257260  0.463933  1
  O  O49  1  0.894444  0.461985  0.001425  1
  O  O50  1  0.705566  0.635904  0.842816  1
  O  O51  1  0.516675  0.617837  0.393933  1
  O  O52  1  0.328604  0.816539  0.056661  1
  O  O53  1  0.307391  0.883502  0.307948  1
  O  O54  1  0.868132  0.127432  0.622277  1
  O  O55  1  0.668514  0.325975  0.150950  1
  O  O56  1  0.183461  0.671396  0.556661  1
  O  O57  1  0.047586  0.068398  0.795051  1
  O  O58  1  0.743842  0.187401  0.177783  1
  O  O59  1  0.183313  0.024385  0.735852  1
  O  O60  1  0.678494  0.434266  0.369550  1
  O  O61  1  0.499384  0.555429  0.180313  1
  O  O62  1  0.931602  0.952414  0.295051  1
  O  O63  1  0.812599  0.256157  0.677783  1
  O  O64  1  0.769177  0.582827  0.642100  1
  O  O65  1  0.565734  0.321506  0.869550  1
  O  O66  1  0.354757  0.767296  0.750020  1
  O  O67  1  0.382163  0.483325  0.893933  1
  O  O68  1  0.637942  0.191098  0.833150  1
  O  O69  1  0.346011  0.659291  0.932272  1
  O  O70  1  0.179389  0.851440  0.133709  1
  O  O71  1  0.902671  0.097107  0.416085  1
