# generated using pymatgen
data_Ba2BN2Cl
_symmetry_space_group_name_H-M   'P 1'
_cell_length_a   12.88779601
_cell_length_b   12.88779601
_cell_length_c   12.88779601
_cell_angle_alpha   109.47122063
_cell_angle_beta   109.47122063
_cell_angle_gamma   109.47122063
_symmetry_Int_Tables_number   1
_chemical_formula_structural   Ba2BN2Cl
_chemical_formula_sum   'Ba24 B12 N24 Cl12'
_cell_volume   1647.83631397
_cell_formula_units_Z   12
loop_
 _symmetry_equiv_pos_site_id
 _symmetry_equiv_pos_as_xyz
  1  'x, y, z'
loop_
 _atom_site_type_symbol
 _atom_site_label
 _atom_site_symmetry_multiplicity
 _atom_site_fract_x
 _atom_site_fract_y
 _atom_site_fract_z
 _atom_site_occupancy
  Ba  Ba0  1  0.409120  0.659120  0.750000  1
  Ba  Ba1  1  0.437427  0.437427  0.437427  1
  Ba  Ba2  1  0.840880  0.090880  0.750000  1
  Ba  Ba3  1  0.409120  0.250000  0.659120  1
  Ba  Ba4  1  0.062573  0.500000  1.000000  1
  Ba  Ba5  1  0.500000  0.000000  0.437427  1
  Ba  Ba6  1  0.659120  0.409120  0.250000  1
  Ba  Ba7  1  0.090880  0.840880  0.250000  1
  Ba  Ba8  1  0.250000  0.659120  0.409120  1
  Ba  Ba9  1  0.000000  0.062573  0.500000  1
  Ba  Ba10  1  0.250000  0.090880  0.840880  1
  Ba  Ba11  1  0.750000  0.840880  0.090880  1
  Ba  Ba12  1  0.062573  0.062573  0.062573  1
  Ba  Ba13  1  0.750000  0.500000  1.000000  1
  Ba  Ba14  1  0.659120  0.750000  0.409120  1
  Ba  Ba15  1  0.500000  0.000000  0.062573  1
  Ba  Ba16  1  0.840880  0.250000  0.090880  1
  Ba  Ba17  1  0.000000  0.437427  0.500000  1
  Ba  Ba18  1  0.090880  0.750000  0.840880  1
  Ba  Ba19  1  0.750000  0.409120  0.659120  1
  Ba  Ba20  1  0.437427  0.500000  1.000000  1
  Ba  Ba21  1  0.750000  0.750000  0.750000  1
  Ba  Ba22  1  0.000000  0.750000  0.500000  1
  Ba  Ba23  1  0.500000  0.000000  0.750000  1
  B  B24  1  0.921886  0.710943  0.960943  1
  B  B25  1  0.250000  0.960943  0.539057  1
  B  B26  1  0.960943  0.921886  0.710943  1
  B  B27  1  0.789057  0.578114  0.539057  1
  B  B28  1  0.710943  0.250000  0.789057  1
  B  B29  1  0.250000  0.789057  0.710943  1
  B  B30  1  0.710943  0.960943  0.921886  1
  B  B31  1  0.539057  0.789057  0.578114  1
  B  B32  1  0.578114  0.539057  0.789057  1
  B  B33  1  0.960943  0.539057  0.250000  1
  B  B34  1  0.539057  0.250000  0.960943  1
  B  B35  1  0.789057  0.710943  0.250000  1
  N  N36  1  0.576160  0.482031  0.679163  1
  N  N37  1  0.576160  0.594129  0.896997  1
  N  N38  1  0.905871  0.923840  0.603003  1
  N  N39  1  0.197132  0.017969  0.594129  1
  N  N40  1  0.820837  0.017969  0.923840  1
  N  N41  1  0.679163  0.576160  0.482031  1
  N  N42  1  0.197132  0.679163  0.603003  1
  N  N43  1  0.017969  0.923840  0.820837  1
  N  N44  1  0.820837  0.302868  0.896997  1
  N  N45  1  0.923840  0.820837  0.017969  1
  N  N46  1  0.302868  0.905871  0.482031  1
  N  N47  1  0.482031  0.679163  0.576160  1
  N  N48  1  0.302868  0.896997  0.820837  1
  N  N49  1  0.482031  0.302868  0.905871  1
  N  N50  1  0.603003  0.905871  0.923840  1
  N  N51  1  0.905871  0.482031  0.302868  1
  N  N52  1  0.594129  0.896997  0.576160  1
  N  N53  1  0.896997  0.820837  0.302868  1
  N  N54  1  0.896997  0.576160  0.594129  1
  N  N55  1  0.603003  0.197132  0.679163  1
  N  N56  1  0.679163  0.603003  0.197132  1
  N  N57  1  0.017969  0.594129  0.197132  1
  N  N58  1  0.923840  0.603003  0.905871  1
  N  N59  1  0.594129  0.197132  0.017969  1
  Cl  Cl60  1  0.140848  0.359152  0.250000  1
  Cl  Cl61  1  0.890848  0.140848  0.281697  1
  Cl  Cl62  1  0.250000  0.140848  0.359152  1
  Cl  Cl63  1  0.890848  0.250000  0.609152  1
  Cl  Cl64  1  0.609152  0.890848  0.250000  1
  Cl  Cl65  1  0.281697  0.890848  0.140848  1
  Cl  Cl66  1  0.359152  0.609152  0.218303  1
  Cl  Cl67  1  0.609152  0.218303  0.359152  1
  Cl  Cl68  1  0.218303  0.359152  0.609152  1
  Cl  Cl69  1  0.140848  0.281697  0.890848  1
  Cl  Cl70  1  0.250000  0.609152  0.890848  1
  Cl  Cl71  1  0.359152  0.250000  0.140848  1
