# generated using pymatgen
data_AsIF12
_symmetry_space_group_name_H-M   'P 1'
_cell_length_a   9.62576817
_cell_length_b   9.62576817
_cell_length_c   9.62576817
_cell_angle_alpha   90.00000000
_cell_angle_beta   90.00000000
_cell_angle_gamma   90.00000000
_symmetry_Int_Tables_number   1
_chemical_formula_structural   AsIF12
_chemical_formula_sum   'As4 I4 F48'
_cell_volume   891.87952391
_cell_formula_units_Z   4
loop_
 _symmetry_equiv_pos_site_id
 _symmetry_equiv_pos_as_xyz
  1  'x, y, z'
loop_
 _atom_site_type_symbol
 _atom_site_label
 _atom_site_symmetry_multiplicity
 _atom_site_fract_x
 _atom_site_fract_y
 _atom_site_fract_z
 _atom_site_occupancy
  As  As0  1  0.000000  0.000000  0.500000  1
  As  As1  1  0.000000  0.500000  0.000000  1
  As  As2  1  0.500000  0.000000  0.000000  1
  As  As3  1  0.500000  0.500000  0.500000  1
  I  I4  1  0.000000  0.000000  0.000000  1
  I  I5  1  0.500000  0.000000  0.500000  1
  I  I6  1  0.500000  0.500000  0.000000  1
  I  I7  1  0.000000  0.500000  0.500000  1
  F  F8  1  0.883977  0.636815  0.562044  1
  F  F9  1  0.440431  0.602544  0.641549  1
  F  F10  1  0.897456  0.358451  0.940431  1
  F  F11  1  0.116023  0.136815  0.937956  1
  F  F12  1  0.363185  0.437956  0.116023  1
  F  F13  1  0.383977  0.863185  0.437956  1
  F  F14  1  0.358451  0.940431  0.897456  1
  F  F15  1  0.059569  0.397456  0.141549  1
  F  F16  1  0.363185  0.062044  0.616023  1
  F  F17  1  0.883977  0.863185  0.062044  1
  F  F18  1  0.059569  0.102544  0.641549  1
  F  F19  1  0.559569  0.397456  0.358451  1
  F  F20  1  0.863185  0.062044  0.883977  1
  F  F21  1  0.437956  0.116023  0.363185  1
  F  F22  1  0.141549  0.440431  0.897456  1
  F  F23  1  0.636815  0.562044  0.883977  1
  F  F24  1  0.636815  0.937956  0.383977  1
  F  F25  1  0.641549  0.059569  0.102544  1
  F  F26  1  0.616023  0.363185  0.062044  1
  F  F27  1  0.858451  0.940431  0.602544  1
  F  F28  1  0.937956  0.116023  0.136815  1
  F  F29  1  0.062044  0.616023  0.363185  1
  F  F30  1  0.102544  0.641549  0.059569  1
  F  F31  1  0.559569  0.102544  0.858451  1
  F  F32  1  0.641549  0.440431  0.602544  1
  F  F33  1  0.136815  0.562044  0.616023  1
  F  F34  1  0.397456  0.141549  0.059569  1
  F  F35  1  0.141549  0.059569  0.397456  1
  F  F36  1  0.062044  0.883977  0.863185  1
  F  F37  1  0.440431  0.897456  0.141549  1
  F  F38  1  0.136815  0.937956  0.116023  1
  F  F39  1  0.383977  0.636815  0.937956  1
  F  F40  1  0.858451  0.559569  0.102544  1
  F  F41  1  0.897456  0.141549  0.440431  1
  F  F42  1  0.863185  0.437956  0.383977  1
  F  F43  1  0.602544  0.641549  0.440431  1
  F  F44  1  0.602544  0.858451  0.940431  1
  F  F45  1  0.116023  0.363185  0.437956  1
  F  F46  1  0.562044  0.616023  0.136815  1
  F  F47  1  0.437956  0.383977  0.863185  1
  F  F48  1  0.358451  0.559569  0.397456  1
  F  F49  1  0.940431  0.602544  0.858451  1
  F  F50  1  0.616023  0.136815  0.562044  1
  F  F51  1  0.937956  0.383977  0.636815  1
  F  F52  1  0.940431  0.897456  0.358451  1
  F  F53  1  0.397456  0.358451  0.559569  1
  F  F54  1  0.102544  0.858451  0.559569  1
  F  F55  1  0.562044  0.883977  0.636815  1
