# generated using pymatgen
data_Li2Cr3(P2O7)2
_symmetry_space_group_name_H-M   'P 1'
_cell_length_a   6.09204839
_cell_length_b   6.64849644
_cell_length_c   7.46470497
_cell_angle_alpha   75.27069402
_cell_angle_beta   77.54137463
_cell_angle_gamma   71.69815162
_symmetry_Int_Tables_number   1
_chemical_formula_structural   Li2Cr3(P2O7)2
_chemical_formula_sum   'Li2 Cr3 P4 O14'
_cell_volume   274.55855259
_cell_formula_units_Z   1
loop_
 _symmetry_equiv_pos_site_id
 _symmetry_equiv_pos_as_xyz
  1  'x, y, z'
loop_
 _atom_site_type_symbol
 _atom_site_label
 _atom_site_symmetry_multiplicity
 _atom_site_fract_x
 _atom_site_fract_y
 _atom_site_fract_z
 _atom_site_occupancy
  Li  Li0  1  0.614669  0.026936  0.699546  1
  Li  Li1  1  0.385331  0.973064  0.300454  1
  Cr  Cr2  1  0.780549  0.511534  0.669735  1
  Cr  Cr3  1  0.219451  0.488466  0.330265  1
  Cr  Cr4  1  0.000000  0.000000  0.000000  1
  P  P5  1  0.174599  0.746421  0.667445  1
  P  P6  1  0.353823  0.320587  0.925983  1
  P  P7  1  0.646177  0.679413  0.074017  1
  P  P8  1  0.825401  0.253579  0.332555  1
  O  O9  1  0.343884  0.290131  0.137192  1
  O  O10  1  0.594358  0.219156  0.439305  1
  O  O11  1  0.938003  0.356026  0.443674  1
  O  O12  1  0.061997  0.643974  0.556326  1
  O  O13  1  0.241078  0.173141  0.871368  1
  O  O14  1  0.758922  0.826859  0.128632  1
  O  O15  1  0.998214  0.940551  0.737732  1
  O  O16  1  0.001786  0.059449  0.262268  1
  O  O17  1  0.396688  0.711395  0.182724  1
  O  O18  1  0.656116  0.709869  0.862808  1
  O  O19  1  0.405642  0.780844  0.560695  1
  O  O20  1  0.603312  0.288605  0.817276  1
  O  O21  1  0.787207  0.429147  0.136060  1
  O  O22  1  0.212793  0.570853  0.863940  1
