# generated using pymatgen
data_Mo(SeCl6)2
_symmetry_space_group_name_H-M   'P 1'
_cell_length_a   12.94510134
_cell_length_b   12.80207758
_cell_length_c   9.00314610
_cell_angle_alpha   70.38771164
_cell_angle_beta   68.68214352
_cell_angle_gamma   40.93014484
_symmetry_Int_Tables_number   1
_chemical_formula_structural   Mo(SeCl6)2
_chemical_formula_sum   'Mo2 Se4 Cl24'
_cell_volume   906.05110701
_cell_formula_units_Z   2
loop_
 _symmetry_equiv_pos_site_id
 _symmetry_equiv_pos_as_xyz
  1  'x, y, z'
loop_
 _atom_site_type_symbol
 _atom_site_label
 _atom_site_symmetry_multiplicity
 _atom_site_fract_x
 _atom_site_fract_y
 _atom_site_fract_z
 _atom_site_occupancy
  Mo  Mo0  1  0.376357  0.376357  0.123643  1
  Mo  Mo1  1  0.126357  0.126357  0.873643  1
  Se  Se2  1  0.017406  0.571509  0.938248  1
  Se  Se3  1  0.311752  0.777164  0.232594  1
  Se  Se4  1  0.571509  0.017406  0.472836  1
  Se  Se5  1  0.777164  0.311752  0.678491  1
  Cl  Cl6  1  0.636225  0.261843  0.011725  1
  Cl  Cl7  1  0.115286  0.483405  0.232601  1
  Cl  Cl8  1  0.483405  0.115286  0.168708  1
  Cl  Cl9  1  0.859286  0.387164  0.830904  1
  Cl  Cl10  1  0.665698  0.777976  0.501923  1
  Cl  Cl11  1  0.159793  0.238275  0.988157  1
  Cl  Cl12  1  0.337418  0.899120  0.314117  1
  Cl  Cl13  1  0.019628  0.578728  0.689026  1
  Cl  Cl14  1  0.800655  0.935883  0.350880  1
  Cl  Cl15  1  0.748077  0.195597  0.584302  1
  Cl  Cl16  1  0.899120  0.337418  0.449345  1
  Cl  Cl17  1  0.327354  0.419096  0.862836  1
  Cl  Cl18  1  0.195597  0.748077  0.472024  1
  Cl  Cl19  1  0.238275  0.159793  0.613775  1
  Cl  Cl20  1  0.560974  0.537381  0.230372  1
  Cl  Cl21  1  0.777976  0.665698  0.054403  1
  Cl  Cl22  1  0.081292  0.017399  0.766595  1
  Cl  Cl23  1  0.578728  0.019628  0.712619  1
  Cl  Cl24  1  0.017399  0.081292  0.134714  1
  Cl  Cl25  1  0.261843  0.636225  0.090207  1
  Cl  Cl26  1  0.935883  0.800655  0.912582  1
  Cl  Cl27  1  0.419096  0.327354  0.390714  1
  Cl  Cl28  1  0.537381  0.560974  0.671272  1
  Cl  Cl29  1  0.387164  0.859286  0.922646  1
