# generated using pymatgen
data_TlPPbS4
_symmetry_space_group_name_H-M   'P 1'
_cell_length_a   6.66462427
_cell_length_b   8.94670977
_cell_length_c   12.52310691
_cell_angle_alpha   90.00000000
_cell_angle_beta   90.00000000
_cell_angle_gamma   90.00000000
_symmetry_Int_Tables_number   1
_chemical_formula_structural   TlPPbS4
_chemical_formula_sum   'Tl4 P4 Pb4 S16'
_cell_volume   746.70852160
_cell_formula_units_Z   4
loop_
 _symmetry_equiv_pos_site_id
 _symmetry_equiv_pos_as_xyz
  1  'x, y, z'
loop_
 _atom_site_type_symbol
 _atom_site_label
 _atom_site_symmetry_multiplicity
 _atom_site_fract_x
 _atom_site_fract_y
 _atom_site_fract_z
 _atom_site_occupancy
  Tl  Tl0  1  0.750000  0.629091  0.391704  1
  Tl  Tl1  1  0.250000  0.370909  0.608296  1
  Tl  Tl2  1  0.250000  0.129091  0.108296  1
  Tl  Tl3  1  0.750000  0.870909  0.891704  1
  P  P4  1  0.250000  0.873397  0.346922  1
  P  P5  1  0.750000  0.126603  0.653078  1
  P  P6  1  0.750000  0.373397  0.153078  1
  P  P7  1  0.250000  0.626603  0.846922  1
  Pb  Pb8  1  0.250000  0.895146  0.629601  1
  Pb  Pb9  1  0.750000  0.104854  0.370399  1
  Pb  Pb10  1  0.750000  0.395146  0.870399  1
  Pb  Pb11  1  0.250000  0.604854  0.129601  1
  S  S12  1  0.250000  0.694770  0.450237  1
  S  S13  1  0.750000  0.305230  0.549763  1
  S  S14  1  0.750000  0.194770  0.049763  1
  S  S15  1  0.250000  0.805230  0.950237  1
  S  S16  1  0.250000  0.071791  0.430914  1
  S  S17  1  0.750000  0.928209  0.569086  1
  S  S18  1  0.750000  0.571791  0.069086  1
  S  S19  1  0.250000  0.428209  0.930914  1
  S  S20  1  0.003992  0.863358  0.248497  1
  S  S21  1  0.503992  0.136642  0.751503  1
  S  S22  1  0.996008  0.363358  0.251503  1
  S  S23  1  0.496008  0.636642  0.748497  1
  S  S24  1  0.996008  0.136642  0.751503  1
  S  S25  1  0.496008  0.863358  0.248497  1
  S  S26  1  0.003992  0.636642  0.748497  1
  S  S27  1  0.503992  0.363358  0.251503  1
