# generated using pymatgen
data_Th(MoO4)2
_symmetry_space_group_name_H-M   'P 1'
_cell_length_a   17.99512965
_cell_length_b   17.99512965
_cell_length_c   6.30578873
_cell_angle_alpha   90.00000000
_cell_angle_beta   90.00000000
_cell_angle_gamma   120.00000000
_symmetry_Int_Tables_number   1
_chemical_formula_structural   Th(MoO4)2
_chemical_formula_sum   'Th9 Mo18 O72'
_cell_volume   1768.39797069
_cell_formula_units_Z   9
loop_
 _symmetry_equiv_pos_site_id
 _symmetry_equiv_pos_as_xyz
  1  'x, y, z'
loop_
 _atom_site_type_symbol
 _atom_site_label
 _atom_site_symmetry_multiplicity
 _atom_site_fract_x
 _atom_site_fract_y
 _atom_site_fract_z
 _atom_site_occupancy
  Th  Th0  1  0.333732  0.000318  0.246851  1
  Th  Th1  1  0.999682  0.333414  0.246851  1
  Th  Th2  1  0.666667  0.333333  0.496320  1
  Th  Th3  1  0.000318  0.666586  0.753149  1
  Th  Th4  1  0.333333  0.666667  0.503680  1
  Th  Th5  1  0.666268  0.999682  0.753149  1
  Th  Th6  1  0.666586  0.666268  0.246851  1
  Th  Th7  1  0.333414  0.333732  0.753149  1
  Th  Th8  1  0.000000  0.000000  0.000000  1
  Mo  Mo9  1  0.102603  0.503816  0.742873  1
  Mo  Mo10  1  0.170444  0.734423  0.240959  1
  Mo  Mo11  1  0.265577  0.436021  0.240959  1
  Mo  Mo12  1  0.231167  0.164799  0.257673  1
  Mo  Mo13  1  0.164799  0.933632  0.742327  1
  Mo  Mo14  1  0.066368  0.231167  0.742327  1
  Mo  Mo15  1  0.829556  0.265577  0.759041  1
  Mo  Mo16  1  0.563979  0.829556  0.240959  1
  Mo  Mo17  1  0.401213  0.897397  0.742873  1
  Mo  Mo18  1  0.503816  0.401213  0.257127  1
  Mo  Mo19  1  0.496184  0.598787  0.742873  1
  Mo  Mo20  1  0.598787  0.102603  0.257127  1
  Mo  Mo21  1  0.835201  0.066368  0.257673  1
  Mo  Mo22  1  0.897397  0.496184  0.257127  1
  Mo  Mo23  1  0.734423  0.563979  0.759041  1
  Mo  Mo24  1  0.436021  0.170444  0.759041  1
  Mo  Mo25  1  0.768833  0.835201  0.742327  1
  Mo  Mo26  1  0.933632  0.768833  0.257673  1
  O  O27  1  0.546952  0.253352  0.706079  1
  O  O28  1  0.587654  0.372602  0.282886  1
  O  O29  1  0.757784  0.787185  0.487515  1
  O  O30  1  0.036109  0.119388  0.792449  1
  O  O31  1  0.216906  0.847307  0.220698  1
  O  O32  1  0.881856  0.179348  0.238920  1
  O  O33  1  0.632151  0.082021  0.007720  1
  O  O34  1  0.630401  0.783094  0.220698  1
  O  O35  1  0.083279  0.963891  0.792449  1
  O  O36  1  0.297492  0.118144  0.238920  1
  O  O37  1  0.702508  0.881856  0.761080  1
  O  O38  1  0.242216  0.212815  0.512485  1
  O  O39  1  0.654089  0.081789  0.463997  1
  O  O40  1  0.917979  0.550129  0.007720  1
  O  O41  1  0.696606  0.599181  0.541260  1
  O  O42  1  0.453048  0.746648  0.293921  1
  O  O43  1  0.246606  0.983966  0.940050  1
  O  O44  1  0.549044  0.513612  0.287008  1
  O  O45  1  0.303394  0.400819  0.458740  1
  O  O46  1  0.599181  0.902575  0.458740  1
  O  O47  1  0.550129  0.632151  0.992280  1
  O  O48  1  0.570749  0.887217  0.003026  1
  O  O49  1  0.572300  0.654089  0.536003  1
  O  O50  1  0.215052  0.587654  0.717114  1
  O  O51  1  0.513612  0.964568  0.712992  1
  O  O52  1  0.784948  0.412346  0.282886  1
  O  O53  1  0.029401  0.242216  0.487515  1
  O  O54  1  0.345911  0.918211  0.536003  1
  O  O55  1  0.427700  0.345911  0.463997  1
  O  O56  1  0.706400  0.453048  0.706079  1
  O  O57  1  0.880612  0.916721  0.792449  1
  O  O58  1  0.916721  0.036109  0.207551  1
  O  O59  1  0.783094  0.152693  0.779302  1
  O  O60  1  0.118144  0.820652  0.761080  1
  O  O61  1  0.887217  0.316469  0.996974  1
  O  O62  1  0.035432  0.549044  0.712992  1
  O  O63  1  0.316469  0.429251  0.003026  1
  O  O64  1  0.450956  0.486388  0.712992  1
  O  O65  1  0.983966  0.737360  0.059950  1
  O  O66  1  0.449871  0.367849  0.007720  1
  O  O67  1  0.372602  0.784948  0.717114  1
  O  O68  1  0.970599  0.757784  0.512485  1
  O  O69  1  0.369599  0.216906  0.779302  1
  O  O70  1  0.847307  0.630401  0.779302  1
  O  O71  1  0.918211  0.572300  0.463997  1
  O  O72  1  0.787185  0.029401  0.512485  1
  O  O73  1  0.081789  0.427700  0.536003  1
  O  O74  1  0.737360  0.753394  0.940050  1
  O  O75  1  0.293600  0.546952  0.293921  1
  O  O76  1  0.119388  0.083279  0.207551  1
  O  O77  1  0.097425  0.696606  0.458740  1
  O  O78  1  0.400819  0.097425  0.541260  1
  O  O79  1  0.016034  0.262640  0.940050  1
  O  O80  1  0.253352  0.706400  0.293921  1
  O  O81  1  0.964568  0.450956  0.287008  1
  O  O82  1  0.746648  0.293600  0.706079  1
  O  O83  1  0.429251  0.112783  0.996974  1
  O  O84  1  0.683531  0.570749  0.996974  1
  O  O85  1  0.112783  0.683531  0.003026  1
  O  O86  1  0.963891  0.880612  0.207551  1
  O  O87  1  0.367849  0.917979  0.992280  1
  O  O88  1  0.152693  0.369599  0.220698  1
  O  O89  1  0.820652  0.702508  0.238920  1
  O  O90  1  0.486388  0.035432  0.287008  1
  O  O91  1  0.753394  0.016034  0.059950  1
  O  O92  1  0.412346  0.627398  0.717114  1
  O  O93  1  0.179348  0.297492  0.761080  1
  O  O94  1  0.627398  0.215052  0.282886  1
  O  O95  1  0.262640  0.246606  0.059950  1
  O  O96  1  0.902575  0.303394  0.541260  1
  O  O97  1  0.212815  0.970599  0.487515  1
  O  O98  1  0.082021  0.449871  0.992280  1
