# generated using pymatgen
data_Mn3(AgO2)4
_symmetry_space_group_name_H-M   'P 1'
_cell_length_a   9.07518868
_cell_length_b   9.07518868
_cell_length_c   9.07518868
_cell_angle_alpha   90.53133704
_cell_angle_beta   90.53133704
_cell_angle_gamma   90.53133704
_symmetry_Int_Tables_number   1
_chemical_formula_structural   Mn3(AgO2)4
_chemical_formula_sum   'Mn12 Ag16 O32'
_cell_volume   747.32689768
_cell_formula_units_Z   4
loop_
 _symmetry_equiv_pos_site_id
 _symmetry_equiv_pos_as_xyz
  1  'x, y, z'
loop_
 _atom_site_type_symbol
 _atom_site_label
 _atom_site_symmetry_multiplicity
 _atom_site_fract_x
 _atom_site_fract_y
 _atom_site_fract_z
 _atom_site_occupancy
  Mn  Mn0  1  0.961036  0.500000  0.038964  1
  Mn  Mn1  1  0.038964  0.961036  0.500000  1
  Mn  Mn2  1  0.500000  0.038964  0.961036  1
  Mn  Mn3  1  0.291942  0.000000  0.708058  1
  Mn  Mn4  1  0.708058  0.291942  0.000000  1
  Mn  Mn5  1  0.000000  0.708058  0.291942  1
  Mn  Mn6  1  0.209938  0.459852  0.250580  1
  Mn  Mn7  1  0.250580  0.209938  0.459852  1
  Mn  Mn8  1  0.459852  0.250580  0.209938  1
  Mn  Mn9  1  0.749420  0.540148  0.790062  1
  Mn  Mn10  1  0.790062  0.749420  0.540148  1
  Mn  Mn11  1  0.540148  0.790062  0.749420  1
  Ag  Ag12  1  0.500000  0.500000  0.500000  1
  Ag  Ag13  1  0.943720  0.135352  0.213864  1
  Ag  Ag14  1  0.213864  0.943720  0.135352  1
  Ag  Ag15  1  0.135352  0.213864  0.943720  1
  Ag  Ag16  1  0.786136  0.864648  0.056280  1
  Ag  Ag17  1  0.056280  0.786136  0.864648  1
  Ag  Ag18  1  0.864648  0.056280  0.786136  1
  Ag  Ag19  1  0.384577  0.394483  0.788082  1
  Ag  Ag20  1  0.788082  0.384577  0.394483  1
  Ag  Ag21  1  0.394483  0.788082  0.384577  1
  Ag  Ag22  1  0.211918  0.605517  0.615423  1
  Ag  Ag23  1  0.615423  0.211918  0.605517  1
  Ag  Ag24  1  0.605517  0.615423  0.211918  1
  Ag  Ag25  1  0.664415  0.000000  0.335585  1
  Ag  Ag26  1  0.335585  0.664415  0.000000  1
  Ag  Ag27  1  0.000000  0.335585  0.664415  1
  O  O28  1  0.041135  0.171704  0.474644  1
  O  O29  1  0.474644  0.041135  0.171704  1
  O  O30  1  0.171704  0.474644  0.041135  1
  O  O31  1  0.525356  0.828296  0.958865  1
  O  O32  1  0.958865  0.525356  0.828296  1
  O  O33  1  0.828296  0.958865  0.525356  1
  O  O34  1  0.458136  0.222587  0.419418  1
  O  O35  1  0.419418  0.458136  0.222587  1
  O  O36  1  0.222587  0.419418  0.458136  1
  O  O37  1  0.580582  0.777413  0.541864  1
  O  O38  1  0.541864  0.580582  0.777413  1
  O  O39  1  0.777413  0.541864  0.580582  1
  O  O40  1  0.240360  0.240360  0.240360  1
  O  O41  1  0.759640  0.759640  0.759640  1
  O  O42  1  0.208363  0.671137  0.275958  1
  O  O43  1  0.081114  0.970664  0.707019  1
  O  O44  1  0.970664  0.707019  0.081114  1
  O  O45  1  0.292981  0.029336  0.918886  1
  O  O46  1  0.918886  0.292981  0.029336  1
  O  O47  1  0.029336  0.918886  0.292981  1
  O  O48  1  0.491046  0.258104  0.990063  1
  O  O49  1  0.990063  0.491046  0.258104  1
  O  O50  1  0.258104  0.990063  0.491046  1
  O  O51  1  0.009937  0.741896  0.508954  1
  O  O52  1  0.508954  0.009937  0.741896  1
  O  O53  1  0.741896  0.508954  0.009937  1
  O  O54  1  0.275958  0.208363  0.671137  1
  O  O55  1  0.671137  0.275958  0.208363  1
  O  O56  1  0.791637  0.724042  0.328863  1
  O  O57  1  0.724042  0.328863  0.791637  1
  O  O58  1  0.328863  0.791637  0.724042  1
  O  O59  1  0.707019  0.081114  0.970664  1
