# generated using pymatgen
data_Na4Cd2Si3O10
_symmetry_space_group_name_H-M   'P 1'
_cell_length_a   5.82945691
_cell_length_b   5.82945691
_cell_length_c   17.90612183
_cell_angle_alpha   81.53553622
_cell_angle_beta   98.46446378
_cell_angle_gamma   118.92209525
_symmetry_Int_Tables_number   1
_chemical_formula_structural   Na4Cd2Si3O10
_chemical_formula_sum   'Na8 Cd4 Si6 O20'
_cell_volume   524.76748708
_cell_formula_units_Z   2
loop_
 _symmetry_equiv_pos_site_id
 _symmetry_equiv_pos_as_xyz
  1  'x, y, z'
loop_
 _atom_site_type_symbol
 _atom_site_label
 _atom_site_symmetry_multiplicity
 _atom_site_fract_x
 _atom_site_fract_y
 _atom_site_fract_z
 _atom_site_occupancy
  Na  Na0  1  0.568073  0.221083  0.243571  1
  Na  Na1  1  0.778917  0.431927  0.743571  1
  Na  Na2  1  0.431927  0.778917  0.756429  1
  Na  Na3  1  0.175357  0.683426  0.939904  1
  Na  Na4  1  0.221083  0.568073  0.256429  1
  Na  Na5  1  0.683426  0.175357  0.560096  1
  Na  Na6  1  0.824643  0.316574  0.060096  1
  Na  Na7  1  0.316574  0.824643  0.439904  1
  Cd  Cd8  1  0.196034  0.000078  0.085169  1
  Cd  Cd9  1  0.999922  0.803966  0.585169  1
  Cd  Cd10  1  0.000078  0.196034  0.414831  1
  Cd  Cd11  1  0.803966  0.999922  0.914831  1
  Si  Si12  1  0.881090  0.881090  0.250000  1
  Si  Si13  1  0.459507  0.329900  0.898318  1
  Si  Si14  1  0.329900  0.459507  0.601682  1
  Si  Si15  1  0.540493  0.670100  0.101682  1
  Si  Si16  1  0.118910  0.118910  0.750000  1
  Si  Si17  1  0.670100  0.540493  0.398318  1
  O  O18  1  0.384524  0.205040  0.812874  1
  O  O19  1  0.864798  0.083810  0.786800  1
  O  O20  1  0.458893  0.613249  0.884502  1
  O  O21  1  0.386751  0.541107  0.384502  1
  O  O22  1  0.891712  0.770212  0.452157  1
  O  O23  1  0.353964  0.749423  0.572544  1
  O  O24  1  0.916190  0.135202  0.286800  1
  O  O25  1  0.205040  0.384524  0.687126  1
  O  O26  1  0.794960  0.615476  0.312874  1
  O  O27  1  0.229788  0.108288  0.952157  1
  O  O28  1  0.749423  0.353964  0.927456  1
  O  O29  1  0.615476  0.794960  0.187126  1
  O  O30  1  0.135202  0.916190  0.213200  1
  O  O31  1  0.646036  0.250577  0.427456  1
  O  O32  1  0.770212  0.891712  0.047843  1
  O  O33  1  0.250577  0.646036  0.072544  1
  O  O34  1  0.108288  0.229788  0.547843  1
  O  O35  1  0.083810  0.864798  0.713200  1
  O  O36  1  0.541107  0.386751  0.115498  1
  O  O37  1  0.613249  0.458893  0.615498  1
