# generated using pymatgen
data_Co2P2H4O9
_symmetry_space_group_name_H-M   'P 1'
_cell_length_a   6.40931935
_cell_length_b   14.19529624
_cell_length_c   9.31273719
_cell_angle_alpha   90.00000000
_cell_angle_beta   127.50113274
_cell_angle_gamma   90.00000000
_symmetry_Int_Tables_number   1
_chemical_formula_structural   Co2P2H4O9
_chemical_formula_sum   'Co8 P8 H16 O36'
_cell_volume   672.19268909
_cell_formula_units_Z   4
loop_
 _symmetry_equiv_pos_site_id
 _symmetry_equiv_pos_as_xyz
  1  'x, y, z'
loop_
 _atom_site_type_symbol
 _atom_site_label
 _atom_site_symmetry_multiplicity
 _atom_site_fract_x
 _atom_site_fract_y
 _atom_site_fract_z
 _atom_site_occupancy
  Co  Co0  1  0.816071  0.389080  0.581727  1
  Co  Co1  1  0.183929  0.889080  0.918273  1
  Co  Co2  1  0.183929  0.610920  0.418273  1
  Co  Co3  1  0.816071  0.110920  0.081727  1
  Co  Co4  1  0.297208  0.248228  0.849102  1
  Co  Co5  1  0.702792  0.748228  0.650898  1
  Co  Co6  1  0.702792  0.751772  0.150898  1
  Co  Co7  1  0.297208  0.251772  0.349102  1
  P  P8  1  0.388703  0.084719  0.149972  1
  P  P9  1  0.611297  0.584719  0.350028  1
  P  P10  1  0.611297  0.915281  0.850028  1
  P  P11  1  0.388703  0.415281  0.649972  1
  P  P12  1  0.859544  0.187325  0.426753  1
  P  P13  1  0.140456  0.687325  0.073247  1
  P  P14  1  0.140456  0.812675  0.573247  1
  P  P15  1  0.859544  0.312675  0.926753  1
  H  H16  1  0.044310  0.052285  0.696758  1
  H  H17  1  0.955690  0.552285  0.803242  1
  H  H18  1  0.955690  0.947715  0.303242  1
  H  H19  1  0.044310  0.447715  0.196758  1
  H  H20  1  0.849064  0.024001  0.738550  1
  H  H21  1  0.150936  0.524001  0.761450  1
  H  H22  1  0.150936  0.975999  0.261450  1
  H  H23  1  0.849064  0.475999  0.238550  1
  H  H24  1  0.571935  0.180534  0.687732  1
  H  H25  1  0.428065  0.680534  0.812268  1
  H  H26  1  0.428065  0.819466  0.312268  1
  H  H27  1  0.571935  0.319466  0.187732  1
  H  H28  1  0.364010  0.108758  0.544626  1
  H  H29  1  0.635990  0.608758  0.955374  1
  H  H30  1  0.635990  0.891242  0.455374  1
  H  H31  1  0.364010  0.391242  0.044626  1
  O  O32  1  0.322976  0.980376  0.129444  1
  O  O33  1  0.677024  0.480376  0.370556  1
  O  O34  1  0.677024  0.019624  0.870556  1
  O  O35  1  0.322976  0.519624  0.629444  1
  O  O36  1  0.194295  0.143773  0.157580  1
  O  O37  1  0.805705  0.643773  0.342420  1
  O  O38  1  0.805705  0.856227  0.842420  1
  O  O39  1  0.194295  0.356227  0.657580  1
  O  O40  1  0.432341  0.125626  0.016460  1
  O  O41  1  0.567659  0.625626  0.483540  1
  O  O42  1  0.567659  0.874374  0.983540  1
  O  O43  1  0.432341  0.374374  0.516460  1
  O  O44  1  0.080826  0.161371  0.622755  1
  O  O45  1  0.919174  0.661371  0.877245  1
  O  O46  1  0.919174  0.838629  0.377245  1
  O  O47  1  0.080826  0.338629  0.122755  1
  O  O48  1  0.948537  0.202727  0.307375  1
  O  O49  1  0.051463  0.702727  0.192625  1
  O  O50  1  0.051463  0.797273  0.692625  1
  O  O51  1  0.948537  0.297273  0.807375  1
  O  O52  1  0.679953  0.270419  0.399935  1
  O  O53  1  0.320047  0.770419  0.100065  1
  O  O54  1  0.320047  0.729581  0.600065  1
  O  O55  1  0.679953  0.229581  0.899935  1
  O  O56  1  0.673740  0.094237  0.348115  1
  O  O57  1  0.326260  0.594237  0.151885  1
  O  O58  1  0.326260  0.905763  0.651885  1
  O  O59  1  0.673740  0.405763  0.848115  1
  O  O60  1  0.975301  0.997432  0.722537  1
  O  O61  1  0.024699  0.497432  0.777463  1
  O  O62  1  0.024699  0.002568  0.277463  1
  O  O63  1  0.975301  0.502568  0.222537  1
  O  O64  1  0.491429  0.155507  0.564587  1
  O  O65  1  0.508571  0.655507  0.935413  1
  O  O66  1  0.508571  0.844493  0.435413  1
  O  O67  1  0.491429  0.344493  0.064587  1
