# generated using pymatgen
data_Cr(PO3)4
_symmetry_space_group_name_H-M   'P 1'
_cell_length_a   5.15851971
_cell_length_b   13.56785123
_cell_length_c   7.44267396
_cell_angle_alpha   90.00000000
_cell_angle_beta   100.52729202
_cell_angle_gamma   90.00000000
_symmetry_Int_Tables_number   1
_chemical_formula_structural   Cr(PO3)4
_chemical_formula_sum   'Cr2 P8 O24'
_cell_volume   512.14494689
_cell_formula_units_Z   2
loop_
 _symmetry_equiv_pos_site_id
 _symmetry_equiv_pos_as_xyz
  1  'x, y, z'
loop_
 _atom_site_type_symbol
 _atom_site_label
 _atom_site_symmetry_multiplicity
 _atom_site_fract_x
 _atom_site_fract_y
 _atom_site_fract_z
 _atom_site_occupancy
  Cr  Cr0  1  0.503384  0.232622  0.007036  1
  Cr  Cr1  1  0.496616  0.732622  0.992964  1
  P  P2  1  0.867016  0.177881  0.398613  1
  P  P3  1  0.132984  0.677881  0.601387  1
  P  P4  1  0.975630  0.595949  0.933319  1
  P  P5  1  0.024370  0.095949  0.066681  1
  P  P6  1  0.019168  0.870352  0.057279  1
  P  P7  1  0.980832  0.370352  0.942721  1
  P  P8  1  0.218646  0.321565  0.630212  1
  P  P9  1  0.781354  0.821565  0.369788  1
  O  O10  1  0.703142  0.611506  0.975960  1
  O  O11  1  0.296858  0.111506  0.024040  1
  O  O12  1  0.971376  0.351545  0.729120  1
  O  O13  1  0.028624  0.851545  0.270880  1
  O  O14  1  0.073290  0.268578  0.449252  1
  O  O15  1  0.926710  0.768578  0.550748  1
  O  O16  1  0.033553  0.108550  0.280956  1
  O  O17  1  0.966447  0.608550  0.719044  1
  O  O18  1  0.053080  0.483698  0.972413  1
  O  O19  1  0.946920  0.983698  0.027587  1
  O  O20  1  0.196407  0.625953  0.442160  1
  O  O21  1  0.803593  0.125953  0.557840  1
  O  O22  1  0.196004  0.655343  0.042339  1
  O  O23  1  0.803996  0.155343  0.957661  1
  O  O24  1  0.205334  0.313933  0.055882  1
  O  O25  1  0.794666  0.813933  0.944118  1
  O  O26  1  0.289299  0.854657  0.011575  1
  O  O27  1  0.710701  0.354657  0.988425  1
  O  O28  1  0.358192  0.726022  0.737149  1
  O  O29  1  0.641808  0.226022  0.262851  1
  O  O30  1  0.372881  0.240555  0.751783  1
  O  O31  1  0.627119  0.740555  0.248217  1
  O  O32  1  0.374550  0.407346  0.589870  1
  O  O33  1  0.625450  0.907346  0.410130  1
