# generated using pymatgen
data_Dy3ReO7
_symmetry_space_group_name_H-M   'P 1'
_cell_length_a   6.44465909
_cell_length_b   6.44465909
_cell_length_c   7.43879505
_cell_angle_alpha   90.00000000
_cell_angle_beta   90.00000000
_cell_angle_gamma   109.19727117
_symmetry_Int_Tables_number   1
_chemical_formula_structural   Dy3ReO7
_chemical_formula_sum   'Dy6 Re2 O14'
_cell_volume   291.77952034
_cell_formula_units_Z   2
loop_
 _symmetry_equiv_pos_site_id
 _symmetry_equiv_pos_as_xyz
  1  'x, y, z'
loop_
 _atom_site_type_symbol
 _atom_site_label
 _atom_site_symmetry_multiplicity
 _atom_site_fract_x
 _atom_site_fract_y
 _atom_site_fract_z
 _atom_site_occupancy
  Dy  Dy0  1  0.466538  0.999845  0.250000  1
  Dy  Dy1  1  0.500000  0.500000  0.000000  1
  Dy  Dy2  1  0.533462  0.000155  0.750000  1
  Dy  Dy3  1  0.999845  0.466538  0.750000  1
  Dy  Dy4  1  0.000155  0.533462  0.250000  1
  Dy  Dy5  1  0.500000  0.500000  0.500000  1
  Re  Re6  1  0.000000  0.000000  0.000000  1
  Re  Re7  1  0.000000  0.000000  0.500000  1
  O  O8  1  0.320792  0.072682  0.528980  1
  O  O9  1  0.068323  0.931677  0.250000  1
  O  O10  1  0.320792  0.072682  0.971020  1
  O  O11  1  0.679208  0.927318  0.471020  1
  O  O12  1  0.363282  0.636718  0.250000  1
  O  O13  1  0.927318  0.679208  0.528980  1
  O  O14  1  0.072682  0.320792  0.471020  1
  O  O15  1  0.072682  0.320792  0.028980  1
  O  O16  1  0.927318  0.679208  0.971020  1
  O  O17  1  0.679208  0.927318  0.028980  1
  O  O18  1  0.369134  0.630866  0.750000  1
  O  O19  1  0.636718  0.363282  0.750000  1
  O  O20  1  0.630866  0.369134  0.250000  1
  O  O21  1  0.931677  0.068323  0.750000  1
