# generated using pymatgen
data_Zr3BiF15
_symmetry_space_group_name_H-M   'P 1'
_cell_length_a   8.29266770
_cell_length_b   8.30185710
_cell_length_c   16.60834510
_cell_angle_alpha   100.26201296
_cell_angle_beta   100.06394951
_cell_angle_gamma   100.03473224
_symmetry_Int_Tables_number   1
_chemical_formula_structural   Zr3BiF15
_chemical_formula_sum   'Zr12 Bi4 F60'
_cell_volume   1082.61698828
_cell_formula_units_Z   4
loop_
 _symmetry_equiv_pos_site_id
 _symmetry_equiv_pos_as_xyz
  1  'x, y, z'
loop_
 _atom_site_type_symbol
 _atom_site_label
 _atom_site_symmetry_multiplicity
 _atom_site_fract_x
 _atom_site_fract_y
 _atom_site_fract_z
 _atom_site_occupancy
  Zr  Zr0  1  0.324755  0.757480  0.087721  1
  Zr  Zr1  1  0.252858  0.821790  0.336645  1
  Zr  Zr2  1  0.752541  0.750491  0.377908  1
  Zr  Zr3  1  0.248722  0.825293  0.840150  1
  Zr  Zr4  1  0.824098  0.677775  0.627983  1
  Zr  Zr5  1  0.748156  0.746883  0.873822  1
  Zr  Zr6  1  0.251844  0.253117  0.126178  1
  Zr  Zr7  1  0.175902  0.322225  0.372017  1
  Zr  Zr8  1  0.751278  0.174707  0.159850  1
  Zr  Zr9  1  0.247459  0.249509  0.622092  1
  Zr  Zr10  1  0.747142  0.178210  0.663355  1
  Zr  Zr11  1  0.675245  0.242520  0.912279  1
  Bi  Bi12  1  0.821070  0.675895  0.125323  1
  Bi  Bi13  1  0.320446  0.749185  0.588296  1
  Bi  Bi14  1  0.679554  0.250815  0.411704  1
  Bi  Bi15  1  0.178930  0.324105  0.874677  1
  F  F16  1  0.232615  0.997601  0.114314  1
  F  F17  1  0.537044  0.964199  0.117965  1
  F  F18  1  0.212349  0.998084  0.608522  1
  F  F19  1  0.850895  0.966476  0.162413  1
  F  F20  1  0.347875  0.808431  0.219263  1
  F  F21  1  0.050585  0.758821  0.238303  1
  F  F22  1  0.548074  0.977982  0.637288  1
  F  F23  1  0.069613  0.693186  0.075035  1
  F  F24  1  0.777518  0.784779  0.999620  1
  F  F25  1  0.006711  0.775333  0.387350  1
  F  F26  1  0.313899  0.854588  0.464489  1
  F  F27  1  0.844396  0.944048  0.655914  1
  F  F28  1  0.533995  0.653671  0.092462  1
  F  F29  1  0.718957  0.726322  0.251862  1
  F  F30  1  0.494738  0.725212  0.360161  1
  F  F31  1  0.345915  0.826791  0.735442  1
  F  F32  1  0.032239  0.745667  0.731411  1
  F  F33  1  0.033843  0.681657  0.576324  1
  F  F34  1  0.771821  0.774595  0.504133  1
  F  F35  1  0.003729  0.778392  0.887248  1
  F  F36  1  0.310826  0.850752  0.973030  1
  F  F37  1  0.190516  0.554590  0.325051  1
  F  F38  1  0.272884  0.502968  0.138374  1
  F  F39  1  0.567607  0.648820  0.595571  1
  F  F40  1  0.726329  0.724175  0.746876  1
  F  F41  1  0.494905  0.725385  0.863761  1
  F  F42  1  0.744867  0.448037  0.012529  1
  F  F43  1  0.245361  0.526616  0.474172  1
  F  F44  1  0.726318  0.497486  0.358745  1
  F  F45  1  0.815508  0.429999  0.176701  1
  F  F46  1  0.184492  0.570001  0.823299  1
  F  F47  1  0.273682  0.502514  0.641255  1
  F  F48  1  0.754639  0.473384  0.525828  1
  F  F49  1  0.255133  0.551963  0.987471  1
  F  F50  1  0.505095  0.274615  0.136239  1
  F  F51  1  0.273671  0.275825  0.253124  1
  F  F52  1  0.432393  0.351180  0.404429  1
  F  F53  1  0.727116  0.497032  0.861626  1
  F  F54  1  0.809484  0.445410  0.674949  1
  F  F55  1  0.689174  0.149248  0.026970  1
  F  F56  1  0.996271  0.221608  0.112752  1
  F  F57  1  0.228179  0.225405  0.495867  1
  F  F58  1  0.966157  0.318343  0.423676  1
  F  F59  1  0.967761  0.254333  0.268589  1
  F  F60  1  0.654085  0.173209  0.264558  1
  F  F61  1  0.505262  0.274788  0.639839  1
  F  F62  1  0.281043  0.273678  0.748138  1
  F  F63  1  0.466005  0.346329  0.907538  1
  F  F64  1  0.155604  0.055952  0.344086  1
  F  F65  1  0.686101  0.145412  0.535511  1
  F  F66  1  0.993289  0.224667  0.612650  1
  F  F67  1  0.222482  0.215221  0.000380  1
  F  F68  1  0.930387  0.306814  0.924965  1
  F  F69  1  0.451926  0.022018  0.362712  1
  F  F70  1  0.949415  0.241179  0.761697  1
  F  F71  1  0.652125  0.191569  0.780737  1
  F  F72  1  0.149105  0.033524  0.837587  1
  F  F73  1  0.787651  0.001916  0.391478  1
  F  F74  1  0.462956  0.035801  0.882035  1
  F  F75  1  0.767385  0.002399  0.885686  1
