# generated using pymatgen
data_Mo2P2O11
_symmetry_space_group_name_H-M   'P 1'
_cell_length_a   7.63206367
_cell_length_b   6.43802215
_cell_length_c   9.15167882
_cell_angle_alpha   90.00000000
_cell_angle_beta   104.96065441
_cell_angle_gamma   90.00000000
_symmetry_Int_Tables_number   1
_chemical_formula_structural   Mo2P2O11
_chemical_formula_sum   'Mo4 P4 O22'
_cell_volume   434.42899312
_cell_formula_units_Z   2
loop_
 _symmetry_equiv_pos_site_id
 _symmetry_equiv_pos_as_xyz
  1  'x, y, z'
loop_
 _atom_site_type_symbol
 _atom_site_label
 _atom_site_symmetry_multiplicity
 _atom_site_fract_x
 _atom_site_fract_y
 _atom_site_fract_z
 _atom_site_occupancy
  Mo  Mo0  1  0.679858  0.750000  0.856897  1
  Mo  Mo1  1  0.892750  0.750000  0.291368  1
  Mo  Mo2  1  0.107250  0.250000  0.708632  1
  Mo  Mo3  1  0.320142  0.250000  0.143103  1
  P  P4  1  0.567703  0.250000  0.881891  1
  P  P5  1  0.008557  0.750000  0.669467  1
  P  P6  1  0.991443  0.250000  0.330533  1
  P  P7  1  0.432297  0.750000  0.118109  1
  O  O8  1  0.537326  0.750000  0.681216  1
  O  O9  1  0.692396  0.057146  0.886221  1
  O  O10  1  0.692396  0.442854  0.886221  1
  O  O11  1  0.596060  0.750000  0.252126  1
  O  O12  1  0.517460  0.250000  0.037122  1
  O  O13  1  0.907035  0.750000  0.800079  1
  O  O14  1  0.875592  0.250000  0.649697  1
  O  O15  1  0.867639  0.750000  0.517594  1
  O  O16  1  0.863783  0.060964  0.304240  1
  O  O17  1  0.863783  0.439036  0.304240  1
  O  O18  1  0.854180  0.750000  0.090000  1
  O  O19  1  0.145820  0.250000  0.910000  1
  O  O20  1  0.136217  0.560964  0.695760  1
  O  O21  1  0.136217  0.939036  0.695760  1
  O  O22  1  0.132361  0.250000  0.482406  1
  O  O23  1  0.124408  0.750000  0.350303  1
  O  O24  1  0.092965  0.250000  0.199921  1
  O  O25  1  0.482540  0.750000  0.962878  1
  O  O26  1  0.403940  0.250000  0.747874  1
  O  O27  1  0.307604  0.557146  0.113779  1
  O  O28  1  0.307604  0.942854  0.113779  1
  O  O29  1  0.462674  0.250000  0.318784  1
