# generated using pymatgen
data_Li5SbS3I2
_symmetry_space_group_name_H-M   'P 1'
_cell_length_a   7.61569033
_cell_length_b   10.48105777
_cell_length_c   13.58059281
_cell_angle_alpha   90.00000000
_cell_angle_beta   90.00000000
_cell_angle_gamma   90.00000000
_symmetry_Int_Tables_number   1
_chemical_formula_structural   Li5SbS3I2
_chemical_formula_sum   'Li20 Sb4 S12 I8'
_cell_volume   1084.00957676
_cell_formula_units_Z   4
loop_
 _symmetry_equiv_pos_site_id
 _symmetry_equiv_pos_as_xyz
  1  'x, y, z'
loop_
 _atom_site_type_symbol
 _atom_site_label
 _atom_site_symmetry_multiplicity
 _atom_site_fract_x
 _atom_site_fract_y
 _atom_site_fract_z
 _atom_site_occupancy
  Li  Li0  1  0.230700  0.061207  0.097774  1
  Li  Li1  1  0.269300  0.561207  0.402226  1
  Li  Li2  1  0.500000  0.313068  0.961538  1
  Li  Li3  1  0.730700  0.561207  0.402226  1
  Li  Li4  1  0.243227  0.304657  0.251656  1
  Li  Li5  1  0.769300  0.938793  0.902226  1
  Li  Li6  1  0.500000  0.686932  0.038462  1
  Li  Li7  1  0.756773  0.304657  0.251656  1
  Li  Li8  1  0.756773  0.695343  0.748344  1
  Li  Li9  1  0.269300  0.438793  0.597774  1
  Li  Li10  1  0.769300  0.061207  0.097774  1
  Li  Li11  1  0.256773  0.195343  0.751656  1
  Li  Li12  1  0.256773  0.804657  0.248344  1
  Li  Li13  1  0.243227  0.695343  0.748344  1
  Li  Li14  1  0.000000  0.186932  0.461538  1
  Li  Li15  1  0.230700  0.938793  0.902226  1
  Li  Li16  1  0.743227  0.804657  0.248344  1
  Li  Li17  1  0.743227  0.195343  0.751656  1
  Li  Li18  1  0.000000  0.813068  0.538462  1
  Li  Li19  1  0.730700  0.438793  0.597774  1
  Sb  Sb20  1  0.000000  0.300538  0.993463  1
  Sb  Sb21  1  0.500000  0.800538  0.506537  1
  Sb  Sb22  1  0.500000  0.199462  0.493463  1
  Sb  Sb23  1  0.000000  0.699462  0.006537  1
  S  S24  1  0.000000  0.798963  0.840358  1
  S  S25  1  0.749183  0.671641  0.566952  1
  S  S26  1  0.249183  0.171641  0.933048  1
  S  S27  1  0.750817  0.171641  0.933048  1
  S  S28  1  0.500000  0.701037  0.340358  1
  S  S29  1  0.749183  0.328359  0.433048  1
  S  S30  1  0.500000  0.298963  0.659642  1
  S  S31  1  0.750817  0.828359  0.066952  1
  S  S32  1  0.249183  0.828359  0.066952  1
  S  S33  1  0.250817  0.671641  0.566952  1
  S  S34  1  0.000000  0.201037  0.159642  1
  S  S35  1  0.250817  0.328359  0.433048  1
  I  I36  1  0.000000  0.429670  0.737505  1
  I  I37  1  0.000000  0.941764  0.357766  1
  I  I38  1  0.000000  0.058236  0.642234  1
  I  I39  1  0.500000  0.070330  0.237505  1
  I  I40  1  0.500000  0.929670  0.762495  1
  I  I41  1  0.500000  0.558236  0.857766  1
  I  I42  1  0.000000  0.570330  0.262495  1
  I  I43  1  0.500000  0.441764  0.142234  1
