# generated using pymatgen
data_OsOF5
_symmetry_space_group_name_H-M   'P 1'
_cell_length_a   5.23789532
_cell_length_b   8.92127057
_cell_length_c   9.69459923
_cell_angle_alpha   90.00000000
_cell_angle_beta   90.00000000
_cell_angle_gamma   90.00000000
_symmetry_Int_Tables_number   1
_chemical_formula_structural   OsOF5
_chemical_formula_sum   'Os4 O4 F20'
_cell_volume   453.01583840
_cell_formula_units_Z   4
loop_
 _symmetry_equiv_pos_site_id
 _symmetry_equiv_pos_as_xyz
  1  'x, y, z'
loop_
 _atom_site_type_symbol
 _atom_site_label
 _atom_site_symmetry_multiplicity
 _atom_site_fract_x
 _atom_site_fract_y
 _atom_site_fract_z
 _atom_site_occupancy
  Os  Os0  1  0.926323  0.750000  0.115474  1
  Os  Os1  1  0.426323  0.250000  0.384526  1
  Os  Os2  1  0.073677  0.250000  0.884526  1
  Os  Os3  1  0.573677  0.750000  0.615474  1
  O  O4  1  0.189958  0.750000  0.014217  1
  O  O5  1  0.689958  0.250000  0.485783  1
  O  O6  1  0.810042  0.250000  0.985783  1
  O  O7  1  0.310042  0.750000  0.514217  1
  F  F8  1  0.625048  0.750000  0.225770  1
  F  F9  1  0.125048  0.250000  0.274230  1
  F  F10  1  0.374952  0.250000  0.774230  1
  F  F11  1  0.874952  0.750000  0.725770  1
  F  F12  1  0.755624  0.899127  0.013294  1
  F  F13  1  0.255624  0.100873  0.486706  1
  F  F14  1  0.244376  0.399127  0.986706  1
  F  F15  1  0.744376  0.600873  0.513294  1
  F  F16  1  0.244376  0.100873  0.986706  1
  F  F17  1  0.744376  0.899127  0.513294  1
  F  F18  1  0.755624  0.600873  0.013294  1
  F  F19  1  0.255624  0.399127  0.486706  1
  F  F20  1  0.043656  0.897959  0.237904  1
  F  F21  1  0.543656  0.102041  0.262096  1
  F  F22  1  0.956344  0.397959  0.762096  1
  F  F23  1  0.456344  0.602041  0.737904  1
  F  F24  1  0.956344  0.102041  0.762096  1
  F  F25  1  0.456344  0.897959  0.737904  1
  F  F26  1  0.043656  0.602041  0.237904  1
  F  F27  1  0.543656  0.397959  0.262096  1
