# generated using pymatgen
data_BaVS3
_symmetry_space_group_name_H-M   'P 1'
_cell_length_a   8.79610856
_cell_length_b   8.79610856
_cell_length_c   11.27683376
_cell_angle_alpha   50.25078167
_cell_angle_beta   129.74921833
_cell_angle_gamma   134.25816963
_symmetry_Int_Tables_number   1
_chemical_formula_structural   BaVS3
_chemical_formula_sum   'Ba4 V4 S12'
_cell_volume   449.91305539
_cell_formula_units_Z   4
loop_
 _symmetry_equiv_pos_site_id
 _symmetry_equiv_pos_as_xyz
  1  'x, y, z'
loop_
 _atom_site_type_symbol
 _atom_site_label
 _atom_site_symmetry_multiplicity
 _atom_site_fract_x
 _atom_site_fract_y
 _atom_site_fract_z
 _atom_site_occupancy
  Ba  Ba0  1  0.663969  0.336031  0.788354  1
  Ba  Ba1  1  0.336968  0.663032  0.715060  1
  Ba  Ba2  1  0.666917  0.333083  0.296169  1
  Ba  Ba3  1  0.342771  0.657229  0.218250  1
  V  V4  1  0.026407  0.973593  0.268196  1
  V  V5  1  0.977679  0.022321  0.472547  1
  V  V6  1  0.026765  0.973235  0.778437  1
  V  V7  1  0.981067  0.018933  0.978355  1
  S  S8  1  0.171963  0.828037  0.288377  1
  S  S9  1  0.833028  0.166972  0.204464  1
  S  S10  1  0.173984  0.826016  0.801918  1
  S  S11  1  0.834041  0.165959  0.706766  1
  S  S12  1  0.161933  0.318693  0.052516  1
  S  S13  1  0.681307  0.838067  0.052516  1
  S  S14  1  0.846668  0.677414  0.464394  1
  S  S15  1  0.322586  0.153332  0.464394  1
  S  S16  1  0.160309  0.316762  0.552280  1
  S  S17  1  0.683238  0.839691  0.552280  1
  S  S18  1  0.837801  0.673801  0.962513  1
  S  S19  1  0.326199  0.162199  0.962513  1
