# generated using pymatgen
data_PWO5
_symmetry_space_group_name_H-M   'P 1'
_cell_length_a   5.42113868
_cell_length_b   12.50136243
_cell_length_c   13.29901189
_cell_angle_alpha   90.00000000
_cell_angle_beta   90.00000000
_cell_angle_gamma   90.00000000
_symmetry_Int_Tables_number   1
_chemical_formula_structural   PWO5
_chemical_formula_sum   'P8 W8 O40'
_cell_volume   901.29557250
_cell_formula_units_Z   8
loop_
 _symmetry_equiv_pos_site_id
 _symmetry_equiv_pos_as_xyz
  1  'x, y, z'
loop_
 _atom_site_type_symbol
 _atom_site_label
 _atom_site_symmetry_multiplicity
 _atom_site_fract_x
 _atom_site_fract_y
 _atom_site_fract_z
 _atom_site_occupancy
  P  P0  1  0.234749  0.368325  0.519867  1
  P  P1  1  0.234749  0.131675  0.519867  1
  P  P2  1  0.765251  0.631675  0.480133  1
  P  P3  1  0.265251  0.868325  0.019867  1
  P  P4  1  0.765251  0.868325  0.480133  1
  P  P5  1  0.734749  0.368325  0.980133  1
  P  P6  1  0.265251  0.631675  0.019867  1
  P  P7  1  0.734749  0.131675  0.980133  1
  W  W8  1  0.756571  0.598439  0.848448  1
  W  W9  1  0.756571  0.901561  0.848448  1
  W  W10  1  0.743429  0.401561  0.348448  1
  W  W11  1  0.743429  0.098439  0.348448  1
  W  W12  1  0.256571  0.598439  0.651552  1
  W  W13  1  0.243429  0.098439  0.151552  1
  W  W14  1  0.256571  0.901561  0.651552  1
  W  W15  1  0.243429  0.401561  0.151552  1
  O  O16  1  0.249796  0.559977  0.113099  1
  O  O17  1  0.749796  0.559977  0.386901  1
  O  O18  1  0.486298  0.923022  0.755919  1
  O  O19  1  0.250543  0.750000  0.668060  1
  O  O20  1  0.750543  0.750000  0.831940  1
  O  O21  1  0.515069  0.879579  0.968124  1
  O  O22  1  0.513702  0.423022  0.244081  1
  O  O23  1  0.747141  0.250000  0.932369  1
  O  O24  1  0.752859  0.750000  0.432369  1
  O  O25  1  0.484931  0.379579  0.031876  1
  O  O26  1  0.953760  0.382807  0.049380  1
  O  O27  1  0.250204  0.059977  0.613099  1
  O  O28  1  0.750204  0.059977  0.886901  1
  O  O29  1  0.486298  0.576978  0.755919  1
  O  O30  1  0.252859  0.750000  0.067631  1
  O  O31  1  0.015069  0.620421  0.531876  1
  O  O32  1  0.986298  0.923022  0.744081  1
  O  O33  1  0.546240  0.617193  0.549380  1
  O  O34  1  0.986298  0.576978  0.744081  1
  O  O35  1  0.984931  0.120421  0.468124  1
  O  O36  1  0.249457  0.250000  0.168060  1
  O  O37  1  0.953760  0.117193  0.049380  1
  O  O38  1  0.546240  0.882807  0.549380  1
  O  O39  1  0.984931  0.379579  0.468124  1
  O  O40  1  0.750204  0.440023  0.886901  1
  O  O41  1  0.484931  0.120421  0.031876  1
  O  O42  1  0.015069  0.879579  0.531876  1
  O  O43  1  0.046240  0.617193  0.950620  1
  O  O44  1  0.749796  0.940023  0.386901  1
  O  O45  1  0.453760  0.382807  0.450620  1
  O  O46  1  0.250204  0.440023  0.613099  1
  O  O47  1  0.013702  0.423022  0.255919  1
  O  O48  1  0.453760  0.117193  0.450620  1
  O  O49  1  0.013702  0.076978  0.255919  1
  O  O50  1  0.249796  0.940023  0.113099  1
  O  O51  1  0.247141  0.250000  0.567631  1
  O  O52  1  0.513702  0.076978  0.244081  1
  O  O53  1  0.515069  0.620421  0.968124  1
  O  O54  1  0.046240  0.882807  0.950620  1
  O  O55  1  0.749457  0.250000  0.331940  1
