# generated using pymatgen
data_La3MgBi5
_symmetry_space_group_name_H-M   'P 1'
_cell_length_a   9.86699621
_cell_length_b   9.86699621
_cell_length_c   6.61178131
_cell_angle_alpha   90.00000000
_cell_angle_beta   90.00000000
_cell_angle_gamma   120.00000000
_symmetry_Int_Tables_number   1
_chemical_formula_structural   La3MgBi5
_chemical_formula_sum   'La6 Mg2 Bi10'
_cell_volume   557.46683461
_cell_formula_units_Z   2
loop_
 _symmetry_equiv_pos_site_id
 _symmetry_equiv_pos_as_xyz
  1  'x, y, z'
loop_
 _atom_site_type_symbol
 _atom_site_label
 _atom_site_symmetry_multiplicity
 _atom_site_fract_x
 _atom_site_fract_y
 _atom_site_fract_z
 _atom_site_occupancy
  La  La0  1  0.380420  0.000000  0.750000  1
  La  La1  1  0.619580  0.619580  0.750000  1
  La  La2  1  0.000000  0.380420  0.750000  1
  La  La3  1  0.619580  0.000000  0.250000  1
  La  La4  1  0.380420  0.380420  0.250000  1
  La  La5  1  0.000000  0.619580  0.250000  1
  Mg  Mg6  1  0.000000  0.000000  0.000000  1
  Mg  Mg7  1  0.000000  0.000000  0.500000  1
  Bi  Bi8  1  0.265725  0.000000  0.250000  1
  Bi  Bi9  1  0.666667  0.333333  0.000000  1
  Bi  Bi10  1  0.734275  0.734275  0.250000  1
  Bi  Bi11  1  0.000000  0.734275  0.750000  1
  Bi  Bi12  1  0.000000  0.265725  0.250000  1
  Bi  Bi13  1  0.333333  0.666667  0.500000  1
  Bi  Bi14  1  0.666667  0.333333  0.500000  1
  Bi  Bi15  1  0.734275  0.000000  0.750000  1
  Bi  Bi16  1  0.265725  0.265725  0.750000  1
  Bi  Bi17  1  0.333333  0.666667  0.000000  1
