# generated using pymatgen
data_CoP2PbO7
_symmetry_space_group_name_H-M   'P 1'
_cell_length_a   5.41442644
_cell_length_b   8.39556171
_cell_length_c   14.07302008
_cell_angle_alpha   90.00000000
_cell_angle_beta   112.40988335
_cell_angle_gamma   90.00000000
_symmetry_Int_Tables_number   1
_chemical_formula_structural   CoP2PbO7
_chemical_formula_sum   'Co4 P8 Pb4 O28'
_cell_volume   591.40797723
_cell_formula_units_Z   4
loop_
 _symmetry_equiv_pos_site_id
 _symmetry_equiv_pos_as_xyz
  1  'x, y, z'
loop_
 _atom_site_type_symbol
 _atom_site_label
 _atom_site_symmetry_multiplicity
 _atom_site_fract_x
 _atom_site_fract_y
 _atom_site_fract_z
 _atom_site_occupancy
  Co  Co0  1  0.574509  0.149113  0.895059  1
  Co  Co1  1  0.425491  0.649113  0.604941  1
  Co  Co2  1  0.425491  0.850887  0.104941  1
  Co  Co3  1  0.574509  0.350887  0.395059  1
  P  P4  1  0.203317  0.199392  0.019361  1
  P  P5  1  0.796683  0.699392  0.480639  1
  P  P6  1  0.796683  0.800608  0.980639  1
  P  P7  1  0.203317  0.300608  0.519361  1
  P  P8  1  0.414824  0.463609  0.165520  1
  P  P9  1  0.585176  0.963609  0.334480  1
  P  P10  1  0.585176  0.536391  0.834480  1
  P  P11  1  0.414824  0.036391  0.665520  1
  Pb  Pb12  1  0.931545  0.328904  0.722153  1
  Pb  Pb13  1  0.068455  0.828904  0.777847  1
  Pb  Pb14  1  0.068455  0.671096  0.277847  1
  Pb  Pb15  1  0.931545  0.171096  0.222153  1
  O  O16  1  0.926397  0.167935  0.021971  1
  O  O17  1  0.073603  0.667935  0.478029  1
  O  O18  1  0.073603  0.832065  0.978029  1
  O  O19  1  0.926397  0.332065  0.521971  1
  O  O20  1  0.215553  0.188746  0.912225  1
  O  O21  1  0.784447  0.688746  0.587775  1
  O  O22  1  0.784447  0.811254  0.087775  1
  O  O23  1  0.215553  0.311254  0.412225  1
  O  O24  1  0.421804  0.096578  0.099235  1
  O  O25  1  0.578196  0.596578  0.400765  1
  O  O26  1  0.578196  0.903422  0.900765  1
  O  O27  1  0.421804  0.403422  0.599235  1
  O  O28  1  0.276543  0.384274  0.052846  1
  O  O29  1  0.723457  0.884274  0.447154  1
  O  O30  1  0.723457  0.615726  0.947154  1
  O  O31  1  0.276543  0.115726  0.552846  1
  O  O32  1  0.331838  0.639064  0.152484  1
  O  O33  1  0.668162  0.139064  0.347516  1
  O  O34  1  0.668162  0.360936  0.847516  1
  O  O35  1  0.331838  0.860936  0.652484  1
  O  O36  1  0.298073  0.382182  0.237736  1
  O  O37  1  0.701927  0.882182  0.262264  1
  O  O38  1  0.701927  0.617818  0.762264  1
  O  O39  1  0.298073  0.117818  0.737736  1
  O  O40  1  0.716762  0.438547  0.200957  1
  O  O41  1  0.283238  0.938547  0.299043  1
  O  O42  1  0.283238  0.561453  0.799043  1
  O  O43  1  0.716762  0.061453  0.700957  1
