# generated using pymatgen
data_P6Pb3Xe11F58
_symmetry_space_group_name_H-M   'P 1'
_cell_length_a   8.87895905
_cell_length_b   8.87895905
_cell_length_c   19.06818690
_cell_angle_alpha   79.23419422
_cell_angle_beta   100.76580578
_cell_angle_gamma   96.88291095
_symmetry_Int_Tables_number   1
_chemical_formula_structural   P6Pb3Xe11F58
_chemical_formula_sum   'P6 Pb3 Xe11 F58'
_cell_volume   1445.17473140
_cell_formula_units_Z   1
loop_
 _symmetry_equiv_pos_site_id
 _symmetry_equiv_pos_as_xyz
  1  'x, y, z'
loop_
 _atom_site_type_symbol
 _atom_site_label
 _atom_site_symmetry_multiplicity
 _atom_site_fract_x
 _atom_site_fract_y
 _atom_site_fract_z
 _atom_site_occupancy
  P  P0  1  0.671020  0.328980  0.938650  1
  P  P1  1  0.144667  0.855333  0.305941  1
  P  P2  1  0.855333  0.144667  0.694059  1
  P  P3  1  0.297759  0.702241  0.697032  1
  P  P4  1  0.702241  0.297759  0.302968  1
  P  P5  1  0.328980  0.671020  0.061350  1
  Pb  Pb6  1  0.126718  0.873282  0.859751  1
  Pb  Pb7  1  0.873282  0.126718  0.140249  1
  Pb  Pb8  1  0.500000  0.500000  0.500000  1
  Xe  Xe9  1  0.347160  0.139386  0.101163  1
  Xe  Xe10  1  0.500000  0.000000  0.500000  1
  Xe  Xe11  1  0.360197  0.208976  0.700520  1
  Xe  Xe12  1  0.208976  0.360197  0.299480  1
  Xe  Xe13  1  0.139386  0.347160  0.898837  1
  Xe  Xe14  1  0.860614  0.652840  0.101163  1
  Xe  Xe15  1  0.000000  0.000000  0.500000  1
  Xe  Xe16  1  0.639803  0.791024  0.299480  1
  Xe  Xe17  1  0.791024  0.639803  0.700520  1
  Xe  Xe18  1  0.652840  0.860614  0.898837  1
  Xe  Xe19  1  0.000000  0.500000  0.500000  1
  F  F20  1  0.745574  0.254426  0.717242  1
  F  F21  1  0.737214  0.869218  0.206930  1
  F  F22  1  0.878620  0.416902  0.123810  1
  F  F23  1  0.108308  0.154074  0.076021  1
  F  F24  1  0.891692  0.845926  0.923979  1
  F  F25  1  0.737602  0.262398  0.877472  1
  F  F26  1  0.262786  0.130782  0.793070  1
  F  F27  1  0.786885  0.213115  0.003260  1
  F  F28  1  0.715375  0.541769  0.607002  1
  F  F29  1  0.254426  0.745574  0.282758  1
  F  F30  1  0.604706  0.395294  0.340732  1
  F  F31  1  0.762476  0.496999  0.468481  1
  F  F32  1  0.031557  0.968443  0.326357  1
  F  F33  1  0.452213  0.744937  0.753099  1
  F  F34  1  0.541769  0.715375  0.392998  1
  F  F35  1  0.139970  0.664863  0.640508  1
  F  F36  1  0.583098  0.121380  0.123810  1
  F  F37  1  0.968443  0.031557  0.673643  1
  F  F38  1  0.562029  0.437971  0.877016  1
  F  F39  1  0.744937  0.452213  0.246901  1
  F  F40  1  0.464861  0.812527  0.059693  1
  F  F41  1  0.197362  0.802638  0.736094  1
  F  F42  1  0.547787  0.255063  0.246901  1
  F  F43  1  0.237525  0.503001  0.531519  1
  F  F44  1  0.717123  0.005663  0.694546  1
  F  F45  1  0.795743  0.204257  0.607634  1
  F  F46  1  0.437971  0.562029  0.122984  1
  F  F47  1  0.204257  0.795743  0.392366  1
  F  F48  1  0.994337  0.282877  0.694546  1
  F  F49  1  0.121380  0.583098  0.876190  1
  F  F50  1  0.664863  0.139970  0.359492  1
  F  F51  1  0.458231  0.284625  0.607002  1
  F  F52  1  0.335137  0.860030  0.640508  1
  F  F53  1  0.130782  0.262786  0.206930  1
  F  F54  1  0.213115  0.786885  0.996740  1
  F  F55  1  0.535139  0.187473  0.940307  1
  F  F56  1  0.824116  0.824116  0.500000  1
  F  F57  1  0.845926  0.891692  0.076021  1
  F  F58  1  0.255063  0.547787  0.753099  1
  F  F59  1  0.395294  0.604706  0.659268  1
  F  F60  1  0.503001  0.237524  0.468481  1
  F  F61  1  0.389072  0.610928  0.996683  1
  F  F62  1  0.918772  0.081228  0.782023  1
  F  F63  1  0.282877  0.994337  0.305454  1
  F  F64  1  0.416902  0.878620  0.876190  1
  F  F65  1  0.860030  0.335137  0.359492  1
  F  F66  1  0.187473  0.535139  0.059693  1
  F  F67  1  0.262398  0.737602  0.122528  1
  F  F68  1  0.869218  0.737214  0.793070  1
  F  F69  1  0.496999  0.762476  0.531519  1
  F  F70  1  0.284625  0.458231  0.392998  1
  F  F71  1  0.081228  0.918772  0.217977  1
  F  F72  1  0.610928  0.389072  0.003317  1
  F  F73  1  0.154074  0.108308  0.923979  1
  F  F74  1  0.005663  0.717123  0.305454  1
  F  F75  1  0.175884  0.175884  0.500000  1
  F  F76  1  0.802638  0.197362  0.263906  1
  F  F77  1  0.812527  0.464861  0.940307  1
