# generated using pymatgen
data_Cs3Yb(SO4)3
_symmetry_space_group_name_H-M   'P 1'
_cell_length_a   10.06500539
_cell_length_b   10.06500539
_cell_length_c   10.06500539
_cell_angle_alpha   109.94241496
_cell_angle_beta   109.94241496
_cell_angle_gamma   109.94241496
_symmetry_Int_Tables_number   1
_chemical_formula_structural   Cs3Yb(SO4)3
_chemical_formula_sum   'Cs6 Yb2 S6 O24'
_cell_volume   770.91350335
_cell_formula_units_Z   2
loop_
 _symmetry_equiv_pos_site_id
 _symmetry_equiv_pos_as_xyz
  1  'x, y, z'
loop_
 _atom_site_type_symbol
 _atom_site_label
 _atom_site_symmetry_multiplicity
 _atom_site_fract_x
 _atom_site_fract_y
 _atom_site_fract_z
 _atom_site_occupancy
  Cs  Cs0  1  0.661898  0.796867  0.179486  1
  Cs  Cs1  1  0.679486  0.296867  0.161898  1
  Cs  Cs2  1  0.179486  0.661898  0.796867  1
  Cs  Cs3  1  0.796867  0.179486  0.661898  1
  Cs  Cs4  1  0.161898  0.679486  0.296867  1
  Cs  Cs5  1  0.296867  0.161898  0.679486  1
  Yb  Yb6  1  0.491479  0.491479  0.491479  1
  Yb  Yb7  1  0.991479  0.991479  0.991479  1
  S  S8  1  0.571569  0.894723  0.775997  1
  S  S9  1  0.394723  0.071569  0.275997  1
  S  S10  1  0.275997  0.394723  0.071569  1
  S  S11  1  0.894723  0.775997  0.571569  1
  S  S12  1  0.071569  0.275997  0.394723  1
  S  S13  1  0.775997  0.571569  0.894723  1
  O  O14  1  0.987939  0.720633  0.502057  1
  O  O15  1  0.220633  0.487939  0.002057  1
  O  O16  1  0.839606  0.752401  0.980776  1
  O  O17  1  0.502057  0.987939  0.720633  1
  O  O18  1  0.002057  0.220633  0.487939  1
  O  O19  1  0.386114  0.040965  0.408227  1
  O  O20  1  0.987880  0.133157  0.224225  1
  O  O21  1  0.540965  0.886114  0.908227  1
  O  O22  1  0.487880  0.724225  0.633157  1
  O  O23  1  0.133157  0.224225  0.987880  1
  O  O24  1  0.339606  0.480776  0.252401  1
  O  O25  1  0.886114  0.908227  0.540965  1
  O  O26  1  0.724225  0.633157  0.487880  1
  O  O27  1  0.720633  0.502057  0.987939  1
  O  O28  1  0.487939  0.002057  0.220633  1
  O  O29  1  0.908227  0.540965  0.886114  1
  O  O30  1  0.408227  0.386114  0.040965  1
  O  O31  1  0.224225  0.987880  0.133157  1
  O  O32  1  0.252401  0.339606  0.480776  1
  O  O33  1  0.480776  0.252401  0.339606  1
  O  O34  1  0.633157  0.487880  0.724225  1
  O  O35  1  0.980776  0.839606  0.752401  1
  O  O36  1  0.752401  0.980776  0.839606  1
  O  O37  1  0.040965  0.408227  0.386114  1
