# generated using pymatgen
data_UCO5
_symmetry_space_group_name_H-M   'P 1'
_cell_length_a   4.34858985
_cell_length_b   4.89102579
_cell_length_c   9.66548348
_cell_angle_alpha   90.00000000
_cell_angle_beta   90.00000000
_cell_angle_gamma   90.00000000
_symmetry_Int_Tables_number   1
_chemical_formula_structural   UCO5
_chemical_formula_sum   'U2 C2 O10'
_cell_volume   205.57579742
_cell_formula_units_Z   2
loop_
 _symmetry_equiv_pos_site_id
 _symmetry_equiv_pos_as_xyz
  1  'x, y, z'
loop_
 _atom_site_type_symbol
 _atom_site_label
 _atom_site_symmetry_multiplicity
 _atom_site_fract_x
 _atom_site_fract_y
 _atom_site_fract_z
 _atom_site_occupancy
  U  U0  1  0.761639  0.000000  0.500000  1
  U  U1  1  0.238361  0.500000  0.000000  1
  C  C2  1  0.624500  0.000000  0.000000  1
  C  C3  1  0.375500  0.500000  0.500000  1
  O  O4  1  0.246236  0.735698  0.500000  1
  O  O5  1  0.756237  0.000000  0.685066  1
  O  O6  1  0.243763  0.500000  0.814934  1
  O  O7  1  0.756237  0.000000  0.314934  1
  O  O8  1  0.324163  0.000000  0.000000  1
  O  O9  1  0.753764  0.235698  0.000000  1
  O  O10  1  0.675837  0.500000  0.500000  1
  O  O11  1  0.753764  0.764302  0.000000  1
  O  O12  1  0.246236  0.264302  0.500000  1
  O  O13  1  0.243763  0.500000  0.185066  1
