# generated using pymatgen
data_UFeO4
_symmetry_space_group_name_H-M   'P 1'
_cell_length_a   4.91505743
_cell_length_b   5.17717354
_cell_length_c   12.07030085
_cell_angle_alpha   90.00000000
_cell_angle_beta   90.00000000
_cell_angle_gamma   90.00000000
_symmetry_Int_Tables_number   1
_chemical_formula_structural   UFeO4
_chemical_formula_sum   'U4 Fe4 O16'
_cell_volume   307.14214612
_cell_formula_units_Z   4
loop_
 _symmetry_equiv_pos_site_id
 _symmetry_equiv_pos_as_xyz
  1  'x, y, z'
loop_
 _atom_site_type_symbol
 _atom_site_label
 _atom_site_symmetry_multiplicity
 _atom_site_fract_x
 _atom_site_fract_y
 _atom_site_fract_z
 _atom_site_occupancy
  U  U0  1  0.000000  0.750000  0.170191  1
  U  U1  1  0.500000  0.250000  0.329809  1
  U  U2  1  0.000000  0.250000  0.829809  1
  U  U3  1  0.500000  0.750000  0.670191  1
  Fe  Fe4  1  0.000000  0.750000  0.437943  1
  Fe  Fe5  1  0.500000  0.250000  0.062057  1
  Fe  Fe6  1  0.000000  0.250000  0.562057  1
  Fe  Fe7  1  0.500000  0.750000  0.937943  1
  O  O8  1  0.231260  0.425747  0.445299  1
  O  O9  1  0.731260  0.574253  0.054701  1
  O  O10  1  0.268740  0.925747  0.054701  1
  O  O11  1  0.768740  0.074253  0.445299  1
  O  O12  1  0.768740  0.574253  0.554701  1
  O  O13  1  0.268740  0.425747  0.945299  1
  O  O14  1  0.731260  0.074253  0.945299  1
  O  O15  1  0.231260  0.925747  0.554701  1
  O  O16  1  0.221499  0.907213  0.309579  1
  O  O17  1  0.721499  0.092787  0.190421  1
  O  O18  1  0.278501  0.407213  0.190421  1
  O  O19  1  0.778501  0.592787  0.309579  1
  O  O20  1  0.778501  0.092787  0.690421  1
  O  O21  1  0.278501  0.907213  0.809579  1
  O  O22  1  0.721499  0.592787  0.809579  1
  O  O23  1  0.221499  0.407213  0.690421  1
