# generated using pymatgen
data_SrAlSiH
_symmetry_space_group_name_H-M   'P 1'
_cell_length_a   4.22939080
_cell_length_b   4.22939080
_cell_length_c   4.96478378
_cell_angle_alpha   90.00000000
_cell_angle_beta   90.00000000
_cell_angle_gamma   120.00000000
_symmetry_Int_Tables_number   1
_chemical_formula_structural   SrAlSiH
_chemical_formula_sum   'Sr1 Al1 Si1 H1'
_cell_volume   76.91067165
_cell_formula_units_Z   1
loop_
 _symmetry_equiv_pos_site_id
 _symmetry_equiv_pos_as_xyz
  1  'x, y, z'
loop_
 _atom_site_type_symbol
 _atom_site_label
 _atom_site_symmetry_multiplicity
 _atom_site_fract_x
 _atom_site_fract_y
 _atom_site_fract_z
 _atom_site_occupancy
  Sr  Sr0  1  0.000000  0.000000  0.999815  1
  Al  Al1  1  0.666667  0.333333  0.539574  1
  Si  Si2  1  0.333333  0.666667  0.445265  1
  H  H3  1  0.666667  0.333333  0.892346  1
