# generated using pymatgen
data_Pt(OF3)2
_symmetry_space_group_name_H-M   'P 1'
_cell_length_a   8.79640690
_cell_length_b   8.79640690
_cell_length_c   8.79640690
_cell_angle_alpha   109.47122063
_cell_angle_beta   109.47122063
_cell_angle_gamma   109.47122063
_symmetry_Int_Tables_number   1
_chemical_formula_structural   Pt(OF3)2
_chemical_formula_sum   'Pt4 O8 F24'
_cell_volume   523.95506187
_cell_formula_units_Z   4
loop_
 _symmetry_equiv_pos_site_id
 _symmetry_equiv_pos_as_xyz
  1  'x, y, z'
loop_
 _atom_site_type_symbol
 _atom_site_label
 _atom_site_symmetry_multiplicity
 _atom_site_fract_x
 _atom_site_fract_y
 _atom_site_fract_z
 _atom_site_occupancy
  Pt  Pt0  1  0.000000  0.000000  0.000000  1
  Pt  Pt1  1  0.000000  0.500000  0.500000  1
  Pt  Pt2  1  0.500000  1.000000  0.500000  1
  Pt  Pt3  1  0.500000  0.500000  0.000000  1
  O  O4  1  0.566861  0.566861  0.566861  1
  O  O5  1  0.000000  0.933139  0.500000  1
  O  O6  1  0.500000  0.000000  0.933139  1
  O  O7  1  0.933139  0.500000  1.000000  1
  O  O8  1  0.433139  0.433139  0.433139  1
  O  O9  1  0.000000  0.066861  0.500000  1
  O  O10  1  0.500000  0.000000  0.066861  1
  O  O11  1  0.066861  0.500000  0.000000  1
  F  F12  1  0.251050  0.085334  0.047149  1
  F  F13  1  0.203901  0.452851  0.538185  1
  F  F14  1  0.665716  0.961815  0.414666  1
  F  F15  1  0.296099  0.834284  0.248950  1
  F  F16  1  0.452851  0.538185  0.203901  1
  F  F17  1  0.414666  0.665716  0.961815  1
  F  F18  1  0.834284  0.248950  0.296099  1
  F  F19  1  0.047149  0.251050  0.085334  1
  F  F20  1  0.085334  0.047149  0.251050  1
  F  F21  1  0.538185  0.203901  0.452851  1
  F  F22  1  0.961815  0.414666  0.665716  1
  F  F23  1  0.248950  0.296099  0.834284  1
  F  F24  1  0.748950  0.914666  0.952851  1
  F  F25  1  0.796099  0.547149  0.461815  1
  F  F26  1  0.334284  0.038185  0.585334  1
  F  F27  1  0.703901  0.165716  0.751050  1
  F  F28  1  0.547149  0.461815  0.796099  1
  F  F29  1  0.585334  0.334284  0.038185  1
  F  F30  1  0.165716  0.751050  0.703901  1
  F  F31  1  0.952851  0.748950  0.914666  1
  F  F32  1  0.914666  0.952851  0.748950  1
  F  F33  1  0.461815  0.796099  0.547149  1
  F  F34  1  0.038185  0.585334  0.334284  1
  F  F35  1  0.751050  0.703901  0.165716  1
