# generated using pymatgen
data_BaEu2Mn2O7
_symmetry_space_group_name_H-M   'P 1'
_cell_length_a   10.43084124
_cell_length_b   10.43084124
_cell_length_c   5.59831780
_cell_angle_alpha   90.00000000
_cell_angle_beta   90.00000000
_cell_angle_gamma   148.53082671
_symmetry_Int_Tables_number   1
_chemical_formula_structural   BaEu2Mn2O7
_chemical_formula_sum   'Ba2 Eu4 Mn4 O14'
_cell_volume   317.97998728
_cell_formula_units_Z   2
loop_
 _symmetry_equiv_pos_site_id
 _symmetry_equiv_pos_as_xyz
  1  'x, y, z'
loop_
 _atom_site_type_symbol
 _atom_site_label
 _atom_site_symmetry_multiplicity
 _atom_site_fract_x
 _atom_site_fract_y
 _atom_site_fract_z
 _atom_site_occupancy
  Ba  Ba0  1  0.747583  0.747583  0.750000  1
  Ba  Ba1  1  0.252417  0.252417  0.250000  1
  Eu  Eu2  1  0.447838  0.082517  0.250000  1
  Eu  Eu3  1  0.082517  0.447838  0.250000  1
  Eu  Eu4  1  0.917483  0.552162  0.750000  1
  Eu  Eu5  1  0.552162  0.917483  0.750000  1
  Mn  Mn6  1  0.651712  0.851163  0.250000  1
  Mn  Mn7  1  0.348288  0.148837  0.750000  1
  Mn  Mn8  1  0.148837  0.348288  0.750000  1
  Mn  Mn9  1  0.851163  0.651712  0.250000  1
  O  O10  1  0.398951  0.601049  1.000000  1
  O  O11  1  0.601049  0.398951  0.500000  1
  O  O12  1  0.916441  0.513737  0.250000  1
  O  O13  1  0.083559  0.486263  0.750000  1
  O  O14  1  0.110876  0.889124  0.500000  1
  O  O15  1  0.889124  0.110876  0.000000  1
  O  O16  1  0.767621  0.767621  0.250000  1
  O  O17  1  0.398951  0.601049  0.500000  1
  O  O18  1  0.486263  0.083559  0.750000  1
  O  O19  1  0.889124  0.110876  0.500000  1
  O  O20  1  0.601049  0.398951  0.000000  1
  O  O21  1  0.110876  0.889124  0.000000  1
  O  O22  1  0.513737  0.916441  0.250000  1
  O  O23  1  0.232379  0.232379  0.750000  1
