# generated using pymatgen
data_GaCl2
_symmetry_space_group_name_H-M   'P 1'
_cell_length_a   7.20295504
_cell_length_b   9.88494858
_cell_length_c   9.91830656
_cell_angle_alpha   90.00000000
_cell_angle_beta   90.00000000
_cell_angle_gamma   90.00000000
_symmetry_Int_Tables_number   1
_chemical_formula_structural   GaCl2
_chemical_formula_sum   'Ga8 Cl16'
_cell_volume   706.19176038
_cell_formula_units_Z   8
loop_
 _symmetry_equiv_pos_site_id
 _symmetry_equiv_pos_as_xyz
  1  'x, y, z'
loop_
 _atom_site_type_symbol
 _atom_site_label
 _atom_site_symmetry_multiplicity
 _atom_site_fract_x
 _atom_site_fract_y
 _atom_site_fract_z
 _atom_site_occupancy
  Ga  Ga0  1  0.750000  0.000000  0.819297  1
  Ga  Ga1  1  0.250000  0.500000  0.319297  1
  Ga  Ga2  1  0.826658  0.750000  0.250000  1
  Ga  Ga3  1  0.173342  0.250000  0.750000  1
  Ga  Ga4  1  0.250000  0.000000  0.180703  1
  Ga  Ga5  1  0.673342  0.250000  0.250000  1
  Ga  Ga6  1  0.750000  0.500000  0.680703  1
  Ga  Ga7  1  0.326658  0.750000  0.750000  1
  Cl  Cl8  1  0.335396  0.325040  0.442705  1
  Cl  Cl9  1  0.494276  0.540395  0.189846  1
  Cl  Cl10  1  0.664604  0.674960  0.557295  1
  Cl  Cl11  1  0.335396  0.174960  0.057295  1
  Cl  Cl12  1  0.005724  0.040395  0.310154  1
  Cl  Cl13  1  0.664604  0.825040  0.942705  1
  Cl  Cl14  1  0.835396  0.325040  0.557295  1
  Cl  Cl15  1  0.994276  0.540395  0.810154  1
  Cl  Cl16  1  0.164604  0.674960  0.442705  1
  Cl  Cl17  1  0.005724  0.459605  0.189846  1
  Cl  Cl18  1  0.494276  0.959605  0.310154  1
  Cl  Cl19  1  0.835396  0.174960  0.942705  1
  Cl  Cl20  1  0.164604  0.825040  0.057295  1
  Cl  Cl21  1  0.994276  0.959605  0.689846  1
  Cl  Cl22  1  0.505724  0.459605  0.810154  1
  Cl  Cl23  1  0.505724  0.040395  0.689846  1
