# generated using pymatgen
data_Ca3TiBe2Si2(As3O10)2
_symmetry_space_group_name_H-M   'P 1'
_cell_length_a   8.43236804
_cell_length_b   8.43236804
_cell_length_c   15.49999000
_cell_angle_alpha   90.00000000
_cell_angle_beta   90.00000000
_cell_angle_gamma   120.00000000
_symmetry_Int_Tables_number   1
_chemical_formula_structural   Ca3TiBe2Si2(As3O10)2
_chemical_formula_sum   'Ca6 Ti2 Be4 Si4 As12 O40'
_cell_volume   954.46752622
_cell_formula_units_Z   2
loop_
 _symmetry_equiv_pos_site_id
 _symmetry_equiv_pos_as_xyz
  1  'x, y, z'
loop_
 _atom_site_type_symbol
 _atom_site_label
 _atom_site_symmetry_multiplicity
 _atom_site_fract_x
 _atom_site_fract_y
 _atom_site_fract_z
 _atom_site_occupancy
  Ca  Ca0  1  0.593427  0.000000  0.250000  1
  Ca  Ca1  1  0.593427  0.593427  0.750000  1
  Ca  Ca2  1  0.406573  0.000000  0.750000  1
  Ca  Ca3  1  0.000000  0.593427  0.250000  1
  Ca  Ca4  1  0.406573  0.406573  0.250000  1
  Ca  Ca5  1  0.000000  0.406573  0.750000  1
  Ti  Ti6  1  0.000000  0.000000  0.250000  1
  Ti  Ti7  1  0.000000  0.000000  0.750000  1
  Be  Be8  1  0.333333  0.666667  0.130708  1
  Be  Be9  1  0.666667  0.333333  0.869292  1
  Be  Be10  1  0.666667  0.333333  0.369292  1
  Be  Be11  1  0.333333  0.666667  0.630708  1
  Si  Si12  1  0.333333  0.666667  0.927126  1
  Si  Si13  1  0.333333  0.666667  0.427126  1
  Si  Si14  1  0.666667  0.333333  0.072874  1
  Si  Si15  1  0.666667  0.333333  0.572874  1
  As  As16  1  0.296303  0.018654  0.395842  1
  As  As17  1  0.981346  0.703697  0.895842  1
  As  As18  1  0.981346  0.277649  0.395842  1
  As  As19  1  0.018654  0.722351  0.604158  1
  As  As20  1  0.277649  0.296303  0.604158  1
  As  As21  1  0.722351  0.018654  0.895842  1
  As  As22  1  0.296303  0.277649  0.895842  1
  As  As23  1  0.018654  0.296303  0.104158  1
  As  As24  1  0.703697  0.722351  0.104158  1
  As  As25  1  0.703697  0.981346  0.604158  1
  As  As26  1  0.722351  0.703697  0.395842  1
  As  As27  1  0.277649  0.981346  0.104158  1
  O  O28  1  0.885330  0.779115  0.676064  1
  O  O29  1  0.279664  0.465094  0.674875  1
  O  O30  1  0.465094  0.279664  0.825125  1
  O  O31  1  0.129194  0.597252  0.883349  1
  O  O32  1  0.597252  0.468058  0.116651  1
  O  O33  1  0.402748  0.531942  0.883349  1
  O  O34  1  0.220885  0.106215  0.676064  1
  O  O35  1  0.720336  0.185430  0.825125  1
  O  O36  1  0.468058  0.597252  0.383349  1
  O  O37  1  0.870806  0.468058  0.616651  1
  O  O38  1  0.129194  0.531942  0.383349  1
  O  O39  1  0.666667  0.333333  0.470648  1
  O  O40  1  0.893785  0.114670  0.676064  1
  O  O41  1  0.402748  0.870806  0.383349  1
  O  O42  1  0.106215  0.220885  0.823936  1
  O  O43  1  0.666667  0.333333  0.970648  1
  O  O44  1  0.720336  0.534906  0.325125  1
  O  O45  1  0.465094  0.185430  0.325125  1
  O  O46  1  0.114670  0.893785  0.823936  1
  O  O47  1  0.185430  0.720336  0.674875  1
  O  O48  1  0.534906  0.720336  0.174875  1
  O  O49  1  0.220885  0.114670  0.176064  1
  O  O50  1  0.534906  0.814570  0.674875  1
  O  O51  1  0.885330  0.106215  0.176064  1
  O  O52  1  0.333333  0.666667  0.029352  1
  O  O53  1  0.279664  0.814570  0.174875  1
  O  O54  1  0.814570  0.279664  0.325125  1
  O  O55  1  0.106215  0.885330  0.323936  1
  O  O56  1  0.114670  0.220885  0.323936  1
  O  O57  1  0.333333  0.666667  0.529352  1
  O  O58  1  0.468058  0.870806  0.883349  1
  O  O59  1  0.531942  0.129194  0.116651  1
  O  O60  1  0.814570  0.534906  0.825125  1
  O  O61  1  0.185430  0.465094  0.174875  1
  O  O62  1  0.531942  0.402748  0.616651  1
  O  O63  1  0.597252  0.129194  0.616651  1
  O  O64  1  0.779115  0.885330  0.823936  1
  O  O65  1  0.870806  0.402748  0.116651  1
  O  O66  1  0.779115  0.893785  0.323936  1
  O  O67  1  0.893785  0.779115  0.176064  1
