# generated using pymatgen
data_Y4Sb3
_symmetry_space_group_name_H-M   'P 1'
_cell_length_a   7.99292196
_cell_length_b   7.99292196
_cell_length_c   7.99292196
_cell_angle_alpha   109.47122063
_cell_angle_beta   109.47122063
_cell_angle_gamma   109.47122063
_symmetry_Int_Tables_number   1
_chemical_formula_structural   Y4Sb3
_chemical_formula_sum   'Y8 Sb6'
_cell_volume   393.09256290
_cell_formula_units_Z   2
loop_
 _symmetry_equiv_pos_site_id
 _symmetry_equiv_pos_as_xyz
  1  'x, y, z'
loop_
 _atom_site_type_symbol
 _atom_site_label
 _atom_site_symmetry_multiplicity
 _atom_site_fract_x
 _atom_site_fract_y
 _atom_site_fract_z
 _atom_site_occupancy
  Y  Y0  1  0.354741  0.500000  0.000000  1
  Y  Y1  1  0.500000  1.000000  0.354741  1
  Y  Y2  1  0.854741  0.500000  0.000000  1
  Y  Y3  1  0.645259  0.645259  0.645259  1
  Y  Y4  1  0.145259  0.145259  0.145259  1
  Y  Y5  1  1.000000  0.854741  0.500000  1
  Y  Y6  1  0.500000  1.000000  0.854741  1
  Y  Y7  1  1.000000  0.354741  0.500000  1
  Sb  Sb8  1  0.125000  0.750000  0.875000  1
  Sb  Sb9  1  0.625000  0.375000  0.250000  1
  Sb  Sb10  1  0.375000  0.250000  0.625000  1
  Sb  Sb11  1  0.750000  0.875000  0.125000  1
  Sb  Sb12  1  0.250000  0.625000  0.375000  1
  Sb  Sb13  1  0.875000  0.125000  0.750000  1
