# generated using pymatgen
data_K2Th(MoO4)3
_symmetry_space_group_name_H-M   'P 1'
_cell_length_a   10.96486280
_cell_length_b   10.96486280
_cell_length_c   5.46564384
_cell_angle_alpha   77.67133863
_cell_angle_beta   102.32866137
_cell_angle_gamma   111.39231578
_symmetry_Int_Tables_number   1
_chemical_formula_structural   K2Th(MoO4)3
_chemical_formula_sum   'K4 Th2 Mo6 O24'
_cell_volume   591.05924067
_cell_formula_units_Z   2
loop_
 _symmetry_equiv_pos_site_id
 _symmetry_equiv_pos_as_xyz
  1  'x, y, z'
loop_
 _atom_site_type_symbol
 _atom_site_label
 _atom_site_symmetry_multiplicity
 _atom_site_fract_x
 _atom_site_fract_y
 _atom_site_fract_z
 _atom_site_occupancy
  K  K0  1  0.043931  0.709701  0.412220  1
  K  K1  1  0.956069  0.290299  0.587780  1
  K  K2  1  0.290299  0.956069  0.912220  1
  K  K3  1  0.709701  0.043931  0.087780  1
  Th  Th4  1  0.627958  0.627958  0.250000  1
  Th  Th5  1  0.372042  0.372042  0.750000  1
  Mo  Mo6  1  0.457209  0.763576  0.610478  1
  Mo  Mo7  1  0.236424  0.542791  0.110478  1
  Mo  Mo8  1  0.542791  0.236424  0.389522  1
  Mo  Mo9  1  0.763576  0.457209  0.889522  1
  Mo  Mo10  1  0.144036  0.144036  0.250000  1
  Mo  Mo11  1  0.855964  0.855964  0.750000  1
  O  O12  1  0.988061  0.135948  0.072862  1
  O  O13  1  0.731689  0.811679  0.965629  1
  O  O14  1  0.530474  0.387010  0.144535  1
  O  O15  1  0.268311  0.188321  0.034371  1
  O  O16  1  0.254123  0.695600  0.912283  1
  O  O17  1  0.791450  0.576470  0.102910  1
  O  O18  1  0.864052  0.011939  0.572862  1
  O  O19  1  0.499914  0.095143  0.247138  1
  O  O20  1  0.135948  0.988061  0.427138  1
  O  O21  1  0.188321  0.268311  0.465629  1
  O  O22  1  0.695600  0.254123  0.587717  1
  O  O23  1  0.612990  0.469526  0.644535  1
  O  O24  1  0.576470  0.791450  0.397090  1
  O  O25  1  0.500086  0.904857  0.752862  1
  O  O26  1  0.423530  0.208550  0.602910  1
  O  O27  1  0.904857  0.500086  0.747138  1
  O  O28  1  0.095143  0.499914  0.252862  1
  O  O29  1  0.304400  0.745877  0.412283  1
  O  O30  1  0.745877  0.304400  0.087717  1
  O  O31  1  0.011939  0.864052  0.927138  1
  O  O32  1  0.208550  0.423530  0.897090  1
  O  O33  1  0.811679  0.731689  0.534371  1
  O  O34  1  0.387010  0.530474  0.355465  1
  O  O35  1  0.469526  0.612990  0.855465  1
