# generated using pymatgen
data_InBiO3
_symmetry_space_group_name_H-M   'P 1'
_cell_length_a   5.67835474
_cell_length_b   6.09561042
_cell_length_c   8.20360766
_cell_angle_alpha   90.00000000
_cell_angle_beta   90.00000000
_cell_angle_gamma   90.00000000
_symmetry_Int_Tables_number   1
_chemical_formula_structural   InBiO3
_chemical_formula_sum   'In4 Bi4 O12'
_cell_volume   283.95178631
_cell_formula_units_Z   4
loop_
 _symmetry_equiv_pos_site_id
 _symmetry_equiv_pos_as_xyz
  1  'x, y, z'
loop_
 _atom_site_type_symbol
 _atom_site_label
 _atom_site_symmetry_multiplicity
 _atom_site_fract_x
 _atom_site_fract_y
 _atom_site_fract_z
 _atom_site_occupancy
  In  In0  1  0.500000  0.000000  0.500000  1
  In  In1  1  0.500000  0.000000  0.000000  1
  In  In2  1  0.000000  0.500000  0.000000  1
  In  In3  1  0.000000  0.500000  0.500000  1
  Bi  Bi4  1  0.012101  0.954814  0.250000  1
  Bi  Bi5  1  0.987899  0.045186  0.750000  1
  Bi  Bi6  1  0.487899  0.454814  0.250000  1
  Bi  Bi7  1  0.512101  0.545186  0.750000  1
  O  O8  1  0.366824  0.950446  0.750000  1
  O  O9  1  0.866824  0.549554  0.250000  1
  O  O10  1  0.172125  0.183976  0.058416  1
  O  O11  1  0.827875  0.816024  0.941584  1
  O  O12  1  0.327875  0.683976  0.441584  1
  O  O13  1  0.633176  0.049554  0.250000  1
  O  O14  1  0.172125  0.183976  0.441584  1
  O  O15  1  0.672125  0.316024  0.558416  1
  O  O16  1  0.327875  0.683976  0.058416  1
  O  O17  1  0.133176  0.450446  0.750000  1
  O  O18  1  0.827875  0.816024  0.558416  1
  O  O19  1  0.672125  0.316024  0.941584  1
