# generated using pymatgen
data_Cs3Zr7BCl20
_symmetry_space_group_name_H-M   'P 1'
_cell_length_a   14.03284430
_cell_length_b   14.03284430
_cell_length_c   14.03284430
_cell_angle_alpha   55.83491597
_cell_angle_beta   55.83491597
_cell_angle_gamma   55.83491597
_symmetry_Int_Tables_number   1
_chemical_formula_structural   Cs3Zr7BCl20
_chemical_formula_sum   'Cs6 Zr14 B2 Cl40'
_cell_volume   1765.30368536
_cell_formula_units_Z   2
loop_
 _symmetry_equiv_pos_site_id
 _symmetry_equiv_pos_as_xyz
  1  'x, y, z'
loop_
 _atom_site_type_symbol
 _atom_site_label
 _atom_site_symmetry_multiplicity
 _atom_site_fract_x
 _atom_site_fract_y
 _atom_site_fract_z
 _atom_site_occupancy
  Cs  Cs0  1  0.000000  0.500000  0.500000  1
  Cs  Cs1  1  0.500000  0.500000  0.000000  1
  Cs  Cs2  1  0.000000  0.000000  0.500000  1
  Cs  Cs3  1  0.500000  0.000000  0.500000  1
  Cs  Cs4  1  0.000000  0.500000  0.000000  1
  Cs  Cs5  1  0.500000  0.000000  0.000000  1
  Zr  Zr6  1  0.549887  0.388306  0.675974  1
  Zr  Zr7  1  0.324026  0.450113  0.611694  1
  Zr  Zr8  1  0.611694  0.324026  0.450113  1
  Zr  Zr9  1  0.175974  0.888306  0.049887  1
  Zr  Zr10  1  0.750000  0.750000  0.750000  1
  Zr  Zr11  1  0.675974  0.549887  0.388306  1
  Zr  Zr12  1  0.111694  0.950113  0.824026  1
  Zr  Zr13  1  0.824026  0.111694  0.950113  1
  Zr  Zr14  1  0.950113  0.824026  0.111694  1
  Zr  Zr15  1  0.450113  0.611694  0.324026  1
  Zr  Zr16  1  0.888306  0.049887  0.175974  1
  Zr  Zr17  1  0.388306  0.675974  0.549887  1
  Zr  Zr18  1  0.049887  0.175974  0.888306  1
  Zr  Zr19  1  0.250000  0.250000  0.250000  1
  B  B20  1  0.000000  0.000000  0.000000  1
  B  B21  1  0.500000  0.500000  0.500000  1
  Cl  Cl22  1  0.681723  0.175170  0.141371  1
  Cl  Cl23  1  0.824830  0.858629  0.318277  1
  Cl  Cl24  1  0.429275  0.252297  0.568429  1
  Cl  Cl25  1  0.180308  0.180308  0.180308  1
  Cl  Cl26  1  0.747703  0.431571  0.570725  1
  Cl  Cl27  1  0.252297  0.568429  0.429275  1
  Cl  Cl28  1  0.570725  0.747703  0.431571  1
  Cl  Cl29  1  0.181723  0.641371  0.675170  1
  Cl  Cl30  1  0.929275  0.068429  0.752297  1
  Cl  Cl31  1  0.388434  0.750000  0.111566  1
  Cl  Cl32  1  0.568429  0.429275  0.252297  1
  Cl  Cl33  1  0.568067  0.931933  0.750000  1
  Cl  Cl34  1  0.931933  0.750000  0.568067  1
  Cl  Cl35  1  0.819692  0.819692  0.819692  1
  Cl  Cl36  1  0.318277  0.824830  0.858629  1
  Cl  Cl37  1  0.750000  0.111566  0.388434  1
  Cl  Cl38  1  0.250000  0.431933  0.068067  1
  Cl  Cl39  1  0.858629  0.318277  0.824830  1
  Cl  Cl40  1  0.324830  0.818277  0.358629  1
  Cl  Cl41  1  0.818277  0.358629  0.324830  1
  Cl  Cl42  1  0.247703  0.070725  0.931571  1
  Cl  Cl43  1  0.431933  0.068067  0.250000  1
  Cl  Cl44  1  0.750000  0.568067  0.931933  1
  Cl  Cl45  1  0.358629  0.324830  0.818277  1
  Cl  Cl46  1  0.068067  0.250000  0.431933  1
  Cl  Cl47  1  0.070725  0.931571  0.247703  1
  Cl  Cl48  1  0.752297  0.929275  0.068429  1
  Cl  Cl49  1  0.641371  0.675170  0.181723  1
  Cl  Cl50  1  0.680308  0.680308  0.680308  1
  Cl  Cl51  1  0.111566  0.388434  0.750000  1
  Cl  Cl52  1  0.319692  0.319692  0.319692  1
  Cl  Cl53  1  0.431571  0.570725  0.747703  1
  Cl  Cl54  1  0.611566  0.250000  0.888434  1
  Cl  Cl55  1  0.068429  0.752297  0.929275  1
  Cl  Cl56  1  0.931571  0.247703  0.070725  1
  Cl  Cl57  1  0.250000  0.888434  0.611566  1
  Cl  Cl58  1  0.888434  0.611566  0.250000  1
  Cl  Cl59  1  0.175170  0.141371  0.681723  1
  Cl  Cl60  1  0.675170  0.181723  0.641371  1
  Cl  Cl61  1  0.141371  0.681723  0.175170  1
