# generated using pymatgen
data_FeH4(ClO)2
_symmetry_space_group_name_H-M   'P 1'
_cell_length_a   5.71436708
_cell_length_b   5.71436708
_cell_length_c   3.72111733
_cell_angle_alpha   82.48696272
_cell_angle_beta   97.51303728
_cell_angle_gamma   82.85104788
_symmetry_Int_Tables_number   1
_chemical_formula_structural   FeH4(ClO)2
_chemical_formula_sum   'Fe1 H4 Cl2 O2'
_cell_volume   118.18712171
_cell_formula_units_Z   1
loop_
 _symmetry_equiv_pos_site_id
 _symmetry_equiv_pos_as_xyz
  1  'x, y, z'
loop_
 _atom_site_type_symbol
 _atom_site_label
 _atom_site_symmetry_multiplicity
 _atom_site_fract_x
 _atom_site_fract_y
 _atom_site_fract_z
 _atom_site_occupancy
  Fe  Fe0  1  0.000000  0.000000  0.000000  1
  H  H1  1  0.398750  0.223228  0.158566  1
  H  H2  1  0.223228  0.398750  0.841434  1
  H  H3  1  0.776772  0.601250  0.158566  1
  H  H4  1  0.601250  0.776772  0.841434  1
  Cl  Cl5  1  0.763758  0.236242  0.420539  1
  Cl  Cl6  1  0.236242  0.763758  0.579461  1
  O  O7  1  0.757039  0.757039  0.000000  1
  O  O8  1  0.242961  0.242961  0.000000  1
