# generated using pymatgen
data_Zr6Si7Ni16
_symmetry_space_group_name_H-M   'P 1'
_cell_length_a   8.11918573
_cell_length_b   8.11918573
_cell_length_c   8.11918573
_cell_angle_alpha   60.00000000
_cell_angle_beta   60.00000000
_cell_angle_gamma   60.00000000
_symmetry_Int_Tables_number   1
_chemical_formula_structural   Zr6Si7Ni16
_chemical_formula_sum   'Zr6 Si7 Ni16'
_cell_volume   378.46213094
_cell_formula_units_Z   1
loop_
 _symmetry_equiv_pos_site_id
 _symmetry_equiv_pos_as_xyz
  1  'x, y, z'
loop_
 _atom_site_type_symbol
 _atom_site_label
 _atom_site_symmetry_multiplicity
 _atom_site_fract_x
 _atom_site_fract_y
 _atom_site_fract_z
 _atom_site_occupancy
  Zr  Zr0  1  0.207324  0.207324  0.792676  1
  Zr  Zr1  1  0.207324  0.792676  0.792676  1
  Zr  Zr2  1  0.207324  0.792676  0.207324  1
  Zr  Zr3  1  0.792676  0.207324  0.207324  1
  Zr  Zr4  1  0.792676  0.207324  0.792676  1
  Zr  Zr5  1  0.792676  0.792676  0.207324  1
  Si  Si6  1  0.500000  0.500000  0.000000  1
  Si  Si7  1  0.500000  0.500000  0.500000  1
  Si  Si8  1  0.000000  0.500000  0.500000  1
  Si  Si9  1  1.000000  1.000000  0.500000  1
  Si  Si10  1  0.000000  0.500000  1.000000  1
  Si  Si11  1  0.500000  0.000000  0.000000  1
  Si  Si12  1  0.500000  0.000000  0.500000  1
  Ni  Ni13  1  0.492655  0.169115  0.169115  1
  Ni  Ni14  1  0.618201  0.618201  0.618201  1
  Ni  Ni15  1  0.854604  0.381799  0.381799  1
  Ni  Ni16  1  0.169115  0.492655  0.169115  1
  Ni  Ni17  1  0.169115  0.169115  0.169115  1
  Ni  Ni18  1  0.618201  0.618201  0.145396  1
  Ni  Ni19  1  0.618201  0.145396  0.618201  1
  Ni  Ni20  1  0.507345  0.830885  0.830885  1
  Ni  Ni21  1  0.381799  0.381799  0.854604  1
  Ni  Ni22  1  0.381799  0.381799  0.381799  1
  Ni  Ni23  1  0.381799  0.854604  0.381799  1
  Ni  Ni24  1  0.830885  0.830885  0.507345  1
  Ni  Ni25  1  0.145396  0.618201  0.618201  1
  Ni  Ni26  1  0.830885  0.830885  0.830885  1
  Ni  Ni27  1  0.169115  0.169115  0.492655  1
  Ni  Ni28  1  0.830885  0.507345  0.830885  1
