# generated using pymatgen
data_Tm2Pd2Pb
_symmetry_space_group_name_H-M   'P 1'
_cell_length_a   7.92686229
_cell_length_b   7.92686229
_cell_length_c   3.52825758
_cell_angle_alpha   90.00000000
_cell_angle_beta   90.00000000
_cell_angle_gamma   90.00000000
_symmetry_Int_Tables_number   1
_chemical_formula_structural   Tm2Pd2Pb
_chemical_formula_sum   'Tm4 Pd4 Pb2'
_cell_volume   221.69857933
_cell_formula_units_Z   2
loop_
 _symmetry_equiv_pos_site_id
 _symmetry_equiv_pos_as_xyz
  1  'x, y, z'
loop_
 _atom_site_type_symbol
 _atom_site_label
 _atom_site_symmetry_multiplicity
 _atom_site_fract_x
 _atom_site_fract_y
 _atom_site_fract_z
 _atom_site_occupancy
  Tm  Tm0  1  0.330660  0.830660  0.500000  1
  Tm  Tm1  1  0.669340  0.169340  0.500000  1
  Tm  Tm2  1  0.169340  0.330660  0.500000  1
  Tm  Tm3  1  0.830660  0.669340  0.500000  1
  Pd  Pd4  1  0.874095  0.374095  0.000000  1
  Pd  Pd5  1  0.625905  0.874095  0.000000  1
  Pd  Pd6  1  0.374095  0.125905  0.000000  1
  Pd  Pd7  1  0.125905  0.625905  0.000000  1
  Pb  Pb8  1  0.500000  0.500000  0.000000  1
  Pb  Pb9  1  0.000000  0.000000  0.000000  1
