# generated using pymatgen
data_BaLa(BiS3)2
_symmetry_space_group_name_H-M   'P 1'
_cell_length_a   4.23187930
_cell_length_b   14.95890617
_cell_length_c   16.62162576
_cell_angle_alpha   90.00000000
_cell_angle_beta   92.71979363
_cell_angle_gamma   90.00000000
_symmetry_Int_Tables_number   1
_chemical_formula_structural   BaLa(BiS3)2
_chemical_formula_sum   'Ba4 La4 Bi8 S24'
_cell_volume   1051.03485743
_cell_formula_units_Z   4
loop_
 _symmetry_equiv_pos_site_id
 _symmetry_equiv_pos_as_xyz
  1  'x, y, z'
loop_
 _atom_site_type_symbol
 _atom_site_label
 _atom_site_symmetry_multiplicity
 _atom_site_fract_x
 _atom_site_fract_y
 _atom_site_fract_z
 _atom_site_occupancy
  Ba  Ba0  1  0.743860  0.288734  0.329994  1
  Ba  Ba1  1  0.256140  0.788734  0.170006  1
  Ba  Ba2  1  0.256140  0.711266  0.670006  1
  Ba  Ba3  1  0.743860  0.211266  0.829994  1
  La  La4  1  0.705240  0.125817  0.093764  1
  La  La5  1  0.294760  0.625817  0.406236  1
  La  La6  1  0.705240  0.374183  0.593764  1
  La  La7  1  0.294760  0.874183  0.906236  1
  Bi  Bi8  1  0.242037  0.478559  0.799698  1
  Bi  Bi9  1  0.757963  0.521441  0.200302  1
  Bi  Bi10  1  0.262930  0.127819  0.529856  1
  Bi  Bi11  1  0.242037  0.021441  0.299698  1
  Bi  Bi12  1  0.757963  0.978559  0.700302  1
  Bi  Bi13  1  0.262930  0.372181  0.029856  1
  Bi  Bi14  1  0.737070  0.872181  0.470144  1
  Bi  Bi15  1  0.737070  0.627819  0.970144  1
  S  S16  1  0.681395  0.963338  0.202308  1
  S  S17  1  0.764782  0.707004  0.519651  1
  S  S18  1  0.235218  0.207004  0.980349  1
  S  S19  1  0.705335  0.083615  0.410843  1
  S  S20  1  0.157809  0.988133  0.050221  1
  S  S21  1  0.294665  0.916385  0.589157  1
  S  S22  1  0.776710  0.827048  0.782181  1
  S  S23  1  0.842191  0.488133  0.449779  1
  S  S24  1  0.776710  0.672952  0.282181  1
  S  S25  1  0.842191  0.011867  0.949779  1
  S  S26  1  0.223290  0.172952  0.217819  1
  S  S27  1  0.294665  0.583615  0.089157  1
  S  S28  1  0.705335  0.416385  0.910843  1
  S  S29  1  0.157809  0.511867  0.550221  1
  S  S30  1  0.752530  0.169447  0.630782  1
  S  S31  1  0.318605  0.036662  0.797692  1
  S  S32  1  0.235218  0.292996  0.480349  1
  S  S33  1  0.318605  0.463338  0.297692  1
  S  S34  1  0.752530  0.330553  0.130782  1
  S  S35  1  0.764782  0.792996  0.019651  1
  S  S36  1  0.247470  0.669447  0.869218  1
  S  S37  1  0.223290  0.327048  0.717819  1
  S  S38  1  0.247470  0.830553  0.369218  1
  S  S39  1  0.681395  0.536662  0.702308  1
