# generated using pymatgen
data_Sb5IO7
_symmetry_space_group_name_H-M   'P 1'
_cell_length_a   6.94938337
_cell_length_b   13.12612029
_cell_length_c   13.59036784
_cell_angle_alpha   90.00000000
_cell_angle_beta   119.63717512
_cell_angle_gamma   90.00000000
_symmetry_Int_Tables_number   1
_chemical_formula_structural   Sb5IO7
_chemical_formula_sum   'Sb20 I4 O28'
_cell_volume   1077.50853804
_cell_formula_units_Z   4
loop_
 _symmetry_equiv_pos_site_id
 _symmetry_equiv_pos_as_xyz
  1  'x, y, z'
loop_
 _atom_site_type_symbol
 _atom_site_label
 _atom_site_symmetry_multiplicity
 _atom_site_fract_x
 _atom_site_fract_y
 _atom_site_fract_z
 _atom_site_occupancy
  Sb  Sb0  1  0.181328  0.445728  0.924863  1
  Sb  Sb1  1  0.538299  0.241293  0.934485  1
  Sb  Sb2  1  0.858031  0.736072  0.907245  1
  Sb  Sb3  1  0.831088  0.241677  0.741021  1
  Sb  Sb4  1  0.181328  0.054272  0.424863  1
  Sb  Sb5  1  0.835091  0.943071  0.081112  1
  Sb  Sb6  1  0.164909  0.056929  0.918888  1
  Sb  Sb7  1  0.141969  0.236072  0.592755  1
  Sb  Sb8  1  0.818672  0.945728  0.575137  1
  Sb  Sb9  1  0.168912  0.741677  0.758979  1
  Sb  Sb10  1  0.858031  0.763928  0.407245  1
  Sb  Sb11  1  0.461701  0.758707  0.065515  1
  Sb  Sb12  1  0.538299  0.258707  0.434485  1
  Sb  Sb13  1  0.164909  0.443071  0.418888  1
  Sb  Sb14  1  0.168912  0.758323  0.258979  1
  Sb  Sb15  1  0.141969  0.263928  0.092755  1
  Sb  Sb16  1  0.818672  0.554272  0.075137  1
  Sb  Sb17  1  0.461701  0.741293  0.565515  1
  Sb  Sb18  1  0.831088  0.258323  0.241021  1
  Sb  Sb19  1  0.835091  0.556929  0.581112  1
  I  I20  1  0.435423  0.004741  0.243762  1
  I  I21  1  0.435423  0.495259  0.743762  1
  I  I22  1  0.564577  0.995259  0.756238  1
  I  I23  1  0.564577  0.504741  0.256238  1
  O  O24  1  0.594980  0.668361  0.996894  1
  O  O25  1  0.979874  0.634979  0.217242  1
  O  O26  1  0.920210  0.857484  0.221287  1
  O  O27  1  0.833483  0.249996  0.086069  1
  O  O28  1  0.020126  0.365021  0.782758  1
  O  O29  1  0.015367  0.171516  0.957667  1
  O  O30  1  0.532219  0.619253  0.503689  1
  O  O31  1  0.594980  0.831639  0.496894  1
  O  O32  1  0.920210  0.642516  0.721287  1
  O  O33  1  0.979874  0.865021  0.717242  1
  O  O34  1  0.833483  0.250004  0.586069  1
  O  O35  1  0.079790  0.142516  0.778713  1
  O  O36  1  0.020126  0.134979  0.282758  1
  O  O37  1  0.987774  0.886037  0.504114  1
  O  O38  1  0.166517  0.750004  0.913931  1
  O  O39  1  0.467781  0.380747  0.496311  1
  O  O40  1  0.984633  0.828484  0.042333  1
  O  O41  1  0.405020  0.331639  0.003106  1
  O  O42  1  0.166517  0.749996  0.413931  1
  O  O43  1  0.532219  0.880747  0.003689  1
  O  O44  1  0.079790  0.357484  0.278713  1
  O  O45  1  0.984633  0.671516  0.542333  1
  O  O46  1  0.012226  0.113963  0.495886  1
  O  O47  1  0.405020  0.168361  0.503106  1
  O  O48  1  0.015367  0.328484  0.457667  1
  O  O49  1  0.467781  0.119253  0.996311  1
  O  O50  1  0.012226  0.386037  0.995886  1
  O  O51  1  0.987774  0.613963  0.004114  1
