# generated using pymatgen
data_LaCu(WO4)2
_symmetry_space_group_name_H-M   'P 1'
_cell_length_a   7.33637947
_cell_length_b   7.55370609
_cell_length_c   7.73370727
_cell_angle_alpha   114.50602713
_cell_angle_beta   115.55346068
_cell_angle_gamma   91.52961902
_symmetry_Int_Tables_number   1
_chemical_formula_structural   LaCu(WO4)2
_chemical_formula_sum   'La2 Cu2 W4 O16'
_cell_volume   340.61010434
_cell_formula_units_Z   2
loop_
 _symmetry_equiv_pos_site_id
 _symmetry_equiv_pos_as_xyz
  1  'x, y, z'
loop_
 _atom_site_type_symbol
 _atom_site_label
 _atom_site_symmetry_multiplicity
 _atom_site_fract_x
 _atom_site_fract_y
 _atom_site_fract_z
 _atom_site_occupancy
  La  La0  1  0.184683  0.284766  0.462266  1
  La  La1  1  0.815317  0.715234  0.537734  1
  Cu  Cu2  1  0.778041  0.323622  0.044088  1
  Cu  Cu3  1  0.221959  0.676378  0.955912  1
  W  W4  1  0.727986  0.703544  0.962237  1
  W  W5  1  0.354847  0.899679  0.713475  1
  W  W6  1  0.272014  0.296456  0.037763  1
  W  W7  1  0.645153  0.100321  0.286525  1
  O  O8  1  0.536666  0.469368  0.732850  1
  O  O9  1  0.463334  0.530632  0.267150  1
  O  O10  1  0.052190  0.309400  0.094862  1
  O  O11  1  0.947810  0.690600  0.905138  1
  O  O12  1  0.201626  0.367733  0.819825  1
  O  O13  1  0.798374  0.632267  0.180175  1
  O  O14  1  0.823748  0.354332  0.446707  1
  O  O15  1  0.176252  0.645668  0.553293  1
  O  O16  1  0.613475  0.831668  0.745240  1
  O  O17  1  0.386525  0.168332  0.254760  1
  O  O18  1  0.476135  0.825607  0.003281  1
  O  O19  1  0.523865  0.174393  0.996719  1
  O  O20  1  0.145887  0.995786  0.803886  1
  O  O21  1  0.854113  0.004214  0.196114  1
  O  O22  1  0.296946  0.994661  0.523616  1
  O  O23  1  0.703054  0.005339  0.476384  1
