# generated using pymatgen
data_BaSr2(PN2)6
_symmetry_space_group_name_H-M   'P 1'
_cell_length_a   10.15848413
_cell_length_b   10.15848413
_cell_length_c   10.15848413
_cell_angle_alpha   90.00000000
_cell_angle_beta   90.00000000
_cell_angle_gamma   90.00000000
_symmetry_Int_Tables_number   1
_chemical_formula_structural   BaSr2(PN2)6
_chemical_formula_sum   'Ba4 Sr8 P24 N48'
_cell_volume   1048.30273626
_cell_formula_units_Z   4
loop_
 _symmetry_equiv_pos_site_id
 _symmetry_equiv_pos_as_xyz
  1  'x, y, z'
loop_
 _atom_site_type_symbol
 _atom_site_label
 _atom_site_symmetry_multiplicity
 _atom_site_fract_x
 _atom_site_fract_y
 _atom_site_fract_z
 _atom_site_occupancy
  Ba  Ba0  1  0.500000  0.000000  0.500000  1
  Ba  Ba1  1  0.000000  0.500000  0.500000  1
  Ba  Ba2  1  0.000000  0.000000  0.000000  1
  Ba  Ba3  1  0.500000  0.500000  0.000000  1
  Sr  Sr4  1  0.128490  0.871510  0.371510  1
  Sr  Sr5  1  0.371510  0.128490  0.871510  1
  Sr  Sr6  1  0.371510  0.371510  0.371510  1
  Sr  Sr7  1  0.128490  0.628490  0.871510  1
  Sr  Sr8  1  0.628490  0.628490  0.628490  1
  Sr  Sr9  1  0.871510  0.371510  0.128490  1
  Sr  Sr10  1  0.871510  0.128490  0.628490  1
  Sr  Sr11  1  0.628490  0.871510  0.128490  1
  P  P12  1  0.839962  0.386778  0.812829  1
  P  P13  1  0.812829  0.660038  0.886778  1
  P  P14  1  0.160038  0.886778  0.687171  1
  P  P15  1  0.886778  0.812829  0.660038  1
  P  P16  1  0.339962  0.386778  0.687171  1
  P  P17  1  0.187171  0.160038  0.613222  1
  P  P18  1  0.812829  0.839962  0.386778  1
  P  P19  1  0.386778  0.812829  0.839962  1
  P  P20  1  0.113222  0.187171  0.339962  1
  P  P21  1  0.613222  0.187171  0.160038  1
  P  P22  1  0.613222  0.312829  0.660038  1
  P  P23  1  0.386778  0.687171  0.339962  1
  P  P24  1  0.687171  0.339962  0.386778  1
  P  P25  1  0.187171  0.339962  0.113222  1
  P  P26  1  0.339962  0.113222  0.187171  1
  P  P27  1  0.660038  0.613222  0.312829  1
  P  P28  1  0.113222  0.312829  0.839962  1
  P  P29  1  0.160038  0.613222  0.187171  1
  P  P30  1  0.839962  0.113222  0.312829  1
  P  P31  1  0.660038  0.886778  0.812829  1
  P  P32  1  0.312829  0.660038  0.613222  1
  P  P33  1  0.687171  0.160038  0.886778  1
  P  P34  1  0.312829  0.839962  0.113222  1
  P  P35  1  0.886778  0.687171  0.160038  1
  N  N36  1  0.827366  0.241084  0.884786  1
  N  N37  1  0.115214  0.327366  0.258916  1
  N  N38  1  0.672634  0.758916  0.384786  1
  N  N39  1  0.002021  0.910810  0.717631  1
  N  N40  1  0.717631  0.002021  0.910810  1
  N  N41  1  0.258916  0.384786  0.827366  1
  N  N42  1  0.410810  0.782369  0.997979  1
  N  N43  1  0.997979  0.089190  0.282369  1
  N  N44  1  0.589190  0.217631  0.002021  1
  N  N45  1  0.615214  0.327366  0.241084  1
  N  N46  1  0.172634  0.741084  0.615214  1
  N  N47  1  0.089190  0.282369  0.997979  1
  N  N48  1  0.741084  0.615214  0.172634  1
  N  N49  1  0.258916  0.115214  0.327366  1
  N  N50  1  0.910810  0.782369  0.502021  1
  N  N51  1  0.327366  0.241084  0.615214  1
  N  N52  1  0.827366  0.258916  0.384786  1
  N  N53  1  0.002021  0.589190  0.217631  1
  N  N54  1  0.758916  0.384786  0.672634  1
  N  N55  1  0.741084  0.884786  0.672634  1
  N  N56  1  0.997979  0.410810  0.782369  1
  N  N57  1  0.282369  0.997979  0.089190  1
  N  N58  1  0.172634  0.758916  0.115214  1
  N  N59  1  0.497979  0.089190  0.217631  1
  N  N60  1  0.241084  0.615214  0.327366  1
  N  N61  1  0.717631  0.497979  0.410810  1
  N  N62  1  0.589190  0.282369  0.502021  1
  N  N63  1  0.282369  0.502021  0.589190  1
  N  N64  1  0.910810  0.717631  0.002021  1
  N  N65  1  0.884786  0.672634  0.741084  1
  N  N66  1  0.758916  0.115214  0.172634  1
  N  N67  1  0.217631  0.497979  0.089190  1
  N  N68  1  0.217631  0.002021  0.589190  1
  N  N69  1  0.672634  0.741084  0.884786  1
  N  N70  1  0.782369  0.997979  0.410810  1
  N  N71  1  0.502021  0.589190  0.282369  1
  N  N72  1  0.615214  0.172634  0.741084  1
  N  N73  1  0.327366  0.258916  0.115214  1
  N  N74  1  0.782369  0.502021  0.910810  1
  N  N75  1  0.497979  0.410810  0.717631  1
  N  N76  1  0.384786  0.827366  0.258916  1
  N  N77  1  0.884786  0.827366  0.241084  1
  N  N78  1  0.089190  0.217631  0.497979  1
  N  N79  1  0.115214  0.172634  0.758916  1
  N  N80  1  0.384786  0.672634  0.758916  1
  N  N81  1  0.241084  0.884786  0.827366  1
  N  N82  1  0.502021  0.910810  0.782369  1
  N  N83  1  0.410810  0.717631  0.497979  1
