# generated using pymatgen
data_AlSiP3
_symmetry_space_group_name_H-M   'P 1'
_cell_length_a   5.89959019
_cell_length_b   6.14251388
_cell_length_c   9.90648908
_cell_angle_alpha   90.00000000
_cell_angle_beta   90.00000000
_cell_angle_gamma   90.00000000
_symmetry_Int_Tables_number   1
_chemical_formula_structural   AlSiP3
_chemical_formula_sum   'Al4 Si4 P12'
_cell_volume   358.99446814
_cell_formula_units_Z   4
loop_
 _symmetry_equiv_pos_site_id
 _symmetry_equiv_pos_as_xyz
  1  'x, y, z'
loop_
 _atom_site_type_symbol
 _atom_site_label
 _atom_site_symmetry_multiplicity
 _atom_site_fract_x
 _atom_site_fract_y
 _atom_site_fract_z
 _atom_site_occupancy
  Al  Al0  1  0.000000  0.000000  0.000000  1
  Al  Al1  1  0.500000  0.500000  0.500000  1
  Al  Al2  1  0.500000  0.500000  0.000000  1
  Al  Al3  1  0.000000  0.000000  0.500000  1
  Si  Si4  1  0.999630  0.563248  0.750000  1
  Si  Si5  1  0.000370  0.436752  0.250000  1
  Si  Si6  1  0.500370  0.063248  0.250000  1
  Si  Si7  1  0.499630  0.936752  0.750000  1
  P  P8  1  0.387294  0.586105  0.750000  1
  P  P9  1  0.110384  0.607484  0.441568  1
  P  P10  1  0.610384  0.892516  0.058432  1
  P  P11  1  0.389616  0.107484  0.558432  1
  P  P12  1  0.389616  0.107484  0.941568  1
  P  P13  1  0.889616  0.392516  0.558432  1
  P  P14  1  0.110384  0.607484  0.058432  1
  P  P15  1  0.610384  0.892516  0.441568  1
  P  P16  1  0.887294  0.913895  0.750000  1
  P  P17  1  0.112706  0.086105  0.250000  1
  P  P18  1  0.612706  0.413895  0.250000  1
  P  P19  1  0.889616  0.392516  0.941568  1
