# generated using pymatgen
data_BaZnFeF7
_symmetry_space_group_name_H-M   'P 1'
_cell_length_a   5.69930605
_cell_length_b   10.11361837
_cell_length_c   9.72661415
_cell_angle_alpha   90.00000000
_cell_angle_beta   93.12432883
_cell_angle_gamma   90.00000000
_symmetry_Int_Tables_number   1
_chemical_formula_structural   BaZnFeF7
_chemical_formula_sum   'Ba4 Zn4 Fe4 F28'
_cell_volume   559.81460034
_cell_formula_units_Z   4
loop_
 _symmetry_equiv_pos_site_id
 _symmetry_equiv_pos_as_xyz
  1  'x, y, z'
loop_
 _atom_site_type_symbol
 _atom_site_label
 _atom_site_symmetry_multiplicity
 _atom_site_fract_x
 _atom_site_fract_y
 _atom_site_fract_z
 _atom_site_occupancy
  Ba  Ba0  1  0.238010  0.321441  0.001243  1
  Ba  Ba1  1  0.761990  0.821441  0.498757  1
  Ba  Ba2  1  0.761990  0.678559  0.998757  1
  Ba  Ba3  1  0.238010  0.178559  0.501243  1
  Zn  Zn4  1  0.799457  0.398115  0.689420  1
  Zn  Zn5  1  0.200543  0.898115  0.810580  1
  Zn  Zn6  1  0.799457  0.101885  0.189420  1
  Zn  Zn7  1  0.200543  0.601885  0.310580  1
  Fe  Fe8  1  0.303069  0.609659  0.688131  1
  Fe  Fe9  1  0.696931  0.390341  0.311869  1
  Fe  Fe10  1  0.303069  0.890341  0.188131  1
  Fe  Fe11  1  0.696931  0.109659  0.811869  1
  F  F12  1  0.389835  0.442517  0.376522  1
  F  F13  1  0.134522  0.049537  0.130629  1
  F  F14  1  0.026917  0.708940  0.747098  1
  F  F15  1  0.973083  0.291060  0.252902  1
  F  F16  1  0.609923  0.458733  0.133044  1
  F  F17  1  0.240725  0.810928  0.002030  1
  F  F18  1  0.475404  0.776478  0.747349  1
  F  F19  1  0.390077  0.958733  0.366956  1
  F  F20  1  0.134522  0.450463  0.630629  1
  F  F21  1  0.973083  0.208940  0.752902  1
  F  F22  1  0.389835  0.057483  0.876522  1
  F  F23  1  0.610165  0.557483  0.623478  1
  F  F24  1  0.524596  0.276478  0.752651  1
  F  F25  1  0.110681  0.958310  0.624998  1
  F  F26  1  0.390077  0.541267  0.866956  1
  F  F27  1  0.609923  0.041267  0.633044  1
  F  F28  1  0.524596  0.223522  0.252651  1
  F  F29  1  0.610165  0.942517  0.123478  1
  F  F30  1  0.889319  0.458310  0.875002  1
  F  F31  1  0.865478  0.950463  0.869371  1
  F  F32  1  0.889319  0.041690  0.375002  1
  F  F33  1  0.475404  0.723522  0.247349  1
  F  F34  1  0.110681  0.541690  0.124998  1
  F  F35  1  0.759275  0.310928  0.497970  1
  F  F36  1  0.759275  0.189072  0.997970  1
  F  F37  1  0.240725  0.689072  0.502030  1
  F  F38  1  0.865478  0.549537  0.369371  1
  F  F39  1  0.026917  0.791060  0.247098  1
