# generated using pymatgen
data_Mg8B5IN10
_symmetry_space_group_name_H-M   'P 1'
_cell_length_a   10.03251102
_cell_length_b   10.03251102
_cell_length_c   10.03251102
_cell_angle_alpha   124.19331414
_cell_angle_beta   111.47273224
_cell_angle_gamma   94.12626935
_symmetry_Int_Tables_number   1
_chemical_formula_structural   Mg8B5IN10
_chemical_formula_sum   'Mg16 B10 I2 N20'
_cell_volume   724.93106135
_cell_formula_units_Z   2
loop_
 _symmetry_equiv_pos_site_id
 _symmetry_equiv_pos_as_xyz
  1  'x, y, z'
loop_
 _atom_site_type_symbol
 _atom_site_label
 _atom_site_symmetry_multiplicity
 _atom_site_fract_x
 _atom_site_fract_y
 _atom_site_fract_z
 _atom_site_occupancy
  Mg  Mg0  1  0.104807  0.104807  0.500000  1
  Mg  Mg1  1  0.500000  0.251105  0.751105  1
  Mg  Mg2  1  0.315697  0.815697  0.000000  1
  Mg  Mg3  1  0.315697  0.315697  0.500000  1
  Mg  Mg4  1  0.275268  0.045947  0.821215  1
  Mg  Mg5  1  0.895193  0.395193  0.000000  1
  Mg  Mg6  1  0.500000  0.748895  0.248895  1
  Mg  Mg7  1  0.895193  0.895193  0.500000  1
  Mg  Mg8  1  0.000000  0.248895  0.248895  1
  Mg  Mg9  1  0.275268  0.454053  0.229321  1
  Mg  Mg10  1  0.684303  0.184303  0.000000  1
  Mg  Mg11  1  0.724732  0.545947  0.770679  1
  Mg  Mg12  1  0.724732  0.954053  0.178785  1
  Mg  Mg13  1  0.684303  0.684303  0.500000  1
  Mg  Mg14  1  0.000000  0.751105  0.751105  1
  Mg  Mg15  1  0.104807  0.604807  0.000000  1
  B  B16  1  0.307549  0.955707  0.351842  1
  B  B17  1  0.096709  0.250000  0.846709  1
  B  B18  1  0.514538  0.614141  0.900397  1
  B  B19  1  0.213745  0.114141  0.099603  1
  B  B20  1  0.692451  0.044293  0.648158  1
  B  B21  1  0.903291  0.750000  0.153291  1
  B  B22  1  0.103865  0.455707  0.648158  1
  B  B23  1  0.485462  0.385859  0.099603  1
  B  B24  1  0.786255  0.885859  0.900397  1
  B  B25  1  0.896135  0.544293  0.351842  1
  I  I26  1  0.652463  0.250000  0.402463  1
  I  I27  1  0.347537  0.750000  0.597537  1
  N  N28  1  0.787407  0.741397  0.759392  1
  N  N29  1  0.517995  0.758603  0.046010  1
  N  N30  1  0.306794  0.814300  0.207611  1
  N  N31  1  0.212593  0.258603  0.240608  1
  N  N32  1  0.693206  0.900817  0.507506  1
  N  N33  1  0.693206  0.185700  0.792389  1
  N  N34  1  0.517995  0.471985  0.759392  1
  N  N35  1  0.482005  0.241397  0.953990  1
  N  N36  1  0.099282  0.392697  0.991979  1
  N  N37  1  0.787407  0.028015  0.046010  1
  N  N38  1  0.212593  0.971985  0.953990  1
  N  N39  1  0.106689  0.599183  0.792389  1
  N  N40  1  0.893311  0.685700  0.492494  1
  N  N41  1  0.106689  0.314300  0.507506  1
  N  N42  1  0.900718  0.892697  0.293415  1
  N  N43  1  0.893311  0.400817  0.207611  1
  N  N44  1  0.099282  0.107303  0.706585  1
  N  N45  1  0.306794  0.099183  0.492494  1
  N  N46  1  0.482005  0.528015  0.240608  1
  N  N47  1  0.900718  0.607303  0.008021  1
