# generated using pymatgen
data_Li6Zr2O7
_symmetry_space_group_name_H-M   'P 1'
_cell_length_a   6.08728806
_cell_length_b   6.08728806
_cell_length_c   10.32763430
_cell_angle_alpha   81.05996918
_cell_angle_beta   98.94003082
_cell_angle_gamma   120.28533656
_symmetry_Int_Tables_number   1
_chemical_formula_structural   Li6Zr2O7
_chemical_formula_sum   'Li12 Zr4 O14'
_cell_volume   325.11498011
_cell_formula_units_Z   2
loop_
 _symmetry_equiv_pos_site_id
 _symmetry_equiv_pos_as_xyz
  1  'x, y, z'
loop_
 _atom_site_type_symbol
 _atom_site_label
 _atom_site_symmetry_multiplicity
 _atom_site_fract_x
 _atom_site_fract_y
 _atom_site_fract_z
 _atom_site_occupancy
  Li  Li0  1  0.295456  0.416334  0.414295  1
  Li  Li1  1  0.416334  0.295456  0.085705  1
  Li  Li2  1  0.704544  0.583666  0.585705  1
  Li  Li3  1  0.967593  0.832078  0.102125  1
  Li  Li4  1  0.578550  0.165651  0.894902  1
  Li  Li5  1  0.165651  0.578550  0.605098  1
  Li  Li6  1  0.421450  0.834349  0.105098  1
  Li  Li7  1  0.834349  0.421450  0.394902  1
  Li  Li8  1  0.167922  0.032407  0.602125  1
  Li  Li9  1  0.032407  0.167922  0.897875  1
  Li  Li10  1  0.832078  0.967593  0.397875  1
  Li  Li11  1  0.583666  0.704544  0.914295  1
  Zr  Zr12  1  0.937332  0.304266  0.135164  1
  Zr  Zr13  1  0.304266  0.937332  0.364836  1
  Zr  Zr14  1  0.062668  0.695734  0.864836  1
  Zr  Zr15  1  0.695734  0.062668  0.635164  1
  O  O16  1  0.358154  0.864816  0.742739  1
  O  O17  1  0.864816  0.358153  0.757261  1
  O  O18  1  0.641846  0.135184  0.257261  1
  O  O19  1  0.135184  0.641846  0.242739  1
  O  O20  1  0.841473  0.841473  0.750000  1
  O  O21  1  0.158527  0.158527  0.250000  1
  O  O22  1  0.498711  0.764049  0.497473  1
  O  O23  1  0.764049  0.498711  0.002527  1
  O  O24  1  0.501289  0.235951  0.502527  1
  O  O25  1  0.235951  0.501289  0.997473  1
  O  O26  1  0.244075  0.001758  0.977458  1
  O  O27  1  0.001758  0.244075  0.522542  1
  O  O28  1  0.755925  0.998242  0.022542  1
  O  O29  1  0.998242  0.755925  0.477458  1
