# generated using pymatgen
data_Li15Cr2N9
_symmetry_space_group_name_H-M   'P 1'
_cell_length_a   9.37898226
_cell_length_b   10.21859420
_cell_length_c   10.22753172
_cell_angle_alpha   90.00000000
_cell_angle_beta   90.00000000
_cell_angle_gamma   90.00000000
_symmetry_Int_Tables_number   1
_chemical_formula_structural   Li15Cr2N9
_chemical_formula_sum   'Li60 Cr8 N36'
_cell_volume   980.20678041
_cell_formula_units_Z   4
loop_
 _symmetry_equiv_pos_site_id
 _symmetry_equiv_pos_as_xyz
  1  'x, y, z'
loop_
 _atom_site_type_symbol
 _atom_site_label
 _atom_site_symmetry_multiplicity
 _atom_site_fract_x
 _atom_site_fract_y
 _atom_site_fract_z
 _atom_site_occupancy
  Li  Li0  1  0.749880  0.749085  0.255160  1
  Li  Li1  1  0.743239  0.780448  0.910143  1
  Li  Li2  1  0.743297  0.909991  0.718446  1
  Li  Li3  1  0.743631  0.588102  0.784851  1
  Li  Li4  1  0.743893  0.714678  0.587199  1
  Li  Li5  1  0.713099  0.403992  0.935725  1
  Li  Li6  1  0.733817  0.563334  0.399571  1
  Li  Li7  1  0.717995  0.929660  0.097632  1
  Li  Li8  1  0.738825  0.102068  0.572146  1
  Li  Li9  1  0.516524  0.083619  0.226671  1
  Li  Li10  1  0.514878  0.234950  0.404288  1
  Li  Li11  1  0.514900  0.267807  0.081027  1
  Li  Li12  1  0.514720  0.406611  0.259704  1
  Li  Li13  1  0.499635  0.268656  0.768830  1
  Li  Li14  1  0.500365  0.768656  0.231170  1
  Li  Li15  1  0.500671  0.098620  0.599992  1
  Li  Li16  1  0.499329  0.598620  0.400008  1
  Li  Li17  1  0.485100  0.767807  0.918973  1
  Li  Li18  1  0.485280  0.906611  0.740296  1
  Li  Li19  1  0.483476  0.583619  0.773329  1
  Li  Li20  1  0.485122  0.734950  0.595712  1
  Li  Li21  1  0.282005  0.429660  0.902368  1
  Li  Li22  1  0.286901  0.903992  0.064275  1
  Li  Li23  1  0.261175  0.602068  0.427854  1
  Li  Li24  1  0.266183  0.063334  0.600429  1
  Li  Li25  1  0.256703  0.409991  0.281554  1
  Li  Li26  1  0.256761  0.280448  0.089857  1
  Li  Li27  1  0.256107  0.214678  0.412801  1
  Li  Li28  1  0.256369  0.088102  0.215149  1
  Li  Li29  1  0.249880  0.749085  0.244840  1
  Li  Li30  1  0.250120  0.249085  0.744840  1
  Li  Li31  1  0.243297  0.909991  0.781554  1
  Li  Li32  1  0.243893  0.714678  0.912801  1
  Li  Li33  1  0.243239  0.780448  0.589857  1
  Li  Li34  1  0.243631  0.588102  0.715149  1
  Li  Li35  1  0.217995  0.929660  0.402368  1
  Li  Li36  1  0.213099  0.403992  0.564275  1
  Li  Li37  1  0.238825  0.102068  0.927854  1
  Li  Li38  1  0.233817  0.563334  0.100429  1
  Li  Li39  1  0.014900  0.267807  0.418973  1
  Li  Li40  1  0.014720  0.406611  0.240296  1
  Li  Li41  1  0.016524  0.083619  0.273329  1
  Li  Li42  1  0.014878  0.234950  0.095712  1
  Li  Li43  1  0.000671  0.098620  0.900008  1
  Li  Li44  1  0.999329  0.598620  0.099992  1
  Li  Li45  1  0.999635  0.268656  0.731170  1
  Li  Li46  1  0.000365  0.768656  0.268830  1
  Li  Li47  1  0.983476  0.583619  0.726671  1
  Li  Li48  1  0.985122  0.734950  0.904288  1
  Li  Li49  1  0.985100  0.767807  0.581027  1
  Li  Li50  1  0.985280  0.906611  0.759704  1
  Li  Li51  1  0.766183  0.063334  0.899571  1
  Li  Li52  1  0.782005  0.429660  0.597632  1
  Li  Li53  1  0.786901  0.903992  0.435725  1
  Li  Li54  1  0.761175  0.602068  0.072146  1
  Li  Li55  1  0.756761  0.280448  0.410143  1
  Li  Li56  1  0.756369  0.088102  0.284851  1
  Li  Li57  1  0.756703  0.409991  0.218446  1
  Li  Li58  1  0.756107  0.214678  0.087199  1
  Li  Li59  1  0.750120  0.249085  0.755160  1
  Cr  Cr60  1  0.503290  0.078419  0.918835  1
  Cr  Cr61  1  0.503464  0.918545  0.421649  1
  Cr  Cr62  1  0.496710  0.578419  0.081165  1
  Cr  Cr63  1  0.496536  0.418545  0.578351  1
  Cr  Cr64  1  0.996710  0.578419  0.418835  1
  Cr  Cr65  1  0.996536  0.418545  0.921649  1
  Cr  Cr66  1  0.003290  0.078419  0.581165  1
  Cr  Cr67  1  0.003464  0.918545  0.078351  1
  N  N68  1  0.642288  0.248237  0.247307  1
  N  N69  1  0.623710  0.211392  0.917291  1
  N  N70  1  0.612603  0.587577  0.221454  1
  N  N71  1  0.612041  0.278434  0.587637  1
  N  N72  1  0.623985  0.917623  0.289013  1
  N  N73  1  0.605530  0.590347  0.942399  1
  N  N74  1  0.607363  0.936556  0.910206  1
  N  N75  1  0.603653  0.559731  0.580445  1
  N  N76  1  0.605870  0.918419  0.565552  1
  N  N77  1  0.394130  0.418419  0.434448  1
  N  N78  1  0.396347  0.059731  0.419555  1
  N  N79  1  0.392637  0.436556  0.089794  1
  N  N80  1  0.394470  0.090347  0.057601  1
  N  N81  1  0.376015  0.417623  0.710987  1
  N  N82  1  0.387959  0.778434  0.412363  1
  N  N83  1  0.387397  0.087577  0.778546  1
  N  N84  1  0.376290  0.711392  0.082709  1
  N  N85  1  0.357712  0.748237  0.752693  1
  N  N86  1  0.142288  0.248237  0.252693  1
  N  N87  1  0.112041  0.278434  0.912363  1
  N  N88  1  0.112603  0.587577  0.278546  1
  N  N89  1  0.123710  0.211392  0.582709  1
  N  N90  1  0.123985  0.917623  0.210987  1
  N  N91  1  0.105870  0.918419  0.934448  1
  N  N92  1  0.103653  0.559731  0.919555  1
  N  N93  1  0.107363  0.936556  0.589794  1
  N  N94  1  0.105530  0.590347  0.557601  1
  N  N95  1  0.896347  0.059731  0.080445  1
  N  N96  1  0.894470  0.090347  0.442399  1
  N  N97  1  0.892637  0.436556  0.410206  1
  N  N98  1  0.894130  0.418419  0.065552  1
  N  N99  1  0.876015  0.417623  0.789013  1
  N  N100  1  0.887397  0.087577  0.721454  1
  N  N101  1  0.876290  0.711392  0.417291  1
  N  N102  1  0.887959  0.778434  0.087637  1
  N  N103  1  0.857712  0.748237  0.747307  1
