# generated using pymatgen
data_BaCeI4
_symmetry_space_group_name_H-M   'P 1'
_cell_length_a   9.26117379
_cell_length_b   9.26117379
_cell_length_c   7.51540548
_cell_angle_alpha   72.23717623
_cell_angle_beta   107.76282377
_cell_angle_gamma   68.96756070
_symmetry_Int_Tables_number   1
_chemical_formula_structural   BaCeI4
_chemical_formula_sum   'Ba2 Ce2 I8'
_cell_volume   506.83175359
_cell_formula_units_Z   2
loop_
 _symmetry_equiv_pos_site_id
 _symmetry_equiv_pos_as_xyz
  1  'x, y, z'
loop_
 _atom_site_type_symbol
 _atom_site_label
 _atom_site_symmetry_multiplicity
 _atom_site_fract_x
 _atom_site_fract_y
 _atom_site_fract_z
 _atom_site_occupancy
  Ba  Ba0  1  0.634018  0.634018  0.250000  1
  Ba  Ba1  1  0.365982  0.365982  0.750000  1
  Ce  Ce2  1  0.999222  0.999222  0.250000  1
  Ce  Ce3  1  0.000778  0.000778  0.750000  1
  I  I4  1  0.642399  0.230300  0.282214  1
  I  I5  1  0.357601  0.769700  0.717786  1
  I  I6  1  0.769700  0.357601  0.782214  1
  I  I7  1  0.056829  0.287476  0.415639  1
  I  I8  1  0.712524  0.943171  0.915639  1
  I  I9  1  0.287476  0.056829  0.084361  1
  I  I10  1  0.943171  0.712524  0.584361  1
  I  I11  1  0.230300  0.642399  0.217786  1
