# generated using pymatgen
data_Ho2CdSe4
_symmetry_space_group_name_H-M   'P 1'
_cell_length_a   34.26609128
_cell_length_b   34.26609128
_cell_length_c   34.26609128
_cell_angle_alpha   14.00929298
_cell_angle_beta   14.00929298
_cell_angle_gamma   14.00929298
_symmetry_Int_Tables_number   1
_chemical_formula_structural   Ho2CdSe4
_chemical_formula_sum   'Ho20 Cd10 Se40'
_cell_volume   2052.09603198
_cell_formula_units_Z   10
loop_
 _symmetry_equiv_pos_site_id
 _symmetry_equiv_pos_as_xyz
  1  'x, y, z'
loop_
 _atom_site_type_symbol
 _atom_site_label
 _atom_site_symmetry_multiplicity
 _atom_site_fract_x
 _atom_site_fract_y
 _atom_site_fract_z
 _atom_site_occupancy
  Ho  Ho0  1  0.000363  0.000363  0.000363  1
  Ho  Ho1  1  0.619501  0.127969  0.127969  1
  Ho  Ho2  1  0.600546  0.600546  0.600546  1
  Ho  Ho3  1  0.127969  0.619501  0.127969  1
  Ho  Ho4  1  0.127969  0.127969  0.619501  1
  Ho  Ho5  1  0.219695  0.727886  0.727886  1
  Ho  Ho6  1  0.200556  0.200556  0.200556  1
  Ho  Ho7  1  0.727886  0.219695  0.727886  1
  Ho  Ho8  1  0.727886  0.727886  0.219695  1
  Ho  Ho9  1  0.820956  0.327060  0.327060  1
  Ho  Ho10  1  0.327060  0.820956  0.327060  1
  Ho  Ho11  1  0.327060  0.327060  0.820956  1
  Ho  Ho12  1  0.425173  0.924975  0.924975  1
  Ho  Ho13  1  0.924975  0.425173  0.924975  1
  Ho  Ho14  1  0.125122  0.125122  0.125122  1
  Ho  Ho15  1  0.023777  0.525791  0.525791  1
  Ho  Ho16  1  0.924975  0.924975  0.425173  1
  Ho  Ho17  1  0.525791  0.023777  0.525791  1
  Ho  Ho18  1  0.725128  0.725128  0.725128  1
  Ho  Ho19  1  0.525791  0.525791  0.023777  1
  Cd  Cd20  1  0.649544  0.649544  0.649544  1
  Cd  Cd21  1  0.249448  0.249448  0.249448  1
  Cd  Cd22  1  0.324196  0.324196  0.324196  1
  Cd  Cd23  1  0.849343  0.849343  0.849343  1
  Cd  Cd24  1  0.924371  0.924371  0.924371  1
  Cd  Cd25  1  0.449816  0.449816  0.449816  1
  Cd  Cd26  1  0.524314  0.524314  0.524314  1
  Cd  Cd27  1  0.800159  0.800159  0.800159  1
  Cd  Cd28  1  0.400060  0.400060  0.400060  1
  Cd  Cd29  1  0.050125  0.050125  0.050125  1
  Se  Se30  1  0.465347  0.465347  0.992685  1
  Se  Se31  1  0.465347  0.992685  0.465347  1
  Se  Se32  1  0.276297  0.276297  0.276297  1
  Se  Se33  1  0.992685  0.465347  0.465347  1
  Se  Se34  1  0.252991  0.786992  0.786992  1
  Se  Se35  1  0.065203  0.065203  0.592935  1
  Se  Se36  1  0.973554  0.973554  0.973554  1
  Se  Se37  1  0.065203  0.592935  0.065203  1
  Se  Se38  1  0.786992  0.252991  0.786992  1
  Se  Se39  1  0.876261  0.876261  0.876261  1
  Se  Se40  1  0.786992  0.786992  0.252991  1
  Se  Se41  1  0.592935  0.065203  0.065203  1
  Se  Se42  1  0.664867  0.664867  0.193358  1
  Se  Se43  1  0.852936  0.387003  0.387003  1
  Se  Se44  1  0.573618  0.573618  0.573618  1
  Se  Se45  1  0.387003  0.852936  0.387003  1
  Se  Se46  1  0.476286  0.476286  0.476286  1
  Se  Se47  1  0.664867  0.193358  0.664867  1
  Se  Se48  1  0.193358  0.664867  0.664867  1
  Se  Se49  1  0.387003  0.387003  0.852936  1
  Se  Se50  1  0.455255  0.985655  0.985655  1
  Se  Se51  1  0.264447  0.264447  0.794512  1
  Se  Se52  1  0.173589  0.173589  0.173589  1
  Se  Se53  1  0.264447  0.794512  0.264447  1
  Se  Se54  1  0.985655  0.455255  0.985655  1
  Se  Se55  1  0.076501  0.076501  0.076501  1
  Se  Se56  1  0.794512  0.264447  0.264447  1
  Se  Se57  1  0.985655  0.985655  0.455255  1
  Se  Se58  1  0.055787  0.585316  0.585316  1
  Se  Se59  1  0.864876  0.864876  0.393990  1
  Se  Se60  1  0.773556  0.773556  0.773556  1
  Se  Se61  1  0.864876  0.393990  0.864876  1
  Se  Se62  1  0.585316  0.055787  0.585316  1
  Se  Se63  1  0.676445  0.676445  0.676445  1
  Se  Se64  1  0.393990  0.864876  0.864876  1
  Se  Se65  1  0.585316  0.585316  0.055787  1
  Se  Se66  1  0.654109  0.186412  0.186412  1
  Se  Se67  1  0.373543  0.373543  0.373543  1
  Se  Se68  1  0.186412  0.654109  0.186412  1
  Se  Se69  1  0.186412  0.186412  0.654109  1
