# generated using pymatgen
data_B8O
_symmetry_space_group_name_H-M   'P 1'
_cell_length_a   7.35855705
_cell_length_b   5.31877692
_cell_length_c   10.27196532
_cell_angle_alpha   90.00000000
_cell_angle_beta   92.39542318
_cell_angle_gamma   90.00000000
_symmetry_Int_Tables_number   1
_chemical_formula_structural   B8O
_chemical_formula_sum   'B48 O6'
_cell_volume   401.67825044
_cell_formula_units_Z   6
loop_
 _symmetry_equiv_pos_site_id
 _symmetry_equiv_pos_as_xyz
  1  'x, y, z'
loop_
 _atom_site_type_symbol
 _atom_site_label
 _atom_site_symmetry_multiplicity
 _atom_site_fract_x
 _atom_site_fract_y
 _atom_site_fract_z
 _atom_site_occupancy
  B  B0  1  0.083163  0.416106  0.790330  1
  B  B1  1  0.676319  0.469242  0.699175  1
  B  B2  1  0.809036  0.484735  0.558711  1
  B  B3  1  0.580678  0.919336  0.543422  1
  B  B4  1  0.580678  0.580664  0.543422  1
  B  B5  1  0.419322  0.419336  0.456578  1
  B  B6  1  0.748790  0.750000  0.461297  1
  B  B7  1  0.323681  0.969242  0.300825  1
  B  B8  1  0.323681  0.530758  0.300825  1
  B  B9  1  0.088275  0.419612  0.286104  1
  B  B10  1  0.257155  0.250000  0.203516  1
  B  B11  1  0.685376  0.489932  0.198456  1
  B  B12  1  0.530922  0.750000  0.199060  1
  B  B13  1  0.950444  0.750000  0.063492  1
  B  B14  1  0.808394  0.488254  0.056820  1
  B  B15  1  0.575791  0.914935  0.045547  1
  B  B16  1  0.575791  0.585065  0.045547  1
  B  B17  1  0.424209  0.414935  0.954453  1
  B  B18  1  0.191606  0.511746  0.943180  1
  B  B19  1  0.191606  0.988254  0.943180  1
  B  B20  1  0.049556  0.250000  0.936508  1
  B  B21  1  0.743617  0.750000  0.960943  1
  B  B22  1  0.742845  0.750000  0.796484  1
  B  B23  1  0.314624  0.989932  0.801544  1
  B  B24  1  0.314624  0.510068  0.801544  1
  B  B25  1  0.083163  0.083894  0.790330  1
  B  B26  1  0.911725  0.580388  0.713896  1
  B  B27  1  0.911725  0.919612  0.713896  1
  B  B28  1  0.676319  0.030758  0.699175  1
  B  B29  1  0.251692  0.250000  0.703620  1
  B  B30  1  0.545878  0.750000  0.687215  1
  B  B31  1  0.949555  0.750000  0.566986  1
  B  B32  1  0.809036  0.015265  0.558711  1
  B  B33  1  0.419322  0.080664  0.456578  1
  B  B34  1  0.190964  0.515265  0.441289  1
  B  B35  1  0.190964  0.984735  0.441289  1
  B  B36  1  0.050445  0.250000  0.433014  1
  B  B37  1  0.454122  0.250000  0.312785  1
  B  B38  1  0.748308  0.750000  0.296380  1
  B  B39  1  0.088275  0.080388  0.286104  1
  B  B40  1  0.916837  0.583894  0.209670  1
  B  B41  1  0.916837  0.916106  0.209670  1
  B  B42  1  0.685376  0.010068  0.198456  1
  B  B43  1  0.256383  0.250000  0.039057  1
  B  B44  1  0.808394  0.011746  0.056820  1
  B  B45  1  0.424209  0.085065  0.954453  1
  B  B46  1  0.469078  0.250000  0.800940  1
  B  B47  1  0.251210  0.250000  0.538703  1
  O  O48  1  0.872042  0.250000  0.497125  1
  O  O49  1  0.632619  0.250000  0.256510  1
  O  O50  1  0.131204  0.750000  0.003262  1
  O  O51  1  0.868796  0.250000  0.996738  1
  O  O52  1  0.367381  0.750000  0.743490  1
  O  O53  1  0.127958  0.750000  0.502875  1
