# generated using pymatgen
data_K3Nb3(BO6)2
_symmetry_space_group_name_H-M   'P 1'
_cell_length_a   8.91678382
_cell_length_b   8.91678382
_cell_length_c   4.03286456
_cell_angle_alpha   90.00000000
_cell_angle_beta   90.00000000
_cell_angle_gamma   120.00000000
_symmetry_Int_Tables_number   1
_chemical_formula_structural   K3Nb3(BO6)2
_chemical_formula_sum   'K3 Nb3 B2 O12'
_cell_volume   277.69032169
_cell_formula_units_Z   1
loop_
 _symmetry_equiv_pos_site_id
 _symmetry_equiv_pos_as_xyz
  1  'x, y, z'
loop_
 _atom_site_type_symbol
 _atom_site_label
 _atom_site_symmetry_multiplicity
 _atom_site_fract_x
 _atom_site_fract_y
 _atom_site_fract_z
 _atom_site_occupancy
  K  K0  1  0.000000  0.596607  0.498339  1
  K  K1  1  0.596607  0.000000  0.498339  1
  K  K2  1  0.403393  0.403393  0.498339  1
  Nb  Nb3  1  0.247149  0.000000  0.020111  1
  Nb  Nb4  1  0.752851  0.752851  0.020111  1
  Nb  Nb5  1  0.000000  0.247149  0.020111  1
  B  B6  1  0.333333  0.666667  0.982239  1
  B  B7  1  0.666667  0.333333  0.982239  1
  O  O8  1  0.262301  0.000000  0.481445  1
  O  O9  1  0.316370  0.811943  0.981784  1
  O  O10  1  0.188057  0.504428  0.981784  1
  O  O11  1  0.820908  0.000000  0.986345  1
  O  O12  1  0.811943  0.316370  0.981784  1
  O  O13  1  0.495572  0.683630  0.981784  1
  O  O14  1  0.000000  0.820908  0.986345  1
  O  O15  1  0.179092  0.179092  0.986345  1
  O  O16  1  0.683630  0.495572  0.981784  1
  O  O17  1  0.737699  0.737699  0.481445  1
  O  O18  1  0.504428  0.188057  0.981784  1
  O  O19  1  0.000000  0.262301  0.481445  1
