# generated using pymatgen
data_RbLuP2O7
_symmetry_space_group_name_H-M   'P 1'
_cell_length_a   7.76972943
_cell_length_b   10.84856960
_cell_length_c   8.70166892
_cell_angle_alpha   90.00000000
_cell_angle_beta   105.49611908
_cell_angle_gamma   90.00000000
_symmetry_Int_Tables_number   1
_chemical_formula_structural   RbLuP2O7
_chemical_formula_sum   'Rb4 Lu4 P8 O28'
_cell_volume   706.80498463
_cell_formula_units_Z   4
loop_
 _symmetry_equiv_pos_site_id
 _symmetry_equiv_pos_as_xyz
  1  'x, y, z'
loop_
 _atom_site_type_symbol
 _atom_site_label
 _atom_site_symmetry_multiplicity
 _atom_site_fract_x
 _atom_site_fract_y
 _atom_site_fract_z
 _atom_site_occupancy
  Rb  Rb0  1  0.189747  0.682021  0.059053  1
  Rb  Rb1  1  0.189747  0.817979  0.559053  1
  Rb  Rb2  1  0.810253  0.182021  0.440947  1
  Rb  Rb3  1  0.810253  0.317979  0.940947  1
  Lu  Lu4  1  0.235899  0.099151  0.253652  1
  Lu  Lu5  1  0.764101  0.900849  0.746348  1
  Lu  Lu6  1  0.764101  0.599151  0.246348  1
  Lu  Lu7  1  0.235899  0.400849  0.753652  1
  P  P8  1  0.563604  0.864031  0.313975  1
  P  P9  1  0.130275  0.098822  0.820233  1
  P  P10  1  0.436396  0.135969  0.686025  1
  P  P11  1  0.563604  0.635969  0.813975  1
  P  P12  1  0.130275  0.401178  0.320233  1
  P  P13  1  0.436396  0.364031  0.186025  1
  P  P14  1  0.869725  0.901178  0.179767  1
  P  P15  1  0.869725  0.598822  0.679767  1
  O  O16  1  0.003549  0.498827  0.223216  1
  O  O17  1  0.921681  0.771216  0.247026  1
  O  O18  1  0.148170  0.090493  0.997609  1
  O  O19  1  0.378663  0.576194  0.767059  1
  O  O20  1  0.378663  0.923806  0.267059  1
  O  O21  1  0.326719  0.434071  0.297233  1
  O  O22  1  0.551607  0.772606  0.767817  1
  O  O23  1  0.673281  0.934071  0.202767  1
  O  O24  1  0.921681  0.728784  0.747026  1
  O  O25  1  0.851830  0.909507  0.002391  1
  O  O26  1  0.333374  0.110608  0.513589  1
  O  O27  1  0.996451  0.998827  0.276784  1
  O  O28  1  0.003549  0.001173  0.723216  1
  O  O29  1  0.673281  0.565929  0.702767  1
  O  O30  1  0.666626  0.889392  0.486411  1
  O  O31  1  0.996451  0.501173  0.776784  1
  O  O32  1  0.551607  0.727394  0.267817  1
  O  O33  1  0.448393  0.272606  0.732183  1
  O  O34  1  0.448393  0.227394  0.232183  1
  O  O35  1  0.666626  0.610608  0.986411  1
  O  O36  1  0.621337  0.076194  0.732941  1
  O  O37  1  0.078319  0.228784  0.752974  1
  O  O38  1  0.326719  0.065929  0.797233  1
  O  O39  1  0.148170  0.409507  0.497609  1
  O  O40  1  0.333374  0.389392  0.013589  1
  O  O41  1  0.621337  0.423806  0.232941  1
  O  O42  1  0.078319  0.271216  0.252974  1
  O  O43  1  0.851830  0.590493  0.502391  1
