# generated using pymatgen
data_Cr(MoS2)2
_symmetry_space_group_name_H-M   'P 1'
_cell_length_a   6.84879013
_cell_length_b   6.84879013
_cell_length_c   12.99364406
_cell_angle_alpha   68.82013744
_cell_angle_beta   111.17986256
_cell_angle_gamma   122.44198573
_symmetry_Int_Tables_number   1
_chemical_formula_structural   Cr(MoS2)2
_chemical_formula_sum   'Cr4 Mo8 S16'
_cell_volume   468.62776173
_cell_formula_units_Z   4
loop_
 _symmetry_equiv_pos_site_id
 _symmetry_equiv_pos_as_xyz
  1  'x, y, z'
loop_
 _atom_site_type_symbol
 _atom_site_label
 _atom_site_symmetry_multiplicity
 _atom_site_fract_x
 _atom_site_fract_y
 _atom_site_fract_z
 _atom_site_occupancy
  Cr  Cr0  1  0.882629  0.364680  0.751952  1
  Cr  Cr1  1  0.635320  0.117371  0.251952  1
  Cr  Cr2  1  0.117371  0.635320  0.248048  1
  Cr  Cr3  1  0.364680  0.882629  0.748048  1
  Mo  Mo4  1  0.503827  0.701012  0.006145  1
  Mo  Mo5  1  0.298988  0.496173  0.506145  1
  Mo  Mo6  1  0.496173  0.298988  0.993855  1
  Mo  Mo7  1  0.701012  0.503827  0.493855  1
  Mo  Mo8  1  0.942642  0.763662  0.992117  1
  Mo  Mo9  1  0.236338  0.057358  0.492117  1
  Mo  Mo10  1  0.057358  0.236338  0.007883  1
  Mo  Mo11  1  0.763662  0.942642  0.507883  1
  S  S12  1  0.585147  0.657499  0.852588  1
  S  S13  1  0.342501  0.414853  0.352588  1
  S  S14  1  0.414853  0.342501  0.147412  1
  S  S15  1  0.657499  0.585147  0.647412  1
  S  S16  1  0.373521  0.870476  0.105165  1
  S  S17  1  0.129524  0.626479  0.605165  1
  S  S18  1  0.626479  0.129524  0.894835  1
  S  S19  1  0.870476  0.373521  0.394835  1
  S  S20  1  0.897232  0.370263  0.112772  1
  S  S21  1  0.629737  0.102768  0.612772  1
  S  S22  1  0.102768  0.629737  0.887228  1
  S  S23  1  0.370263  0.897232  0.387228  1
  S  S24  1  0.115504  0.147515  0.864556  1
  S  S25  1  0.852485  0.884496  0.364556  1
  S  S26  1  0.884496  0.852485  0.135444  1
  S  S27  1  0.147515  0.115504  0.635444  1
