# generated using pymatgen
data_BaYMn2O6
_symmetry_space_group_name_H-M   'P 1'
_cell_length_a   5.56680917
_cell_length_b   5.56680917
_cell_length_c   7.85606100
_cell_angle_alpha   89.62810687
_cell_angle_beta   90.37189313
_cell_angle_gamma   91.03403573
_symmetry_Int_Tables_number   1
_chemical_formula_structural   BaYMn2O6
_chemical_formula_sum   'Ba2 Y2 Mn4 O12'
_cell_volume   243.40461653
_cell_formula_units_Z   2
loop_
 _symmetry_equiv_pos_site_id
 _symmetry_equiv_pos_as_xyz
  1  'x, y, z'
loop_
 _atom_site_type_symbol
 _atom_site_label
 _atom_site_symmetry_multiplicity
 _atom_site_fract_x
 _atom_site_fract_y
 _atom_site_fract_z
 _atom_site_occupancy
  Ba  Ba0  1  0.752969  0.247031  0.005963  1
  Ba  Ba1  1  0.247031  0.752969  0.994037  1
  Y  Y2  1  0.231428  0.768572  0.492855  1
  Y  Y3  1  0.768572  0.231428  0.507145  1
  Mn  Mn4  1  0.749554  0.746818  0.741611  1
  Mn  Mn5  1  0.746818  0.749554  0.258389  1
  Mn  Mn6  1  0.250446  0.253182  0.258389  1
  Mn  Mn7  1  0.253182  0.250446  0.741611  1
  O  O8  1  0.968012  0.031988  0.757002  1
  O  O9  1  0.031988  0.968012  0.242998  1
  O  O10  1  0.806374  0.806374  0.500000  1
  O  O11  1  0.731412  0.731412  0.000000  1
  O  O12  1  0.466244  0.533756  0.306323  1
  O  O13  1  0.471492  0.966696  0.714305  1
  O  O14  1  0.193626  0.193626  0.500000  1
  O  O15  1  0.268588  0.268588  0.000000  1
  O  O16  1  0.528508  0.033304  0.285695  1
  O  O17  1  0.033304  0.528508  0.714305  1
  O  O18  1  0.533756  0.466244  0.693677  1
  O  O19  1  0.966696  0.471492  0.285695  1
