# generated using pymatgen
data_Sr9LuV7O28
_symmetry_space_group_name_H-M   'P 1'
_cell_length_a   14.89978241
_cell_length_b   14.89978241
_cell_length_c   14.89978241
_cell_angle_alpha   44.83848631
_cell_angle_beta   44.83848631
_cell_angle_gamma   44.83848631
_symmetry_Int_Tables_number   1
_chemical_formula_structural   Sr9LuV7O28
_chemical_formula_sum   'Sr18 Lu2 V14 O56'
_cell_volume   1496.35004286
_cell_formula_units_Z   2
loop_
 _symmetry_equiv_pos_site_id
 _symmetry_equiv_pos_as_xyz
  1  'x, y, z'
loop_
 _atom_site_type_symbol
 _atom_site_label
 _atom_site_symmetry_multiplicity
 _atom_site_fract_x
 _atom_site_fract_y
 _atom_site_fract_z
 _atom_site_occupancy
  Sr  Sr0  1  0.948597  0.546478  0.529679  1
  Sr  Sr1  1  0.092650  0.064869  0.646784  1
  Sr  Sr2  1  0.592650  0.146784  0.564869  1
  Sr  Sr3  1  0.422540  0.846500  0.433034  1
  Sr  Sr4  1  0.846500  0.433034  0.422540  1
  Sr  Sr5  1  0.064869  0.646784  0.092650  1
  Sr  Sr6  1  0.564869  0.592650  0.146784  1
  Sr  Sr7  1  0.029679  0.046478  0.448597  1
  Sr  Sr8  1  0.346500  0.922540  0.933034  1
  Sr  Sr9  1  0.922540  0.933034  0.346500  1
  Sr  Sr10  1  0.546478  0.529679  0.948597  1
  Sr  Sr11  1  0.529679  0.948597  0.546478  1
  Sr  Sr12  1  0.933034  0.346500  0.922540  1
  Sr  Sr13  1  0.046478  0.448597  0.029679  1
  Sr  Sr14  1  0.448597  0.029679  0.046478  1
  Sr  Sr15  1  0.646784  0.092650  0.064869  1
  Sr  Sr16  1  0.433034  0.422540  0.846500  1
  Sr  Sr17  1  0.146784  0.564869  0.592650  1
  Lu  Lu18  1  0.500097  0.500097  0.500097  1
  Lu  Lu19  1  0.000097  0.000097  0.000097  1
  V  V20  1  0.179434  0.691344  0.723785  1
  V  V21  1  0.191344  0.679434  0.223785  1
  V  V22  1  0.679434  0.223785  0.191344  1
  V  V23  1  0.812808  0.312296  0.280011  1
  V  V24  1  0.223785  0.191344  0.679434  1
  V  V25  1  0.812296  0.312808  0.780011  1
  V  V26  1  0.691344  0.723785  0.179434  1
  V  V27  1  0.229025  0.229025  0.229025  1
  V  V28  1  0.312808  0.780011  0.812296  1
  V  V29  1  0.780011  0.812296  0.312808  1
  V  V30  1  0.729025  0.729025  0.729025  1
  V  V31  1  0.280011  0.812808  0.312296  1
  V  V32  1  0.723785  0.179434  0.691344  1
  V  V33  1  0.312296  0.280011  0.812808  1
  O  O34  1  0.685793  0.685793  0.685793  1
  O  O35  1  0.371266  0.624489  0.142647  1
  O  O36  1  0.619506  0.621876  0.363915  1
  O  O37  1  0.141673  0.595597  0.236717  1
  O  O38  1  0.893558  0.323505  0.313115  1
  O  O39  1  0.871266  0.642647  0.124489  1
  O  O40  1  0.164964  0.606156  0.892372  1
  O  O41  1  0.128974  0.869924  0.889084  1
  O  O42  1  0.863915  0.121876  0.119506  1
  O  O43  1  0.364781  0.844427  0.636683  1
  O  O44  1  0.121876  0.119506  0.863915  1
  O  O45  1  0.724431  0.896689  0.601083  1
  O  O46  1  0.636683  0.364781  0.844427  1
  O  O47  1  0.642647  0.124489  0.871266  1
  O  O48  1  0.856621  0.406901  0.101402  1
  O  O49  1  0.823505  0.393558  0.813115  1
  O  O50  1  0.119506  0.863915  0.121876  1
  O  O51  1  0.889084  0.128974  0.869924  1
  O  O52  1  0.101083  0.396689  0.224431  1
  O  O53  1  0.601402  0.906901  0.356621  1
  O  O54  1  0.606156  0.892372  0.164964  1
  O  O55  1  0.601083  0.724431  0.896689  1
  O  O56  1  0.313115  0.893558  0.323505  1
  O  O57  1  0.813115  0.823505  0.393558  1
  O  O58  1  0.406901  0.101402  0.856621  1
  O  O59  1  0.844427  0.636683  0.364781  1
  O  O60  1  0.185793  0.185793  0.185793  1
  O  O61  1  0.393558  0.813115  0.823505  1
  O  O62  1  0.101402  0.856621  0.406901  1
  O  O63  1  0.142647  0.371266  0.624489  1
  O  O64  1  0.136683  0.344427  0.864781  1
  O  O65  1  0.628974  0.389084  0.369924  1
  O  O66  1  0.344427  0.864781  0.136683  1
  O  O67  1  0.323505  0.313115  0.893558  1
  O  O68  1  0.396689  0.224431  0.101083  1
  O  O69  1  0.392372  0.106156  0.664964  1
  O  O70  1  0.736717  0.095597  0.641673  1
  O  O71  1  0.624489  0.142647  0.371266  1
  O  O72  1  0.906901  0.356621  0.601402  1
  O  O73  1  0.641673  0.736717  0.095597  1
  O  O74  1  0.389084  0.369924  0.628974  1
  O  O75  1  0.224431  0.101083  0.396689  1
  O  O76  1  0.124489  0.871266  0.642647  1
  O  O77  1  0.864781  0.136683  0.344427  1
  O  O78  1  0.356621  0.601402  0.906901  1
  O  O79  1  0.664964  0.392372  0.106156  1
  O  O80  1  0.369924  0.628974  0.389084  1
  O  O81  1  0.595597  0.236717  0.141673  1
  O  O82  1  0.106156  0.664964  0.392372  1
  O  O83  1  0.869924  0.889084  0.128974  1
  O  O84  1  0.363915  0.619506  0.621876  1
  O  O85  1  0.236717  0.141673  0.595597  1
  O  O86  1  0.095597  0.641673  0.736717  1
  O  O87  1  0.621876  0.363915  0.619506  1
  O  O88  1  0.892372  0.164964  0.606156  1
  O  O89  1  0.896689  0.601083  0.724431  1
