# generated using pymatgen
data_V6O13
_symmetry_space_group_name_H-M   'P 1'
_cell_length_a   11.71056277
_cell_length_b   10.22524570
_cell_length_c   6.29844555
_cell_angle_alpha   86.84516372
_cell_angle_beta   60.67328685
_cell_angle_gamma   32.48154944
_symmetry_Int_Tables_number   1
_chemical_formula_structural   V6O13
_chemical_formula_sum   'V6 O13'
_cell_volume   227.45520965
_cell_formula_units_Z   1
loop_
 _symmetry_equiv_pos_site_id
 _symmetry_equiv_pos_as_xyz
  1  'x, y, z'
loop_
 _atom_site_type_symbol
 _atom_site_label
 _atom_site_symmetry_multiplicity
 _atom_site_fract_x
 _atom_site_fract_y
 _atom_site_fract_z
 _atom_site_occupancy
  V  V0  1  0.035189  0.330797  0.669203  1
  V  V1  1  0.669203  0.964811  0.035189  1
  V  V2  1  0.850637  0.149363  0.850637  1
  V  V3  1  0.149363  0.850637  0.149363  1
  V  V4  1  0.964811  0.669203  0.330797  1
  V  V5  1  0.330797  0.035189  0.964811  1
  O  O6  1  0.748689  0.052932  0.947068  1
  O  O7  1  0.947068  0.251311  0.748689  1
  O  O8  1  0.679747  0.320253  0.679747  1
  O  O9  1  0.475306  0.120248  0.879752  1
  O  O10  1  0.320253  0.679747  0.320253  1
  O  O11  1  0.120248  0.475306  0.524694  1
  O  O12  1  0.524694  0.879752  0.120248  1
  O  O13  1  0.802314  0.802314  0.197686  1
  O  O14  1  0.879752  0.524694  0.475306  1
  O  O15  1  0.000000  0.000000  0.000000  1
  O  O16  1  0.251311  0.947068  0.052932  1
  O  O17  1  0.197686  0.197686  0.802314  1
  O  O18  1  0.052932  0.748689  0.251311  1
