# generated using pymatgen
data_TiAs2H4O9
_symmetry_space_group_name_H-M   'P 1'
_cell_length_a   8.99587239
_cell_length_b   5.17893436
_cell_length_c   16.97968867
_cell_angle_alpha   90.00000000
_cell_angle_beta   109.19446385
_cell_angle_gamma   90.00000000
_symmetry_Int_Tables_number   1
_chemical_formula_structural   TiAs2H4O9
_chemical_formula_sum   'Ti4 As8 H16 O36'
_cell_volume   747.09036981
_cell_formula_units_Z   4
loop_
 _symmetry_equiv_pos_site_id
 _symmetry_equiv_pos_as_xyz
  1  'x, y, z'
loop_
 _atom_site_type_symbol
 _atom_site_label
 _atom_site_symmetry_multiplicity
 _atom_site_fract_x
 _atom_site_fract_y
 _atom_site_fract_z
 _atom_site_occupancy
  Ti  Ti0  1  0.759100  0.256741  0.512760  1
  Ti  Ti1  1  0.240900  0.756741  0.987240  1
  Ti  Ti2  1  0.240900  0.743259  0.487240  1
  Ti  Ti3  1  0.759100  0.243259  0.012760  1
  As  As4  1  0.995825  0.758714  0.605334  1
  As  As5  1  0.004175  0.258714  0.894666  1
  As  As6  1  0.004175  0.241286  0.394666  1
  As  As7  1  0.995825  0.741286  0.105334  1
  As  As8  1  0.463134  0.238423  0.596179  1
  As  As9  1  0.536866  0.738423  0.903821  1
  As  As10  1  0.536866  0.761577  0.403821  1
  As  As11  1  0.463134  0.261577  0.096179  1
  H  H12  1  0.413962  0.273117  0.222288  1
  H  H13  1  0.586038  0.773117  0.277712  1
  H  H14  1  0.586038  0.726883  0.777712  1
  H  H15  1  0.413962  0.226883  0.722288  1
  H  H16  1  0.153504  0.577011  0.230906  1
  H  H17  1  0.846496  0.077011  0.269094  1
  H  H18  1  0.846496  0.422989  0.769094  1
  H  H19  1  0.153504  0.922989  0.730906  1
  H  H20  1  0.201303  0.122558  0.253188  1
  H  H21  1  0.798697  0.622558  0.246812  1
  H  H22  1  0.798697  0.877442  0.746812  1
  H  H23  1  0.201303  0.377442  0.753188  1
  H  H24  1  0.698738  0.809443  0.176543  1
  H  H25  1  0.301262  0.309443  0.323457  1
  H  H26  1  0.301262  0.190557  0.823457  1
  H  H27  1  0.698738  0.690557  0.676543  1
  O  O28  1  0.126513  0.866175  0.559232  1
  O  O29  1  0.873487  0.366175  0.940768  1
  O  O30  1  0.873487  0.133825  0.440768  1
  O  O31  1  0.126513  0.633825  0.059232  1
  O  O32  1  0.942621  0.443242  0.586376  1
  O  O33  1  0.057379  0.943242  0.913624  1
  O  O34  1  0.057379  0.556758  0.413624  1
  O  O35  1  0.942621  0.056758  0.086376  1
  O  O36  1  0.834727  0.954951  0.586373  1
  O  O37  1  0.165273  0.454951  0.913627  1
  O  O38  1  0.165273  0.045049  0.413627  1
  O  O39  1  0.834727  0.545049  0.086373  1
  O  O40  1  0.096463  0.754504  0.713154  1
  O  O41  1  0.903537  0.254504  0.786846  1
  O  O42  1  0.903537  0.245496  0.286846  1
  O  O43  1  0.096463  0.745496  0.213154  1
  O  O44  1  0.303004  0.432802  0.554461  1
  O  O45  1  0.696996  0.932802  0.945539  1
  O  O46  1  0.696996  0.567198  0.445539  1
  O  O47  1  0.303004  0.067198  0.054461  1
  O  O48  1  0.427391  0.927804  0.560503  1
  O  O49  1  0.572609  0.427804  0.939497  1
  O  O50  1  0.572609  0.072196  0.439497  1
  O  O51  1  0.427391  0.572196  0.060503  1
  O  O52  1  0.631115  0.359991  0.583943  1
  O  O53  1  0.368885  0.859991  0.916057  1
  O  O54  1  0.368885  0.640009  0.416057  1
  O  O55  1  0.631115  0.140009  0.083943  1
  O  O56  1  0.509602  0.238865  0.704109  1
  O  O57  1  0.490398  0.738865  0.795891  1
  O  O58  1  0.490398  0.761135  0.295891  1
  O  O59  1  0.509602  0.261135  0.204109  1
  O  O60  1  0.740956  0.712742  0.737306  1
  O  O61  1  0.259044  0.212742  0.762694  1
  O  O62  1  0.259044  0.287258  0.262694  1
  O  O63  1  0.740956  0.787258  0.237306  1
