# generated using pymatgen
data_Nd5As4(ClO4)3
_symmetry_space_group_name_H-M   'P 1'
_cell_length_a   10.41949119
_cell_length_b   5.48944211
_cell_length_c   17.01238760
_cell_angle_alpha   90.00000000
_cell_angle_beta   123.73497322
_cell_angle_gamma   90.00000000
_symmetry_Int_Tables_number   1
_chemical_formula_structural   Nd5As4(ClO4)3
_chemical_formula_sum   'Nd10 As8 Cl6 O24'
_cell_volume   809.21226451
_cell_formula_units_Z   2
loop_
 _symmetry_equiv_pos_site_id
 _symmetry_equiv_pos_as_xyz
  1  'x, y, z'
loop_
 _atom_site_type_symbol
 _atom_site_label
 _atom_site_symmetry_multiplicity
 _atom_site_fract_x
 _atom_site_fract_y
 _atom_site_fract_z
 _atom_site_occupancy
  Nd  Nd0  1  0.495672  0.764560  0.414287  1
  Nd  Nd1  1  0.836600  0.744045  0.031828  1
  Nd  Nd2  1  0.495672  0.235440  0.914287  1
  Nd  Nd3  1  0.500000  0.708059  0.750000  1
  Nd  Nd4  1  0.163400  0.744045  0.468172  1
  Nd  Nd5  1  0.163400  0.255955  0.968172  1
  Nd  Nd6  1  0.504328  0.235440  0.585713  1
  Nd  Nd7  1  0.500000  0.291941  0.250000  1
  Nd  Nd8  1  0.504328  0.764560  0.085713  1
  Nd  Nd9  1  0.836600  0.255955  0.531828  1
  As  As10  1  0.229177  0.261616  0.638232  1
  As  As11  1  0.229177  0.738384  0.138232  1
  As  As12  1  0.756692  0.763250  0.649702  1
  As  As13  1  0.770823  0.738384  0.361768  1
  As  As14  1  0.756692  0.236750  0.149702  1
  As  As15  1  0.243308  0.236750  0.350298  1
  As  As16  1  0.243308  0.763250  0.850298  1
  As  As17  1  0.770823  0.261616  0.861768  1
  Cl  Cl18  1  0.996736  0.753656  0.919972  1
  Cl  Cl19  1  0.003264  0.753656  0.580028  1
  Cl  Cl20  1  0.000000  0.747699  0.250000  1
  Cl  Cl21  1  0.000000  0.252301  0.750000  1
  Cl  Cl22  1  0.996736  0.246344  0.419972  1
  Cl  Cl23  1  0.003264  0.246344  0.080028  1
  O  O24  1  0.327733  0.488490  0.436316  1
  O  O25  1  0.315878  0.000715  0.945403  1
  O  O26  1  0.315878  0.999285  0.445403  1
  O  O27  1  0.327733  0.511510  0.936316  1
  O  O28  1  0.637573  0.652239  0.242149  1
  O  O29  1  0.593304  0.172823  0.155500  1
  O  O30  1  0.679991  0.005777  0.879260  1
  O  O31  1  0.679991  0.994223  0.379260  1
  O  O32  1  0.684122  0.999285  0.054597  1
  O  O33  1  0.593304  0.827177  0.655500  1
  O  O34  1  0.362427  0.347761  0.757851  1
  O  O35  1  0.320009  0.994223  0.120740  1
  O  O36  1  0.320009  0.005777  0.620740  1
  O  O37  1  0.684122  0.000715  0.554597  1
  O  O38  1  0.689178  0.513351  0.403107  1
  O  O39  1  0.672267  0.488490  0.063684  1
  O  O40  1  0.310822  0.486649  0.596893  1
  O  O41  1  0.362427  0.652239  0.257851  1
  O  O42  1  0.672267  0.511510  0.563684  1
  O  O43  1  0.406696  0.172823  0.344500  1
  O  O44  1  0.637573  0.347761  0.742149  1
  O  O45  1  0.406696  0.827177  0.844500  1
  O  O46  1  0.310822  0.513351  0.096893  1
  O  O47  1  0.689178  0.486649  0.903107  1
