# generated using pymatgen
data_Sm3Ga5O12
_symmetry_space_group_name_H-M   'P 1'
_cell_length_a   10.88299112
_cell_length_b   10.88299112
_cell_length_c   10.88299112
_cell_angle_alpha   109.47122063
_cell_angle_beta   109.47122063
_cell_angle_gamma   109.47122063
_symmetry_Int_Tables_number   1
_chemical_formula_structural   Sm3Ga5O12
_chemical_formula_sum   'Sm12 Ga20 O48'
_cell_volume   992.25417244
_cell_formula_units_Z   4
loop_
 _symmetry_equiv_pos_site_id
 _symmetry_equiv_pos_as_xyz
  1  'x, y, z'
loop_
 _atom_site_type_symbol
 _atom_site_label
 _atom_site_symmetry_multiplicity
 _atom_site_fract_x
 _atom_site_fract_y
 _atom_site_fract_z
 _atom_site_occupancy
  Sm  Sm0  1  0.250000  0.875000  0.625000  1
  Sm  Sm1  1  0.875000  0.625000  0.250000  1
  Sm  Sm2  1  0.625000  0.875000  0.750000  1
  Sm  Sm3  1  0.875000  0.750000  0.625000  1
  Sm  Sm4  1  0.625000  0.250000  0.875000  1
  Sm  Sm5  1  0.750000  0.625000  0.875000  1
  Sm  Sm6  1  0.750000  0.125000  0.375000  1
  Sm  Sm7  1  0.125000  0.375000  0.750000  1
  Sm  Sm8  1  0.375000  0.125000  0.250000  1
  Sm  Sm9  1  0.125000  0.250000  0.375000  1
  Sm  Sm10  1  0.375000  0.750000  0.125000  1
  Sm  Sm11  1  0.250000  0.375000  0.125000  1
  Ga  Ga12  1  0.250000  0.125000  0.875000  1
  Ga  Ga13  1  0.750000  0.875000  0.125000  1
  Ga  Ga14  1  0.375000  0.250000  0.625000  1
  Ga  Ga15  1  0.625000  0.375000  0.250000  1
  Ga  Ga16  1  0.125000  0.750000  0.875000  1
  Ga  Ga17  1  0.875000  0.125000  0.750000  1
  Ga  Ga18  1  0.750000  0.375000  0.625000  1
  Ga  Ga19  1  0.375000  0.625000  0.750000  1
  Ga  Ga20  1  0.125000  0.875000  0.250000  1
  Ga  Ga21  1  0.875000  0.250000  0.125000  1
  Ga  Ga22  1  0.625000  0.750000  0.375000  1
  Ga  Ga23  1  0.250000  0.625000  0.375000  1
  Ga  Ga24  1  0.500000  0.500000  0.500000  1
  Ga  Ga25  1  0.500000  0.500000  0.000000  1
  Ga  Ga26  1  0.500000  0.000000  0.500000  1
  Ga  Ga27  1  0.000000  0.500000  0.500000  1
  Ga  Ga28  1  0.500000  0.000000  1.000000  1
  Ga  Ga29  1  0.000000  0.000000  0.500000  1
  Ga  Ga30  1  0.000000  0.500000  0.000000  1
  Ga  Ga31  1  0.000000  0.000000  0.000000  1
  O  O32  1  0.296840  0.474889  0.379071  1
  O  O33  1  0.025111  0.321951  0.904182  1
  O  O34  1  0.120929  0.595818  0.917769  1
  O  O35  1  0.203160  0.582231  0.178049  1
  O  O36  1  0.203160  0.120929  0.025111  1
  O  O37  1  0.582231  0.178049  0.203160  1
  O  O38  1  0.595818  0.178049  0.474889  1
  O  O39  1  0.178049  0.203160  0.582231  1
  O  O40  1  0.904182  0.379071  0.582231  1
  O  O41  1  0.321951  0.917769  0.296840  1
  O  O42  1  0.917769  0.296840  0.321951  1
  O  O43  1  0.025111  0.203160  0.120929  1
  O  O44  1  0.178049  0.474889  0.595818  1
  O  O45  1  0.582231  0.904182  0.379071  1
  O  O46  1  0.120929  0.025111  0.203160  1
  O  O47  1  0.474889  0.595818  0.178049  1
  O  O48  1  0.379071  0.582231  0.904182  1
  O  O49  1  0.904182  0.025111  0.321951  1
  O  O50  1  0.595818  0.917769  0.120929  1
  O  O51  1  0.095818  0.620929  0.417769  1
  O  O52  1  0.917769  0.120929  0.595818  1
  O  O53  1  0.379071  0.296840  0.474889  1
  O  O54  1  0.321951  0.904182  0.025111  1
  O  O55  1  0.296840  0.321951  0.917769  1
  O  O56  1  0.703160  0.525111  0.620929  1
  O  O57  1  0.974889  0.678049  0.095818  1
  O  O58  1  0.879071  0.404182  0.082231  1
  O  O59  1  0.796840  0.417769  0.821951  1
  O  O60  1  0.796840  0.879071  0.974889  1
  O  O61  1  0.417769  0.821951  0.796840  1
  O  O62  1  0.404182  0.821951  0.525111  1
  O  O63  1  0.821951  0.796840  0.417769  1
  O  O64  1  0.703160  0.678049  0.082231  1
  O  O65  1  0.678049  0.095818  0.974889  1
  O  O66  1  0.620929  0.703160  0.525111  1
  O  O67  1  0.525111  0.620929  0.703160  1
  O  O68  1  0.082231  0.879071  0.404182  1
  O  O69  1  0.404182  0.082231  0.879071  1
  O  O70  1  0.095818  0.974889  0.678049  1
  O  O71  1  0.620929  0.417769  0.095818  1
  O  O72  1  0.525111  0.404182  0.821951  1
  O  O73  1  0.879071  0.974889  0.796840  1
  O  O74  1  0.417769  0.095818  0.620929  1
  O  O75  1  0.821951  0.525111  0.404182  1
  O  O76  1  0.974889  0.796840  0.879071  1
  O  O77  1  0.082231  0.703160  0.678049  1
  O  O78  1  0.678049  0.082231  0.703160  1
  O  O79  1  0.474889  0.379071  0.296840  1
