# generated using pymatgen
data_Ce2SiSeO4
_symmetry_space_group_name_H-M   'P 1'
_cell_length_a   6.28538825
_cell_length_b   7.26030095
_cell_length_c   11.17910337
_cell_angle_alpha   90.00000000
_cell_angle_beta   90.00000000
_cell_angle_gamma   90.00000000
_symmetry_Int_Tables_number   1
_chemical_formula_structural   Ce2SiSeO4
_chemical_formula_sum   'Ce8 Si4 Se4 O16'
_cell_volume   510.14508232
_cell_formula_units_Z   4
loop_
 _symmetry_equiv_pos_site_id
 _symmetry_equiv_pos_as_xyz
  1  'x, y, z'
loop_
 _atom_site_type_symbol
 _atom_site_label
 _atom_site_symmetry_multiplicity
 _atom_site_fract_x
 _atom_site_fract_y
 _atom_site_fract_z
 _atom_site_occupancy
  Ce  Ce0  1  0.132218  0.034472  0.250000  1
  Ce  Ce1  1  0.132218  0.465528  0.750000  1
  Ce  Ce2  1  0.867782  0.534472  0.250000  1
  Ce  Ce3  1  0.867782  0.965528  0.750000  1
  Ce  Ce4  1  0.607462  0.250000  0.000000  1
  Ce  Ce5  1  0.392538  0.750000  0.500000  1
  Ce  Ce6  1  0.392538  0.750000  0.000000  1
  Ce  Ce7  1  0.607462  0.250000  0.500000  1
  Si  Si8  1  0.112964  0.250000  0.000000  1
  Si  Si9  1  0.887036  0.750000  0.500000  1
  Si  Si10  1  0.887036  0.750000  0.000000  1
  Si  Si11  1  0.112964  0.250000  0.500000  1
  Se  Se12  1  0.424178  0.389157  0.250000  1
  Se  Se13  1  0.424178  0.110843  0.750000  1
  Se  Se14  1  0.575822  0.889157  0.250000  1
  Se  Se15  1  0.575822  0.610843  0.750000  1
  O  O16  1  0.046779  0.765537  0.117325  1
  O  O17  1  0.046779  0.734463  0.882675  1
  O  O18  1  0.953221  0.265537  0.382675  1
  O  O19  1  0.953221  0.234463  0.617325  1
  O  O20  1  0.953221  0.234463  0.882675  1
  O  O21  1  0.953221  0.265537  0.117325  1
  O  O22  1  0.046779  0.734463  0.617325  1
  O  O23  1  0.046779  0.765537  0.382675  1
  O  O24  1  0.270056  0.075139  0.031602  1
  O  O25  1  0.270056  0.424861  0.968398  1
  O  O26  1  0.729944  0.575139  0.468398  1
  O  O27  1  0.729944  0.924861  0.531602  1
  O  O28  1  0.729944  0.924861  0.968398  1
  O  O29  1  0.729944  0.575139  0.031602  1
  O  O30  1  0.270056  0.424861  0.531602  1
  O  O31  1  0.270056  0.075139  0.468398  1
