# generated using pymatgen
data_Li2Fe(PO3)4
_symmetry_space_group_name_H-M   'P 1'
_cell_length_a   9.39189760
_cell_length_b   9.49204556
_cell_length_c   10.13967086
_cell_angle_alpha   90.00000000
_cell_angle_beta   90.00000000
_cell_angle_gamma   90.00000000
_symmetry_Int_Tables_number   1
_chemical_formula_structural   Li2Fe(PO3)4
_chemical_formula_sum   'Li8 Fe4 P16 O48'
_cell_volume   903.93462165
_cell_formula_units_Z   4
loop_
 _symmetry_equiv_pos_site_id
 _symmetry_equiv_pos_as_xyz
  1  'x, y, z'
loop_
 _atom_site_type_symbol
 _atom_site_label
 _atom_site_symmetry_multiplicity
 _atom_site_fract_x
 _atom_site_fract_y
 _atom_site_fract_z
 _atom_site_occupancy
  Li  Li0  1  0.397121  0.003336  0.170277  1
  Li  Li1  1  0.602879  0.496664  0.670277  1
  Li  Li2  1  0.602879  0.996664  0.829723  1
  Li  Li3  1  0.397121  0.503336  0.329723  1
  Li  Li4  1  0.897121  0.996664  0.829723  1
  Li  Li5  1  0.897121  0.496664  0.670277  1
  Li  Li6  1  0.102879  0.003336  0.170277  1
  Li  Li7  1  0.102879  0.503336  0.329723  1
  Fe  Fe8  1  0.750000  0.987423  0.197196  1
  Fe  Fe9  1  0.250000  0.512577  0.697196  1
  Fe  Fe10  1  0.750000  0.487423  0.302804  1
  Fe  Fe11  1  0.250000  0.012577  0.802804  1
  P  P12  1  0.750000  0.194629  0.603250  1
  P  P13  1  0.535704  0.706603  0.113755  1
  P  P14  1  0.464296  0.793397  0.613755  1
  P  P15  1  0.250000  0.305371  0.103250  1
  P  P16  1  0.464296  0.293397  0.886245  1
  P  P17  1  0.035704  0.793397  0.613755  1
  P  P18  1  0.964296  0.706603  0.113755  1
  P  P19  1  0.535704  0.206603  0.386245  1
  P  P20  1  0.750000  0.694629  0.896750  1
  P  P21  1  0.250000  0.726513  0.980101  1
  P  P22  1  0.250000  0.226513  0.519899  1
  P  P23  1  0.750000  0.773487  0.480101  1
  P  P24  1  0.250000  0.805371  0.396750  1
  P  P25  1  0.750000  0.273487  0.019899  1
  P  P26  1  0.035704  0.293397  0.886245  1
  P  P27  1  0.964296  0.206603  0.386245  1
  O  O28  1  0.750000  0.851646  0.880441  1
  O  O29  1  0.250000  0.148354  0.119559  1
  O  O30  1  0.250000  0.143784  0.644165  1
  O  O31  1  0.883052  0.645569  0.986312  1
  O  O32  1  0.566299  0.112506  0.270184  1
  O  O33  1  0.433701  0.887494  0.729816  1
  O  O34  1  0.057226  0.636294  0.624788  1
  O  O35  1  0.442774  0.136294  0.875212  1
  O  O36  1  0.750000  0.614245  0.473555  1
  O  O37  1  0.933701  0.612506  0.229816  1
  O  O38  1  0.750000  0.114245  0.026445  1
  O  O39  1  0.624635  0.827945  0.574333  1
  O  O40  1  0.057226  0.136294  0.875212  1
  O  O41  1  0.750000  0.356216  0.144165  1
  O  O42  1  0.375365  0.172055  0.425667  1
  O  O43  1  0.375365  0.672055  0.074333  1
  O  O44  1  0.624635  0.327945  0.925667  1
  O  O45  1  0.383052  0.854431  0.486312  1
  O  O46  1  0.250000  0.643784  0.855835  1
  O  O47  1  0.883052  0.145569  0.513688  1
  O  O48  1  0.442774  0.636294  0.624788  1
  O  O49  1  0.566299  0.612506  0.229816  1
  O  O50  1  0.933701  0.112506  0.270184  1
  O  O51  1  0.433701  0.387494  0.770184  1
  O  O52  1  0.383052  0.354431  0.013688  1
  O  O53  1  0.116948  0.854431  0.486312  1
  O  O54  1  0.250000  0.385755  0.526445  1
  O  O55  1  0.116948  0.354431  0.013688  1
  O  O56  1  0.250000  0.399302  0.221458  1
  O  O57  1  0.616948  0.145569  0.513688  1
  O  O58  1  0.750000  0.856216  0.355835  1
  O  O59  1  0.250000  0.648354  0.380441  1
  O  O60  1  0.875365  0.327945  0.925667  1
  O  O61  1  0.750000  0.100698  0.721458  1
  O  O62  1  0.250000  0.885755  0.973555  1
  O  O63  1  0.750000  0.600698  0.778542  1
  O  O64  1  0.750000  0.351646  0.619559  1
  O  O65  1  0.875365  0.827945  0.574333  1
  O  O66  1  0.066299  0.387494  0.770184  1
  O  O67  1  0.124635  0.672055  0.074333  1
  O  O68  1  0.124635  0.172055  0.425667  1
  O  O69  1  0.250000  0.899302  0.278542  1
  O  O70  1  0.066299  0.887494  0.729816  1
  O  O71  1  0.557226  0.363706  0.375212  1
  O  O72  1  0.616948  0.645569  0.986312  1
  O  O73  1  0.942774  0.363706  0.375212  1
  O  O74  1  0.557226  0.863706  0.124788  1
  O  O75  1  0.942774  0.863706  0.124788  1
