# generated using pymatgen
data_Sr5In3
_symmetry_space_group_name_H-M   'P 1'
_cell_length_a   10.34629044
_cell_length_b   10.34629044
_cell_length_c   10.34629044
_cell_angle_alpha   129.50322841
_cell_angle_beta   129.50322841
_cell_angle_gamma   74.20219435
_symmetry_Int_Tables_number   1
_chemical_formula_structural   Sr5In3
_chemical_formula_sum   'Sr10 In6'
_cell_volume   642.85090175
_cell_formula_units_Z   2
loop_
 _symmetry_equiv_pos_site_id
 _symmetry_equiv_pos_as_xyz
  1  'x, y, z'
loop_
 _atom_site_type_symbol
 _atom_site_label
 _atom_site_symmetry_multiplicity
 _atom_site_fract_x
 _atom_site_fract_y
 _atom_site_fract_z
 _atom_site_occupancy
  Sr  Sr0  1  0.529649  0.029649  0.850819  1
  Sr  Sr1  1  0.821170  0.321170  0.850819  1
  Sr  Sr2  1  0.470351  0.970351  0.149181  1
  Sr  Sr3  1  0.500000  0.500000  0.000000  1
  Sr  Sr4  1  0.970351  0.821170  0.500000  1
  Sr  Sr5  1  0.678830  0.529649  0.500000  1
  Sr  Sr6  1  0.178830  0.678830  0.149181  1
  Sr  Sr7  1  0.029649  0.178830  0.500000  1
  Sr  Sr8  1  0.321170  0.470351  0.500000  1
  Sr  Sr9  1  0.000000  0.000000  0.000000  1
  In  In10  1  0.384015  0.115985  0.500000  1
  In  In11  1  0.115985  0.615985  0.731969  1
  In  In12  1  0.615985  0.884015  0.500000  1
  In  In13  1  0.750000  0.750000  0.000000  1
  In  In14  1  0.884015  0.384015  0.268031  1
  In  In15  1  0.250000  0.250000  0.000000  1
