# generated using pymatgen
data_Ba2LaRuO6
_symmetry_space_group_name_H-M   'P 1'
_cell_length_a   6.09156642
_cell_length_b   6.09156642
_cell_length_c   6.15128764
_cell_angle_alpha   60.01989556
_cell_angle_beta   119.98010444
_cell_angle_gamma   120.10419313
_symmetry_Int_Tables_number   1
_chemical_formula_structural   Ba2LaRuO6
_chemical_formula_sum   'Ba2 La1 Ru1 O6'
_cell_volume   161.32296266
_cell_formula_units_Z   1
loop_
 _symmetry_equiv_pos_site_id
 _symmetry_equiv_pos_as_xyz
  1  'x, y, z'
loop_
 _atom_site_type_symbol
 _atom_site_label
 _atom_site_symmetry_multiplicity
 _atom_site_fract_x
 _atom_site_fract_y
 _atom_site_fract_z
 _atom_site_occupancy
  Ba  Ba0  1  0.751157  0.248843  0.754350  1
  Ba  Ba1  1  0.248843  0.751157  0.245650  1
  La  La2  1  0.000000  0.000000  0.500000  1
  Ru  Ru3  1  0.500000  0.500000  0.000000  1
  O  O4  1  0.272670  0.727330  0.721700  1
  O  O5  1  0.727330  0.272670  0.278300  1
  O  O6  1  0.247651  0.298176  0.205293  1
  O  O7  1  0.752349  0.701824  0.794707  1
  O  O8  1  0.701824  0.752349  0.205293  1
  O  O9  1  0.298176  0.247651  0.794707  1
