# generated using pymatgen
data_Cr2B(PO4)3
_symmetry_space_group_name_H-M   'P 1'
_cell_length_a   8.08600605
_cell_length_b   8.08600605
_cell_length_c   7.52777836
_cell_angle_alpha   90.00000000
_cell_angle_beta   90.00000000
_cell_angle_gamma   120.00000000
_symmetry_Int_Tables_number   1
_chemical_formula_structural   Cr2B(PO4)3
_chemical_formula_sum   'Cr4 B2 P6 O24'
_cell_volume   426.25116522
_cell_formula_units_Z   2
loop_
 _symmetry_equiv_pos_site_id
 _symmetry_equiv_pos_as_xyz
  1  'x, y, z'
loop_
 _atom_site_type_symbol
 _atom_site_label
 _atom_site_symmetry_multiplicity
 _atom_site_fract_x
 _atom_site_fract_y
 _atom_site_fract_z
 _atom_site_occupancy
  Cr  Cr0  1  0.666667  0.333333  0.561688  1
  Cr  Cr1  1  0.333333  0.666667  0.438312  1
  Cr  Cr2  1  0.333333  0.666667  0.061688  1
  Cr  Cr3  1  0.666667  0.333333  0.938312  1
  B  B4  1  0.000000  0.000000  0.750000  1
  B  B5  1  0.000000  0.000000  0.250000  1
  P  P6  1  0.685274  0.049570  0.250000  1
  P  P7  1  0.049570  0.364296  0.750000  1
  P  P8  1  0.314726  0.950430  0.750000  1
  P  P9  1  0.635704  0.685274  0.750000  1
  P  P10  1  0.950430  0.635704  0.250000  1
  P  P11  1  0.364296  0.314726  0.250000  1
  O  O12  1  0.863303  0.811096  0.750000  1
  O  O13  1  0.947793  0.136697  0.750000  1
  O  O14  1  0.272458  0.836406  0.924974  1
  O  O15  1  0.163594  0.436052  0.924974  1
  O  O16  1  0.811096  0.947793  0.250000  1
  O  O17  1  0.436052  0.272458  0.424974  1
  O  O18  1  0.163594  0.436052  0.575026  1
  O  O19  1  0.396366  0.522436  0.250000  1
  O  O20  1  0.436052  0.272458  0.075026  1
  O  O21  1  0.563948  0.727542  0.575026  1
  O  O22  1  0.477564  0.873930  0.250000  1
  O  O23  1  0.873930  0.396366  0.750000  1
  O  O24  1  0.522436  0.126070  0.750000  1
  O  O25  1  0.272458  0.836406  0.575026  1
  O  O26  1  0.836406  0.563948  0.424974  1
  O  O27  1  0.836406  0.563948  0.075026  1
  O  O28  1  0.052207  0.863303  0.250000  1
  O  O29  1  0.188904  0.052207  0.750000  1
  O  O30  1  0.563948  0.727542  0.924974  1
  O  O31  1  0.727542  0.163594  0.424974  1
  O  O32  1  0.603634  0.477564  0.750000  1
  O  O33  1  0.126070  0.603634  0.250000  1
  O  O34  1  0.136697  0.188904  0.250000  1
  O  O35  1  0.727542  0.163594  0.075026  1
