# generated using pymatgen
data_Sb2BrF15
_symmetry_space_group_name_H-M   'P 1'
_cell_length_a   5.41200705
_cell_length_b   14.82987332
_cell_length_c   14.62609795
_cell_angle_alpha   90.00000000
_cell_angle_beta   93.10503324
_cell_angle_gamma   90.00000000
_symmetry_Int_Tables_number   1
_chemical_formula_structural   Sb2BrF15
_chemical_formula_sum   'Sb8 Br4 F60'
_cell_volume   1172.15818142
_cell_formula_units_Z   4
loop_
 _symmetry_equiv_pos_site_id
 _symmetry_equiv_pos_as_xyz
  1  'x, y, z'
loop_
 _atom_site_type_symbol
 _atom_site_label
 _atom_site_symmetry_multiplicity
 _atom_site_fract_x
 _atom_site_fract_y
 _atom_site_fract_z
 _atom_site_occupancy
  Sb  Sb0  1  0.907381  0.647171  0.848062  1
  Sb  Sb1  1  0.620684  0.854840  0.684395  1
  Sb  Sb2  1  0.092619  0.352829  0.151938  1
  Sb  Sb3  1  0.907381  0.852829  0.348062  1
  Sb  Sb4  1  0.092619  0.147171  0.651938  1
  Sb  Sb5  1  0.379316  0.354840  0.815605  1
  Sb  Sb6  1  0.620684  0.645160  0.184395  1
  Sb  Sb7  1  0.379316  0.145160  0.315605  1
  Br  Br8  1  0.272383  0.653650  0.518281  1
  Br  Br9  1  0.727617  0.346350  0.481719  1
  Br  Br10  1  0.727617  0.153650  0.981719  1
  Br  Br11  1  0.272383  0.846350  0.018281  1
  F  F12  1  0.375457  0.163994  0.583600  1
  F  F13  1  0.468550  0.565018  0.099318  1
  F  F14  1  0.793659  0.939457  0.760294  1
  F  F15  1  0.898243  0.668393  0.114986  1
  F  F16  1  0.183028  0.842538  0.274993  1
  F  F17  1  0.531450  0.065018  0.400682  1
  F  F18  1  0.590608  0.428394  0.409850  1
  F  F19  1  0.462540  0.750777  0.119554  1
  F  F20  1  0.647942  0.148676  0.238475  1
  F  F21  1  0.950716  0.442670  0.075498  1
  F  F22  1  0.937893  0.245215  0.574917  1
  F  F23  1  0.898243  0.831607  0.614986  1
  F  F24  1  0.537460  0.250777  0.380446  1
  F  F25  1  0.547635  0.648307  0.454416  1
  F  F26  1  0.547635  0.851693  0.954416  1
  F  F27  1  0.263840  0.072563  0.738798  1
  F  F28  1  0.452365  0.351693  0.545584  1
  F  F29  1  0.409392  0.928394  0.090150  1
  F  F30  1  0.462540  0.749223  0.619554  1
  F  F31  1  0.143807  0.926417  0.941680  1
  F  F32  1  0.143807  0.573583  0.441680  1
  F  F33  1  0.352058  0.648676  0.261525  1
  F  F34  1  0.206341  0.439457  0.739706  1
  F  F35  1  0.769745  0.756239  0.771205  1
  F  F36  1  0.206341  0.060543  0.239706  1
  F  F37  1  0.000182  0.859099  0.082409  1
  F  F38  1  0.101757  0.168393  0.385014  1
  F  F39  1  0.793659  0.560543  0.260294  1
  F  F40  1  0.049284  0.557330  0.924502  1
  F  F41  1  0.062107  0.745215  0.925083  1
  F  F42  1  0.101757  0.331607  0.885014  1
  F  F43  1  0.816972  0.342538  0.225007  1
  F  F44  1  0.856193  0.073583  0.058320  1
  F  F45  1  0.230255  0.243761  0.228795  1
  F  F46  1  0.375457  0.336006  0.083600  1
  F  F47  1  0.816972  0.157462  0.725007  1
  F  F48  1  0.452365  0.148307  0.045584  1
  F  F49  1  0.999818  0.140901  0.917591  1
  F  F50  1  0.937893  0.254785  0.074917  1
  F  F51  1  0.049284  0.942670  0.424502  1
  F  F52  1  0.000182  0.640901  0.582409  1
  F  F53  1  0.468550  0.934982  0.599318  1
  F  F54  1  0.230255  0.256239  0.728795  1
  F  F55  1  0.062107  0.754785  0.425083  1
  F  F56  1  0.537460  0.249223  0.880446  1
  F  F57  1  0.647942  0.351324  0.738475  1
  F  F58  1  0.263840  0.427437  0.238798  1
  F  F59  1  0.352058  0.851324  0.761525  1
  F  F60  1  0.769745  0.743761  0.271205  1
  F  F61  1  0.950716  0.057330  0.575498  1
  F  F62  1  0.590608  0.071606  0.909850  1
  F  F63  1  0.999818  0.359099  0.417591  1
  F  F64  1  0.624543  0.663994  0.916400  1
  F  F65  1  0.624543  0.836006  0.416400  1
  F  F66  1  0.409392  0.571606  0.590150  1
  F  F67  1  0.531450  0.434982  0.900682  1
  F  F68  1  0.856193  0.426417  0.558320  1
  F  F69  1  0.736160  0.927437  0.261202  1
  F  F70  1  0.183028  0.657462  0.774993  1
  F  F71  1  0.736160  0.572563  0.761202  1
