# generated using pymatgen
data_EuNiGe
_symmetry_space_group_name_H-M   'P 1'
_cell_length_a   6.11823268
_cell_length_b   6.15417781
_cell_length_c   7.56865944
_cell_angle_alpha   90.00000000
_cell_angle_beta   119.95436512
_cell_angle_gamma   90.00000000
_symmetry_Int_Tables_number   1
_chemical_formula_structural   EuNiGe
_chemical_formula_sum   'Eu4 Ni4 Ge4'
_cell_volume   246.91367927
_cell_formula_units_Z   4
loop_
 _symmetry_equiv_pos_site_id
 _symmetry_equiv_pos_as_xyz
  1  'x, y, z'
loop_
 _atom_site_type_symbol
 _atom_site_label
 _atom_site_symmetry_multiplicity
 _atom_site_fract_x
 _atom_site_fract_y
 _atom_site_fract_z
 _atom_site_occupancy
  Eu  Eu0  1  0.800861  0.359935  0.106030  1
  Eu  Eu1  1  0.199139  0.859935  0.393970  1
  Eu  Eu2  1  0.199139  0.640065  0.893970  1
  Eu  Eu3  1  0.800861  0.140065  0.606030  1
  Ni  Ni4  1  0.386543  0.094284  0.823746  1
  Ni  Ni5  1  0.613457  0.594284  0.676254  1
  Ni  Ni6  1  0.613457  0.905716  0.176254  1
  Ni  Ni7  1  0.386543  0.405716  0.323746  1
  Ge  Ge8  1  0.266971  0.143740  0.072098  1
  Ge  Ge9  1  0.733029  0.643740  0.427902  1
  Ge  Ge10  1  0.733029  0.856260  0.927902  1
  Ge  Ge11  1  0.266971  0.356260  0.572098  1
