# generated using pymatgen
data_Cu2SeO4
_symmetry_space_group_name_H-M   'P 1'
_cell_length_a   9.03150370
_cell_length_b   9.03150370
_cell_length_c   9.03150370
_cell_angle_alpha   90.00000000
_cell_angle_beta   90.00000000
_cell_angle_gamma   90.00000000
_symmetry_Int_Tables_number   1
_chemical_formula_structural   Cu2SeO4
_chemical_formula_sum   'Cu16 Se8 O32'
_cell_volume   736.68222741
_cell_formula_units_Z   8
loop_
 _symmetry_equiv_pos_site_id
 _symmetry_equiv_pos_as_xyz
  1  'x, y, z'
loop_
 _atom_site_type_symbol
 _atom_site_label
 _atom_site_symmetry_multiplicity
 _atom_site_fract_x
 _atom_site_fract_y
 _atom_site_fract_z
 _atom_site_occupancy
  Cu  Cu0  1  0.878032  0.373588  0.368222  1
  Cu  Cu1  1  0.873588  0.131778  0.121968  1
  Cu  Cu2  1  0.126412  0.631778  0.378032  1
  Cu  Cu3  1  0.131778  0.121968  0.873588  1
  Cu  Cu4  1  0.621968  0.626412  0.868222  1
  Cu  Cu5  1  0.631778  0.378032  0.126412  1
  Cu  Cu6  1  0.626412  0.868222  0.621968  1
  Cu  Cu7  1  0.868222  0.621968  0.626412  1
  Cu  Cu8  1  0.881824  0.881824  0.881824  1
  Cu  Cu9  1  0.373588  0.368222  0.878032  1
  Cu  Cu10  1  0.368222  0.878032  0.373588  1
  Cu  Cu11  1  0.381824  0.618176  0.118176  1
  Cu  Cu12  1  0.121968  0.873588  0.131778  1
  Cu  Cu13  1  0.118176  0.381824  0.618176  1
  Cu  Cu14  1  0.378032  0.126412  0.631778  1
  Cu  Cu15  1  0.618176  0.118176  0.381824  1
  Se  Se16  1  0.288682  0.788682  0.711318  1
  Se  Se17  1  0.540501  0.959499  0.040501  1
  Se  Se18  1  0.788682  0.711318  0.288682  1
  Se  Se19  1  0.211318  0.211318  0.211318  1
  Se  Se20  1  0.459499  0.459499  0.459499  1
  Se  Se21  1  0.040501  0.540501  0.959499  1
  Se  Se22  1  0.711318  0.288682  0.788682  1
  Se  Se23  1  0.959499  0.040501  0.540501  1
  O  O24  1  0.508636  0.491364  0.991364  1
  O  O25  1  0.687766  0.470167  0.729816  1
  O  O26  1  0.029833  0.270184  0.187766  1
  O  O27  1  0.240223  0.259777  0.740223  1
  O  O28  1  0.991364  0.508636  0.491364  1
  O  O29  1  0.270184  0.187766  0.029833  1
  O  O30  1  0.482852  0.468481  0.266877  1
  O  O31  1  0.031519  0.733123  0.982852  1
  O  O32  1  0.470167  0.729816  0.687766  1
  O  O33  1  0.491364  0.991364  0.508636  1
  O  O34  1  0.812234  0.529833  0.229816  1
  O  O35  1  0.468481  0.266877  0.482852  1
  O  O36  1  0.017148  0.531519  0.766877  1
  O  O37  1  0.312234  0.970167  0.770184  1
  O  O38  1  0.529833  0.229816  0.812234  1
  O  O39  1  0.770184  0.312234  0.970167  1
  O  O40  1  0.970167  0.770184  0.312234  1
  O  O41  1  0.982852  0.031519  0.733123  1
  O  O42  1  0.187766  0.029833  0.270184  1
  O  O43  1  0.008636  0.008636  0.008636  1
  O  O44  1  0.733123  0.982852  0.031519  1
  O  O45  1  0.517148  0.968481  0.233123  1
  O  O46  1  0.531519  0.766877  0.017148  1
  O  O47  1  0.729816  0.687766  0.470167  1
  O  O48  1  0.229816  0.812234  0.529833  1
  O  O49  1  0.740223  0.240223  0.259777  1
  O  O50  1  0.968481  0.233123  0.517148  1
  O  O51  1  0.766877  0.017148  0.531519  1
  O  O52  1  0.259777  0.740223  0.240223  1
  O  O53  1  0.759777  0.759777  0.759777  1
  O  O54  1  0.233123  0.517148  0.968481  1
  O  O55  1  0.266877  0.482852  0.468481  1
