# generated using pymatgen
data_Pr15Si10Ni7
_symmetry_space_group_name_H-M   'P 1'
_cell_length_a   19.86797821
_cell_length_b   19.86797821
_cell_length_c   4.38164792
_cell_angle_alpha   90.00000000
_cell_angle_beta   90.00000000
_cell_angle_gamma   120.00000000
_symmetry_Int_Tables_number   1
_chemical_formula_structural   Pr15Si10Ni7
_chemical_formula_sum   'Pr30 Si20 Ni14'
_cell_volume   1497.87460991
_cell_formula_units_Z   2
loop_
 _symmetry_equiv_pos_site_id
 _symmetry_equiv_pos_as_xyz
  1  'x, y, z'
loop_
 _atom_site_type_symbol
 _atom_site_label
 _atom_site_symmetry_multiplicity
 _atom_site_fract_x
 _atom_site_fract_y
 _atom_site_fract_z
 _atom_site_occupancy
  Pr  Pr0  1  0.918003  0.419573  0.250000  1
  Pr  Pr1  1  0.852866  0.984095  0.250000  1
  Pr  Pr2  1  0.644165  0.678566  0.750000  1
  Pr  Pr3  1  0.034400  0.355835  0.750000  1
  Pr  Pr4  1  0.466106  0.710555  0.750000  1
  Pr  Pr5  1  0.197565  0.321770  0.750000  1
  Pr  Pr6  1  0.419573  0.501570  0.750000  1
  Pr  Pr7  1  0.131229  0.147134  0.250000  1
  Pr  Pr8  1  0.868771  0.852866  0.750000  1
  Pr  Pr9  1  0.802435  0.678230  0.250000  1
  Pr  Pr10  1  0.678566  0.034400  0.250000  1
  Pr  Pr11  1  0.710555  0.244450  0.250000  1
  Pr  Pr12  1  0.984095  0.131229  0.750000  1
  Pr  Pr13  1  0.321434  0.965600  0.750000  1
  Pr  Pr14  1  0.081997  0.580427  0.750000  1
  Pr  Pr15  1  0.124206  0.802435  0.750000  1
  Pr  Pr16  1  0.321770  0.124206  0.250000  1
  Pr  Pr17  1  0.533894  0.289445  0.250000  1
  Pr  Pr18  1  0.580427  0.498430  0.250000  1
  Pr  Pr19  1  0.965600  0.644165  0.250000  1
  Pr  Pr20  1  0.498430  0.918003  0.750000  1
  Pr  Pr21  1  0.755550  0.466106  0.250000  1
  Pr  Pr22  1  0.289445  0.755550  0.750000  1
  Pr  Pr23  1  0.355835  0.321434  0.250000  1
  Pr  Pr24  1  0.678230  0.875794  0.750000  1
  Pr  Pr25  1  0.015905  0.868771  0.250000  1
  Pr  Pr26  1  0.875794  0.197565  0.250000  1
  Pr  Pr27  1  0.501570  0.081997  0.250000  1
  Pr  Pr28  1  0.244450  0.533894  0.750000  1
  Pr  Pr29  1  0.147134  0.015905  0.750000  1
  Si  Si30  1  0.889717  0.514972  0.750000  1
  Si  Si31  1  0.710650  0.555201  0.750000  1
  Si  Si32  1  0.155450  0.710650  0.250000  1
  Si  Si33  1  0.625255  0.110283  0.750000  1
  Si  Si34  1  0.256847  0.195683  0.750000  1
  Si  Si35  1  0.514972  0.625255  0.250000  1
  Si  Si36  1  0.666667  0.333333  0.750000  1
  Si  Si37  1  0.195683  0.938837  0.250000  1
  Si  Si38  1  0.485028  0.374745  0.750000  1
  Si  Si39  1  0.110283  0.485028  0.250000  1
  Si  Si40  1  0.804317  0.061163  0.750000  1
  Si  Si41  1  0.844550  0.289350  0.750000  1
  Si  Si42  1  0.374745  0.889717  0.250000  1
  Si  Si43  1  0.938837  0.743153  0.750000  1
  Si  Si44  1  0.061163  0.256847  0.250000  1
  Si  Si45  1  0.333333  0.666667  0.250000  1
  Si  Si46  1  0.743153  0.804317  0.250000  1
  Si  Si47  1  0.444799  0.155450  0.750000  1
  Si  Si48  1  0.289350  0.444799  0.250000  1
  Si  Si49  1  0.555201  0.844550  0.250000  1
  Ni  Ni50  1  0.800515  0.379405  0.750000  1
  Ni  Ni51  1  0.847099  0.606291  0.750000  1
  Ni  Ni52  1  0.606291  0.759192  0.250000  1
  Ni  Ni53  1  0.759192  0.152901  0.750000  1
  Ni  Ni54  1  0.620595  0.421110  0.750000  1
  Ni  Ni55  1  0.421110  0.800515  0.250000  1
  Ni  Ni56  1  0.578890  0.199485  0.750000  1
  Ni  Ni57  1  0.199485  0.620595  0.250000  1
  Ni  Ni58  1  0.379405  0.578890  0.250000  1
  Ni  Ni59  1  0.152901  0.393709  0.250000  1
  Ni  Ni60  1  0.393709  0.240808  0.750000  1
  Ni  Ni61  1  0.000000  0.000000  0.500000  1
  Ni  Ni62  1  0.000000  0.000000  0.000000  1
  Ni  Ni63  1  0.240808  0.847099  0.250000  1
