# generated using pymatgen
data_VAg2PO6
_symmetry_space_group_name_H-M   'P 1'
_cell_length_a   7.05730038
_cell_length_b   7.05730038
_cell_length_c   6.43455235
_cell_angle_alpha   89.97026426
_cell_angle_beta   90.02973574
_cell_angle_gamma   126.53360918
_symmetry_Int_Tables_number   1
_chemical_formula_structural   VAg2PO6
_chemical_formula_sum   'V2 Ag4 P2 O12'
_cell_volume   257.50494301
_cell_formula_units_Z   2
loop_
 _symmetry_equiv_pos_site_id
 _symmetry_equiv_pos_as_xyz
  1  'x, y, z'
loop_
 _atom_site_type_symbol
 _atom_site_label
 _atom_site_symmetry_multiplicity
 _atom_site_fract_x
 _atom_site_fract_y
 _atom_site_fract_z
 _atom_site_occupancy
  V  V0  1  0.385153  0.614847  0.086458  1
  V  V1  1  0.614847  0.385153  0.913542  1
  Ag  Ag2  1  0.124237  0.364077  0.618660  1
  Ag  Ag3  1  0.635923  0.875763  0.618660  1
  Ag  Ag4  1  0.875763  0.635923  0.381340  1
  Ag  Ag5  1  0.364077  0.124237  0.381340  1
  P  P6  1  0.153409  0.846591  0.849308  1
  P  P7  1  0.846591  0.153409  0.150692  1
  O  O8  1  0.489926  0.510074  0.796868  1
  O  O9  1  0.901458  0.098542  0.365013  1
  O  O10  1  0.077799  0.315261  0.023476  1
  O  O11  1  0.698947  0.301053  0.714161  1
  O  O12  1  0.922201  0.684739  0.976524  1
  O  O13  1  0.723127  0.276873  0.173786  1
  O  O14  1  0.684739  0.922201  0.023476  1
  O  O15  1  0.098542  0.901458  0.634987  1
  O  O16  1  0.301053  0.698947  0.285839  1
  O  O17  1  0.510074  0.489926  0.203132  1
  O  O18  1  0.315261  0.077799  0.976524  1
  O  O19  1  0.276873  0.723127  0.826214  1
