# generated using pymatgen
data_CsAlAgF6
_symmetry_space_group_name_H-M   'P 1'
_cell_length_a   7.34667604
_cell_length_b   7.57565455
_cell_length_c   10.54870110
_cell_angle_alpha   90.00000000
_cell_angle_beta   90.00000000
_cell_angle_gamma   90.00000000
_symmetry_Int_Tables_number   1
_chemical_formula_structural   CsAlAgF6
_chemical_formula_sum   'Cs4 Al4 Ag4 F24'
_cell_volume   587.09724015
_cell_formula_units_Z   4
loop_
 _symmetry_equiv_pos_site_id
 _symmetry_equiv_pos_as_xyz
  1  'x, y, z'
loop_
 _atom_site_type_symbol
 _atom_site_label
 _atom_site_symmetry_multiplicity
 _atom_site_fract_x
 _atom_site_fract_y
 _atom_site_fract_z
 _atom_site_occupancy
  Cs  Cs0  1  0.750000  0.520820  0.133974  1
  Cs  Cs1  1  0.250000  0.479180  0.866026  1
  Cs  Cs2  1  0.250000  0.979180  0.633974  1
  Cs  Cs3  1  0.750000  0.020820  0.366026  1
  Al  Al4  1  0.500000  0.000000  0.000000  1
  Al  Al5  1  0.500000  0.500000  0.500000  1
  Al  Al6  1  0.000000  0.000000  0.000000  1
  Al  Al7  1  0.000000  0.500000  0.500000  1
  Ag  Ag8  1  0.250000  0.784417  0.254144  1
  Ag  Ag9  1  0.750000  0.715583  0.754144  1
  Ag  Ag10  1  0.250000  0.284417  0.245856  1
  Ag  Ag11  1  0.750000  0.215583  0.745856  1
  F  F12  1  0.250000  0.464151  0.505380  1
  F  F13  1  0.750000  0.535849  0.494620  1
  F  F14  1  0.750000  0.962712  0.668699  1
  F  F15  1  0.470230  0.700405  0.406852  1
  F  F16  1  0.250000  0.964151  0.994620  1
  F  F17  1  0.012920  0.632059  0.644735  1
  F  F18  1  0.029770  0.200405  0.093148  1
  F  F19  1  0.529770  0.299595  0.593148  1
  F  F20  1  0.512920  0.867941  0.144735  1
  F  F21  1  0.250000  0.537288  0.168699  1
  F  F22  1  0.987080  0.867941  0.144735  1
  F  F23  1  0.512920  0.367941  0.355265  1
  F  F24  1  0.470230  0.200405  0.093148  1
  F  F25  1  0.970230  0.299595  0.593148  1
  F  F26  1  0.250000  0.037288  0.331301  1
  F  F27  1  0.970230  0.799595  0.906852  1
  F  F28  1  0.487080  0.632059  0.644735  1
  F  F29  1  0.750000  0.462712  0.831301  1
  F  F30  1  0.750000  0.035849  0.005380  1
  F  F31  1  0.487080  0.132059  0.855265  1
  F  F32  1  0.987080  0.367941  0.355265  1
  F  F33  1  0.529770  0.799595  0.906852  1
  F  F34  1  0.012920  0.132059  0.855265  1
  F  F35  1  0.029770  0.700405  0.406852  1
