# generated using pymatgen
data_SiO2
_symmetry_space_group_name_H-M   'P 1'
_cell_length_a   14.02523998
_cell_length_b   5.10301971
_cell_length_c   17.65539026
_cell_angle_alpha   90.00000000
_cell_angle_beta   105.77856228
_cell_angle_gamma   90.00000000
_symmetry_Int_Tables_number   1
_chemical_formula_structural   SiO2
_chemical_formula_sum   'Si24 O48'
_cell_volume   1216.00200555
_cell_formula_units_Z   24
loop_
 _symmetry_equiv_pos_site_id
 _symmetry_equiv_pos_as_xyz
  1  'x, y, z'
loop_
 _atom_site_type_symbol
 _atom_site_label
 _atom_site_symmetry_multiplicity
 _atom_site_fract_x
 _atom_site_fract_y
 _atom_site_fract_z
 _atom_site_occupancy
  Si  Si0  1  0.988558  0.637454  0.694729  1
  Si  Si1  1  0.189405  0.800929  0.154522  1
  Si  Si2  1  0.307044  0.718046  0.835011  1
  Si  Si3  1  0.509203  0.908193  0.302914  1
  Si  Si4  1  0.810595  0.300929  0.345478  1
  Si  Si5  1  0.011442  0.137454  0.805271  1
  Si  Si6  1  0.692956  0.281954  0.164989  1
  Si  Si7  1  0.490797  0.091807  0.697086  1
  Si  Si8  1  0.730694  0.683783  0.910338  1
  Si  Si9  1  0.269306  0.183783  0.589662  1
  Si  Si10  1  0.509203  0.591807  0.802914  1
  Si  Si11  1  0.730694  0.816217  0.410338  1
  Si  Si12  1  0.307044  0.781954  0.335011  1
  Si  Si13  1  0.232576  0.294474  0.405033  1
  Si  Si14  1  0.269306  0.316217  0.089662  1
  Si  Si15  1  0.189405  0.699071  0.654522  1
  Si  Si16  1  0.767424  0.705526  0.594967  1
  Si  Si17  1  0.232576  0.205526  0.905033  1
  Si  Si18  1  0.767424  0.794474  0.094967  1
  Si  Si19  1  0.988558  0.862546  0.194729  1
  Si  Si20  1  0.692956  0.218046  0.664989  1
  Si  Si21  1  0.011442  0.362546  0.305271  1
  Si  Si22  1  0.810595  0.199071  0.845478  1
  Si  Si23  1  0.490797  0.408193  0.197086  1
  O  O24  1  0.386087  0.143763  0.632807  1
  O  O25  1  0.248757  0.017165  0.365183  1
  O  O26  1  0.747504  0.216845  0.256952  1
  O  O27  1  0.223941  0.089556  0.134276  1
  O  O28  1  0.494835  0.709642  0.228255  1
  O  O29  1  0.071690  0.699348  0.648484  1
  O  O30  1  0.505165  0.209642  0.271745  1
  O  O31  1  0.882134  0.614784  0.629623  1
  O  O32  1  0.742450  0.735744  0.500663  1
  O  O33  1  0.305725  0.982267  0.886039  1
  O  O34  1  0.613913  0.856237  0.367193  1
  O  O35  1  0.421629  0.865325  0.345868  1
  O  O36  1  0.694275  0.017733  0.113961  1
  O  O37  1  0.505165  0.290358  0.771745  1
  O  O38  1  0.421629  0.634675  0.845868  1
  O  O39  1  0.257550  0.264256  0.499337  1
  O  O40  1  0.751243  0.982835  0.634817  1
  O  O41  1  0.984265  0.637657  0.258564  1
  O  O42  1  0.494835  0.790358  0.728255  1
  O  O43  1  0.223941  0.410444  0.634276  1
  O  O44  1  0.928310  0.199348  0.851516  1
  O  O45  1  0.252496  0.783155  0.743048  1
  O  O46  1  0.305725  0.517733  0.386039  1
  O  O47  1  0.071690  0.800652  0.148484  1
  O  O48  1  0.694275  0.482267  0.613961  1
  O  O49  1  0.776059  0.910444  0.865724  1
  O  O50  1  0.742450  0.764256  0.000663  1
  O  O51  1  0.015735  0.137657  0.241436  1
  O  O52  1  0.386087  0.356237  0.132807  1
  O  O53  1  0.209333  0.588037  0.092023  1
  O  O54  1  0.578371  0.365325  0.154132  1
  O  O55  1  0.751243  0.517165  0.134817  1
  O  O56  1  0.117866  0.114784  0.870377  1
  O  O57  1  0.209333  0.911963  0.592023  1
  O  O58  1  0.248757  0.482835  0.865183  1
  O  O59  1  0.117866  0.385216  0.370377  1
  O  O60  1  0.928310  0.300652  0.351516  1
  O  O61  1  0.776059  0.589556  0.365724  1
  O  O62  1  0.882134  0.885216  0.129623  1
  O  O63  1  0.578371  0.134675  0.654132  1
  O  O64  1  0.790667  0.088037  0.407977  1
  O  O65  1  0.252496  0.716845  0.243048  1
  O  O66  1  0.257550  0.235744  0.999337  1
  O  O67  1  0.790667  0.411963  0.907977  1
  O  O68  1  0.613913  0.643763  0.867193  1
  O  O69  1  0.747504  0.283155  0.756952  1
  O  O70  1  0.015735  0.362343  0.741436  1
  O  O71  1  0.984265  0.862343  0.758564  1
