# generated using pymatgen
data_KScH4(C2O5)2
_symmetry_space_group_name_H-M   'P 1'
_cell_length_a   8.96324416
_cell_length_b   8.96324416
_cell_length_c   11.59718952
_cell_angle_alpha   90.00000000
_cell_angle_beta   90.00000000
_cell_angle_gamma   120.00000000
_symmetry_Int_Tables_number   1
_chemical_formula_structural   KScH4(C2O5)2
_chemical_formula_sum   'K3 Sc3 H12 C12 O30'
_cell_volume   806.88908294
_cell_formula_units_Z   3
loop_
 _symmetry_equiv_pos_site_id
 _symmetry_equiv_pos_as_xyz
  1  'x, y, z'
loop_
 _atom_site_type_symbol
 _atom_site_label
 _atom_site_symmetry_multiplicity
 _atom_site_fract_x
 _atom_site_fract_y
 _atom_site_fract_z
 _atom_site_occupancy
  K  K0  1  0.000000  0.000000  0.666667  1
  K  K1  1  0.000000  0.000000  0.333333  1
  K  K2  1  0.000000  0.000000  0.000000  1
  Sc  Sc3  1  0.000000  0.500000  0.666667  1
  Sc  Sc4  1  0.500000  0.500000  0.333333  1
  Sc  Sc5  1  0.500000  0.000000  0.000000  1
  H  H6  1  0.346798  0.098629  0.484142  1
  H  H7  1  0.751832  0.098629  0.515858  1
  H  H8  1  0.653202  0.751832  0.849191  1
  H  H9  1  0.901371  0.248168  0.150809  1
  H  H10  1  0.901371  0.653202  0.182524  1
  H  H11  1  0.098629  0.346798  0.182524  1
  H  H12  1  0.098629  0.751832  0.150809  1
  H  H13  1  0.751832  0.653202  0.817476  1
  H  H14  1  0.248168  0.901371  0.515858  1
  H  H15  1  0.248168  0.346798  0.817476  1
  H  H16  1  0.346798  0.248168  0.849191  1
  H  H17  1  0.653202  0.901371  0.484142  1
  C  C18  1  0.210540  0.421080  0.500000  1
  C  C19  1  0.618488  0.309244  0.166667  1
  C  C20  1  0.309244  0.690756  0.833333  1
  C  C21  1  0.690756  0.381512  0.500000  1
  C  C22  1  0.690756  0.309244  0.833333  1
  C  C23  1  0.789460  0.210540  0.833333  1
  C  C24  1  0.789460  0.578920  0.500000  1
  C  C25  1  0.381512  0.690756  0.166667  1
  C  C26  1  0.578920  0.789460  0.166667  1
  C  C27  1  0.210540  0.789460  0.833333  1
  C  C28  1  0.421080  0.210540  0.166667  1
  C  C29  1  0.309244  0.618488  0.500000  1
  O  O30  1  0.310624  0.759416  0.109960  1
  O  O31  1  0.000000  0.768119  0.166667  1
  O  O32  1  0.689376  0.448791  0.223373  1
  O  O33  1  0.240584  0.689376  0.556706  1
  O  O34  1  0.000000  0.231881  0.166667  1
  O  O35  1  0.733424  0.653079  0.434920  1
  O  O36  1  0.231881  0.231881  0.833333  1
  O  O37  1  0.551209  0.240584  0.890040  1
  O  O38  1  0.653079  0.919656  0.101587  1
  O  O39  1  0.768119  0.000000  0.500000  1
  O  O40  1  0.653079  0.733424  0.231746  1
  O  O41  1  0.448791  0.689376  0.443294  1
  O  O42  1  0.080344  0.346921  0.565080  1
  O  O43  1  0.346921  0.080344  0.101587  1
  O  O44  1  0.733424  0.080344  0.898413  1
  O  O45  1  0.080344  0.733424  0.768254  1
  O  O46  1  0.919656  0.266576  0.768254  1
  O  O47  1  0.266576  0.346921  0.434920  1
  O  O48  1  0.919656  0.653079  0.565080  1
  O  O49  1  0.231881  0.000000  0.500000  1
  O  O50  1  0.240584  0.551209  0.776627  1
  O  O51  1  0.551209  0.310624  0.443294  1
  O  O52  1  0.310624  0.551209  0.223373  1
  O  O53  1  0.266576  0.919656  0.898413  1
  O  O54  1  0.448791  0.759416  0.890040  1
  O  O55  1  0.768119  0.768119  0.833333  1
  O  O56  1  0.759416  0.310624  0.556706  1
  O  O57  1  0.689376  0.240584  0.109960  1
  O  O58  1  0.346921  0.266576  0.231746  1
  O  O59  1  0.759416  0.448791  0.776627  1
