# generated using pymatgen
data_SiO2
_symmetry_space_group_name_H-M   'P 1'
_cell_length_a   8.85320131
_cell_length_b   8.85320131
_cell_length_c   8.85320131
_cell_angle_alpha   109.47122063
_cell_angle_beta   109.47122063
_cell_angle_gamma   109.47122063
_symmetry_Int_Tables_number   1
_chemical_formula_structural   SiO2
_chemical_formula_sum   'Si12 O24'
_cell_volume   534.16954971
_cell_formula_units_Z   12
loop_
 _symmetry_equiv_pos_site_id
 _symmetry_equiv_pos_as_xyz
  1  'x, y, z'
loop_
 _atom_site_type_symbol
 _atom_site_label
 _atom_site_symmetry_multiplicity
 _atom_site_fract_x
 _atom_site_fract_y
 _atom_site_fract_z
 _atom_site_occupancy
  Si  Si0  1  0.875000  0.125000  0.750000  1
  Si  Si1  1  0.625000  0.750000  0.375000  1
  Si  Si2  1  0.250000  0.625000  0.375000  1
  Si  Si3  1  0.125000  0.750000  0.875000  1
  Si  Si4  1  0.250000  0.125000  0.875000  1
  Si  Si5  1  0.875000  0.250000  0.125000  1
  Si  Si6  1  0.750000  0.875000  0.125000  1
  Si  Si7  1  0.750000  0.375000  0.625000  1
  Si  Si8  1  0.625000  0.375000  0.250000  1
  Si  Si9  1  0.125000  0.875000  0.250000  1
  Si  Si10  1  0.375000  0.250000  0.625000  1
  Si  Si11  1  0.375000  0.625000  0.750000  1
  O  O12  1  0.657409  0.314819  0.407409  1
  O  O13  1  0.592591  0.342591  0.685181  1
  O  O14  1  0.842591  0.250000  0.657409  1
  O  O15  1  0.092591  0.407409  0.250000  1
  O  O16  1  0.814819  0.157409  0.907409  1
  O  O17  1  0.407409  0.250000  0.092591  1
  O  O18  1  0.685181  0.592591  0.342591  1
  O  O19  1  0.342591  0.157409  0.750000  1
  O  O20  1  0.157409  0.907409  0.814819  1
  O  O21  1  0.314819  0.407409  0.657409  1
  O  O22  1  0.157409  0.750000  0.342591  1
  O  O23  1  0.907409  0.592591  0.750000  1
  O  O24  1  0.250000  0.657409  0.842591  1
  O  O25  1  0.750000  0.342591  0.157409  1
  O  O26  1  0.750000  0.907409  0.592591  1
  O  O27  1  0.407409  0.657409  0.314819  1
  O  O28  1  0.250000  0.092591  0.407409  1
  O  O29  1  0.842591  0.092591  0.185181  1
  O  O30  1  0.592591  0.750000  0.907409  1
  O  O31  1  0.657409  0.842591  0.250000  1
  O  O32  1  0.092591  0.185181  0.842591  1
  O  O33  1  0.907409  0.814819  0.157409  1
  O  O34  1  0.185181  0.842591  0.092591  1
  O  O35  1  0.342591  0.685181  0.592591  1
