# generated using pymatgen
data_Nd5As2ClO10
_symmetry_space_group_name_H-M   'P 1'
_cell_length_a   6.89356460
_cell_length_b   6.89356460
_cell_length_c   9.11672868
_cell_angle_alpha   66.28627375
_cell_angle_beta   113.71372625
_cell_angle_gamma   130.77373427
_symmetry_Int_Tables_number   1
_chemical_formula_structural   Nd5As2ClO10
_chemical_formula_sum   'Nd5 As2 Cl1 O10'
_cell_volume   294.24251634
_cell_formula_units_Z   1
loop_
 _symmetry_equiv_pos_site_id
 _symmetry_equiv_pos_as_xyz
  1  'x, y, z'
loop_
 _atom_site_type_symbol
 _atom_site_label
 _atom_site_symmetry_multiplicity
 _atom_site_fract_x
 _atom_site_fract_y
 _atom_site_fract_z
 _atom_site_occupancy
  Nd  Nd0  1  0.499662  0.500338  0.291978  1
  Nd  Nd1  1  0.746414  0.253586  0.127589  1
  Nd  Nd2  1  0.000000  1.000000  0.000000  1
  Nd  Nd3  1  0.253586  0.746414  0.872412  1
  Nd  Nd4  1  0.500338  0.499662  0.708022  1
  As  As5  1  0.785053  0.214947  0.607396  1
  As  As6  1  0.214947  0.785053  0.392604  1
  Cl  Cl7  1  0.000000  1.000000  0.500000  1
  O  O8  1  0.625983  0.866904  0.084157  1
  O  O9  1  0.623149  0.905667  0.753280  1
  O  O10  1  0.639806  0.360194  0.600721  1
  O  O11  1  0.360194  0.639806  0.399279  1
  O  O12  1  0.133096  0.374017  0.084157  1
  O  O13  1  0.866904  0.625983  0.915843  1
  O  O14  1  0.094333  0.376851  0.753280  1
  O  O15  1  0.374017  0.133096  0.915843  1
  O  O16  1  0.905667  0.623149  0.246720  1
  O  O17  1  0.376851  0.094333  0.246720  1
