# generated using pymatgen
data_LiLa(PO3)4
_symmetry_space_group_name_H-M   'P 1'
_cell_length_a   9.14184318
_cell_length_b   9.14184318
_cell_length_c   10.00900166
_cell_angle_alpha   56.83556070
_cell_angle_beta   123.16443930
_cell_angle_gamma   133.52177764
_symmetry_Int_Tables_number   1
_chemical_formula_structural   LiLa(PO3)4
_chemical_formula_sum   'Li2 La2 P8 O24'
_cell_volume   487.34101067
_cell_formula_units_Z   2
loop_
 _symmetry_equiv_pos_site_id
 _symmetry_equiv_pos_as_xyz
  1  'x, y, z'
loop_
 _atom_site_type_symbol
 _atom_site_label
 _atom_site_symmetry_multiplicity
 _atom_site_fract_x
 _atom_site_fract_y
 _atom_site_fract_z
 _atom_site_occupancy
  Li  Li0  1  0.796971  0.796971  0.750000  1
  Li  Li1  1  0.203029  0.203029  0.250000  1
  La  La2  1  0.298449  0.298449  0.750000  1
  La  La3  1  0.701551  0.701551  0.250000  1
  P  P4  1  0.915590  0.194318  0.335845  1
  P  P5  1  0.194318  0.915590  0.164155  1
  P  P6  1  0.084410  0.805682  0.664155  1
  P  P7  1  0.805682  0.084410  0.835845  1
  P  P8  1  0.806559  0.508697  0.098251  1
  P  P9  1  0.508697  0.806559  0.401749  1
  P  P10  1  0.193441  0.491303  0.901749  1
  P  P11  1  0.491303  0.193441  0.598251  1
  O  O12  1  0.098822  0.329800  0.450097  1
  O  O13  1  0.329800  0.098822  0.049903  1
  O  O14  1  0.901178  0.670200  0.549903  1
  O  O15  1  0.670200  0.901178  0.950097  1
  O  O16  1  0.840004  0.329179  0.156951  1
  O  O17  1  0.329179  0.840004  0.343049  1
  O  O18  1  0.159996  0.670821  0.843049  1
  O  O19  1  0.670821  0.159996  0.656951  1
  O  O20  1  0.060715  0.925213  0.703570  1
  O  O21  1  0.925213  0.060715  0.796430  1
  O  O22  1  0.939285  0.074787  0.296430  1
  O  O23  1  0.074787  0.939285  0.203570  1
  O  O24  1  0.719625  0.039423  0.410787  1
  O  O25  1  0.039423  0.719625  0.089213  1
  O  O26  1  0.280375  0.960577  0.589213  1
  O  O27  1  0.960577  0.280375  0.910787  1
  O  O28  1  0.673231  0.522480  0.919991  1
  O  O29  1  0.522480  0.673231  0.580009  1
  O  O30  1  0.326769  0.477520  0.080009  1
  O  O31  1  0.477520  0.326769  0.419991  1
  O  O32  1  0.515401  0.254745  0.723897  1
  O  O33  1  0.254745  0.515401  0.776103  1
  O  O34  1  0.484599  0.745255  0.276103  1
  O  O35  1  0.745255  0.484599  0.223897  1
