# generated using pymatgen
data_CaGeO3
_symmetry_space_group_name_H-M   'P 1'
_cell_length_a   10.93251315
_cell_length_b   10.93251315
_cell_length_c   10.93251315
_cell_angle_alpha   109.13940525
_cell_angle_beta   109.13940525
_cell_angle_gamma   110.13690929
_symmetry_Int_Tables_number   1
_chemical_formula_structural   CaGeO3
_chemical_formula_sum   'Ca16 Ge16 O48'
_cell_volume   1005.75941067
_cell_formula_units_Z   16
loop_
 _symmetry_equiv_pos_site_id
 _symmetry_equiv_pos_as_xyz
  1  'x, y, z'
loop_
 _atom_site_type_symbol
 _atom_site_label
 _atom_site_symmetry_multiplicity
 _atom_site_fract_x
 _atom_site_fract_y
 _atom_site_fract_z
 _atom_site_occupancy
  Ca  Ca0  1  0.253229  0.623715  0.121506  1
  Ca  Ca1  1  0.996771  0.126285  0.378494  1
  Ca  Ca2  1  0.125000  0.375000  0.750000  1
  Ca  Ca3  1  0.625000  0.875000  0.250000  1
  Ca  Ca4  1  0.252055  0.252055  0.000000  1
  Ca  Ca5  1  0.381723  0.003229  0.129514  1
  Ca  Ca6  1  0.997945  0.497945  0.500000  1
  Ca  Ca7  1  0.873715  0.252208  0.870486  1
  Ca  Ca8  1  0.502055  0.002055  0.500000  1
  Ca  Ca9  1  0.625000  0.375000  0.750000  1
  Ca  Ca10  1  0.376285  0.497792  0.629514  1
  Ca  Ca11  1  0.502208  0.131723  0.878494  1
  Ca  Ca12  1  0.868277  0.746771  0.370486  1
  Ca  Ca13  1  0.747792  0.618277  0.621506  1
  Ca  Ca14  1  0.747945  0.747945  0.000000  1
  Ca  Ca15  1  0.625000  0.375000  0.250000  1
  Ge  Ge16  1  0.366647  0.757908  0.861471  1
  Ge  Ge17  1  0.125000  0.875000  0.750000  1
  Ge  Ge18  1  0.755176  0.116647  0.108739  1
  Ge  Ge19  1  0.242092  0.103564  0.608739  1
  Ge  Ge20  1  1.000000  0.000000  0.000000  1
  Ge  Ge21  1  0.250000  0.750000  0.500000  1
  Ge  Ge22  1  0.007908  0.646436  0.891261  1
  Ge  Ge23  1  0.896436  0.505176  0.138529  1
  Ge  Ge24  1  0.353564  0.244824  0.361471  1
  Ge  Ge25  1  0.750000  0.250000  0.500000  1
  Ge  Ge26  1  0.500000  0.500000  0.000000  1
  Ge  Ge27  1  0.883353  0.992092  0.638529  1
  Ge  Ge28  1  0.125000  0.875000  0.250000  1
  Ge  Ge29  1  0.494824  0.633353  0.391261  1
  Ge  Ge30  1  0.625000  0.875000  0.750000  1
  Ge  Ge31  1  0.125000  0.375000  0.250000  1
  O  O32  1  0.590720  0.074313  0.349493  1
  O  O33  1  0.806347  0.867875  0.856592  1
  O  O34  1  0.525181  0.508773  0.849493  1
  O  O35  1  0.491227  0.340720  0.016408  1
  O  O36  1  0.861356  0.515669  0.285864  1
  O  O37  1  0.765669  0.979805  0.154313  1
  O  O38  1  0.011282  0.949755  0.143408  1
  O  O39  1  0.321187  0.906013  0.863856  1
  O  O40  1  0.502963  0.386375  0.540124  1
  O  O41  1  0.229805  0.575492  0.714136  1
  O  O42  1  0.928813  0.843987  0.636144  1
  O  O43  1  0.747037  0.363625  0.959876  1
  O  O44  1  0.020195  0.174508  0.785864  1
  O  O45  1  0.306667  0.471475  0.248262  1
  O  O46  1  0.050245  0.193653  0.061527  1
  O  O47  1  0.132125  0.988718  0.938473  1
  O  O48  1  0.199755  0.556347  0.438473  1
  O  O49  1  0.484331  0.770195  0.345687  1
  O  O50  1  0.659280  0.675687  0.150507  1
  O  O51  1  0.308406  0.056667  0.335192  1
  O  O52  1  0.825492  0.611356  0.845687  1
  O  O53  1  0.443653  0.882125  0.643408  1
  O  O54  1  0.037162  0.497037  0.883412  1
  O  O55  1  0.156013  0.792157  0.084826  1
  O  O56  1  0.925687  0.275181  0.516408  1
  O  O57  1  0.941594  0.693333  0.164808  1
  O  O58  1  0.424508  0.138644  0.654313  1
  O  O59  1  0.528525  0.776786  0.835192  1
  O  O60  1  0.846250  0.962838  0.459876  1
  O  O61  1  0.721475  0.973214  0.664808  1
  O  O62  1  0.042157  0.457331  0.136144  1
  O  O63  1  0.212838  0.252963  0.616588  1
  O  O64  1  0.636375  0.596250  0.383412  1
  O  O65  1  0.388644  0.234331  0.214136  1
  O  O66  1  0.403750  0.787162  0.040124  1
  O  O67  1  0.324313  0.474819  0.983592  1
  O  O68  1  0.943333  0.278525  0.251738  1
  O  O69  1  0.026786  0.691594  0.748262  1
  O  O70  1  0.238718  0.800245  0.356592  1
  O  O71  1  0.223214  0.058406  0.751738  1
  O  O72  1  0.542669  0.678813  0.584826  1
  O  O73  1  0.724819  0.241227  0.650507  1
  O  O74  1  0.117874  0.761282  0.561527  1
  O  O75  1  0.758773  0.409280  0.483592  1
  O  O76  1  0.207843  0.292669  0.363856  1
  O  O77  1  0.093987  0.957843  0.415174  1
  O  O78  1  0.707331  0.071187  0.915174  1
  O  O79  1  0.613625  0.153750  0.116588  1
