# generated using pymatgen
data_NaFe3(PO4)3
_symmetry_space_group_name_H-M   'P 1'
_cell_length_a   8.55873202
_cell_length_b   8.55873202
_cell_length_c   6.55128306
_cell_angle_alpha   73.79653599
_cell_angle_beta   106.20346401
_cell_angle_gamma   86.60077826
_symmetry_Int_Tables_number   1
_chemical_formula_structural   NaFe3(PO4)3
_chemical_formula_sum   'Na2 Fe6 P6 O24'
_cell_volume   437.60255696
_cell_formula_units_Z   2
loop_
 _symmetry_equiv_pos_site_id
 _symmetry_equiv_pos_as_xyz
  1  'x, y, z'
loop_
 _atom_site_type_symbol
 _atom_site_label
 _atom_site_symmetry_multiplicity
 _atom_site_fract_x
 _atom_site_fract_y
 _atom_site_fract_z
 _atom_site_occupancy
  Na  Na0  1  0.019402  0.019402  0.750000  1
  Na  Na1  1  0.980598  0.980598  0.250000  1
  Fe  Fe2  1  0.620815  0.054198  0.878158  1
  Fe  Fe3  1  0.379185  0.945802  0.121842  1
  Fe  Fe4  1  0.282685  0.282685  0.250000  1
  Fe  Fe5  1  0.054198  0.620815  0.621842  1
  Fe  Fe6  1  0.717315  0.717315  0.750000  1
  Fe  Fe7  1  0.945802  0.379185  0.378158  1
  P  P8  1  0.884055  0.338443  0.887976  1
  P  P9  1  0.661557  0.115945  0.387976  1
  P  P10  1  0.115945  0.661557  0.112024  1
  P  P11  1  0.338443  0.884055  0.612024  1
  P  P12  1  0.689518  0.689518  0.250000  1
  P  P13  1  0.310482  0.310482  0.750000  1
  O  O14  1  0.511513  0.730101  0.237591  1
  O  O15  1  0.475251  0.744079  0.652950  1
  O  O16  1  0.524749  0.255921  0.347050  1
  O  O17  1  0.981350  0.684781  0.879577  1
  O  O18  1  0.684781  0.981350  0.620423  1
  O  O19  1  0.255921  0.524749  0.152950  1
  O  O20  1  0.488487  0.269899  0.762409  1
  O  O21  1  0.018650  0.315219  0.120423  1
  O  O22  1  0.166222  0.834019  0.099830  1
  O  O23  1  0.197176  0.274142  0.533238  1
  O  O24  1  0.274142  0.197176  0.966762  1
  O  O25  1  0.802824  0.725858  0.466762  1
  O  O26  1  0.744079  0.475251  0.847050  1
  O  O27  1  0.165981  0.833778  0.599830  1
  O  O28  1  0.834019  0.166222  0.400170  1
  O  O29  1  0.730101  0.511513  0.262409  1
  O  O30  1  0.034602  0.610813  0.301141  1
  O  O31  1  0.269899  0.488487  0.737591  1
  O  O32  1  0.725858  0.802824  0.033238  1
  O  O33  1  0.389187  0.965398  0.801141  1
  O  O34  1  0.833778  0.165981  0.900170  1
  O  O35  1  0.315219  0.018650  0.379577  1
  O  O36  1  0.965398  0.389187  0.698859  1
  O  O37  1  0.610813  0.034602  0.198859  1
