# generated using pymatgen
data_Mg3(PO4)2
_symmetry_space_group_name_H-M   'P 1'
_cell_length_a   8.61163020
_cell_length_b   9.09287205
_cell_length_c   9.41919639
_cell_angle_alpha   115.93422011
_cell_angle_beta   91.39466419
_cell_angle_gamma   114.41326990
_symmetry_Int_Tables_number   1
_chemical_formula_structural   Mg3(PO4)2
_chemical_formula_sum   'Mg12 P8 O32'
_cell_volume   584.73307764
_cell_formula_units_Z   4
loop_
 _symmetry_equiv_pos_site_id
 _symmetry_equiv_pos_as_xyz
  1  'x, y, z'
loop_
 _atom_site_type_symbol
 _atom_site_label
 _atom_site_symmetry_multiplicity
 _atom_site_fract_x
 _atom_site_fract_y
 _atom_site_fract_z
 _atom_site_occupancy
  Mg  Mg0  1  0.077888  0.427782  0.874066  1
  Mg  Mg1  1  0.593510  0.259929  0.262622  1
  Mg  Mg2  1  0.515731  0.069298  0.822181  1
  Mg  Mg3  1  0.484269  0.930702  0.177819  1
  Mg  Mg4  1  0.982811  0.263012  0.443874  1
  Mg  Mg5  1  0.598630  0.518469  0.674316  1
  Mg  Mg6  1  0.903151  0.979542  0.839114  1
  Mg  Mg7  1  0.401370  0.481531  0.325684  1
  Mg  Mg8  1  0.406490  0.740071  0.737378  1
  Mg  Mg9  1  0.096849  0.020458  0.160886  1
  Mg  Mg10  1  0.017189  0.736988  0.556126  1
  Mg  Mg11  1  0.922112  0.572218  0.125934  1
  P  P12  1  0.328707  0.272035  0.906964  1
  P  P13  1  0.178280  0.742143  0.947422  1
  P  P14  1  0.671293  0.727965  0.093036  1
  P  P15  1  0.764139  0.329426  0.598939  1
  P  P16  1  0.729711  0.884030  0.549457  1
  P  P17  1  0.270289  0.115970  0.450543  1
  P  P18  1  0.235861  0.670574  0.401061  1
  P  P19  1  0.821720  0.257857  0.052578  1
  O  O20  1  0.131957  0.155760  0.904257  1
  O  O21  1  0.157145  0.701687  0.800645  1
  O  O22  1  0.246354  0.848392  0.247339  1
  O  O23  1  0.842855  0.298313  0.199355  1
  O  O24  1  0.002691  0.768785  0.930383  1
  O  O25  1  0.600293  0.391159  0.552828  1
  O  O26  1  0.409490  0.289782  0.783163  1
  O  O27  1  0.433700  0.184062  0.083693  1
  O  O28  1  0.211769  0.251309  0.457031  1
  O  O29  1  0.933834  0.466178  0.644577  1
  O  O30  1  0.106593  0.983267  0.389580  1
  O  O31  1  0.566300  0.815938  0.916307  1
  O  O32  1  0.324400  0.457668  0.873052  1
  O  O33  1  0.671461  0.092514  0.047243  1
  O  O34  1  0.675600  0.542332  0.126948  1
  O  O35  1  0.620495  0.765016  0.680455  1
  O  O36  1  0.204730  0.573782  0.105160  1
  O  O37  1  0.377289  0.010331  0.618682  1
  O  O38  1  0.590510  0.710218  0.216837  1
  O  O39  1  0.771824  0.306551  0.457142  1
  O  O40  1  0.997309  0.231215  0.069617  1
  O  O41  1  0.399707  0.608841  0.447172  1
  O  O42  1  0.788231  0.748691  0.542969  1
  O  O43  1  0.379505  0.234984  0.319545  1
  O  O44  1  0.228176  0.693449  0.542858  1
  O  O45  1  0.622711  0.989669  0.381318  1
  O  O46  1  0.328539  0.907486  0.952757  1
  O  O47  1  0.753646  0.151608  0.752661  1
  O  O48  1  0.795270  0.426218  0.894840  1
  O  O49  1  0.868043  0.844240  0.095743  1
  O  O50  1  0.893407  0.016733  0.610420  1
  O  O51  1  0.066166  0.533822  0.355423  1
