# generated using pymatgen
data_RbFeF4
_symmetry_space_group_name_H-M   'P 1'
_cell_length_a   6.34826966
_cell_length_b   7.79589551
_cell_length_c   7.82953043
_cell_angle_alpha   90.00000000
_cell_angle_beta   90.00000000
_cell_angle_gamma   90.00000000
_symmetry_Int_Tables_number   1
_chemical_formula_structural   RbFeF4
_chemical_formula_sum   'Rb4 Fe4 F16'
_cell_volume   387.48696030
_cell_formula_units_Z   4
loop_
 _symmetry_equiv_pos_site_id
 _symmetry_equiv_pos_as_xyz
  1  'x, y, z'
loop_
 _atom_site_type_symbol
 _atom_site_label
 _atom_site_symmetry_multiplicity
 _atom_site_fract_x
 _atom_site_fract_y
 _atom_site_fract_z
 _atom_site_occupancy
  Rb  Rb0  1  0.494542  0.298507  0.250000  1
  Rb  Rb1  1  0.494542  0.201493  0.750000  1
  Rb  Rb2  1  0.505458  0.798507  0.250000  1
  Rb  Rb3  1  0.505458  0.701493  0.750000  1
  Fe  Fe4  1  0.000000  0.000000  0.000000  1
  Fe  Fe5  1  0.000000  0.500000  0.000000  1
  Fe  Fe6  1  0.000000  0.500000  0.500000  1
  Fe  Fe7  1  0.000000  0.000000  0.500000  1
  F  F8  1  0.715908  0.055212  0.452459  1
  F  F9  1  0.715908  0.444788  0.547541  1
  F  F10  1  0.284092  0.555212  0.047541  1
  F  F11  1  0.284092  0.944788  0.952459  1
  F  F12  1  0.284092  0.944788  0.547541  1
  F  F13  1  0.284092  0.555212  0.452459  1
  F  F14  1  0.715908  0.444788  0.952459  1
  F  F15  1  0.715908  0.055212  0.047541  1
  F  F16  1  0.086340  0.250000  0.000000  1
  F  F17  1  0.913660  0.750000  0.500000  1
  F  F18  1  0.913660  0.750000  0.000000  1
  F  F19  1  0.086340  0.250000  0.500000  1
  F  F20  1  0.071616  0.985937  0.250000  1
  F  F21  1  0.071616  0.514063  0.750000  1
  F  F22  1  0.928384  0.485937  0.250000  1
  F  F23  1  0.928384  0.014063  0.750000  1
