# generated using pymatgen
data_LiV(PO4)2
_symmetry_space_group_name_H-M   'P 1'
_cell_length_a   5.01299623
_cell_length_b   5.01299623
_cell_length_c   13.92556770
_cell_angle_alpha   84.70979782
_cell_angle_beta   95.29020218
_cell_angle_gamma   124.18425440
_symmetry_Int_Tables_number   1
_chemical_formula_structural   LiV(PO4)2
_chemical_formula_sum   'Li2 V2 P4 O16'
_cell_volume   287.91203947
_cell_formula_units_Z   2
loop_
 _symmetry_equiv_pos_site_id
 _symmetry_equiv_pos_as_xyz
  1  'x, y, z'
loop_
 _atom_site_type_symbol
 _atom_site_label
 _atom_site_symmetry_multiplicity
 _atom_site_fract_x
 _atom_site_fract_y
 _atom_site_fract_z
 _atom_site_occupancy
  Li  Li0  1  0.930901  0.930901  0.250000  1
  Li  Li1  1  0.069099  0.069099  0.750000  1
  V  V2  1  1.000000  1.000000  0.000000  1
  V  V3  1  0.000000  0.000000  0.500000  1
  P  P4  1  0.361242  0.678709  0.616160  1
  P  P5  1  0.321291  0.638758  0.116160  1
  P  P6  1  0.678709  0.361242  0.883840  1
  P  P7  1  0.638758  0.321291  0.383840  1
  O  O8  1  0.217840  0.418458  0.537264  1
  O  O9  1  0.581542  0.782160  0.037264  1
  O  O10  1  0.473255  0.782125  0.210968  1
  O  O11  1  0.289788  0.938476  0.576361  1
  O  O12  1  0.061524  0.710212  0.076361  1
  O  O13  1  0.217875  0.526745  0.710968  1
  O  O14  1  0.737058  0.857586  0.615515  1
  O  O15  1  0.857586  0.737058  0.884485  1
  O  O16  1  0.142414  0.262942  0.115515  1
  O  O17  1  0.782160  0.581542  0.462736  1
  O  O18  1  0.262942  0.142414  0.384485  1
  O  O19  1  0.938476  0.289788  0.923639  1
  O  O20  1  0.710212  0.061524  0.423639  1
  O  O21  1  0.526745  0.217875  0.789032  1
  O  O22  1  0.418458  0.217840  0.962736  1
  O  O23  1  0.782125  0.473255  0.289032  1
