# generated using pymatgen
data_CsTeAu
_symmetry_space_group_name_H-M   'P 1'
_cell_length_a   5.53540685
_cell_length_b   6.35026250
_cell_length_c   7.32789433
_cell_angle_alpha   90.00000000
_cell_angle_beta   90.00000000
_cell_angle_gamma   90.00000000
_symmetry_Int_Tables_number   1
_chemical_formula_structural   CsTeAu
_chemical_formula_sum   'Cs2 Te2 Au2'
_cell_volume   257.58491334
_cell_formula_units_Z   2
loop_
 _symmetry_equiv_pos_site_id
 _symmetry_equiv_pos_as_xyz
  1  'x, y, z'
loop_
 _atom_site_type_symbol
 _atom_site_label
 _atom_site_symmetry_multiplicity
 _atom_site_fract_x
 _atom_site_fract_y
 _atom_site_fract_z
 _atom_site_occupancy
  Cs  Cs0  1  0.500000  0.250000  0.288977  1
  Cs  Cs1  1  0.500000  0.750000  0.711023  1
  Te  Te2  1  0.000000  0.750000  0.288202  1
  Te  Te3  1  0.000000  0.250000  0.711798  1
  Au  Au4  1  0.000000  0.000000  0.000000  1
  Au  Au5  1  0.000000  0.500000  0.000000  1
