# generated using pymatgen
data_Dy5C2Br9
_symmetry_space_group_name_H-M   'P 1'
_cell_length_a   10.17736523
_cell_length_b   16.59680133
_cell_length_c   13.51399889
_cell_angle_alpha   90.00000000
_cell_angle_beta   121.65565084
_cell_angle_gamma   90.00000000
_symmetry_Int_Tables_number   1
_chemical_formula_structural   Dy5C2Br9
_chemical_formula_sum   'Dy20 C8 Br36'
_cell_volume   1943.05110723
_cell_formula_units_Z   4
loop_
 _symmetry_equiv_pos_site_id
 _symmetry_equiv_pos_as_xyz
  1  'x, y, z'
loop_
 _atom_site_type_symbol
 _atom_site_label
 _atom_site_symmetry_multiplicity
 _atom_site_fract_x
 _atom_site_fract_y
 _atom_site_fract_z
 _atom_site_occupancy
  Dy  Dy0  1  0.660744  0.539795  0.034290  1
  Dy  Dy1  1  0.857305  0.442171  0.311862  1
  Dy  Dy2  1  0.714032  0.185239  0.555790  1
  Dy  Dy3  1  0.507706  0.555058  0.262303  1
  Dy  Dy4  1  0.486858  0.838311  0.279115  1
  Dy  Dy5  1  0.714032  0.314761  0.055790  1
  Dy  Dy6  1  0.660744  0.960205  0.534290  1
  Dy  Dy7  1  0.507706  0.944942  0.762303  1
  Dy  Dy8  1  0.486858  0.661689  0.779115  1
  Dy  Dy9  1  0.857305  0.057829  0.811862  1
  Dy  Dy10  1  0.492294  0.444942  0.737697  1
  Dy  Dy11  1  0.339256  0.460205  0.965710  1
  Dy  Dy12  1  0.339256  0.039795  0.465710  1
  Dy  Dy13  1  0.142695  0.942171  0.188138  1
  Dy  Dy14  1  0.285968  0.814761  0.444210  1
  Dy  Dy15  1  0.142695  0.557829  0.688138  1
  Dy  Dy16  1  0.513142  0.161689  0.720885  1
  Dy  Dy17  1  0.513142  0.338311  0.220885  1
  Dy  Dy18  1  0.285968  0.685239  0.944210  1
  Dy  Dy19  1  0.492294  0.055058  0.237697  1
  C  C20  1  0.572962  0.030417  0.669040  1
  C  C21  1  0.572962  0.469583  0.169040  1
  C  C22  1  0.427038  0.969583  0.330960  1
  C  C23  1  0.427038  0.530417  0.830960  1
  C  C24  1  0.371566  0.912147  0.380250  1
  C  C25  1  0.628434  0.412147  0.119750  1
  C  C26  1  0.371566  0.587853  0.880250  1
  C  C27  1  0.628434  0.087853  0.619750  1
  Br  Br28  1  0.797991  0.067951  0.441864  1
  Br  Br29  1  0.598829  0.193865  0.141925  1
  Br  Br30  1  0.004543  0.178137  0.752472  1
  Br  Br31  1  0.589519  0.931857  0.154805  1
  Br  Br32  1  0.589519  0.568143  0.654805  1
  Br  Br33  1  0.202009  0.567951  0.058136  1
  Br  Br34  1  0.220296  0.327597  0.032122  1
  Br  Br35  1  0.197579  0.817733  0.063040  1
  Br  Br36  1  0.422144  0.198804  0.329728  1
  Br  Br37  1  0.036577  0.063153  0.264812  1
  Br  Br38  1  0.182023  0.057179  0.041759  1
  Br  Br39  1  0.817977  0.557179  0.458241  1
  Br  Br40  1  0.802421  0.317733  0.436960  1
  Br  Br41  1  0.577856  0.698804  0.170272  1
  Br  Br42  1  0.995457  0.821863  0.247528  1
  Br  Br43  1  0.220296  0.172403  0.532122  1
  Br  Br44  1  0.995457  0.678137  0.747528  1
  Br  Br45  1  0.779704  0.827597  0.467878  1
  Br  Br46  1  0.202009  0.932049  0.558136  1
  Br  Br47  1  0.963423  0.563153  0.235188  1
  Br  Br48  1  0.410481  0.068143  0.845195  1
  Br  Br49  1  0.598829  0.306135  0.641925  1
  Br  Br50  1  0.422144  0.301196  0.829728  1
  Br  Br51  1  0.577856  0.801196  0.670272  1
  Br  Br52  1  0.797991  0.432049  0.941864  1
  Br  Br53  1  0.963423  0.936847  0.735188  1
  Br  Br54  1  0.036577  0.436847  0.764812  1
  Br  Br55  1  0.401171  0.806135  0.858075  1
  Br  Br56  1  0.004543  0.321863  0.252472  1
  Br  Br57  1  0.182023  0.442821  0.541759  1
  Br  Br58  1  0.802421  0.182267  0.936960  1
  Br  Br59  1  0.197579  0.682267  0.563040  1
  Br  Br60  1  0.401171  0.693865  0.358075  1
  Br  Br61  1  0.817977  0.942821  0.958241  1
  Br  Br62  1  0.779704  0.672403  0.967878  1
  Br  Br63  1  0.410481  0.431857  0.345195  1
