# generated using pymatgen
data_AlPO4
_symmetry_space_group_name_H-M   'P 1'
_cell_length_a   5.05499110
_cell_length_b   5.05499110
_cell_length_c   11.16223183
_cell_angle_alpha   90.00000000
_cell_angle_beta   90.00000000
_cell_angle_gamma   120.00000000
_symmetry_Int_Tables_number   1
_chemical_formula_structural   AlPO4
_chemical_formula_sum   'Al3 P3 O12'
_cell_volume   247.01450743
_cell_formula_units_Z   3
loop_
 _symmetry_equiv_pos_site_id
 _symmetry_equiv_pos_as_xyz
  1  'x, y, z'
loop_
 _atom_site_type_symbol
 _atom_site_label
 _atom_site_symmetry_multiplicity
 _atom_site_fract_x
 _atom_site_fract_y
 _atom_site_fract_z
 _atom_site_occupancy
  Al  Al0  1  0.472984  0.000000  0.333333  1
  Al  Al1  1  0.000000  0.472984  0.666667  1
  Al  Al2  1  0.527016  0.527016  0.000000  1
  P  P3  1  0.473602  0.000000  0.833333  1
  P  P4  1  0.000000  0.473602  0.166667  1
  P  P5  1  0.526398  0.526398  0.500000  1
  O  O6  1  0.246554  0.417563  0.111502  1
  O  O7  1  0.582437  0.828991  0.444835  1
  O  O8  1  0.171009  0.753446  0.778169  1
  O  O9  1  0.828991  0.582437  0.555165  1
  O  O10  1  0.753446  0.171009  0.221831  1
  O  O11  1  0.417563  0.246554  0.888498  1
  O  O12  1  0.417487  0.280076  0.401759  1
  O  O13  1  0.719924  0.137411  0.735092  1
  O  O14  1  0.862589  0.582513  0.068426  1
  O  O15  1  0.137411  0.719924  0.264908  1
  O  O16  1  0.582513  0.862589  0.931574  1
  O  O17  1  0.280076  0.417487  0.598241  1
