# generated using pymatgen
data_K2Zn6O7
_symmetry_space_group_name_H-M   'P 1'
_cell_length_a   11.06905195
_cell_length_b   11.06905195
_cell_length_c   3.35673431
_cell_angle_alpha   90.00000000
_cell_angle_beta   90.00000000
_cell_angle_gamma   90.00000000
_symmetry_Int_Tables_number   1
_chemical_formula_structural   K2Zn6O7
_chemical_formula_sum   'K4 Zn12 O14'
_cell_volume   411.28021609
_cell_formula_units_Z   2
loop_
 _symmetry_equiv_pos_site_id
 _symmetry_equiv_pos_as_xyz
  1  'x, y, z'
loop_
 _atom_site_type_symbol
 _atom_site_label
 _atom_site_symmetry_multiplicity
 _atom_site_fract_x
 _atom_site_fract_y
 _atom_site_fract_z
 _atom_site_occupancy
  K  K0  1  0.355515  0.355515  0.509267  1
  K  K1  1  0.855515  0.144485  0.009267  1
  K  K2  1  0.644485  0.644485  0.509267  1
  K  K3  1  0.144485  0.855515  0.009267  1
  Zn  Zn4  1  0.584025  0.153809  0.493945  1
  Zn  Zn5  1  0.084025  0.346191  0.993945  1
  Zn  Zn6  1  0.880919  0.880919  0.491159  1
  Zn  Zn7  1  0.153809  0.584025  0.493945  1
  Zn  Zn8  1  0.619081  0.380919  0.991159  1
  Zn  Zn9  1  0.915975  0.653809  0.993945  1
  Zn  Zn10  1  0.119081  0.119081  0.491159  1
  Zn  Zn11  1  0.346191  0.084025  0.993945  1
  Zn  Zn12  1  0.380919  0.619081  0.991159  1
  Zn  Zn13  1  0.415975  0.846191  0.493945  1
  Zn  Zn14  1  0.653809  0.915975  0.993945  1
  Zn  Zn15  1  0.846191  0.415975  0.493945  1
  O  O16  1  0.991715  0.313012  0.494047  1
  O  O17  1  0.186988  0.491715  0.994047  1
  O  O18  1  0.313012  0.991715  0.494047  1
  O  O19  1  0.813012  0.508285  0.994047  1
  O  O20  1  0.689786  0.310214  0.497944  1
  O  O21  1  0.500000  0.500000  0.064192  1
  O  O22  1  0.189786  0.189786  0.997944  1
  O  O23  1  0.310214  0.689786  0.497944  1
  O  O24  1  0.810214  0.810214  0.997944  1
  O  O25  1  0.008285  0.686988  0.494047  1
  O  O26  1  0.508285  0.813012  0.994047  1
  O  O27  1  0.000000  0.000000  0.564192  1
  O  O28  1  0.686988  0.008285  0.494047  1
  O  O29  1  0.491715  0.186988  0.994047  1
