# generated using pymatgen
data_Cs4Li2(Si2O5)3
_symmetry_space_group_name_H-M   'P 1'
_cell_length_a   11.11788872
_cell_length_b   8.63829964
_cell_length_c   19.26358580
_cell_angle_alpha   90.00000000
_cell_angle_beta   90.18961479
_cell_angle_gamma   90.00000000
_symmetry_Int_Tables_number   1
_chemical_formula_structural   Cs4Li2(Si2O5)3
_chemical_formula_sum   'Cs16 Li8 Si24 O60'
_cell_volume   1850.05798691
_cell_formula_units_Z   4
loop_
 _symmetry_equiv_pos_site_id
 _symmetry_equiv_pos_as_xyz
  1  'x, y, z'
loop_
 _atom_site_type_symbol
 _atom_site_label
 _atom_site_symmetry_multiplicity
 _atom_site_fract_x
 _atom_site_fract_y
 _atom_site_fract_z
 _atom_site_occupancy
  Cs  Cs0  1  0.455074  0.750000  0.485945  1
  Cs  Cs1  1  0.520362  0.750000  0.007546  1
  Cs  Cs2  1  0.957026  0.750000  0.980898  1
  Cs  Cs3  1  0.278137  0.750000  0.279400  1
  Cs  Cs4  1  0.204104  0.250000  0.267257  1
  Cs  Cs5  1  0.705152  0.750000  0.223376  1
  Cs  Cs6  1  0.795896  0.750000  0.732743  1
  Cs  Cs7  1  0.222445  0.750000  0.772518  1
  Cs  Cs8  1  0.777555  0.250000  0.227482  1
  Cs  Cs9  1  0.294848  0.250000  0.776624  1
  Cs  Cs10  1  0.479638  0.250000  0.992454  1
  Cs  Cs11  1  0.032734  0.750000  0.518547  1
  Cs  Cs12  1  0.544926  0.250000  0.514055  1
  Cs  Cs13  1  0.967266  0.250000  0.481453  1
  Cs  Cs14  1  0.042974  0.250000  0.019102  1
  Cs  Cs15  1  0.721863  0.250000  0.720600  1
  Li  Li16  1  0.762407  0.981571  0.578770  1
  Li  Li17  1  0.739683  0.487551  0.071968  1
  Li  Li18  1  0.739683  0.012449  0.071968  1
  Li  Li19  1  0.237593  0.481571  0.421230  1
  Li  Li20  1  0.260317  0.512449  0.928032  1
  Li  Li21  1  0.762407  0.518429  0.578770  1
  Li  Li22  1  0.260317  0.987551  0.928032  1
  Li  Li23  1  0.237593  0.018429  0.421230  1
  Si  Si24  1  0.505161  0.434524  0.335213  1
  Si  Si25  1  0.005220  0.060107  0.834651  1
  Si  Si26  1  0.994780  0.939893  0.165349  1
  Si  Si27  1  0.494839  0.934524  0.664787  1
  Si  Si28  1  0.743883  0.561254  0.411893  1
  Si  Si29  1  0.505161  0.065476  0.335213  1
  Si  Si30  1  0.749885  0.439419  0.903922  1
  Si  Si31  1  0.749885  0.060581  0.903922  1
  Si  Si32  1  0.005220  0.439893  0.834651  1
  Si  Si33  1  0.256117  0.061254  0.588107  1
  Si  Si34  1  0.514972  0.935965  0.829840  1
  Si  Si35  1  0.485028  0.435965  0.170160  1
  Si  Si36  1  0.494839  0.565476  0.664787  1
  Si  Si37  1  0.485028  0.064035  0.170160  1
  Si  Si38  1  0.994780  0.560107  0.165349  1
  Si  Si39  1  0.256117  0.438746  0.588107  1
  Si  Si40  1  0.250115  0.939419  0.096078  1
  Si  Si41  1  0.250115  0.560581  0.096078  1
  Si  Si42  1  0.017043  0.440072  0.671099  1
  Si  Si43  1  0.743883  0.938746  0.411893  1
  Si  Si44  1  0.982957  0.940072  0.328901  1
  Si  Si45  1  0.017043  0.059928  0.671099  1
  Si  Si46  1  0.514972  0.564035  0.829840  1
  Si  Si47  1  0.982957  0.559928  0.328901  1
  O  O48  1  0.983306  0.750000  0.325339  1
  O  O49  1  0.885397  0.494758  0.120918  1
  O  O50  1  0.641141  0.468945  0.846045  1
  O  O51  1  0.999507  0.750000  0.168643  1
  O  O52  1  0.405788  0.980918  0.878838  1
  O  O53  1  0.623046  0.974375  0.633233  1
  O  O54  1  0.376954  0.474375  0.366767  1
  O  O55  1  0.114603  0.505242  0.879082  1
  O  O56  1  0.613079  0.536602  0.372274  1
  O  O57  1  0.386921  0.463398  0.627726  1
  O  O58  1  0.153308  0.494381  0.645773  1
  O  O59  1  0.405788  0.519082  0.878838  1
  O  O60  1  0.613079  0.963398  0.372274  1
  O  O61  1  0.483337  0.982167  0.748053  1
  O  O62  1  0.873038  0.500466  0.863276  1
  O  O63  1  0.246381  0.973467  0.515945  1
  O  O64  1  0.762300  0.250000  0.911057  1
  O  O65  1  0.730956  0.522614  0.976411  1
  O  O66  1  0.153308  0.005619  0.645773  1
  O  O67  1  0.000493  0.250000  0.831357  1
  O  O68  1  0.753619  0.026533  0.484055  1
  O  O69  1  0.730956  0.977386  0.976411  1
  O  O70  1  0.910467  0.990886  0.625603  1
  O  O71  1  0.885397  0.005242  0.120918  1
  O  O72  1  0.846692  0.994381  0.354227  1
  O  O73  1  0.126962  0.000466  0.136724  1
  O  O74  1  0.594212  0.019082  0.121162  1
  O  O75  1  0.623046  0.525625  0.633233  1
  O  O76  1  0.010427  0.501948  0.752900  1
  O  O77  1  0.126962  0.499534  0.136724  1
  O  O78  1  0.552163  0.750000  0.830691  1
  O  O79  1  0.358859  0.531055  0.153955  1
  O  O80  1  0.241113  0.250000  0.578898  1
  O  O81  1  0.089533  0.009114  0.374397  1
  O  O82  1  0.989573  0.498052  0.247100  1
  O  O83  1  0.376954  0.025625  0.366767  1
  O  O84  1  0.545972  0.250000  0.341780  1
  O  O85  1  0.846692  0.505619  0.354227  1
  O  O86  1  0.010427  0.998052  0.752900  1
  O  O87  1  0.873038  0.999534  0.863276  1
  O  O88  1  0.237700  0.750000  0.088943  1
  O  O89  1  0.753619  0.473467  0.484055  1
  O  O90  1  0.516663  0.017833  0.251947  1
  O  O91  1  0.269044  0.477386  0.023589  1
  O  O92  1  0.910467  0.509114  0.625603  1
  O  O93  1  0.483337  0.517833  0.748053  1
  O  O94  1  0.089533  0.490886  0.374397  1
  O  O95  1  0.758887  0.750000  0.421102  1
  O  O96  1  0.114603  0.994758  0.879082  1
  O  O97  1  0.386921  0.036602  0.627726  1
  O  O98  1  0.641141  0.031055  0.846045  1
  O  O99  1  0.454028  0.750000  0.658220  1
  O  O100  1  0.594212  0.480918  0.121162  1
  O  O101  1  0.246381  0.526533  0.515945  1
  O  O102  1  0.269044  0.022614  0.023589  1
  O  O103  1  0.358859  0.968945  0.153955  1
  O  O104  1  0.016694  0.250000  0.674661  1
  O  O105  1  0.516663  0.482167  0.251947  1
  O  O106  1  0.447837  0.250000  0.169309  1
  O  O107  1  0.989573  0.001948  0.247100  1
