# generated using pymatgen
data_Sc(FeSi)2
_symmetry_space_group_name_H-M   'P 1'
_cell_length_a   4.98411146
_cell_length_b   7.06321311
_cell_length_c   7.44727189
_cell_angle_alpha   90.00000000
_cell_angle_beta   90.00000000
_cell_angle_gamma   90.00000000
_symmetry_Int_Tables_number   1
_chemical_formula_structural   Sc(FeSi)2
_chemical_formula_sum   'Sc4 Fe8 Si8'
_cell_volume   262.17257852
_cell_formula_units_Z   4
loop_
 _symmetry_equiv_pos_site_id
 _symmetry_equiv_pos_as_xyz
  1  'x, y, z'
loop_
 _atom_site_type_symbol
 _atom_site_label
 _atom_site_symmetry_multiplicity
 _atom_site_fract_x
 _atom_site_fract_y
 _atom_site_fract_z
 _atom_site_occupancy
  Sc  Sc0  1  0.750000  0.905779  0.248297  1
  Sc  Sc1  1  0.250000  0.094221  0.751703  1
  Sc  Sc2  1  0.750000  0.405779  0.751703  1
  Sc  Sc3  1  0.250000  0.594221  0.248297  1
  Fe  Fe4  1  0.750000  0.511266  0.115948  1
  Fe  Fe5  1  0.250000  0.488734  0.884052  1
  Fe  Fe6  1  0.750000  0.011267  0.884052  1
  Fe  Fe7  1  0.250000  0.988734  0.115948  1
  Fe  Fe8  1  0.000000  0.750000  0.617115  1
  Fe  Fe9  1  0.500000  0.250000  0.382885  1
  Fe  Fe10  1  0.000000  0.250000  0.382885  1
  Fe  Fe11  1  0.500000  0.750000  0.617115  1
  Si  Si12  1  0.750000  0.549852  0.417066  1
  Si  Si13  1  0.250000  0.450148  0.582934  1
  Si  Si14  1  0.750000  0.049852  0.582934  1
  Si  Si15  1  0.250000  0.950148  0.417066  1
  Si  Si16  1  0.000000  0.750000  0.950516  1
  Si  Si17  1  0.500000  0.250000  0.049484  1
  Si  Si18  1  0.000000  0.250000  0.049484  1
  Si  Si19  1  0.500000  0.750000  0.950516  1
