# generated using pymatgen
data_PrGePt
_symmetry_space_group_name_H-M   'P 1'
_cell_length_a   4.49812719
_cell_length_b   7.72444494
_cell_length_c   14.78016153
_cell_angle_alpha   90.00000000
_cell_angle_beta   90.00000000
_cell_angle_gamma   90.00000000
_symmetry_Int_Tables_number   1
_chemical_formula_structural   PrGePt
_chemical_formula_sum   'Pr8 Ge8 Pt8'
_cell_volume   513.54463175
_cell_formula_units_Z   8
loop_
 _symmetry_equiv_pos_site_id
 _symmetry_equiv_pos_as_xyz
  1  'x, y, z'
loop_
 _atom_site_type_symbol
 _atom_site_label
 _atom_site_symmetry_multiplicity
 _atom_site_fract_x
 _atom_site_fract_y
 _atom_site_fract_z
 _atom_site_occupancy
  Pr  Pr0  1  0.500000  0.791407  0.747351  1
  Pr  Pr1  1  0.000000  0.208593  0.752649  1
  Pr  Pr2  1  0.500000  0.791407  0.252649  1
  Pr  Pr3  1  0.000000  0.208593  0.247351  1
  Pr  Pr4  1  0.500000  0.708177  0.000000  1
  Pr  Pr5  1  0.000000  0.291823  0.500000  1
  Pr  Pr6  1  0.500000  0.704365  0.500000  1
  Pr  Pr7  1  0.000000  0.295635  0.000000  1
  Ge  Ge8  1  0.500000  0.411050  0.649791  1
  Ge  Ge9  1  0.000000  0.588950  0.850209  1
  Ge  Ge10  1  0.500000  0.411050  0.350209  1
  Ge  Ge11  1  0.000000  0.588950  0.149791  1
  Ge  Ge12  1  0.500000  0.087820  0.094382  1
  Ge  Ge13  1  0.000000  0.912180  0.405618  1
  Ge  Ge14  1  0.500000  0.087820  0.905618  1
  Ge  Ge15  1  0.000000  0.912180  0.594382  1
  Pt  Pt16  1  0.500000  0.079939  0.608665  1
  Pt  Pt17  1  0.000000  0.920061  0.891335  1
  Pt  Pt18  1  0.500000  0.079939  0.391335  1
  Pt  Pt19  1  0.000000  0.920061  0.108665  1
  Pt  Pt20  1  0.500000  0.417430  0.151614  1
  Pt  Pt21  1  0.000000  0.582570  0.348386  1
  Pt  Pt22  1  0.500000  0.417430  0.848386  1
  Pt  Pt23  1  0.000000  0.582570  0.651614  1
