# generated using pymatgen
data_NaB3O5
_symmetry_space_group_name_H-M   'P 1'
_cell_length_a   9.15741579
_cell_length_b   11.13461393
_cell_length_c   12.23167443
_cell_angle_alpha   90.00000000
_cell_angle_beta   90.80925365
_cell_angle_gamma   90.00000000
_symmetry_Int_Tables_number   1
_chemical_formula_structural   NaB3O5
_chemical_formula_sum   'Na12 B36 O60'
_cell_volume   1247.06959227
_cell_formula_units_Z   12
loop_
 _symmetry_equiv_pos_site_id
 _symmetry_equiv_pos_as_xyz
  1  'x, y, z'
loop_
 _atom_site_type_symbol
 _atom_site_label
 _atom_site_symmetry_multiplicity
 _atom_site_fract_x
 _atom_site_fract_y
 _atom_site_fract_z
 _atom_site_occupancy
  Na  Na0  1  0.100666  0.369346  0.435812  1
  Na  Na1  1  0.899334  0.630654  0.564188  1
  Na  Na2  1  0.558983  0.338770  0.214540  1
  Na  Na3  1  0.100666  0.130654  0.935812  1
  Na  Na4  1  0.899334  0.869346  0.064188  1
  Na  Na5  1  0.887676  0.406138  0.079086  1
  Na  Na6  1  0.441017  0.661230  0.785460  1
  Na  Na7  1  0.558983  0.161230  0.714540  1
  Na  Na8  1  0.112324  0.906138  0.420914  1
  Na  Na9  1  0.441017  0.838770  0.285460  1
  Na  Na10  1  0.112324  0.593862  0.920914  1
  Na  Na11  1  0.887676  0.093862  0.579086  1
  B  B12  1  0.858558  0.328768  0.857752  1
  B  B13  1  0.215207  0.458766  0.653067  1
  B  B14  1  0.703968  0.620563  0.164739  1
  B  B15  1  0.748620  0.342572  0.463153  1
  B  B16  1  0.354875  0.397993  0.034582  1
  B  B17  1  0.141016  0.258172  0.711185  1
  B  B18  1  0.513699  0.220361  0.418243  1
  B  B19  1  0.141442  0.828768  0.642248  1
  B  B20  1  0.645125  0.602007  0.965418  1
  B  B21  1  0.296032  0.379437  0.835261  1
  B  B22  1  0.180027  0.459076  0.187270  1
  B  B23  1  0.645125  0.897993  0.465418  1
  B  B24  1  0.223617  0.618230  0.325505  1
  B  B25  1  0.748620  0.157428  0.963153  1
  B  B26  1  0.296032  0.120563  0.335261  1
  B  B27  1  0.215207  0.041234  0.153067  1
  B  B28  1  0.180027  0.040924  0.687270  1
  B  B29  1  0.703968  0.879437  0.664739  1
  B  B30  1  0.858984  0.741828  0.288815  1
  B  B31  1  0.513699  0.279639  0.918243  1
  B  B32  1  0.784793  0.541234  0.346933  1
  B  B33  1  0.819973  0.540924  0.812730  1
  B  B34  1  0.251380  0.657428  0.536847  1
  B  B35  1  0.223617  0.881770  0.825505  1
  B  B36  1  0.486301  0.779639  0.581757  1
  B  B37  1  0.354875  0.102007  0.534582  1
  B  B38  1  0.858984  0.758172  0.788815  1
  B  B39  1  0.486301  0.720361  0.081757  1
  B  B40  1  0.776383  0.381770  0.674495  1
  B  B41  1  0.858558  0.171232  0.357752  1
  B  B42  1  0.251380  0.842572  0.036847  1
  B  B43  1  0.141016  0.241828  0.211185  1
  B  B44  1  0.819973  0.959076  0.312730  1
  B  B45  1  0.776383  0.118230  0.174495  1
  B  B46  1  0.784793  0.958766  0.846933  1
  B  B47  1  0.141442  0.671232  0.142248  1
  O  O48  1  0.719269  0.521165  0.246763  1
  O  O49  1  0.325140  0.427591  0.140310  1
  O  O50  1  0.203937  0.498883  0.302203  1
  O  O51  1  0.893491  0.446737  0.878993  1
  O  O52  1  0.274473  0.664861  0.420282  1
  O  O53  1  0.203937  0.001117  0.802203  1
  O  O54  1  0.273689  0.068099  0.444726  1
  O  O55  1  0.274473  0.835139  0.920282  1
  O  O56  1  0.674860  0.927591  0.359690  1
  O  O57  1  0.847659  0.845227  0.870439  1
  O  O58  1  0.152341  0.154773  0.129561  1
  O  O59  1  0.183293  0.214914  0.315842  1
  O  O60  1  0.480632  0.173426  0.521462  1
  O  O61  1  0.106509  0.946737  0.621007  1
  O  O62  1  0.199144  0.536968  0.568474  1
  O  O63  1  0.439118  0.319750  0.827078  1
  O  O64  1  0.674860  0.572409  0.859690  1
  O  O65  1  0.719269  0.978835  0.746763  1
  O  O66  1  0.199144  0.963032  0.068474  1
  O  O67  1  0.725527  0.164861  0.079718  1
  O  O68  1  0.805730  0.294917  0.755370  1
  O  O69  1  0.726311  0.568099  0.055274  1
  O  O70  1  0.384232  0.692279  0.596860  1
  O  O71  1  0.725527  0.335139  0.579718  1
  O  O72  1  0.871042  0.253915  0.440258  1
  O  O73  1  0.152341  0.345227  0.629561  1
  O  O74  1  0.280731  0.478835  0.753237  1
  O  O75  1  0.128958  0.746085  0.559742  1
  O  O76  1  0.796063  0.501117  0.697797  1
  O  O77  1  0.893491  0.053263  0.378993  1
  O  O78  1  0.800856  0.463032  0.431526  1
  O  O79  1  0.194270  0.705083  0.244630  1
  O  O80  1  0.914658  0.647729  0.816441  1
  O  O81  1  0.280731  0.021165  0.253237  1
  O  O82  1  0.128958  0.753915  0.059742  1
  O  O83  1  0.273689  0.431901  0.944726  1
  O  O84  1  0.847659  0.654773  0.370439  1
  O  O85  1  0.560882  0.819750  0.672922  1
  O  O86  1  0.106509  0.553263  0.121007  1
  O  O87  1  0.560882  0.680250  0.172922  1
  O  O88  1  0.085342  0.352271  0.183559  1
  O  O89  1  0.805730  0.205083  0.255370  1
  O  O90  1  0.615768  0.307721  0.403140  1
  O  O91  1  0.800856  0.036968  0.931526  1
  O  O92  1  0.816707  0.785086  0.684158  1
  O  O93  1  0.914658  0.852271  0.316441  1
  O  O94  1  0.796063  0.998883  0.197797  1
  O  O95  1  0.439118  0.180250  0.327078  1
  O  O96  1  0.816707  0.714914  0.184158  1
  O  O97  1  0.183293  0.285086  0.815842  1
  O  O98  1  0.519368  0.673426  0.978538  1
  O  O99  1  0.480632  0.326574  0.021462  1
  O  O100  1  0.519368  0.826574  0.478538  1
  O  O101  1  0.384232  0.807721  0.096860  1
  O  O102  1  0.085342  0.147729  0.683559  1
  O  O103  1  0.325140  0.072409  0.640310  1
  O  O104  1  0.871042  0.246085  0.940258  1
  O  O105  1  0.615768  0.192279  0.903140  1
  O  O106  1  0.194270  0.794917  0.744630  1
  O  O107  1  0.726311  0.931901  0.555274  1
