# generated using pymatgen
data_La2CN3Cl
_symmetry_space_group_name_H-M   'P 1'
_cell_length_a   8.29141511
_cell_length_b   8.29141511
_cell_length_c   3.95928789
_cell_angle_alpha   90.00000000
_cell_angle_beta   90.00000000
_cell_angle_gamma   108.69091252
_symmetry_Int_Tables_number   1
_chemical_formula_structural   La2CN3Cl
_chemical_formula_sum   'La4 C2 N6 Cl2'
_cell_volume   257.83632946
_cell_formula_units_Z   2
loop_
 _symmetry_equiv_pos_site_id
 _symmetry_equiv_pos_as_xyz
  1  'x, y, z'
loop_
 _atom_site_type_symbol
 _atom_site_label
 _atom_site_symmetry_multiplicity
 _atom_site_fract_x
 _atom_site_fract_y
 _atom_site_fract_z
 _atom_site_occupancy
  La  La0  1  0.787340  0.787340  0.500000  1
  La  La1  1  0.637818  0.362182  0.000000  1
  La  La2  1  0.212660  0.212660  0.500000  1
  La  La3  1  0.362182  0.637818  0.000000  1
  C  C4  1  0.000000  0.500000  0.500000  1
  C  C5  1  0.500000  0.000000  0.500000  1
  N  N6  1  0.344313  0.344313  0.000000  1
  N  N7  1  0.655687  0.655687  0.000000  1
  N  N8  1  0.150617  0.505283  0.500000  1
  N  N9  1  0.849383  0.494717  0.500000  1
  N  N10  1  0.494717  0.849383  0.500000  1
  N  N11  1  0.505283  0.150617  0.500000  1
  Cl  Cl12  1  0.121875  0.878125  0.000000  1
  Cl  Cl13  1  0.878125  0.121875  1.000000  1
