# generated using pymatgen
data_Li3Sn2(PO4)3
_symmetry_space_group_name_H-M   'P 1'
_cell_length_a   10.17619506
_cell_length_b   10.17619506
_cell_length_c   10.17619506
_cell_angle_alpha   50.45723092
_cell_angle_beta   50.45723092
_cell_angle_gamma   50.45723092
_symmetry_Int_Tables_number   1
_chemical_formula_structural   Li3Sn2(PO4)3
_chemical_formula_sum   'Li6 Sn4 P6 O24'
_cell_volume   577.30558907
_cell_formula_units_Z   2
loop_
 _symmetry_equiv_pos_site_id
 _symmetry_equiv_pos_as_xyz
  1  'x, y, z'
loop_
 _atom_site_type_symbol
 _atom_site_label
 _atom_site_symmetry_multiplicity
 _atom_site_fract_x
 _atom_site_fract_y
 _atom_site_fract_z
 _atom_site_occupancy
  Li  Li0  1  0.245188  0.670574  0.942795  1
  Li  Li1  1  0.329426  0.057205  0.754812  1
  Li  Li2  1  0.942795  0.245188  0.670574  1
  Li  Li3  1  0.754812  0.329426  0.057205  1
  Li  Li4  1  0.057205  0.754812  0.329426  1
  Li  Li5  1  0.670574  0.942795  0.245188  1
  Sn  Sn6  1  0.657477  0.657477  0.657477  1
  Sn  Sn7  1  0.837030  0.837030  0.837030  1
  Sn  Sn8  1  0.162970  0.162970  0.162970  1
  Sn  Sn9  1  0.342523  0.342523  0.342523  1
  P  P10  1  0.047332  0.451354  0.721484  1
  P  P11  1  0.278516  0.952668  0.548646  1
  P  P12  1  0.952668  0.548646  0.278516  1
  P  P13  1  0.721484  0.047332  0.451354  1
  P  P14  1  0.451354  0.721484  0.047332  1
  P  P15  1  0.548646  0.278516  0.952668  1
  O  O16  1  0.143055  0.252813  0.830988  1
  O  O17  1  0.464861  0.783647  0.848939  1
  O  O18  1  0.983711  0.401968  0.247121  1
  O  O19  1  0.747187  0.169012  0.856945  1
  O  O20  1  0.494314  0.847913  0.501944  1
  O  O21  1  0.598032  0.752879  0.016289  1
  O  O22  1  0.498056  0.505686  0.152087  1
  O  O23  1  0.856945  0.747187  0.169012  1
  O  O24  1  0.216353  0.151061  0.535139  1
  O  O25  1  0.169012  0.856945  0.747187  1
  O  O26  1  0.848939  0.464861  0.783647  1
  O  O27  1  0.252813  0.830988  0.143055  1
  O  O28  1  0.152087  0.498056  0.505686  1
  O  O29  1  0.783647  0.848939  0.464861  1
  O  O30  1  0.401968  0.247121  0.983711  1
  O  O31  1  0.505686  0.152087  0.498056  1
  O  O32  1  0.501944  0.494314  0.847913  1
  O  O33  1  0.535139  0.216353  0.151061  1
  O  O34  1  0.151061  0.535139  0.216353  1
  O  O35  1  0.247121  0.983711  0.401968  1
  O  O36  1  0.752879  0.016289  0.598032  1
  O  O37  1  0.847913  0.501944  0.494314  1
  O  O38  1  0.830988  0.143055  0.252813  1
  O  O39  1  0.016289  0.598032  0.752879  1
