# generated using pymatgen
data_Pb5SO8
_symmetry_space_group_name_H-M   'P 1'
_cell_length_a   7.48502221
_cell_length_b   12.00588105
_cell_length_c   11.91545485
_cell_angle_alpha   90.00000000
_cell_angle_beta   90.94127714
_cell_angle_gamma   90.00000000
_symmetry_Int_Tables_number   1
_chemical_formula_structural   Pb5SO8
_chemical_formula_sum   'Pb20 S4 O32'
_cell_volume   1070.62935216
_cell_formula_units_Z   4
loop_
 _symmetry_equiv_pos_site_id
 _symmetry_equiv_pos_as_xyz
  1  'x, y, z'
loop_
 _atom_site_type_symbol
 _atom_site_label
 _atom_site_symmetry_multiplicity
 _atom_site_fract_x
 _atom_site_fract_y
 _atom_site_fract_z
 _atom_site_occupancy
  Pb  Pb0  1  0.108328  0.758636  0.387857  1
  Pb  Pb1  1  0.891672  0.258636  0.112143  1
  Pb  Pb2  1  0.891672  0.241364  0.612143  1
  Pb  Pb3  1  0.108328  0.741364  0.887857  1
  Pb  Pb4  1  0.123167  0.089620  0.392982  1
  Pb  Pb5  1  0.876833  0.589620  0.107018  1
  Pb  Pb6  1  0.876833  0.910380  0.607018  1
  Pb  Pb7  1  0.123167  0.410380  0.892982  1
  Pb  Pb8  1  0.632659  0.741444  0.388220  1
  Pb  Pb9  1  0.367341  0.241444  0.111780  1
  Pb  Pb10  1  0.367341  0.258556  0.611780  1
  Pb  Pb11  1  0.632659  0.758556  0.888220  1
  Pb  Pb12  1  0.375557  0.939443  0.614009  1
  Pb  Pb13  1  0.624443  0.439443  0.885991  1
  Pb  Pb14  1  0.624443  0.060557  0.385991  1
  Pb  Pb15  1  0.375557  0.560557  0.114009  1
  Pb  Pb16  1  0.861308  0.583380  0.628750  1
  Pb  Pb17  1  0.138692  0.083380  0.871250  1
  Pb  Pb18  1  0.138692  0.416620  0.371250  1
  Pb  Pb19  1  0.861308  0.916620  0.128750  1
  S  S20  1  0.356192  0.895111  0.153239  1
  S  S21  1  0.643808  0.395111  0.346761  1
  S  S22  1  0.643808  0.104889  0.846761  1
  S  S23  1  0.356192  0.604889  0.653239  1
  O  O24  1  0.867072  0.083781  0.508157  1
  O  O25  1  0.132928  0.583781  0.991843  1
  O  O26  1  0.132928  0.916219  0.491843  1
  O  O27  1  0.867072  0.416219  0.008157  1
  O  O28  1  0.609113  0.901033  0.497905  1
  O  O29  1  0.390887  0.401033  0.002095  1
  O  O30  1  0.390887  0.098967  0.502095  1
  O  O31  1  0.609113  0.598967  0.997905  1
  O  O32  1  0.872805  0.727264  0.511090  1
  O  O33  1  0.127195  0.227264  0.988910  1
  O  O34  1  0.127195  0.272736  0.488910  1
  O  O35  1  0.872805  0.772736  0.011090  1
  O  O36  1  0.862573  0.823997  0.291656  1
  O  O37  1  0.137427  0.323997  0.208344  1
  O  O38  1  0.137427  0.176003  0.708344  1
  O  O39  1  0.862573  0.676003  0.791656  1
  O  O40  1  0.374191  0.908624  0.278559  1
  O  O41  1  0.625809  0.408624  0.221441  1
  O  O42  1  0.625809  0.091376  0.721441  1
  O  O43  1  0.374191  0.591376  0.778559  1
  O  O44  1  0.238266  0.797270  0.128003  1
  O  O45  1  0.761734  0.297270  0.371997  1
  O  O46  1  0.761734  0.202730  0.871997  1
  O  O47  1  0.238266  0.702730  0.628003  1
  O  O48  1  0.537998  0.871418  0.106322  1
  O  O49  1  0.462002  0.371418  0.393678  1
  O  O50  1  0.462002  0.128582  0.893678  1
  O  O51  1  0.537998  0.628582  0.606322  1
  O  O52  1  0.276433  0.997305  0.103124  1
  O  O53  1  0.723567  0.497305  0.396876  1
  O  O54  1  0.723567  0.002695  0.896876  1
  O  O55  1  0.276433  0.502695  0.603124  1
