# generated using pymatgen
data_Er2SiO5
_symmetry_space_group_name_H-M   'P 1'
_cell_length_a   7.97064312
_cell_length_b   7.97064312
_cell_length_c   10.38985379
_cell_angle_alpha   61.11898485
_cell_angle_beta   118.88101515
_cell_angle_gamma   130.01870067
_symmetry_Int_Tables_number   1
_chemical_formula_structural   Er2SiO5
_chemical_formula_sum   'Er8 Si4 O20'
_cell_volume   427.75851526
_cell_formula_units_Z   4
loop_
 _symmetry_equiv_pos_site_id
 _symmetry_equiv_pos_as_xyz
  1  'x, y, z'
loop_
 _atom_site_type_symbol
 _atom_site_label
 _atom_site_symmetry_multiplicity
 _atom_site_fract_x
 _atom_site_fract_y
 _atom_site_fract_z
 _atom_site_occupancy
  Er  Er0  1  0.481928  0.763759  0.164127  1
  Er  Er1  1  0.219811  0.292910  0.033738  1
  Er  Er2  1  0.518072  0.236241  0.835873  1
  Er  Er3  1  0.236241  0.518072  0.664127  1
  Er  Er4  1  0.763759  0.481928  0.335873  1
  Er  Er5  1  0.780189  0.707090  0.966262  1
  Er  Er6  1  0.707090  0.780189  0.533738  1
  Er  Er7  1  0.292910  0.219811  0.466262  1
  Si  Si8  1  0.727758  0.091346  0.692734  1
  Si  Si9  1  0.272242  0.908654  0.307266  1
  Si  Si10  1  0.091346  0.727758  0.807266  1
  Si  Si11  1  0.908654  0.272242  0.192734  1
  O  O12  1  0.444537  0.849196  0.324324  1
  O  O13  1  0.830855  0.592510  0.821559  1
  O  O14  1  0.914387  0.091335  0.360640  1
  O  O15  1  0.271997  0.869179  0.938115  1
  O  O16  1  0.555463  0.150804  0.675676  1
  O  O17  1  0.386091  0.421768  0.602352  1
  O  O18  1  0.150804  0.555463  0.824324  1
  O  O19  1  0.407490  0.169145  0.321559  1
  O  O20  1  0.728003  0.130821  0.061885  1
  O  O21  1  0.578232  0.613909  0.102352  1
  O  O22  1  0.421768  0.386091  0.897648  1
  O  O23  1  0.091335  0.914387  0.139360  1
  O  O24  1  0.169145  0.407490  0.178441  1
  O  O25  1  0.869179  0.271997  0.561885  1
  O  O26  1  0.908665  0.085613  0.860640  1
  O  O27  1  0.849196  0.444537  0.175676  1
  O  O28  1  0.085613  0.908665  0.639360  1
  O  O29  1  0.613909  0.578232  0.397648  1
  O  O30  1  0.592510  0.830855  0.678441  1
  O  O31  1  0.130821  0.728003  0.438115  1
