# generated using pymatgen
data_La4B4Br5
_symmetry_space_group_name_H-M   'P 1'
_cell_length_a   9.47466429
_cell_length_b   9.47466429
_cell_length_c   19.64520550
_cell_angle_alpha   64.36147791
_cell_angle_beta   115.63852209
_cell_angle_gamma   153.61547487
_symmetry_Int_Tables_number   1
_chemical_formula_structural   La4B4Br5
_chemical_formula_sum   'La8 B8 Br10'
_cell_volume   702.05582305
_cell_formula_units_Z   2
loop_
 _symmetry_equiv_pos_site_id
 _symmetry_equiv_pos_as_xyz
  1  'x, y, z'
loop_
 _atom_site_type_symbol
 _atom_site_label
 _atom_site_symmetry_multiplicity
 _atom_site_fract_x
 _atom_site_fract_y
 _atom_site_fract_z
 _atom_site_occupancy
  La  La0  1  0.609574  0.390426  0.272914  1
  La  La1  1  0.390426  0.609574  0.727086  1
  La  La2  1  0.994365  0.005635  0.371344  1
  La  La3  1  0.005635  0.994365  0.628656  1
  La  La4  1  0.314673  0.685327  0.198341  1
  La  La5  1  0.685327  0.314673  0.801659  1
  La  La6  1  0.930569  0.069431  0.090009  1
  La  La7  1  0.069431  0.930569  0.909991  1
  B  B8  1  0.145747  0.224421  0.230318  1
  B  B9  1  0.224421  0.145747  0.769682  1
  B  B10  1  0.854253  0.775579  0.769682  1
  B  B11  1  0.775579  0.854253  0.230318  1
  B  B12  1  0.448610  0.551390  0.176716  1
  B  B13  1  0.551390  0.448610  0.823284  1
  B  B14  1  0.472662  0.527338  0.284547  1
  B  B15  1  0.527338  0.472662  0.715453  1
  Br  Br16  1  0.172510  0.827490  0.399361  1
  Br  Br17  1  0.827490  0.172510  0.600639  1
  Br  Br18  1  0.125713  0.874287  0.168669  1
  Br  Br19  1  0.874287  0.125713  0.831331  1
  Br  Br20  1  0.743424  0.256576  0.073011  1
  Br  Br21  1  0.256576  0.743424  0.926989  1
  Br  Br22  1  0.806231  0.193769  0.311180  1
  Br  Br23  1  0.193769  0.806231  0.688820  1
  Br  Br24  1  0.500000  0.500000  0.500000  1
  Br  Br25  1  0.500000  0.500000  0.000000  1
