# generated using pymatgen
data_SrHg2
_symmetry_space_group_name_H-M   'P 1'
_cell_length_a   6.43806084
_cell_length_b   6.43806084
_cell_length_c   6.43806084
_cell_angle_alpha   132.73863517
_cell_angle_beta   103.73989384
_cell_angle_gamma   94.80876971
_symmetry_Int_Tables_number   1
_chemical_formula_structural   SrHg2
_chemical_formula_sum   'Sr2 Hg4'
_cell_volume   178.80088863
_cell_formula_units_Z   2
loop_
 _symmetry_equiv_pos_site_id
 _symmetry_equiv_pos_as_xyz
  1  'x, y, z'
loop_
 _atom_site_type_symbol
 _atom_site_label
 _atom_site_symmetry_multiplicity
 _atom_site_fract_x
 _atom_site_fract_y
 _atom_site_fract_z
 _atom_site_occupancy
  Sr  Sr0  1  0.209951  0.459951  0.250000  1
  Sr  Sr1  1  0.790049  0.540049  0.750000  1
  Hg  Hg2  1  0.379955  0.834058  0.045897  1
  Hg  Hg3  1  0.211839  0.165942  0.545897  1
  Hg  Hg4  1  0.788161  0.834058  0.454103  1
  Hg  Hg5  1  0.620045  0.165942  0.954103  1
