# generated using pymatgen
data_V2Cd6Se5O21
_symmetry_space_group_name_H-M   'P 1'
_cell_length_a   15.62895255
_cell_length_b   5.54938653
_cell_length_c   24.50141807
_cell_angle_alpha   90.00000000
_cell_angle_beta   94.34863239
_cell_angle_gamma   90.00000000
_symmetry_Int_Tables_number   1
_chemical_formula_structural   V2Cd6Se5O21
_chemical_formula_sum   'V8 Cd24 Se20 O84'
_cell_volume   2118.91721729
_cell_formula_units_Z   4
loop_
 _symmetry_equiv_pos_site_id
 _symmetry_equiv_pos_as_xyz
  1  'x, y, z'
loop_
 _atom_site_type_symbol
 _atom_site_label
 _atom_site_symmetry_multiplicity
 _atom_site_fract_x
 _atom_site_fract_y
 _atom_site_fract_z
 _atom_site_occupancy
  V  V0  1  0.791154  0.261112  0.686720  1
  V  V1  1  0.791154  0.238888  0.186720  1
  V  V2  1  0.208846  0.738888  0.313280  1
  V  V3  1  0.903031  0.776859  0.728092  1
  V  V4  1  0.903031  0.723141  0.228092  1
  V  V5  1  0.208846  0.761112  0.813280  1
  V  V6  1  0.096969  0.276859  0.771908  1
  V  V7  1  0.096969  0.223141  0.271908  1
  Cd  Cd8  1  0.227137  0.217286  0.585463  1
  Cd  Cd9  1  0.376409  0.680712  0.644381  1
  Cd  Cd10  1  0.623591  0.180712  0.855619  1
  Cd  Cd11  1  0.227137  0.282714  0.085463  1
  Cd  Cd12  1  0.544584  0.289804  0.203008  1
  Cd  Cd13  1  0.912625  0.262798  0.472613  1
  Cd  Cd14  1  0.772863  0.782714  0.414537  1
  Cd  Cd15  1  0.987940  0.297558  0.124692  1
  Cd  Cd16  1  0.530735  0.744240  0.957258  1
  Cd  Cd17  1  0.376409  0.819288  0.144381  1
  Cd  Cd18  1  0.544584  0.210196  0.703008  1
  Cd  Cd19  1  0.012060  0.797558  0.375308  1
  Cd  Cd20  1  0.469265  0.244240  0.542742  1
  Cd  Cd21  1  0.012060  0.702442  0.875308  1
  Cd  Cd22  1  0.912625  0.237202  0.972613  1
  Cd  Cd23  1  0.987940  0.202442  0.624692  1
  Cd  Cd24  1  0.623591  0.319288  0.355619  1
  Cd  Cd25  1  0.772863  0.717286  0.914537  1
  Cd  Cd26  1  0.469265  0.255760  0.042742  1
  Cd  Cd27  1  0.087375  0.762798  0.027387  1
  Cd  Cd28  1  0.455416  0.710196  0.796992  1
  Cd  Cd29  1  0.455416  0.789804  0.296992  1
  Cd  Cd30  1  0.530735  0.755760  0.457258  1
  Cd  Cd31  1  0.087375  0.737202  0.527387  1
  Se  Se32  1  0.574849  0.719528  0.610230  1
  Se  Se33  1  0.425151  0.219528  0.889770  1
  Se  Se34  1  0.682119  0.285517  0.498801  1
  Se  Se35  1  0.881206  0.705158  0.556346  1
  Se  Se36  1  0.425151  0.280472  0.389770  1
  Se  Se37  1  0.118794  0.294842  0.443654  1
  Se  Se38  1  0.574849  0.780472  0.110230  1
  Se  Se39  1  0.339121  0.314574  0.221157  1
  Se  Se40  1  0.682119  0.214483  0.998801  1
  Se  Se41  1  0.881206  0.794842  0.056346  1
  Se  Se42  1  0.339121  0.185426  0.721157  1
  Se  Se43  1  0.858086  0.260200  0.841851  1
  Se  Se44  1  0.858086  0.239800  0.341851  1
  Se  Se45  1  0.317881  0.714483  0.501199  1
  Se  Se46  1  0.660879  0.814574  0.278843  1
  Se  Se47  1  0.660879  0.685426  0.778843  1
  Se  Se48  1  0.141914  0.760200  0.658149  1
  Se  Se49  1  0.317881  0.785517  0.001199  1
  Se  Se50  1  0.118794  0.205158  0.943654  1
  Se  Se51  1  0.141914  0.739800  0.158149  1
  O  O52  1  0.893046  0.020071  0.393120  1
  O  O53  1  0.411889  0.948741  0.714909  1
  O  O54  1  0.492988  0.468946  0.886769  1
  O  O55  1  0.030307  0.292534  0.714311  1
  O  O56  1  0.488715  0.018868  0.855830  1
  O  O57  1  0.588111  0.448741  0.785091  1
  O  O58  1  0.242465  0.610985  0.030313  1
  O  O59  1  0.160982  0.756356  0.372568  1
  O  O60  1  0.030307  0.207466  0.214311  1
  O  O61  1  0.832527  0.606207  0.494557  1
  O  O62  1  0.839018  0.256356  0.127432  1
  O  O63  1  0.417359  0.390777  0.743683  1
  O  O64  1  0.893046  0.479929  0.893120  1
  O  O65  1  0.596376  0.411003  0.001928  1
  O  O66  1  0.034157  0.995794  0.942277  1
  O  O67  1  0.865393  0.487282  0.384030  1
  O  O68  1  0.648637  0.480557  0.443307  1
  O  O69  1  0.683402  0.284123  0.675491  1
  O  O70  1  0.939510  0.542657  0.039680  1
  O  O71  1  0.837300  0.990732  0.226185  1
  O  O72  1  0.582641  0.609223  0.256317  1
  O  O73  1  0.417359  0.109223  0.243683  1
  O  O74  1  0.511285  0.518868  0.644170  1
  O  O75  1  0.953760  0.817039  0.670678  1
  O  O76  1  0.134607  0.987282  0.115970  1
  O  O77  1  0.819357  0.495708  0.229627  1
  O  O78  1  0.160982  0.743644  0.872568  1
  O  O79  1  0.046240  0.317039  0.829322  1
  O  O80  1  0.751704  0.162595  0.336355  1
  O  O81  1  0.832527  0.893793  0.994557  1
  O  O82  1  0.242465  0.889015  0.530313  1
  O  O83  1  0.488715  0.481132  0.355830  1
  O  O84  1  0.557530  0.906948  0.046114  1
  O  O85  1  0.648637  0.019443  0.943307  1
  O  O86  1  0.316598  0.715877  0.324509  1
  O  O87  1  0.167473  0.106207  0.005443  1
  O  O88  1  0.180643  0.504292  0.770373  1
  O  O89  1  0.757535  0.110985  0.469687  1
  O  O90  1  0.939510  0.957343  0.539680  1
  O  O91  1  0.507012  0.968946  0.613231  1
  O  O92  1  0.965843  0.004206  0.057723  1
  O  O93  1  0.403624  0.588997  0.998072  1
  O  O94  1  0.403624  0.911003  0.498072  1
  O  O95  1  0.839018  0.243644  0.627432  1
  O  O96  1  0.106954  0.520071  0.106880  1
  O  O97  1  0.106954  0.979929  0.606880  1
  O  O98  1  0.442470  0.093052  0.953886  1
  O  O99  1  0.969693  0.707466  0.285689  1
  O  O100  1  0.442470  0.406948  0.453886  1
  O  O101  1  0.327331  0.290119  0.654146  1
  O  O102  1  0.819357  0.004292  0.729627  1
  O  O103  1  0.683402  0.215877  0.175491  1
  O  O104  1  0.953760  0.682961  0.170678  1
  O  O105  1  0.757535  0.389015  0.969687  1
  O  O106  1  0.492988  0.031054  0.386769  1
  O  O107  1  0.751704  0.337405  0.836355  1
  O  O108  1  0.965843  0.495794  0.557723  1
  O  O109  1  0.511285  0.981132  0.144170  1
  O  O110  1  0.865393  0.012718  0.884030  1
  O  O111  1  0.582641  0.890777  0.756317  1
  O  O112  1  0.248296  0.837405  0.663645  1
  O  O113  1  0.046240  0.182961  0.329322  1
  O  O114  1  0.060490  0.042657  0.460320  1
  O  O115  1  0.557530  0.593052  0.546114  1
  O  O116  1  0.837300  0.509268  0.726185  1
  O  O117  1  0.351363  0.519443  0.556693  1
  O  O118  1  0.034157  0.504206  0.442277  1
  O  O119  1  0.162700  0.490732  0.273815  1
  O  O120  1  0.134607  0.512718  0.615970  1
  O  O121  1  0.060490  0.457343  0.960320  1
  O  O122  1  0.672669  0.790119  0.845854  1
  O  O123  1  0.167473  0.393793  0.505443  1
  O  O124  1  0.596376  0.088997  0.501928  1
  O  O125  1  0.180643  0.995708  0.270373  1
  O  O126  1  0.672669  0.709881  0.345854  1
  O  O127  1  0.411889  0.551259  0.214909  1
  O  O128  1  0.969693  0.792534  0.785689  1
  O  O129  1  0.316598  0.784123  0.824509  1
  O  O130  1  0.248296  0.662595  0.163645  1
  O  O131  1  0.507012  0.531054  0.113231  1
  O  O132  1  0.588111  0.051259  0.285091  1
  O  O133  1  0.162700  0.009268  0.773815  1
  O  O134  1  0.327331  0.209881  0.154146  1
  O  O135  1  0.351363  0.980557  0.056693  1
