# generated using pymatgen
data_MgCuAs
_symmetry_space_group_name_H-M   'P 1'
_cell_length_a   3.99022833
_cell_length_b   7.41702195
_cell_length_c   13.55369428
_cell_angle_alpha   90.00000000
_cell_angle_beta   90.00000000
_cell_angle_gamma   90.00000000
_symmetry_Int_Tables_number   1
_chemical_formula_structural   MgCuAs
_chemical_formula_sum   'Mg8 Cu8 As8'
_cell_volume   401.12986500
_cell_formula_units_Z   8
loop_
 _symmetry_equiv_pos_site_id
 _symmetry_equiv_pos_as_xyz
  1  'x, y, z'
loop_
 _atom_site_type_symbol
 _atom_site_label
 _atom_site_symmetry_multiplicity
 _atom_site_fract_x
 _atom_site_fract_y
 _atom_site_fract_z
 _atom_site_occupancy
  Mg  Mg0  1  0.250000  0.826568  0.142228  1
  Mg  Mg1  1  0.250000  0.942713  0.392503  1
  Mg  Mg2  1  0.750000  0.442713  0.107497  1
  Mg  Mg3  1  0.750000  0.326568  0.357772  1
  Mg  Mg4  1  0.750000  0.057287  0.607497  1
  Mg  Mg5  1  0.750000  0.173432  0.857772  1
  Mg  Mg6  1  0.250000  0.557287  0.892503  1
  Mg  Mg7  1  0.250000  0.673432  0.642228  1
  Cu  Cu8  1  0.250000  0.569624  0.435313  1
  Cu  Cu9  1  0.250000  0.199509  0.186382  1
  Cu  Cu10  1  0.750000  0.069624  0.064687  1
  Cu  Cu11  1  0.250000  0.930376  0.935313  1
  Cu  Cu12  1  0.250000  0.300491  0.686382  1
  Cu  Cu13  1  0.750000  0.430376  0.564687  1
  Cu  Cu14  1  0.750000  0.800491  0.813618  1
  Cu  Cu15  1  0.750000  0.699509  0.313618  1
  As  As16  1  0.250000  0.247356  0.499896  1
  As  As17  1  0.750000  0.752644  0.500104  1
  As  As18  1  0.750000  0.747356  0.000104  1
  As  As19  1  0.250000  0.520359  0.247645  1
  As  As20  1  0.750000  0.020359  0.252355  1
  As  As21  1  0.250000  0.979641  0.747645  1
  As  As22  1  0.250000  0.252644  0.999896  1
  As  As23  1  0.750000  0.479641  0.752355  1
