# generated using pymatgen
data_Lu2Si5Ir3
_symmetry_space_group_name_H-M   'P 1'
_cell_length_a   8.10316050
_cell_length_b   8.10316050
_cell_length_c   8.10316050
_cell_angle_alpha   138.29433057
_cell_angle_beta   103.54383873
_cell_angle_gamma   91.10234489
_symmetry_Int_Tables_number   1
_chemical_formula_structural   Lu2Si5Ir3
_chemical_formula_sum   'Lu4 Si10 Ir6'
_cell_volume   328.28252901
_cell_formula_units_Z   2
loop_
 _symmetry_equiv_pos_site_id
 _symmetry_equiv_pos_as_xyz
  1  'x, y, z'
loop_
 _atom_site_type_symbol
 _atom_site_label
 _atom_site_symmetry_multiplicity
 _atom_site_fract_x
 _atom_site_fract_y
 _atom_site_fract_z
 _atom_site_occupancy
  Lu  Lu0  1  0.359211  0.131335  0.227876  1
  Lu  Lu1  1  0.640789  0.868665  0.772124  1
  Lu  Lu2  1  0.096541  0.368665  0.727876  1
  Lu  Lu3  1  0.903459  0.631335  0.272124  1
  Si  Si4  1  0.725485  0.975485  0.250000  1
  Si  Si5  1  0.549813  0.393899  0.155914  1
  Si  Si6  1  0.725485  0.475485  0.750000  1
  Si  Si7  1  0.000000  0.250000  0.250000  1
  Si  Si8  1  0.274515  0.524515  0.250000  1
  Si  Si9  1  0.762016  0.106101  0.655914  1
  Si  Si10  1  0.450187  0.606101  0.844086  1
  Si  Si11  1  0.237984  0.893899  0.344086  1
  Si  Si12  1  0.274515  0.024515  0.750000  1
  Si  Si13  1  0.000000  0.750000  0.750000  1
  Ir  Ir14  1  0.256197  0.640079  0.616118  1
  Ir  Ir15  1  0.976039  0.859921  0.116118  1
  Ir  Ir16  1  0.023961  0.140079  0.883882  1
  Ir  Ir17  1  0.743803  0.359921  0.383882  1
  Ir  Ir18  1  0.500000  0.250000  0.750000  1
  Ir  Ir19  1  0.500000  0.750000  0.250000  1
