# generated using pymatgen
data_Ca10Mg2Sb9
_symmetry_space_group_name_H-M   'P 1'
_cell_length_a   11.93938613
_cell_length_b   11.93938613
_cell_length_c   17.37753079
_cell_angle_alpha   90.00000000
_cell_angle_beta   90.00000000
_cell_angle_gamma   90.00000000
_symmetry_Int_Tables_number   1
_chemical_formula_structural   Ca10Mg2Sb9
_chemical_formula_sum   'Ca40 Mg8 Sb36'
_cell_volume   2477.14861411
_cell_formula_units_Z   4
loop_
 _symmetry_equiv_pos_site_id
 _symmetry_equiv_pos_as_xyz
  1  'x, y, z'
loop_
 _atom_site_type_symbol
 _atom_site_label
 _atom_site_symmetry_multiplicity
 _atom_site_fract_x
 _atom_site_fract_y
 _atom_site_fract_z
 _atom_site_occupancy
  Ca  Ca0  1  0.985491  0.661272  0.397088  1
  Ca  Ca1  1  0.985491  0.661272  0.602912  1
  Ca  Ca2  1  0.248769  0.511050  0.691874  1
  Ca  Ca3  1  0.011050  0.251231  0.191874  1
  Ca  Ca4  1  0.014509  0.338728  0.602912  1
  Ca  Ca5  1  0.500000  0.500000  0.861128  1
  Ca  Ca6  1  0.485491  0.838728  0.102912  1
  Ca  Ca7  1  0.748769  0.988950  0.808126  1
  Ca  Ca8  1  0.511050  0.248769  0.691874  1
  Ca  Ca9  1  0.014509  0.338728  0.397088  1
  Ca  Ca10  1  0.500000  0.500000  0.138872  1
  Ca  Ca11  1  0.488950  0.751231  0.308126  1
  Ca  Ca12  1  0.661272  0.985491  0.602912  1
  Ca  Ca13  1  0.661272  0.985491  0.397088  1
  Ca  Ca14  1  0.751231  0.488950  0.691874  1
  Ca  Ca15  1  0.988950  0.748769  0.191874  1
  Ca  Ca16  1  0.182082  0.817918  0.000000  1
  Ca  Ca17  1  0.000000  0.000000  0.638872  1
  Ca  Ca18  1  0.514509  0.161272  0.897088  1
  Ca  Ca19  1  0.251231  0.011050  0.808126  1
  Ca  Ca20  1  0.317918  0.317918  0.500000  1
  Ca  Ca21  1  0.000000  0.000000  0.361128  1
  Ca  Ca22  1  0.011050  0.251231  0.808126  1
  Ca  Ca23  1  0.485491  0.838728  0.897088  1
  Ca  Ca24  1  0.751231  0.488950  0.308126  1
  Ca  Ca25  1  0.838728  0.485491  0.102912  1
  Ca  Ca26  1  0.338728  0.014509  0.602912  1
  Ca  Ca27  1  0.488950  0.751231  0.691874  1
  Ca  Ca28  1  0.748769  0.988950  0.191874  1
  Ca  Ca29  1  0.338728  0.014509  0.397088  1
  Ca  Ca30  1  0.988950  0.748769  0.808126  1
  Ca  Ca31  1  0.511050  0.248769  0.308126  1
  Ca  Ca32  1  0.838728  0.485491  0.897088  1
  Ca  Ca33  1  0.161272  0.514509  0.897088  1
  Ca  Ca34  1  0.682082  0.682082  0.500000  1
  Ca  Ca35  1  0.248769  0.511050  0.308126  1
  Ca  Ca36  1  0.161272  0.514509  0.102912  1
  Ca  Ca37  1  0.514509  0.161272  0.102912  1
  Ca  Ca38  1  0.817918  0.182082  0.000000  1
  Ca  Ca39  1  0.251231  0.011050  0.191874  1
  Mg  Mg40  1  0.788722  0.211278  0.500000  1
  Mg  Mg41  1  0.288722  0.288722  0.000000  1
  Mg  Mg42  1  0.711278  0.711278  0.000000  1
  Mg  Mg43  1  0.211278  0.788722  0.500000  1
  Mg  Mg44  1  0.100905  0.100905  0.000000  1
  Mg  Mg45  1  0.399095  0.600905  0.500000  1
  Mg  Mg46  1  0.600905  0.399095  0.500000  1
  Mg  Mg47  1  0.899095  0.899095  0.000000  1
  Sb  Sb48  1  0.811990  0.188010  0.330478  1
  Sb  Sb49  1  0.500000  0.500000  0.633908  1
  Sb  Sb50  1  0.280670  0.719330  0.177888  1
  Sb  Sb51  1  0.719330  0.280670  0.177888  1
  Sb  Sb52  1  0.631944  0.368056  0.000000  1
  Sb  Sb53  1  0.000000  0.500000  0.250000  1
  Sb  Sb54  1  0.811990  0.188010  0.669522  1
  Sb  Sb55  1  0.311990  0.311990  0.169522  1
  Sb  Sb56  1  0.666981  0.967309  0.000000  1
  Sb  Sb57  1  0.188010  0.811990  0.330478  1
  Sb  Sb58  1  0.500000  0.000000  0.250000  1
  Sb  Sb59  1  0.780670  0.780670  0.677888  1
  Sb  Sb60  1  0.500000  0.000000  0.750000  1
  Sb  Sb61  1  0.500000  0.500000  0.366092  1
  Sb  Sb62  1  0.000000  0.000000  0.866092  1
  Sb  Sb63  1  0.719330  0.280670  0.822112  1
  Sb  Sb64  1  0.219330  0.219330  0.677888  1
  Sb  Sb65  1  0.188010  0.811990  0.669522  1
  Sb  Sb66  1  0.967309  0.666981  0.000000  1
  Sb  Sb67  1  0.780670  0.780670  0.322112  1
  Sb  Sb68  1  0.467309  0.833019  0.500000  1
  Sb  Sb69  1  0.166981  0.532691  0.500000  1
  Sb  Sb70  1  0.688010  0.688010  0.169522  1
  Sb  Sb71  1  0.868056  0.868056  0.500000  1
  Sb  Sb72  1  0.333019  0.032691  0.000000  1
  Sb  Sb73  1  0.833019  0.467309  0.500000  1
  Sb  Sb74  1  0.368056  0.631944  0.000000  1
  Sb  Sb75  1  0.532691  0.166981  0.500000  1
  Sb  Sb76  1  0.032691  0.333019  0.000000  1
  Sb  Sb77  1  0.219330  0.219330  0.322112  1
  Sb  Sb78  1  0.688010  0.688010  0.830478  1
  Sb  Sb79  1  0.131944  0.131944  0.500000  1
  Sb  Sb80  1  0.000000  0.500000  0.750000  1
  Sb  Sb81  1  0.280670  0.719330  0.822112  1
  Sb  Sb82  1  0.311990  0.311990  0.830478  1
  Sb  Sb83  1  0.000000  0.000000  0.133908  1
