# generated using pymatgen
data_V6Cu11O26
_symmetry_space_group_name_H-M   'P 1'
_cell_length_a   8.18277312
_cell_length_b   8.30970695
_cell_length_c   8.32528171
_cell_angle_alpha   106.21731996
_cell_angle_beta   91.59113325
_cell_angle_gamma   107.10399074
_symmetry_Int_Tables_number   1
_chemical_formula_structural   V6Cu11O26
_chemical_formula_sum   'V6 Cu11 O26'
_cell_volume   515.78513488
_cell_formula_units_Z   1
loop_
 _symmetry_equiv_pos_site_id
 _symmetry_equiv_pos_as_xyz
  1  'x, y, z'
loop_
 _atom_site_type_symbol
 _atom_site_label
 _atom_site_symmetry_multiplicity
 _atom_site_fract_x
 _atom_site_fract_y
 _atom_site_fract_z
 _atom_site_occupancy
  V  V0  1  0.264963  0.936966  0.585627  1
  V  V1  1  0.735037  0.063034  0.414373  1
  V  V2  1  0.080859  0.439064  0.189754  1
  V  V3  1  0.919141  0.560936  0.810246  1
  V  V4  1  0.566431  0.756014  0.907058  1
  V  V5  1  0.433569  0.243986  0.092942  1
  Cu  Cu6  1  0.131791  0.256130  0.788893  1
  Cu  Cu7  1  0.855152  0.853336  0.630114  1
  Cu  Cu8  1  0.144848  0.146664  0.369886  1
  Cu  Cu9  1  0.868209  0.743870  0.211107  1
  Cu  Cu10  1  0.277222  0.511322  0.577882  1
  Cu  Cu11  1  0.722778  0.488678  0.422118  1
  Cu  Cu12  1  0.498720  0.337948  0.707925  1
  Cu  Cu13  1  0.501280  0.662052  0.292075  1
  Cu  Cu14  1  0.718194  0.143417  0.836460  1
  Cu  Cu15  1  0.281806  0.856583  0.163540  1
  Cu  Cu16  1  0.000000  0.000000  0.000000  1
  O  O17  1  0.391975  0.821808  0.963365  1
  O  O18  1  0.608025  0.178192  0.036635  1
  O  O19  1  0.717100  0.264423  0.427759  1
  O  O20  1  0.282900  0.735577  0.572241  1
  O  O21  1  0.533450  0.907481  0.333962  1
  O  O22  1  0.466550  0.092519  0.666038  1
  O  O23  1  0.734311  0.719444  0.403479  1
  O  O24  1  0.265689  0.280556  0.596521  1
  O  O25  1  0.241199  0.072465  0.123234  1
  O  O26  1  0.758801  0.927535  0.876766  1
  O  O27  1  0.113016  0.994734  0.721918  1
  O  O28  1  0.886984  0.005266  0.278082  1
  O  O29  1  0.184122  0.929078  0.376223  1
  O  O30  1  0.815878  0.070922  0.623777  1
  O  O31  1  0.372078  0.322840  0.945079  1
  O  O32  1  0.627922  0.677160  0.054921  1
  O  O33  1  0.026584  0.247691  0.003934  1
  O  O34  1  0.497742  0.426301  0.286311  1
  O  O35  1  0.502258  0.573699  0.713689  1
  O  O36  1  0.913403  0.524786  0.212397  1
  O  O37  1  0.086597  0.475214  0.787603  1
  O  O38  1  0.973416  0.752309  0.996066  1
  O  O39  1  0.116036  0.370011  0.367497  1
  O  O40  1  0.266111  0.612583  0.186064  1
  O  O41  1  0.733889  0.387417  0.813936  1
  O  O42  1  0.883964  0.629989  0.632503  1
