# generated using pymatgen
data_Tl2O
_symmetry_space_group_name_H-M   'P 1'
_cell_length_a   3.62562855
_cell_length_b   3.62562855
_cell_length_c   13.17192465
_cell_angle_alpha   82.20985188
_cell_angle_beta   97.79014812
_cell_angle_gamma   119.82403609
_symmetry_Int_Tables_number   1
_chemical_formula_structural   Tl2O
_chemical_formula_sum   'Tl4 O2'
_cell_volume   148.36057226
_cell_formula_units_Z   2
loop_
 _symmetry_equiv_pos_site_id
 _symmetry_equiv_pos_as_xyz
  1  'x, y, z'
loop_
 _atom_site_type_symbol
 _atom_site_label
 _atom_site_symmetry_multiplicity
 _atom_site_fract_x
 _atom_site_fract_y
 _atom_site_fract_z
 _atom_site_occupancy
  Tl  Tl0  1  0.126219  0.873781  0.864670  1
  Tl  Tl1  1  0.284176  0.715824  0.367198  1
  Tl  Tl2  1  0.873781  0.126219  0.135330  1
  Tl  Tl3  1  0.715824  0.284176  0.632802  1
  O  O4  1  0.576474  0.423526  0.251007  1
  O  O5  1  0.423526  0.576474  0.748993  1
