# generated using pymatgen
data_In(PO3)3
_symmetry_space_group_name_H-M   'P 1'
_cell_length_a   7.66473940
_cell_length_b   7.66473940
_cell_length_c   9.83847716
_cell_angle_alpha   57.04573485
_cell_angle_beta   122.95426515
_cell_angle_gamma   128.27269856
_symmetry_Int_Tables_number   1
_chemical_formula_structural   In(PO3)3
_chemical_formula_sum   'In2 P6 O18'
_cell_volume   361.46491987
_cell_formula_units_Z   2
loop_
 _symmetry_equiv_pos_site_id
 _symmetry_equiv_pos_as_xyz
  1  'x, y, z'
loop_
 _atom_site_type_symbol
 _atom_site_label
 _atom_site_symmetry_multiplicity
 _atom_site_fract_x
 _atom_site_fract_y
 _atom_site_fract_z
 _atom_site_occupancy
  In  In0  1  0.489098  0.984621  0.499278  1
  In  In1  1  0.015379  0.510902  0.999278  1
  P  P2  1  0.812456  0.020634  0.327936  1
  P  P3  1  0.006123  0.794415  0.168128  1
  P  P4  1  0.580608  0.563333  0.269854  1
  P  P5  1  0.979366  0.187544  0.827936  1
  P  P6  1  0.205585  0.993877  0.668128  1
  P  P7  1  0.436667  0.419392  0.769854  1
  O  O8  1  0.766821  0.605007  0.212442  1
  O  O9  1  0.520605  0.330180  0.404421  1
  O  O10  1  0.725828  0.749966  0.369122  1
  O  O11  1  0.250034  0.274172  0.869122  1
  O  O12  1  0.840057  0.126773  0.665391  1
  O  O13  1  0.390821  0.611289  0.612056  1
  O  O14  1  0.329998  0.906212  0.662868  1
  O  O15  1  0.062912  0.829102  0.787930  1
  O  O16  1  0.873227  0.159943  0.165391  1
  O  O17  1  0.956178  0.360209  0.838152  1
  O  O18  1  0.639791  0.043822  0.338152  1
  O  O19  1  0.912748  0.949914  0.981122  1
  O  O20  1  0.669820  0.479395  0.904421  1
  O  O21  1  0.170898  0.937088  0.287930  1
  O  O22  1  0.093788  0.670002  0.162868  1
  O  O23  1  0.388711  0.609179  0.112056  1
  O  O24  1  0.394993  0.233179  0.712442  1
  O  O25  1  0.050086  0.087252  0.481122  1
