# generated using pymatgen
data_Gd3NbS3O4
_symmetry_space_group_name_H-M   'P 1'
_cell_length_a   6.67624609
_cell_length_b   7.63882157
_cell_length_c   14.34444892
_cell_angle_alpha   90.00000000
_cell_angle_beta   90.00000000
_cell_angle_gamma   90.00000000
_symmetry_Int_Tables_number   1
_chemical_formula_structural   Gd3NbS3O4
_chemical_formula_sum   'Gd12 Nb4 S12 O16'
_cell_volume   731.54756777
_cell_formula_units_Z   4
loop_
 _symmetry_equiv_pos_site_id
 _symmetry_equiv_pos_as_xyz
  1  'x, y, z'
loop_
 _atom_site_type_symbol
 _atom_site_label
 _atom_site_symmetry_multiplicity
 _atom_site_fract_x
 _atom_site_fract_y
 _atom_site_fract_z
 _atom_site_occupancy
  Gd  Gd0  1  0.775759  0.749823  0.581384  1
  Gd  Gd1  1  0.224241  0.249823  0.418616  1
  Gd  Gd2  1  0.724241  0.249823  0.081384  1
  Gd  Gd3  1  0.275759  0.749823  0.918616  1
  Gd  Gd4  1  0.216586  0.005502  0.656608  1
  Gd  Gd5  1  0.783414  0.505502  0.343392  1
  Gd  Gd6  1  0.283414  0.505502  0.156608  1
  Gd  Gd7  1  0.716586  0.005502  0.843392  1
  Gd  Gd8  1  0.225901  0.495116  0.665125  1
  Gd  Gd9  1  0.774099  0.995116  0.334875  1
  Gd  Gd10  1  0.274099  0.995116  0.165125  1
  Gd  Gd11  1  0.725901  0.495116  0.834875  1
  Nb  Nb12  1  0.815784  0.261670  0.572305  1
  Nb  Nb13  1  0.184216  0.761670  0.427695  1
  Nb  Nb14  1  0.684216  0.761670  0.072305  1
  Nb  Nb15  1  0.315784  0.261670  0.927695  1
  S  S16  1  0.502211  0.756822  0.726496  1
  S  S17  1  0.497789  0.256822  0.273504  1
  S  S18  1  0.997789  0.256822  0.226496  1
  S  S19  1  0.002211  0.756822  0.773504  1
  S  S20  1  0.545679  0.242663  0.702354  1
  S  S21  1  0.454321  0.742663  0.297646  1
  S  S22  1  0.954321  0.742663  0.202354  1
  S  S23  1  0.045679  0.242663  0.797646  1
  S  S24  1  0.475188  0.975495  0.494018  1
  S  S25  1  0.524812  0.475495  0.505982  1
  S  S26  1  0.024812  0.475495  0.994018  1
  S  S27  1  0.975188  0.975495  0.005982  1
  O  O28  1  0.856189  0.243785  0.436741  1
  O  O29  1  0.143811  0.743785  0.563259  1
  O  O30  1  0.643811  0.743785  0.936741  1
  O  O31  1  0.356189  0.243785  0.063259  1
  O  O32  1  0.875485  0.027121  0.615183  1
  O  O33  1  0.124515  0.527121  0.384817  1
  O  O34  1  0.624515  0.527121  0.115183  1
  O  O35  1  0.375485  0.027121  0.884817  1
  O  O36  1  0.881995  0.479458  0.632904  1
  O  O37  1  0.118005  0.979458  0.367096  1
  O  O38  1  0.618005  0.979458  0.132904  1
  O  O39  1  0.381995  0.479458  0.867096  1
  O  O40  1  0.134883  0.258926  0.572611  1
  O  O41  1  0.865117  0.758926  0.427389  1
  O  O42  1  0.365117  0.758926  0.072611  1
  O  O43  1  0.634883  0.258926  0.927389  1
