# generated using pymatgen
data_EuSi2(NO)2
_symmetry_space_group_name_H-M   'P 1'
_cell_length_a   7.13046008
_cell_length_b   7.31469084
_cell_length_c   7.33140005
_cell_angle_alpha   88.77422863
_cell_angle_beta   95.24886502
_cell_angle_gamma   103.96923509
_symmetry_Int_Tables_number   1
_chemical_formula_structural   EuSi2(NO)2
_chemical_formula_sum   'Eu4 Si8 N8 O8'
_cell_volume   369.51969452
_cell_formula_units_Z   4
loop_
 _symmetry_equiv_pos_site_id
 _symmetry_equiv_pos_as_xyz
  1  'x, y, z'
loop_
 _atom_site_type_symbol
 _atom_site_label
 _atom_site_symmetry_multiplicity
 _atom_site_fract_x
 _atom_site_fract_y
 _atom_site_fract_z
 _atom_site_occupancy
  Eu  Eu0  1  0.150646  0.890845  0.442347  1
  Eu  Eu1  1  0.160852  0.879838  0.934139  1
  Eu  Eu2  1  0.638846  0.770916  0.683238  1
  Eu  Eu3  1  0.626335  0.781716  0.189843  1
  Si  Si4  1  0.060720  0.229678  0.166652  1
  Si  Si5  1  0.856862  0.432799  0.417522  1
  Si  Si6  1  0.773645  0.429195  0.005823  1
  Si  Si7  1  0.976476  0.232700  0.752133  1
  Si  Si8  1  0.365192  0.434699  0.917077  1
  Si  Si9  1  0.470964  0.224275  0.258562  1
  Si  Si10  1  0.558175  0.223592  0.667750  1
  Si  Si11  1  0.276060  0.438769  0.504724  1
  N  N12  1  0.425132  0.391695  0.697458  1
  N  N13  1  0.043010  0.396288  0.576614  1
  N  N14  1  0.540393  0.382954  0.080598  1
  N  N15  1  0.144598  0.279759  0.947535  1
  N  N16  1  0.261327  0.273393  0.331470  1
  N  N17  1  0.763703  0.271275  0.825578  1
  N  N18  1  0.917921  0.384358  0.199146  1
  N  N19  1  0.641632  0.265878  0.448905  1
  O  O20  1  0.409960  0.004478  0.193975  1
  O  O21  1  0.377247  0.659455  0.928757  1
  O  O22  1  0.828645  0.649566  0.943043  1
  O  O23  1  0.361807  0.653801  0.437126  1
  O  O24  1  0.426386  0.009794  0.684839  1
  O  O25  1  0.958633  0.005091  0.174355  1
  O  O26  1  0.829570  0.647831  0.431373  1
  O  O27  1  0.957396  0.015906  0.686210  1
