# generated using pymatgen
data_TeAs(BrF2)3
_symmetry_space_group_name_H-M   'P 1'
_cell_length_a   8.17681789
_cell_length_b   10.40747203
_cell_length_c   12.64716654
_cell_angle_alpha   90.00000000
_cell_angle_beta   99.90462326
_cell_angle_gamma   90.00000000
_symmetry_Int_Tables_number   1
_chemical_formula_structural   TeAs(BrF2)3
_chemical_formula_sum   'Te4 As4 Br12 F24'
_cell_volume   1060.23253816
_cell_formula_units_Z   4
loop_
 _symmetry_equiv_pos_site_id
 _symmetry_equiv_pos_as_xyz
  1  'x, y, z'
loop_
 _atom_site_type_symbol
 _atom_site_label
 _atom_site_symmetry_multiplicity
 _atom_site_fract_x
 _atom_site_fract_y
 _atom_site_fract_z
 _atom_site_occupancy
  Te  Te0  1  0.814371  0.667395  0.309566  1
  Te  Te1  1  0.185629  0.167395  0.190434  1
  Te  Te2  1  0.814371  0.832605  0.809566  1
  Te  Te3  1  0.185629  0.332605  0.690434  1
  As  As4  1  0.164066  0.768225  0.078444  1
  As  As5  1  0.835934  0.231775  0.921556  1
  As  As6  1  0.164066  0.731775  0.578444  1
  As  As7  1  0.835934  0.268225  0.421556  1
  Br  Br8  1  0.236153  0.107587  0.750874  1
  Br  Br9  1  0.695039  0.552811  0.142720  1
  Br  Br10  1  0.695039  0.947189  0.642720  1
  Br  Br11  1  0.572720  0.849570  0.903535  1
  Br  Br12  1  0.572720  0.650430  0.403535  1
  Br  Br13  1  0.304961  0.447189  0.857280  1
  Br  Br14  1  0.427280  0.150430  0.096465  1
  Br  Br15  1  0.427280  0.349570  0.596465  1
  Br  Br16  1  0.304961  0.052811  0.357280  1
  Br  Br17  1  0.763847  0.607587  0.749126  1
  Br  Br18  1  0.236153  0.392413  0.250874  1
  Br  Br19  1  0.763847  0.892413  0.249126  1
  F  F20  1  0.787193  0.169843  0.042986  1
  F  F21  1  0.769881  0.113757  0.451373  1
  F  F22  1  0.091358  0.574874  0.608816  1
  F  F23  1  0.041907  0.234119  0.492337  1
  F  F24  1  0.908642  0.425126  0.391184  1
  F  F25  1  0.958093  0.765881  0.507663  1
  F  F26  1  0.637553  0.193149  0.851287  1
  F  F27  1  0.787193  0.330157  0.542986  1
  F  F28  1  0.230119  0.886243  0.548627  1
  F  F29  1  0.362447  0.693149  0.648713  1
  F  F30  1  0.212807  0.669843  0.457014  1
  F  F31  1  0.897705  0.208617  0.301842  1
  F  F32  1  0.958093  0.734119  0.007663  1
  F  F33  1  0.102295  0.791383  0.698158  1
  F  F34  1  0.897705  0.291383  0.801842  1
  F  F35  1  0.637553  0.306851  0.351287  1
  F  F36  1  0.091358  0.925126  0.108816  1
  F  F37  1  0.102295  0.708617  0.198158  1
  F  F38  1  0.212807  0.830157  0.957014  1
  F  F39  1  0.769881  0.386243  0.951373  1
  F  F40  1  0.230119  0.613757  0.048627  1
  F  F41  1  0.908642  0.074874  0.891184  1
  F  F42  1  0.041907  0.265881  0.992337  1
  F  F43  1  0.362447  0.806851  0.148713  1
