# generated using pymatgen
data_SbS7IF6
_symmetry_space_group_name_H-M   'P 1'
_cell_length_a   9.42226040
_cell_length_b   12.22649018
_cell_length_c   12.77359792
_cell_angle_alpha   90.00000000
_cell_angle_beta   90.00000000
_cell_angle_gamma   90.00000000
_symmetry_Int_Tables_number   1
_chemical_formula_structural   SbS7IF6
_chemical_formula_sum   'Sb4 S28 I4 F24'
_cell_volume   1471.53347983
_cell_formula_units_Z   4
loop_
 _symmetry_equiv_pos_site_id
 _symmetry_equiv_pos_as_xyz
  1  'x, y, z'
loop_
 _atom_site_type_symbol
 _atom_site_label
 _atom_site_symmetry_multiplicity
 _atom_site_fract_x
 _atom_site_fract_y
 _atom_site_fract_z
 _atom_site_occupancy
  Sb  Sb0  1  0.821075  0.345929  0.114084  1
  Sb  Sb1  1  0.321075  0.154071  0.885916  1
  Sb  Sb2  1  0.178925  0.845929  0.385916  1
  Sb  Sb3  1  0.678925  0.654071  0.614084  1
  S  S4  1  0.282622  0.493827  0.459304  1
  S  S5  1  0.692480  0.861609  0.934784  1
  S  S6  1  0.217378  0.506173  0.959304  1
  S  S7  1  0.456359  0.441027  0.320881  1
  S  S8  1  0.043641  0.558973  0.820881  1
  S  S9  1  0.846090  0.120775  0.788992  1
  S  S10  1  0.743293  0.275995  0.503722  1
  S  S11  1  0.346090  0.379225  0.211008  1
  S  S12  1  0.756707  0.724005  0.003722  1
  S  S13  1  0.807520  0.138391  0.434784  1
  S  S14  1  0.956359  0.058973  0.679119  1
  S  S15  1  0.406544  0.182400  0.383056  1
  S  S16  1  0.543641  0.941027  0.179119  1
  S  S17  1  0.153910  0.620775  0.711008  1
  S  S18  1  0.906544  0.317600  0.616944  1
  S  S19  1  0.782622  0.006173  0.540696  1
  S  S20  1  0.653910  0.879225  0.288992  1
  S  S21  1  0.717378  0.993827  0.040696  1
  S  S22  1  0.183671  0.798391  0.746206  1
  S  S23  1  0.593456  0.682400  0.116944  1
  S  S24  1  0.093456  0.817600  0.883056  1
  S  S25  1  0.307520  0.361609  0.565216  1
  S  S26  1  0.256707  0.775995  0.996278  1
  S  S27  1  0.192480  0.638391  0.065216  1
  S  S28  1  0.316329  0.201609  0.246206  1
  S  S29  1  0.243293  0.224005  0.496278  1
  S  S30  1  0.683671  0.701609  0.253794  1
  S  S31  1  0.816329  0.298391  0.753794  1
  I  I32  1  0.071179  0.467670  0.364164  1
  I  I33  1  0.928821  0.967670  0.135836  1
  I  I34  1  0.571179  0.032330  0.635836  1
  I  I35  1  0.428821  0.532330  0.864164  1
  F  F36  1  0.077946  0.958613  0.461370  1
  F  F37  1  0.922054  0.458613  0.038630  1
  F  F38  1  0.324267  0.247547  0.006586  1
  F  F39  1  0.822049  0.440001  0.237399  1
  F  F40  1  0.577946  0.541387  0.538630  1
  F  F41  1  0.645633  0.409727  0.070111  1
  F  F42  1  0.001790  0.786703  0.338432  1
  F  F43  1  0.279734  0.736424  0.307576  1
  F  F44  1  0.498210  0.213297  0.838432  1
  F  F45  1  0.501790  0.713297  0.661568  1
  F  F46  1  0.677951  0.559999  0.737399  1
  F  F47  1  0.824267  0.252453  0.993414  1
  F  F48  1  0.854367  0.590273  0.570111  1
  F  F49  1  0.322049  0.059999  0.762601  1
  F  F50  1  0.422054  0.041387  0.961370  1
  F  F51  1  0.145633  0.090273  0.929889  1
  F  F52  1  0.175733  0.752453  0.506586  1
  F  F53  1  0.779734  0.763576  0.692424  1
  F  F54  1  0.177951  0.940001  0.262601  1
  F  F55  1  0.720266  0.236424  0.192424  1
  F  F56  1  0.220266  0.263576  0.807576  1
  F  F57  1  0.354367  0.909727  0.429889  1
  F  F58  1  0.998210  0.286703  0.161568  1
  F  F59  1  0.675733  0.747547  0.493414  1
