# generated using pymatgen
data_K2NbS7
_symmetry_space_group_name_H-M   'P 1'
_cell_length_a   12.79974403
_cell_length_b   8.02238740
_cell_length_c   22.16107883
_cell_angle_alpha   90.00000000
_cell_angle_beta   99.52244197
_cell_angle_gamma   90.00000000
_symmetry_Int_Tables_number   1
_chemical_formula_structural   K2NbS7
_chemical_formula_sum   'K16 Nb8 S56'
_cell_volume   2244.24365495
_cell_formula_units_Z   8
loop_
 _symmetry_equiv_pos_site_id
 _symmetry_equiv_pos_as_xyz
  1  'x, y, z'
loop_
 _atom_site_type_symbol
 _atom_site_label
 _atom_site_symmetry_multiplicity
 _atom_site_fract_x
 _atom_site_fract_y
 _atom_site_fract_z
 _atom_site_occupancy
  K  K0  1  0.160137  0.557382  0.444591  1
  K  K1  1  0.339863  0.057382  0.555409  1
  K  K2  1  0.487929  0.926628  0.837058  1
  K  K3  1  0.512071  0.073372  0.162942  1
  K  K4  1  0.568797  0.523906  0.694235  1
  K  K5  1  0.640138  0.357959  0.025618  1
  K  K6  1  0.859862  0.857959  0.974382  1
  K  K7  1  0.839863  0.442618  0.555409  1
  K  K8  1  0.987929  0.573372  0.837058  1
  K  K9  1  0.660137  0.942618  0.444591  1
  K  K10  1  0.359862  0.642041  0.974382  1
  K  K11  1  0.931203  0.023906  0.305765  1
  K  K12  1  0.140138  0.142041  0.025618  1
  K  K13  1  0.012071  0.426628  0.162942  1
  K  K14  1  0.431203  0.476094  0.305765  1
  K  K15  1  0.068797  0.976094  0.694235  1
  Nb  Nb16  1  0.314614  0.458371  0.787381  1
  Nb  Nb17  1  0.685386  0.541629  0.212619  1
  Nb  Nb18  1  0.334389  0.978915  0.368398  1
  Nb  Nb19  1  0.665611  0.021085  0.631602  1
  Nb  Nb20  1  0.814614  0.041629  0.787381  1
  Nb  Nb21  1  0.165611  0.478915  0.631602  1
  Nb  Nb22  1  0.834389  0.521085  0.368398  1
  Nb  Nb23  1  0.185386  0.958371  0.212619  1
  S  S24  1  0.311756  0.613444  0.588626  1
  S  S25  1  0.771552  0.274769  0.191694  1
  S  S26  1  0.228448  0.725231  0.808306  1
  S  S27  1  0.745250  0.864974  0.094962  1
  S  S28  1  0.101495  0.286502  0.561978  1
  S  S29  1  0.399213  0.120048  0.962731  1
  S  S30  1  0.688244  0.386556  0.411374  1
  S  S31  1  0.396248  0.265960  0.038888  1
  S  S32  1  0.403710  0.886748  0.277199  1
  S  S33  1  0.245250  0.635026  0.094962  1
  S  S34  1  0.188244  0.113444  0.411374  1
  S  S35  1  0.671010  0.683070  0.314045  1
  S  S36  1  0.668605  0.757149  0.572136  1
  S  S37  1  0.898505  0.713498  0.438022  1
  S  S38  1  0.601495  0.213498  0.561978  1
  S  S39  1  0.217486  0.210941  0.275419  1
  S  S40  1  0.782514  0.789059  0.724581  1
  S  S41  1  0.103752  0.765960  0.961112  1
  S  S42  1  0.600787  0.879952  0.037269  1
  S  S43  1  0.709695  0.836967  0.245282  1
  S  S44  1  0.831395  0.257149  0.427864  1
  S  S45  1  0.328990  0.316930  0.685955  1
  S  S46  1  0.983693  0.022044  0.829988  1
  S  S47  1  0.100787  0.620048  0.037269  1
  S  S48  1  0.896248  0.234040  0.038888  1
  S  S49  1  0.717486  0.289059  0.275419  1
  S  S50  1  0.899213  0.379952  0.962731  1
  S  S51  1  0.903710  0.613252  0.277199  1
  S  S52  1  0.290305  0.163033  0.754718  1
  S  S53  1  0.828990  0.183070  0.685955  1
  S  S54  1  0.016307  0.977956  0.170012  1
  S  S55  1  0.254750  0.135026  0.905038  1
  S  S56  1  0.226800  0.381790  0.876517  1
  S  S57  1  0.096290  0.386748  0.722801  1
  S  S58  1  0.516307  0.522044  0.170012  1
  S  S59  1  0.489191  0.078852  0.326008  1
  S  S60  1  0.168605  0.742851  0.572136  1
  S  S61  1  0.483693  0.477956  0.829988  1
  S  S62  1  0.171010  0.816930  0.314045  1
  S  S63  1  0.510809  0.921148  0.673992  1
  S  S64  1  0.790305  0.336967  0.754718  1
  S  S65  1  0.209695  0.663033  0.245282  1
  S  S66  1  0.726800  0.118210  0.876517  1
  S  S67  1  0.811756  0.886556  0.588626  1
  S  S68  1  0.331395  0.242851  0.427864  1
  S  S69  1  0.010809  0.578852  0.673992  1
  S  S70  1  0.773200  0.618210  0.123483  1
  S  S71  1  0.754750  0.364974  0.905038  1
  S  S72  1  0.728448  0.774769  0.808306  1
  S  S73  1  0.989191  0.421148  0.326008  1
  S  S74  1  0.273200  0.881790  0.123483  1
  S  S75  1  0.271552  0.225231  0.191694  1
  S  S76  1  0.596290  0.113252  0.722801  1
  S  S77  1  0.282514  0.710941  0.724581  1
  S  S78  1  0.398505  0.786502  0.438022  1
  S  S79  1  0.603752  0.734040  0.961112  1
