# generated using pymatgen
data_NaSr4(BO3)3
_symmetry_space_group_name_H-M   'P 1'
_cell_length_a   13.26186712
_cell_length_b   13.26186712
_cell_length_c   13.26186712
_cell_angle_alpha   109.47122063
_cell_angle_beta   109.47122063
_cell_angle_gamma   109.47122063
_symmetry_Int_Tables_number   1
_chemical_formula_structural   NaSr4(BO3)3
_chemical_formula_sum   'Na8 Sr32 B24 O72'
_cell_volume   1795.52776762
_cell_formula_units_Z   8
loop_
 _symmetry_equiv_pos_site_id
 _symmetry_equiv_pos_as_xyz
  1  'x, y, z'
loop_
 _atom_site_type_symbol
 _atom_site_label
 _atom_site_symmetry_multiplicity
 _atom_site_fract_x
 _atom_site_fract_y
 _atom_site_fract_z
 _atom_site_occupancy
  Na  Na0  1  0.250000  0.250000  0.250000  1
  Na  Na1  1  0.250000  0.500000  0.000000  1
  Na  Na2  1  0.750000  0.750000  0.750000  1
  Na  Na3  1  0.500000  0.000000  0.250000  1
  Na  Na4  1  0.500000  1.000000  0.750000  1
  Na  Na5  1  0.000000  0.250000  0.500000  1
  Na  Na6  1  0.000000  0.750000  0.500000  1
  Na  Na7  1  0.750000  0.500000  0.000000  1
  Sr  Sr8  1  0.500000  0.500000  0.500000  1
  Sr  Sr9  1  0.496803  0.246803  0.250000  1
  Sr  Sr10  1  0.750000  0.003197  0.253197  1
  Sr  Sr11  1  0.753197  0.503197  0.250000  1
  Sr  Sr12  1  0.996803  0.746803  0.250000  1
  Sr  Sr13  1  0.250000  0.753197  0.503197  1
  Sr  Sr14  1  0.503197  0.250000  0.753197  1
  Sr  Sr15  1  0.253197  0.003197  0.250000  1
  Sr  Sr16  1  0.750000  0.746803  0.996803  1
  Sr  Sr17  1  0.496803  0.750000  0.246803  1
  Sr  Sr18  1  0.003197  0.250000  0.253197  1
  Sr  Sr19  1  0.246803  0.250000  0.496803  1
  Sr  Sr20  1  0.000000  0.000000  0.000000  1
  Sr  Sr21  1  0.000000  0.500000  0.500000  1
  Sr  Sr22  1  0.750000  0.246803  0.496803  1
  Sr  Sr23  1  0.250000  0.253197  0.003197  1
  Sr  Sr24  1  0.250000  0.496803  0.246803  1
  Sr  Sr25  1  0.996803  0.750000  0.746803  1
  Sr  Sr26  1  0.253197  0.750000  0.003197  1
  Sr  Sr27  1  0.003197  0.253197  0.750000  1
  Sr  Sr28  1  1.000000  1.000000  0.500000  1
  Sr  Sr29  1  0.746803  0.996803  0.750000  1
  Sr  Sr30  1  0.246803  0.496803  0.750000  1
  Sr  Sr31  1  0.000000  0.500000  1.000000  1
  Sr  Sr32  1  0.500000  0.500000  0.000000  1
  Sr  Sr33  1  0.750000  0.503197  0.753197  1
  Sr  Sr34  1  0.500000  0.000000  1.000000  1
  Sr  Sr35  1  0.250000  0.996803  0.746803  1
  Sr  Sr36  1  0.500000  1.000000  0.500000  1
  Sr  Sr37  1  0.746803  0.250000  0.996803  1
  Sr  Sr38  1  0.753197  0.750000  0.503197  1
  Sr  Sr39  1  0.503197  0.753197  0.750000  1
  B  B40  1  0.023569  0.261784  0.011784  1
  B  B41  1  0.261784  0.011784  0.023569  1
  B  B42  1  0.488216  0.750000  0.011784  1
  B  B43  1  0.011784  0.488216  0.750000  1
  B  B44  1  0.738216  0.250000  0.761784  1
  B  B45  1  0.523569  0.511784  0.761784  1
  B  B46  1  0.761784  0.738216  0.250000  1
  B  B47  1  0.738216  0.988216  0.976431  1
  B  B48  1  0.250000  0.988216  0.511784  1
  B  B49  1  0.750000  0.011784  0.488216  1
  B  B50  1  0.011784  0.023569  0.261784  1
  B  B51  1  0.988216  0.976431  0.738216  1
  B  B52  1  0.261784  0.750000  0.238216  1
  B  B53  1  0.988216  0.511784  0.250000  1
  B  B54  1  0.250000  0.761784  0.738216  1
  B  B55  1  0.511784  0.761784  0.523569  1
  B  B56  1  0.476431  0.488216  0.238216  1
  B  B57  1  0.488216  0.238216  0.476431  1
  B  B58  1  0.750000  0.238216  0.261784  1
  B  B59  1  0.238216  0.261784  0.750000  1
  B  B60  1  0.238216  0.476431  0.488216  1
  B  B61  1  0.976431  0.738216  0.988216  1
  B  B62  1  0.511784  0.250000  0.988216  1
  B  B63  1  0.761784  0.523569  0.511784  1
  O  O64  1  0.448230  0.250000  0.051770  1
  O  O65  1  0.494983  0.854726  0.591719  1
  O  O66  1  0.354726  0.994983  0.091719  1
  O  O67  1  0.145274  0.236993  0.640257  1
  O  O68  1  0.596736  0.359743  0.005017  1
  O  O69  1  0.908281  0.645274  0.005017  1
  O  O70  1  0.359743  0.854726  0.763007  1
  O  O71  1  0.908281  0.763007  0.903264  1
  O  O72  1  0.591719  0.596736  0.736993  1
  O  O73  1  0.403264  0.263007  0.408281  1
  O  O74  1  0.096736  0.091719  0.236993  1
  O  O75  1  0.591719  0.494983  0.854726  1
  O  O76  1  0.096736  0.505017  0.859743  1
  O  O77  1  0.396461  0.448230  0.698230  1
  O  O78  1  0.736993  0.645274  0.140257  1
  O  O79  1  0.198230  0.948230  0.896461  1
  O  O80  1  0.948230  0.551770  0.750000  1
  O  O81  1  0.140257  0.903264  0.494983  1
  O  O82  1  0.645274  0.140257  0.736993  1
  O  O83  1  0.301770  0.603539  0.551770  1
  O  O84  1  0.596736  0.736993  0.591719  1
  O  O85  1  0.408281  0.505017  0.145274  1
  O  O86  1  0.551770  0.301770  0.603539  1
  O  O87  1  0.640257  0.145274  0.236993  1
  O  O88  1  0.091719  0.354726  0.994983  1
  O  O89  1  0.896461  0.198230  0.948230  1
  O  O90  1  0.698230  0.801770  0.250000  1
  O  O91  1  0.103539  0.801770  0.051770  1
  O  O92  1  0.750000  0.301770  0.198230  1
  O  O93  1  0.051770  0.103539  0.801770  1
  O  O94  1  0.859743  0.096736  0.505017  1
  O  O95  1  0.763007  0.359743  0.854726  1
  O  O96  1  0.236993  0.096736  0.091719  1
  O  O97  1  0.645274  0.005017  0.908281  1
  O  O98  1  0.198230  0.750000  0.301770  1
  O  O99  1  0.263007  0.408281  0.403264  1
  O  O100  1  0.854726  0.763007  0.359743  1
  O  O101  1  0.359743  0.005017  0.596736  1
  O  O102  1  0.051770  0.448230  0.250000  1
  O  O103  1  0.603539  0.551770  0.301770  1
  O  O104  1  0.801770  0.250000  0.698230  1
  O  O105  1  0.494983  0.140257  0.903264  1
  O  O106  1  0.551770  0.750000  0.948230  1
  O  O107  1  0.763007  0.903264  0.908281  1
  O  O108  1  0.854726  0.591719  0.494983  1
  O  O109  1  0.403264  0.640257  0.994983  1
  O  O110  1  0.408281  0.403264  0.263007  1
  O  O111  1  0.301770  0.198230  0.750000  1
  O  O112  1  0.736993  0.591719  0.596736  1
  O  O113  1  0.354726  0.859743  0.263007  1
  O  O114  1  0.903264  0.494983  0.140257  1
  O  O115  1  0.263007  0.354726  0.859743  1
  O  O116  1  0.250000  0.051770  0.448230  1
  O  O117  1  0.698230  0.396461  0.448230  1
  O  O118  1  0.145274  0.408281  0.505017  1
  O  O119  1  0.994983  0.403264  0.640257  1
  O  O120  1  0.948230  0.896461  0.198230  1
  O  O121  1  0.903264  0.908281  0.763007  1
  O  O122  1  0.448230  0.698230  0.396461  1
  O  O123  1  0.236993  0.640257  0.145274  1
  O  O124  1  0.801770  0.051770  0.103539  1
  O  O125  1  0.505017  0.145274  0.408281  1
  O  O126  1  0.505017  0.859743  0.096736  1
  O  O127  1  0.091719  0.236993  0.096736  1
  O  O128  1  0.005017  0.908281  0.645274  1
  O  O129  1  0.005017  0.596736  0.359743  1
  O  O130  1  0.140257  0.736993  0.645274  1
  O  O131  1  0.640257  0.994983  0.403264  1
  O  O132  1  0.250000  0.698230  0.801770  1
  O  O133  1  0.859743  0.263007  0.354726  1
  O  O134  1  0.994983  0.091719  0.354726  1
  O  O135  1  0.750000  0.948230  0.551770  1
