# generated using pymatgen
data_SrBiIO2
_symmetry_space_group_name_H-M   'P 1'
_cell_length_a   7.54489664
_cell_length_b   7.54489664
_cell_length_c   5.82327017
_cell_angle_alpha   90.00000000
_cell_angle_beta   90.00000000
_cell_angle_gamma   133.55403922
_symmetry_Int_Tables_number   1
_chemical_formula_structural   SrBiIO2
_chemical_formula_sum   'Sr2 Bi2 I2 O4'
_cell_volume   240.24074330
_cell_formula_units_Z   2
loop_
 _symmetry_equiv_pos_site_id
 _symmetry_equiv_pos_as_xyz
  1  'x, y, z'
loop_
 _atom_site_type_symbol
 _atom_site_label
 _atom_site_symmetry_multiplicity
 _atom_site_fract_x
 _atom_site_fract_y
 _atom_site_fract_z
 _atom_site_occupancy
  Sr  Sr0  1  0.907078  0.092922  0.750000  1
  Sr  Sr1  1  0.092922  0.907078  0.250000  1
  Bi  Bi2  1  0.572907  0.427093  0.750000  1
  Bi  Bi3  1  0.427093  0.572907  0.250000  1
  I  I4  1  0.244902  0.755098  0.750000  1
  I  I5  1  0.755098  0.244902  0.250000  1
  O  O6  1  0.267273  0.267273  0.000000  1
  O  O7  1  0.267273  0.267273  0.500000  1
  O  O8  1  0.732727  0.732727  0.500000  1
  O  O9  1  0.732727  0.732727  0.000000  1
