# generated using pymatgen
data_NdCoSi2
_symmetry_space_group_name_H-M   'P 1'
_cell_length_a   8.42938119
_cell_length_b   8.42938119
_cell_length_c   4.07003533
_cell_angle_alpha   90.00000000
_cell_angle_beta   90.00000000
_cell_angle_gamma   151.39688002
_symmetry_Int_Tables_number   1
_chemical_formula_structural   NdCoSi2
_chemical_formula_sum   'Nd2 Co2 Si4'
_cell_volume   138.44873109
_cell_formula_units_Z   2
loop_
 _symmetry_equiv_pos_site_id
 _symmetry_equiv_pos_as_xyz
  1  'x, y, z'
loop_
 _atom_site_type_symbol
 _atom_site_label
 _atom_site_symmetry_multiplicity
 _atom_site_fract_x
 _atom_site_fract_y
 _atom_site_fract_z
 _atom_site_occupancy
  Nd  Nd0  1  0.106832  0.893168  0.250000  1
  Nd  Nd1  1  0.893168  0.106832  0.750000  1
  Co  Co2  1  0.681961  0.318039  0.750000  1
  Co  Co3  1  0.318039  0.681961  0.250000  1
  Si  Si4  1  0.750298  0.249702  0.250000  1
  Si  Si5  1  0.249702  0.750298  0.750000  1
  Si  Si6  1  0.543591  0.456409  0.750000  1
  Si  Si7  1  0.456409  0.543591  0.250000  1
