# generated using pymatgen
data_Ba2YFe3O8
_symmetry_space_group_name_H-M   'P 1'
_cell_length_a   3.96854285
_cell_length_b   3.96854285
_cell_length_c   12.09296825
_cell_angle_alpha   90.00000000
_cell_angle_beta   90.00000000
_cell_angle_gamma   90.00000000
_symmetry_Int_Tables_number   1
_chemical_formula_structural   Ba2YFe3O8
_chemical_formula_sum   'Ba2 Y1 Fe3 O8'
_cell_volume   190.45617609
_cell_formula_units_Z   1
loop_
 _symmetry_equiv_pos_site_id
 _symmetry_equiv_pos_as_xyz
  1  'x, y, z'
loop_
 _atom_site_type_symbol
 _atom_site_label
 _atom_site_symmetry_multiplicity
 _atom_site_fract_x
 _atom_site_fract_y
 _atom_site_fract_z
 _atom_site_occupancy
  Ba  Ba0  1  0.500000  0.500000  0.162399  1
  Ba  Ba1  1  0.500000  0.500000  0.837601  1
  Y  Y2  1  0.500000  0.500000  0.500000  1
  Fe  Fe3  1  0.000000  0.000000  0.339509  1
  Fe  Fe4  1  0.000000  0.000000  0.000000  1
  Fe  Fe5  1  0.000000  0.000000  0.660491  1
  O  O6  1  0.000000  0.500000  0.383722  1
  O  O7  1  0.500000  0.000000  0.383722  1
  O  O8  1  0.500000  0.000000  0.000000  1
  O  O9  1  0.000000  0.000000  0.184642  1
  O  O10  1  0.000000  0.500000  0.616278  1
  O  O11  1  0.500000  0.000000  0.616278  1
  O  O12  1  0.000000  0.000000  0.815358  1
  O  O13  1  0.000000  0.500000  0.000000  1
