# generated using pymatgen
data_CaH2C2O5
_symmetry_space_group_name_H-M   'P 1'
_cell_length_a   6.38031248
_cell_length_b   14.78365414
_cell_length_c   10.16401939
_cell_angle_alpha   90.00000000
_cell_angle_beta   109.39244513
_cell_angle_gamma   90.00000000
_symmetry_Int_Tables_number   1
_chemical_formula_structural   CaH2C2O5
_chemical_formula_sum   'Ca8 H16 C16 O40'
_cell_volume   904.32307899
_cell_formula_units_Z   8
loop_
 _symmetry_equiv_pos_site_id
 _symmetry_equiv_pos_as_xyz
  1  'x, y, z'
loop_
 _atom_site_type_symbol
 _atom_site_label
 _atom_site_symmetry_multiplicity
 _atom_site_fract_x
 _atom_site_fract_y
 _atom_site_fract_z
 _atom_site_occupancy
  Ca  Ca0  1  0.007210  0.122817  0.564339  1
  Ca  Ca1  1  0.962568  0.623939  0.552839  1
  Ca  Ca2  1  0.992790  0.622817  0.935661  1
  Ca  Ca3  1  0.007210  0.377183  0.064339  1
  Ca  Ca4  1  0.962568  0.876061  0.052839  1
  Ca  Ca5  1  0.992790  0.877183  0.435661  1
  Ca  Ca6  1  0.037432  0.376061  0.447161  1
  Ca  Ca7  1  0.037432  0.123939  0.947161  1
  H  H8  1  0.477807  0.623098  0.437436  1
  H  H9  1  0.515512  0.133198  0.453084  1
  H  H10  1  0.483692  0.375554  0.710518  1
  H  H11  1  0.515512  0.366802  0.953084  1
  H  H12  1  0.477807  0.876902  0.937436  1
  H  H13  1  0.516308  0.624446  0.289482  1
  H  H14  1  0.522193  0.123098  0.062564  1
  H  H15  1  0.610398  0.278487  0.907321  1
  H  H16  1  0.610398  0.221513  0.407321  1
  H  H17  1  0.484488  0.866802  0.546916  1
  H  H18  1  0.389602  0.721513  0.092679  1
  H  H19  1  0.522193  0.376902  0.562564  1
  H  H20  1  0.516308  0.875554  0.789482  1
  H  H21  1  0.389602  0.778487  0.592679  1
  H  H22  1  0.484488  0.633198  0.046916  1
  H  H23  1  0.483692  0.124446  0.210518  1
  C  C24  1  0.517751  0.872251  0.182259  1
  C  C25  1  0.998043  0.573373  0.248917  1
  C  C26  1  0.517751  0.627749  0.682259  1
  C  C27  1  0.482249  0.127749  0.817741  1
  C  C28  1  0.446159  0.882599  0.312909  1
  C  C29  1  0.482249  0.372251  0.317741  1
  C  C30  1  0.001957  0.426627  0.751083  1
  C  C31  1  0.446159  0.617401  0.812909  1
  C  C32  1  0.022423  0.320492  0.755803  1
  C  C33  1  0.998043  0.926627  0.748917  1
  C  C34  1  0.977577  0.820492  0.744197  1
  C  C35  1  0.977577  0.679508  0.244197  1
  C  C36  1  0.022423  0.179508  0.255803  1
  C  C37  1  0.553841  0.382599  0.187091  1
  C  C38  1  0.001957  0.073373  0.251083  1
  C  C39  1  0.553841  0.117401  0.687091  1
  O  O40  1  0.006604  0.535020  0.362009  1
  O  O41  1  0.413784  0.390523  0.610714  1
  O  O42  1  0.601332  0.891691  0.428646  1
  O  O43  1  0.389283  0.844699  0.602132  1
  O  O44  1  0.240019  0.878355  0.294173  1
  O  O45  1  0.005173  0.534910  0.138935  1
  O  O46  1  0.363746  0.646542  0.568811  1
  O  O47  1  0.759981  0.378355  0.205827  1
  O  O48  1  0.759981  0.121645  0.705827  1
  O  O49  1  0.610717  0.155301  0.397868  1
  O  O50  1  0.993396  0.464980  0.637991  1
  O  O51  1  0.027401  0.218400  0.145733  1
  O  O52  1  0.972599  0.781600  0.854267  1
  O  O53  1  0.398668  0.391691  0.071354  1
  O  O54  1  0.636254  0.146542  0.931189  1
  O  O55  1  0.027401  0.281600  0.645733  1
  O  O56  1  0.994827  0.465090  0.861065  1
  O  O57  1  0.006604  0.964980  0.862009  1
  O  O58  1  0.586216  0.609477  0.389286  1
  O  O59  1  0.994827  0.034910  0.361065  1
  O  O60  1  0.586216  0.890523  0.889286  1
  O  O61  1  0.636254  0.353458  0.431189  1
  O  O62  1  0.968643  0.782416  0.630584  1
  O  O63  1  0.993396  0.035020  0.137991  1
  O  O64  1  0.722245  0.879413  0.198821  1
  O  O65  1  0.398668  0.108309  0.571354  1
  O  O66  1  0.277755  0.120587  0.801179  1
  O  O67  1  0.005173  0.965090  0.638935  1
  O  O68  1  0.722245  0.620587  0.698821  1
  O  O69  1  0.413784  0.109477  0.110714  1
  O  O70  1  0.277755  0.379413  0.301179  1
  O  O71  1  0.972599  0.718400  0.354267  1
  O  O72  1  0.240019  0.621645  0.794173  1
  O  O73  1  0.610717  0.344699  0.897868  1
  O  O74  1  0.031357  0.282416  0.869416  1
  O  O75  1  0.363746  0.853458  0.068811  1
  O  O76  1  0.031357  0.217584  0.369416  1
  O  O77  1  0.389283  0.655301  0.102132  1
  O  O78  1  0.968643  0.717584  0.130584  1
  O  O79  1  0.601332  0.608309  0.928646  1
