# generated using pymatgen
data_Rb3NbH4(C2O5)3
_symmetry_space_group_name_H-M   'P 1'
_cell_length_a   8.09320875
_cell_length_b   9.16038488
_cell_length_c   11.69911196
_cell_angle_alpha   78.93749366
_cell_angle_beta   86.99723985
_cell_angle_gamma   86.42038621
_symmetry_Int_Tables_number   1
_chemical_formula_structural   Rb3NbH4(C2O5)3
_chemical_formula_sum   'Rb6 Nb2 H8 C12 O30'
_cell_volume   848.83571767
_cell_formula_units_Z   2
loop_
 _symmetry_equiv_pos_site_id
 _symmetry_equiv_pos_as_xyz
  1  'x, y, z'
loop_
 _atom_site_type_symbol
 _atom_site_label
 _atom_site_symmetry_multiplicity
 _atom_site_fract_x
 _atom_site_fract_y
 _atom_site_fract_z
 _atom_site_occupancy
  Rb  Rb0  1  0.379129  0.034910  0.149715  1
  Rb  Rb1  1  0.854444  0.670634  0.571955  1
  Rb  Rb2  1  0.985337  0.759378  0.131214  1
  Rb  Rb3  1  0.620871  0.965090  0.850285  1
  Rb  Rb4  1  0.014663  0.240622  0.868786  1
  Rb  Rb5  1  0.145556  0.329366  0.428045  1
  Nb  Nb6  1  0.677720  0.374175  0.332346  1
  Nb  Nb7  1  0.322280  0.625825  0.667654  1
  H  H8  1  0.833785  0.588304  0.907374  1
  H  H9  1  0.036836  0.055754  0.631339  1
  H  H10  1  0.742394  0.499198  0.014044  1
  H  H11  1  0.166215  0.411696  0.092626  1
  H  H12  1  0.963164  0.944246  0.368661  1
  H  H13  1  0.221144  0.096354  0.646703  1
  H  H14  1  0.778856  0.903646  0.353297  1
  H  H15  1  0.257606  0.500802  0.985956  1
  C  C16  1  0.549447  0.151864  0.540184  1
  C  C17  1  0.734671  0.103286  0.528080  1
  C  C18  1  0.576977  0.378223  0.753780  1
  C  C19  1  0.265329  0.896714  0.471920  1
  C  C20  1  0.450553  0.848136  0.459816  1
  C  C21  1  0.572030  0.653780  0.158843  1
  C  C22  1  0.070551  0.752268  0.831175  1
  C  C23  1  0.427970  0.346220  0.841157  1
  C  C24  1  0.765055  0.179981  0.146341  1
  C  C25  1  0.234945  0.820019  0.853659  1
  C  C26  1  0.423023  0.621777  0.246220  1
  C  C27  1  0.929449  0.247732  0.168825  1
  O  O28  1  0.103743  0.126588  0.659146  1
  O  O29  1  0.419235  0.228751  0.913047  1
  O  O30  1  0.359953  0.777167  0.791809  1
  O  O31  1  0.788426  0.490342  0.936320  1
  O  O32  1  0.543741  0.911354  0.380908  1
  O  O33  1  0.085444  0.661254  0.758882  1
  O  O34  1  0.237585  0.903786  0.925229  1
  O  O35  1  0.301892  0.709992  0.248157  1
  O  O36  1  0.698108  0.290008  0.751843  1
  O  O37  1  0.219659  0.512736  0.591117  1
  O  O38  1  0.580765  0.771249  0.086953  1
  O  O39  1  0.314251  0.455377  0.828760  1
  O  O40  1  0.914556  0.338746  0.241118  1
  O  O41  1  0.937063  0.782815  0.881844  1
  O  O42  1  0.495324  0.736728  0.541338  1
  O  O43  1  0.557317  0.506653  0.683119  1
  O  O44  1  0.807447  0.178633  0.435986  1
  O  O45  1  0.504676  0.263272  0.458662  1
  O  O46  1  0.192553  0.821367  0.564014  1
  O  O47  1  0.456259  0.088646  0.619092  1
  O  O48  1  0.780341  0.487264  0.408883  1
  O  O49  1  0.199394  0.998279  0.400057  1
  O  O50  1  0.211574  0.509658  0.063680  1
  O  O51  1  0.762415  0.096214  0.074771  1
  O  O52  1  0.896257  0.873412  0.340854  1
  O  O53  1  0.685749  0.544623  0.171240  1
  O  O54  1  0.442683  0.493347  0.316881  1
  O  O55  1  0.062937  0.217185  0.118156  1
  O  O56  1  0.800606  0.001721  0.599943  1
  O  O57  1  0.640047  0.222833  0.208191  1
