# generated using pymatgen
data_Al6C3N2
_symmetry_space_group_name_H-M   'P 1'
_cell_length_a   13.63915514
_cell_length_b   13.63915514
_cell_length_c   13.63915514
_cell_angle_alpha   13.79483670
_cell_angle_beta   13.79483670
_cell_angle_gamma   13.79483670
_symmetry_Int_Tables_number   1
_chemical_formula_structural   Al6C3N2
_chemical_formula_sum   'Al6 C3 N2'
_cell_volume   125.53524068
_cell_formula_units_Z   1
loop_
 _symmetry_equiv_pos_site_id
 _symmetry_equiv_pos_as_xyz
  1  'x, y, z'
loop_
 _atom_site_type_symbol
 _atom_site_label
 _atom_site_symmetry_multiplicity
 _atom_site_fract_x
 _atom_site_fract_y
 _atom_site_fract_z
 _atom_site_occupancy
  Al  Al0  1  0.691631  0.691631  0.691631  1
  Al  Al1  1  0.087581  0.087581  0.087581  1
  Al  Al2  1  0.810886  0.810886  0.810886  1
  Al  Al3  1  0.189114  0.189114  0.189114  1
  Al  Al4  1  0.912419  0.912419  0.912419  1
  Al  Al5  1  0.308369  0.308369  0.308369  1
  C  C6  1  0.000000  0.000000  0.000000  1
  C  C7  1  0.865421  0.865421  0.865421  1
  C  C8  1  0.134579  0.134579  0.134579  1
  N  N9  1  0.263918  0.263918  0.263918  1
  N  N10  1  0.736082  0.736082  0.736082  1
