# generated using pymatgen
data_Rb2U3(TeO7)2
_symmetry_space_group_name_H-M   'P 1'
_cell_length_a   7.03907192
_cell_length_b   7.37130951
_cell_length_c   8.39256768
_cell_angle_alpha   108.19420070
_cell_angle_beta   101.13724735
_cell_angle_gamma   98.32722576
_symmetry_Int_Tables_number   1
_chemical_formula_structural   Rb2U3(TeO7)2
_chemical_formula_sum   'Rb2 U3 Te2 O14'
_cell_volume   395.95199032
_cell_formula_units_Z   1
loop_
 _symmetry_equiv_pos_site_id
 _symmetry_equiv_pos_as_xyz
  1  'x, y, z'
loop_
 _atom_site_type_symbol
 _atom_site_label
 _atom_site_symmetry_multiplicity
 _atom_site_fract_x
 _atom_site_fract_y
 _atom_site_fract_z
 _atom_site_occupancy
  Rb  Rb0  1  0.702739  0.384793  0.835101  1
  Rb  Rb1  1  0.297261  0.615207  0.164899  1
  U  U2  1  0.000000  0.000000  0.000000  1
  U  U3  1  0.398471  0.828751  0.765454  1
  U  U4  1  0.601529  0.171249  0.234546  1
  Te  Te5  1  0.842308  0.675627  0.519460  1
  Te  Te6  1  0.157692  0.324373  0.480540  1
  O  O7  1  0.035300  0.792610  0.737790  1
  O  O8  1  0.964700  0.207390  0.262210  1
  O  O9  1  0.636533  0.741351  0.627156  1
  O  O10  1  0.363467  0.258649  0.372844  1
  O  O11  1  0.806516  0.411702  0.512917  1
  O  O12  1  0.193484  0.588298  0.487083  1
  O  O13  1  0.319794  0.994282  0.025153  1
  O  O14  1  0.680206  0.005718  0.974847  1
  O  O15  1  0.381996  0.031126  0.682994  1
  O  O16  1  0.618004  0.968874  0.317006  1
  O  O17  1  0.393678  0.609154  0.831090  1
  O  O18  1  0.606322  0.390846  0.168910  1
  O  O19  1  0.033672  0.213698  0.928691  1
  O  O20  1  0.966328  0.786302  0.071309  1
