# generated using pymatgen
data_Li22Pb5
_symmetry_space_group_name_H-M   'P 1'
_cell_length_a   14.16693702
_cell_length_b   14.16693702
_cell_length_c   14.16693702
_cell_angle_alpha   60.00000000
_cell_angle_beta   60.00000000
_cell_angle_gamma   60.00000000
_symmetry_Int_Tables_number   1
_chemical_formula_structural   Li22Pb5
_chemical_formula_sum   'Li88 Pb20'
_cell_volume   2010.54080746
_cell_formula_units_Z   4
loop_
 _symmetry_equiv_pos_site_id
 _symmetry_equiv_pos_as_xyz
  1  'x, y, z'
loop_
 _atom_site_type_symbol
 _atom_site_label
 _atom_site_symmetry_multiplicity
 _atom_site_fract_x
 _atom_site_fract_y
 _atom_site_fract_z
 _atom_site_occupancy
  Li  Li0  1  0.923393  0.923393  0.229822  1
  Li  Li1  1  0.241891  0.581990  0.934228  1
  Li  Li2  1  0.077995  0.077995  0.422005  1
  Li  Li3  1  0.496139  0.832089  0.175634  1
  Li  Li4  1  0.083293  0.083293  0.750121  1
  Li  Li5  1  0.422005  0.422005  0.077995  1
  Li  Li6  1  0.496139  0.175634  0.496139  1
  Li  Li7  1  0.832089  0.496139  0.175634  1
  Li  Li8  1  0.829298  0.829298  0.829298  1
  Li  Li9  1  0.496139  0.175634  0.832089  1
  Li  Li10  1  0.325513  0.993778  0.993778  1
  Li  Li11  1  0.668447  0.994660  0.668447  1
  Li  Li12  1  0.994660  0.668447  0.668447  1
  Li  Li13  1  0.175634  0.496139  0.496139  1
  Li  Li14  1  0.728197  0.423934  0.423934  1
  Li  Li15  1  0.934228  0.241891  0.241891  1
  Li  Li16  1  0.241891  0.934228  0.581990  1
  Li  Li17  1  0.670521  0.329479  0.329479  1
  Li  Li18  1  0.422005  0.077995  0.077995  1
  Li  Li19  1  0.993778  0.993778  0.325513  1
  Li  Li20  1  0.078889  0.743917  0.743917  1
  Li  Li21  1  0.581990  0.241891  0.934228  1
  Li  Li22  1  0.241891  0.241891  0.934228  1
  Li  Li23  1  0.423934  0.423934  0.728197  1
  Li  Li24  1  0.422005  0.077995  0.422005  1
  Li  Li25  1  0.241891  0.581990  0.241891  1
  Li  Li26  1  0.934228  0.581990  0.241891  1
  Li  Li27  1  0.686930  0.325513  0.993778  1
  Li  Li28  1  0.686930  0.993778  0.325513  1
  Li  Li29  1  0.670521  0.670521  0.329479  1
  Li  Li30  1  0.496139  0.832089  0.496139  1
  Li  Li31  1  0.743917  0.078889  0.433276  1
  Li  Li32  1  0.325513  0.686930  0.993778  1
  Li  Li33  1  0.670521  0.329479  0.670521  1
  Li  Li34  1  0.175875  0.175875  0.175875  1
  Li  Li35  1  0.832089  0.496139  0.496139  1
  Li  Li36  1  0.472375  0.175875  0.175875  1
  Li  Li37  1  0.512107  0.829298  0.829298  1
  Li  Li38  1  0.750121  0.083293  0.083293  1
  Li  Li39  1  0.993778  0.325513  0.686930  1
  Li  Li40  1  1.000000  1.000000  1.000000  1
  Li  Li41  1  0.241891  0.934228  0.241891  1
  Li  Li42  1  0.743917  0.743917  0.433276  1
  Li  Li43  1  0.229822  0.923393  0.923393  1
  Li  Li44  1  0.743917  0.743917  0.078889  1
  Li  Li45  1  0.325513  0.993778  0.686930  1
  Li  Li46  1  0.829298  0.829298  0.512107  1
  Li  Li47  1  0.078889  0.743917  0.433276  1
  Li  Li48  1  0.743917  0.078889  0.743917  1
  Li  Li49  1  0.923393  0.923393  0.923393  1
  Li  Li50  1  0.993778  0.325513  0.993778  1
  Li  Li51  1  0.423934  0.423934  0.423934  1
  Li  Li52  1  0.329479  0.670521  0.329479  1
  Li  Li53  1  0.083293  0.750121  0.083293  1
  Li  Li54  1  0.083293  0.083293  0.083293  1
  Li  Li55  1  0.993778  0.686930  0.325513  1
  Li  Li56  1  0.077995  0.422005  0.422005  1
  Li  Li57  1  0.433276  0.078889  0.743917  1
  Li  Li58  1  0.329479  0.329479  0.670521  1
  Li  Li59  1  0.423934  0.728197  0.423934  1
  Li  Li60  1  0.077995  0.422005  0.077995  1
  Li  Li61  1  0.993778  0.993778  0.686930  1
  Li  Li62  1  0.175875  0.175875  0.472375  1
  Li  Li63  1  0.496139  0.496139  0.832089  1
  Li  Li64  1  0.750000  0.750000  0.750000  1
  Li  Li65  1  0.250000  0.250000  0.250000  1
  Li  Li66  1  0.329479  0.670521  0.670521  1
  Li  Li67  1  0.829298  0.512107  0.829298  1
  Li  Li68  1  0.496139  0.496139  0.175634  1
  Li  Li69  1  0.743917  0.433276  0.078889  1
  Li  Li70  1  0.581990  0.934228  0.241891  1
  Li  Li71  1  0.923393  0.229822  0.923393  1
  Li  Li72  1  0.241891  0.241891  0.581990  1
  Li  Li73  1  0.175634  0.832089  0.496139  1
  Li  Li74  1  0.743917  0.433276  0.743917  1
  Li  Li75  1  0.832089  0.175634  0.496139  1
  Li  Li76  1  0.581990  0.241891  0.241891  1
  Li  Li77  1  0.433276  0.743917  0.078889  1
  Li  Li78  1  0.993778  0.686930  0.993778  1
  Li  Li79  1  0.078889  0.433276  0.743917  1
  Li  Li80  1  0.686930  0.993778  0.993778  1
  Li  Li81  1  0.175634  0.496139  0.832089  1
  Li  Li82  1  0.500000  0.500000  0.500000  1
  Li  Li83  1  0.668447  0.668447  0.994660  1
  Li  Li84  1  0.934228  0.241891  0.581990  1
  Li  Li85  1  0.433276  0.743917  0.743917  1
  Li  Li86  1  0.668447  0.668447  0.668447  1
  Li  Li87  1  0.175875  0.472375  0.175875  1
  Pb  Pb88  1  0.338149  0.985552  0.338149  1
  Pb  Pb89  1  0.574236  0.925764  0.574236  1
  Pb  Pb90  1  0.583587  0.249238  0.583587  1
  Pb  Pb91  1  0.925764  0.925764  0.574236  1
  Pb  Pb92  1  0.583587  0.583587  0.249238  1
  Pb  Pb93  1  0.824885  0.175115  0.175115  1
  Pb  Pb94  1  0.338149  0.338149  0.338149  1
  Pb  Pb95  1  0.824885  0.175115  0.824885  1
  Pb  Pb96  1  0.574236  0.574236  0.925764  1
  Pb  Pb97  1  0.175115  0.175115  0.824885  1
  Pb  Pb98  1  0.583587  0.583587  0.583587  1
  Pb  Pb99  1  0.574236  0.925764  0.925764  1
  Pb  Pb100  1  0.824885  0.824885  0.175115  1
  Pb  Pb101  1  0.925764  0.574236  0.925764  1
  Pb  Pb102  1  0.175115  0.824885  0.175115  1
  Pb  Pb103  1  0.925764  0.574236  0.574236  1
  Pb  Pb104  1  0.175115  0.824885  0.824885  1
  Pb  Pb105  1  0.338149  0.338149  0.985552  1
  Pb  Pb106  1  0.249238  0.583587  0.583587  1
  Pb  Pb107  1  0.985552  0.338149  0.338149  1
