# generated using pymatgen
data_LiCa2Ge3
_symmetry_space_group_name_H-M   'P 1'
_cell_length_a   4.41984768
_cell_length_b   10.76122501
_cell_length_c   11.37892212
_cell_angle_alpha   90.00000000
_cell_angle_beta   90.00000000
_cell_angle_gamma   90.00000000
_symmetry_Int_Tables_number   1
_chemical_formula_structural   LiCa2Ge3
_chemical_formula_sum   'Li4 Ca8 Ge12'
_cell_volume   541.21539281
_cell_formula_units_Z   4
loop_
 _symmetry_equiv_pos_site_id
 _symmetry_equiv_pos_as_xyz
  1  'x, y, z'
loop_
 _atom_site_type_symbol
 _atom_site_label
 _atom_site_symmetry_multiplicity
 _atom_site_fract_x
 _atom_site_fract_y
 _atom_site_fract_z
 _atom_site_occupancy
  Li  Li0  1  0.500000  0.142091  0.718980  1
  Li  Li1  1  0.500000  0.857909  0.281020  1
  Li  Li2  1  0.000000  0.357909  0.218980  1
  Li  Li3  1  0.000000  0.642091  0.781020  1
  Ca  Ca4  1  0.000000  0.052493  0.147227  1
  Ca  Ca5  1  0.500000  0.178655  0.426447  1
  Ca  Ca6  1  0.000000  0.947507  0.852773  1
  Ca  Ca7  1  0.000000  0.678655  0.073553  1
  Ca  Ca8  1  0.500000  0.821345  0.573553  1
  Ca  Ca9  1  0.500000  0.552493  0.352773  1
  Ca  Ca10  1  0.000000  0.321345  0.926447  1
  Ca  Ca11  1  0.500000  0.447507  0.647227  1
  Ge  Ge12  1  0.000000  0.256899  0.642258  1
  Ge  Ge13  1  0.500000  0.472036  0.105230  1
  Ge  Ge14  1  0.500000  0.243101  0.142258  1
  Ge  Ge15  1  0.500000  0.527964  0.894770  1
  Ge  Ge16  1  0.500000  0.111513  0.954447  1
  Ge  Ge17  1  0.500000  0.756899  0.857742  1
  Ge  Ge18  1  0.000000  0.027964  0.605230  1
  Ge  Ge19  1  0.000000  0.611513  0.545553  1
  Ge  Ge20  1  0.000000  0.743101  0.357742  1
  Ge  Ge21  1  0.000000  0.388487  0.454447  1
  Ge  Ge22  1  0.500000  0.888487  0.045553  1
  Ge  Ge23  1  0.000000  0.972036  0.394770  1
