# generated using pymatgen
data_HoNiGe
_symmetry_space_group_name_H-M   'P 1'
_cell_length_a   4.22556944
_cell_length_b   6.89840156
_cell_length_c   7.27561252
_cell_angle_alpha   90.00000000
_cell_angle_beta   90.00000000
_cell_angle_gamma   90.00000000
_symmetry_Int_Tables_number   1
_chemical_formula_structural   HoNiGe
_chemical_formula_sum   'Ho4 Ni4 Ge4'
_cell_volume   212.08173905
_cell_formula_units_Z   4
loop_
 _symmetry_equiv_pos_site_id
 _symmetry_equiv_pos_as_xyz
  1  'x, y, z'
loop_
 _atom_site_type_symbol
 _atom_site_label
 _atom_site_symmetry_multiplicity
 _atom_site_fract_x
 _atom_site_fract_y
 _atom_site_fract_z
 _atom_site_occupancy
  Ho  Ho0  1  0.750000  0.008092  0.707063  1
  Ho  Ho1  1  0.250000  0.491908  0.207063  1
  Ho  Ho2  1  0.750000  0.508092  0.792937  1
  Ho  Ho3  1  0.250000  0.991908  0.292937  1
  Ni  Ni4  1  0.750000  0.803217  0.081007  1
  Ni  Ni5  1  0.250000  0.196783  0.918993  1
  Ni  Ni6  1  0.250000  0.696783  0.581007  1
  Ni  Ni7  1  0.750000  0.303217  0.418993  1
  Ge  Ge8  1  0.250000  0.803571  0.910691  1
  Ge  Ge9  1  0.750000  0.696429  0.410691  1
  Ge  Ge10  1  0.250000  0.303571  0.589309  1
  Ge  Ge11  1  0.750000  0.196429  0.089309  1
