# generated using pymatgen
data_NaV(GeO3)2
_symmetry_space_group_name_H-M   'P 1'
_cell_length_a   6.77352674
_cell_length_b   6.77352674
_cell_length_c   5.59246700
_cell_angle_alpha   77.62255062
_cell_angle_beta   102.37744938
_cell_angle_gamma   97.27049701
_symmetry_Int_Tables_number   1
_chemical_formula_structural   NaV(GeO3)2
_chemical_formula_sum   'Na2 V2 Ge4 O12'
_cell_volume   243.92161307
_cell_formula_units_Z   2
loop_
 _symmetry_equiv_pos_site_id
 _symmetry_equiv_pos_as_xyz
  1  'x, y, z'
loop_
 _atom_site_type_symbol
 _atom_site_label
 _atom_site_symmetry_multiplicity
 _atom_site_fract_x
 _atom_site_fract_y
 _atom_site_fract_z
 _atom_site_occupancy
  Na  Na0  1  0.194320  0.194320  0.250000  1
  Na  Na1  1  0.805680  0.805680  0.750000  1
  V  V2  1  0.406587  0.406587  0.750000  1
  V  V3  1  0.593413  0.593413  0.250000  1
  Ge  Ge4  1  0.117362  0.692113  0.270197  1
  Ge  Ge5  1  0.307887  0.882638  0.770197  1
  Ge  Ge6  1  0.882638  0.307887  0.729803  1
  Ge  Ge7  1  0.692113  0.117362  0.229803  1
  O  O8  1  0.521820  0.309497  0.134076  1
  O  O9  1  0.874964  0.154601  0.504672  1
  O  O10  1  0.868515  0.591180  0.184288  1
  O  O11  1  0.125036  0.845399  0.495328  1
  O  O12  1  0.845399  0.125036  0.004672  1
  O  O13  1  0.154601  0.874964  0.995328  1
  O  O14  1  0.408820  0.131485  0.684288  1
  O  O15  1  0.591180  0.868515  0.315712  1
  O  O16  1  0.131485  0.408820  0.815712  1
  O  O17  1  0.690503  0.478180  0.634076  1
  O  O18  1  0.478180  0.690503  0.865924  1
  O  O19  1  0.309497  0.521820  0.365924  1
