# generated using pymatgen
data_NaP(HO2)2
_symmetry_space_group_name_H-M   'P 1'
_cell_length_a   6.23752712
_cell_length_b   12.52176863
_cell_length_c   9.79048101
_cell_angle_alpha   90.00000000
_cell_angle_beta   91.42710204
_cell_angle_gamma   90.00000000
_symmetry_Int_Tables_number   1
_chemical_formula_structural   NaP(HO2)2
_chemical_formula_sum   'Na8 P8 H16 O32'
_cell_volume   764.44707087
_cell_formula_units_Z   8
loop_
 _symmetry_equiv_pos_site_id
 _symmetry_equiv_pos_as_xyz
  1  'x, y, z'
loop_
 _atom_site_type_symbol
 _atom_site_label
 _atom_site_symmetry_multiplicity
 _atom_site_fract_x
 _atom_site_fract_y
 _atom_site_fract_z
 _atom_site_occupancy
  Na  Na0  1  0.061752  0.126086  0.428061  1
  Na  Na1  1  0.938248  0.626086  0.071939  1
  Na  Na2  1  0.938248  0.873914  0.571939  1
  Na  Na3  1  0.061752  0.373914  0.928061  1
  Na  Na4  1  0.258743  0.062261  0.029770  1
  Na  Na5  1  0.741257  0.562261  0.470230  1
  Na  Na6  1  0.741257  0.937739  0.970230  1
  Na  Na7  1  0.258743  0.437739  0.529770  1
  P  P8  1  0.600717  0.996825  0.311871  1
  P  P9  1  0.399283  0.496825  0.188129  1
  P  P10  1  0.399283  0.003175  0.688129  1
  P  P11  1  0.600717  0.503175  0.811871  1
  P  P12  1  0.543902  0.321647  0.010261  1
  P  P13  1  0.456098  0.821647  0.489739  1
  P  P14  1  0.456098  0.678353  0.989739  1
  P  P15  1  0.543902  0.178353  0.510261  1
  H  H16  1  0.992466  0.421339  0.287889  1
  H  H17  1  0.007534  0.921339  0.212111  1
  H  H18  1  0.007534  0.578661  0.712111  1
  H  H19  1  0.992466  0.078661  0.787889  1
  H  H20  1  0.866014  0.348704  0.391034  1
  H  H21  1  0.133986  0.848704  0.108966  1
  H  H22  1  0.133986  0.651296  0.608966  1
  H  H23  1  0.866014  0.151296  0.891034  1
  H  H24  1  0.923949  0.201892  0.147492  1
  H  H25  1  0.076051  0.701892  0.352508  1
  H  H26  1  0.076051  0.798108  0.852508  1
  H  H27  1  0.923949  0.298108  0.647492  1
  H  H28  1  0.167073  0.224841  0.161028  1
  H  H29  1  0.832927  0.724841  0.338972  1
  H  H30  1  0.832927  0.775159  0.838972  1
  H  H31  1  0.167073  0.275159  0.661028  1
  O  O32  1  0.485644  0.100646  0.380716  1
  O  O33  1  0.514356  0.600646  0.119284  1
  O  O34  1  0.514356  0.899354  0.619284  1
  O  O35  1  0.485644  0.399354  0.880716  1
  O  O36  1  0.564293  0.403968  0.138224  1
  O  O37  1  0.435707  0.903968  0.361776  1
  O  O38  1  0.435707  0.596032  0.861776  1
  O  O39  1  0.564293  0.096032  0.638224  1
  O  O40  1  0.431794  0.507898  0.338767  1
  O  O41  1  0.568206  0.007898  0.161233  1
  O  O42  1  0.568206  0.492102  0.661233  1
  O  O43  1  0.431794  0.992102  0.838767  1
  O  O44  1  0.179238  0.479536  0.125074  1
  O  O45  1  0.820762  0.979536  0.374926  1
  O  O46  1  0.820762  0.520464  0.874926  1
  O  O47  1  0.179238  0.020464  0.625074  1
  O  O48  1  0.348304  0.253009  0.023222  1
  O  O49  1  0.651696  0.753009  0.476778  1
  O  O50  1  0.651696  0.746991  0.976778  1
  O  O51  1  0.348304  0.246991  0.523222  1
  O  O52  1  0.761494  0.272385  0.996033  1
  O  O53  1  0.238506  0.772385  0.503967  1
  O  O54  1  0.238506  0.727615  0.003967  1
  O  O55  1  0.761494  0.227615  0.496033  1
  O  O56  1  0.944960  0.416128  0.382244  1
  O  O57  1  0.055040  0.916128  0.117756  1
  O  O58  1  0.055040  0.583872  0.617756  1
  O  O59  1  0.944960  0.083872  0.882244  1
  O  O60  1  0.051955  0.182902  0.202701  1
  O  O61  1  0.948045  0.682902  0.297299  1
  O  O62  1  0.948045  0.817098  0.797299  1
  O  O63  1  0.051955  0.317098  0.702701  1
