# generated using pymatgen
data_K4Mn(AsS4)2
_symmetry_space_group_name_H-M   'P 1'
_cell_length_a   9.36261179
_cell_length_b   8.73125560
_cell_length_c   21.91059738
_cell_angle_alpha   90.00000000
_cell_angle_beta   109.52053316
_cell_angle_gamma   90.00000000
_symmetry_Int_Tables_number   1
_chemical_formula_structural   K4Mn(AsS4)2
_chemical_formula_sum   'K16 Mn4 As8 S32'
_cell_volume   1688.18229956
_cell_formula_units_Z   4
loop_
 _symmetry_equiv_pos_site_id
 _symmetry_equiv_pos_as_xyz
  1  'x, y, z'
loop_
 _atom_site_type_symbol
 _atom_site_label
 _atom_site_symmetry_multiplicity
 _atom_site_fract_x
 _atom_site_fract_y
 _atom_site_fract_z
 _atom_site_occupancy
  K  K0  1  0.500000  0.880773  0.750000  1
  K  K1  1  0.973721  0.613779  0.864943  1
  K  K2  1  0.202554  0.895141  0.334662  1
  K  K3  1  0.229524  0.884080  0.516595  1
  K  K4  1  0.500000  0.591729  0.250000  1
  K  K5  1  0.500000  0.119227  0.250000  1
  K  K6  1  0.797446  0.104859  0.665338  1
  K  K7  1  0.026279  0.613779  0.635057  1
  K  K8  1  0.770476  0.884080  0.983405  1
  K  K9  1  0.770476  0.115920  0.483405  1
  K  K10  1  0.500000  0.408271  0.750000  1
  K  K11  1  0.202554  0.104859  0.834662  1
  K  K12  1  0.026279  0.386221  0.135057  1
  K  K13  1  0.973721  0.386221  0.364943  1
  K  K14  1  0.229524  0.115920  0.016595  1
  K  K15  1  0.797446  0.895141  0.165338  1
  Mn  Mn16  1  0.373353  0.370814  0.542202  1
  Mn  Mn17  1  0.373353  0.629186  0.042202  1
  Mn  Mn18  1  0.626647  0.370814  0.957798  1
  Mn  Mn19  1  0.626647  0.629186  0.457798  1
  As  As20  1  0.615340  0.663998  0.611754  1
  As  As21  1  0.824523  0.192124  0.875429  1
  As  As22  1  0.175477  0.192124  0.624571  1
  As  As23  1  0.384660  0.663998  0.888246  1
  As  As24  1  0.824523  0.807876  0.375429  1
  As  As25  1  0.175477  0.807876  0.124571  1
  As  As26  1  0.384660  0.336002  0.388246  1
  As  As27  1  0.615340  0.336002  0.111754  1
  S  S28  1  0.152288  0.305255  0.708820  1
  S  S29  1  0.584540  0.152716  0.867979  1
  S  S30  1  0.902501  0.344205  0.960846  1
  S  S31  1  0.097499  0.344205  0.539154  1
  S  S32  1  0.595082  0.166419  0.035419  1
  S  S33  1  0.771714  0.262240  0.204205  1
  S  S34  1  0.097499  0.655795  0.039154  1
  S  S35  1  0.415460  0.847284  0.132021  1
  S  S36  1  0.415460  0.152716  0.632021  1
  S  S37  1  0.404918  0.166419  0.464581  1
  S  S38  1  0.323777  0.453543  0.930679  1
  S  S39  1  0.228286  0.737760  0.795795  1
  S  S40  1  0.676223  0.546457  0.069321  1
  S  S41  1  0.228286  0.262240  0.295795  1
  S  S42  1  0.389970  0.606246  0.616110  1
  S  S43  1  0.152288  0.694745  0.208820  1
  S  S44  1  0.584540  0.847284  0.367979  1
  S  S45  1  0.953175  0.019767  0.391962  1
  S  S46  1  0.046825  0.019767  0.108038  1
  S  S47  1  0.389970  0.393754  0.116110  1
  S  S48  1  0.902501  0.655795  0.460846  1
  S  S49  1  0.771714  0.737760  0.704205  1
  S  S50  1  0.610030  0.606246  0.883890  1
  S  S51  1  0.595082  0.833581  0.535419  1
  S  S52  1  0.046825  0.980233  0.608038  1
  S  S53  1  0.676223  0.453543  0.569321  1
  S  S54  1  0.610030  0.393754  0.383890  1
  S  S55  1  0.847712  0.305255  0.791180  1
  S  S56  1  0.404918  0.833581  0.964581  1
  S  S57  1  0.847712  0.694745  0.291180  1
  S  S58  1  0.953175  0.980233  0.891962  1
  S  S59  1  0.323777  0.546457  0.430679  1
