# generated using pymatgen
data_Rb8Tl11
_symmetry_space_group_name_H-M   'P 1'
_cell_length_a   18.93183006
_cell_length_b   18.93183006
_cell_length_c   18.93183006
_cell_angle_alpha   32.49881294
_cell_angle_beta   32.49881294
_cell_angle_gamma   32.49881294
_symmetry_Int_Tables_number   1
_chemical_formula_structural   Rb8Tl11
_chemical_formula_sum   'Rb16 Tl22'
_cell_volume   1741.72861952
_cell_formula_units_Z   2
loop_
 _symmetry_equiv_pos_site_id
 _symmetry_equiv_pos_as_xyz
  1  'x, y, z'
loop_
 _atom_site_type_symbol
 _atom_site_label
 _atom_site_symmetry_multiplicity
 _atom_site_fract_x
 _atom_site_fract_y
 _atom_site_fract_z
 _atom_site_occupancy
  Rb  Rb0  1  0.675317  0.910915  0.347949  1
  Rb  Rb1  1  0.347949  0.675317  0.910915  1
  Rb  Rb2  1  0.910915  0.347949  0.675317  1
  Rb  Rb3  1  0.152051  0.589085  0.824683  1
  Rb  Rb4  1  0.824683  0.152051  0.589085  1
  Rb  Rb5  1  0.589085  0.824683  0.152051  1
  Rb  Rb6  1  0.324683  0.089085  0.652051  1
  Rb  Rb7  1  0.652051  0.324683  0.089085  1
  Rb  Rb8  1  0.089085  0.652051  0.324683  1
  Rb  Rb9  1  0.847949  0.410915  0.175317  1
  Rb  Rb10  1  0.175317  0.847949  0.410915  1
  Rb  Rb11  1  0.410915  0.175317  0.847949  1
  Rb  Rb12  1  0.921163  0.921163  0.921163  1
  Rb  Rb13  1  0.578837  0.578837  0.578837  1
  Rb  Rb14  1  0.078837  0.078837  0.078837  1
  Rb  Rb15  1  0.421163  0.421163  0.421163  1
  Tl  Tl16  1  0.272095  0.995933  0.573862  1
  Tl  Tl17  1  0.573862  0.272095  0.995933  1
  Tl  Tl18  1  0.995933  0.573862  0.272095  1
  Tl  Tl19  1  0.926138  0.504067  0.227905  1
  Tl  Tl20  1  0.227905  0.926138  0.504067  1
  Tl  Tl21  1  0.504067  0.227905  0.926138  1
  Tl  Tl22  1  0.727905  0.004067  0.426138  1
  Tl  Tl23  1  0.426138  0.727905  0.004067  1
  Tl  Tl24  1  0.004067  0.426138  0.727905  1
  Tl  Tl25  1  0.073862  0.495933  0.772095  1
  Tl  Tl26  1  0.772095  0.073862  0.495933  1
  Tl  Tl27  1  0.495933  0.772095  0.073862  1
  Tl  Tl28  1  0.961705  0.750000  0.538295  1
  Tl  Tl29  1  0.538295  0.961705  0.750000  1
  Tl  Tl30  1  0.750000  0.538295  0.961705  1
  Tl  Tl31  1  0.038295  0.250000  0.461705  1
  Tl  Tl32  1  0.461705  0.038295  0.250000  1
  Tl  Tl33  1  0.250000  0.461705  0.038295  1
  Tl  Tl34  1  0.800729  0.800729  0.800729  1
  Tl  Tl35  1  0.699271  0.699271  0.699271  1
  Tl  Tl36  1  0.199271  0.199271  0.199271  1
  Tl  Tl37  1  0.300729  0.300729  0.300729  1
