# generated using pymatgen
data_NiH12SO10
_symmetry_space_group_name_H-M   'P 1'
_cell_length_a   6.81737076
_cell_length_b   6.81737076
_cell_length_c   18.43761005
_cell_angle_alpha   90.00000000
_cell_angle_beta   90.00000000
_cell_angle_gamma   90.00000000
_symmetry_Int_Tables_number   1
_chemical_formula_structural   NiH12SO10
_chemical_formula_sum   'Ni4 H48 S4 O40'
_cell_volume   856.91639621
_cell_formula_units_Z   4
loop_
 _symmetry_equiv_pos_site_id
 _symmetry_equiv_pos_as_xyz
  1  'x, y, z'
loop_
 _atom_site_type_symbol
 _atom_site_label
 _atom_site_symmetry_multiplicity
 _atom_site_fract_x
 _atom_site_fract_y
 _atom_site_fract_z
 _atom_site_occupancy
  Ni  Ni0  1  0.288265  0.711735  0.250000  1
  Ni  Ni1  1  0.788265  0.788265  0.500000  1
  Ni  Ni2  1  0.711735  0.288265  0.750000  1
  Ni  Ni3  1  0.211735  0.211735  0.000000  1
  H  H4  1  0.428222  0.855395  0.544280  1
  H  H5  1  0.144605  0.571778  0.955720  1
  H  H6  1  0.507316  0.968848  0.183355  1
  H  H7  1  0.578205  0.648950  0.708344  1
  H  H8  1  0.648950  0.578205  0.291656  1
  H  H9  1  0.725826  0.013093  0.382477  1
  H  H10  1  0.582395  0.754750  0.345997  1
  H  H11  1  0.225826  0.486907  0.367523  1
  H  H12  1  0.071778  0.355395  0.705720  1
  H  H13  1  0.536300  0.376057  0.058401  1
  H  H14  1  0.417605  0.245250  0.845997  1
  H  H15  1  0.031152  0.492684  0.316645  1
  H  H16  1  0.774174  0.513093  0.867523  1
  H  H17  1  0.486907  0.225826  0.632477  1
  H  H18  1  0.082395  0.745250  0.404003  1
  H  H19  1  0.531152  0.007316  0.433355  1
  H  H20  1  0.007316  0.531152  0.566645  1
  H  H21  1  0.254750  0.917605  0.095997  1
  H  H22  1  0.963700  0.876057  0.191599  1
  H  H23  1  0.148950  0.921795  0.458344  1
  H  H24  1  0.571778  0.144605  0.044280  1
  H  H25  1  0.463700  0.623943  0.558401  1
  H  H26  1  0.351050  0.421795  0.791656  1
  H  H27  1  0.513093  0.774174  0.132477  1
  H  H28  1  0.013093  0.725826  0.617523  1
  H  H29  1  0.928222  0.644605  0.205720  1
  H  H30  1  0.745250  0.082395  0.595997  1
  H  H31  1  0.851050  0.078205  0.958344  1
  H  H32  1  0.376057  0.536300  0.941599  1
  H  H33  1  0.623943  0.463700  0.441599  1
  H  H34  1  0.355395  0.071778  0.294280  1
  H  H35  1  0.036300  0.123943  0.691599  1
  H  H36  1  0.492684  0.031152  0.683355  1
  H  H37  1  0.274174  0.986907  0.882477  1
  H  H38  1  0.421795  0.351050  0.208344  1
  H  H39  1  0.855395  0.428222  0.455720  1
  H  H40  1  0.968848  0.507316  0.816645  1
  H  H41  1  0.468848  0.992684  0.933355  1
  H  H42  1  0.876057  0.963700  0.808401  1
  H  H43  1  0.245250  0.417605  0.154003  1
  H  H44  1  0.123943  0.036300  0.308401  1
  H  H45  1  0.644605  0.928222  0.794280  1
  H  H46  1  0.754750  0.582395  0.654003  1
  H  H47  1  0.986907  0.274174  0.117523  1
  H  H48  1  0.921795  0.148950  0.541656  1
  H  H49  1  0.917605  0.254750  0.904003  1
  H  H50  1  0.078205  0.851050  0.041656  1
  H  H51  1  0.992684  0.468848  0.066645  1
  S  S52  1  0.707901  0.707901  0.000000  1
  S  S53  1  0.292099  0.292099  0.500000  1
  S  S54  1  0.207901  0.792099  0.750000  1
  S  S55  1  0.792099  0.207901  0.250000  1
  O  O56  1  0.255414  0.973479  0.306752  1
  O  O57  1  0.859432  0.428087  0.836487  1
  O  O58  1  0.179283  0.951287  0.051875  1
  O  O59  1  0.888636  0.125747  0.184004  1
  O  O60  1  0.140568  0.571913  0.336487  1
  O  O61  1  0.171792  0.575521  0.754770  1
  O  O62  1  0.428087  0.859432  0.163513  1
  O  O63  1  0.374253  0.388636  0.434004  1
  O  O64  1  0.424479  0.828208  0.745230  1
  O  O65  1  0.625747  0.611364  0.934004  1
  O  O66  1  0.526521  0.755414  0.556752  1
  O  O67  1  0.473479  0.244586  0.056752  1
  O  O68  1  0.671792  0.924479  0.995230  1
  O  O69  1  0.951287  0.179283  0.948125  1
  O  O70  1  0.755414  0.526521  0.443248  1
  O  O71  1  0.611364  0.625747  0.065996  1
  O  O72  1  0.075521  0.328208  0.504770  1
  O  O73  1  0.575521  0.171792  0.245230  1
  O  O74  1  0.048713  0.820717  0.448125  1
  O  O75  1  0.320717  0.451287  0.198125  1
  O  O76  1  0.026521  0.744586  0.193248  1
  O  O77  1  0.640568  0.928087  0.413513  1
  O  O78  1  0.973479  0.255414  0.693248  1
  O  O79  1  0.874253  0.111364  0.315996  1
  O  O80  1  0.359432  0.071913  0.913513  1
  O  O81  1  0.244586  0.473479  0.943248  1
  O  O82  1  0.125747  0.888636  0.815996  1
  O  O83  1  0.924479  0.671792  0.004770  1
  O  O84  1  0.744586  0.026521  0.806752  1
  O  O85  1  0.111364  0.874253  0.684004  1
  O  O86  1  0.571913  0.140568  0.663513  1
  O  O87  1  0.548713  0.679283  0.301875  1
  O  O88  1  0.388636  0.374253  0.565996  1
  O  O89  1  0.828208  0.424479  0.254770  1
  O  O90  1  0.928087  0.640568  0.586487  1
  O  O91  1  0.820717  0.048713  0.551875  1
  O  O92  1  0.451287  0.320717  0.801875  1
  O  O93  1  0.328208  0.075521  0.495230  1
  O  O94  1  0.679283  0.548713  0.698125  1
  O  O95  1  0.071913  0.359432  0.086487  1
