# generated using pymatgen
data_Bi2O3
_symmetry_space_group_name_H-M   'P 1'
_cell_length_a   5.25405129
_cell_length_b   5.72459972
_cell_length_c   12.81170353
_cell_angle_alpha   90.00000000
_cell_angle_beta   90.00000000
_cell_angle_gamma   90.00000000
_symmetry_Int_Tables_number   1
_chemical_formula_structural   Bi2O3
_chemical_formula_sum   'Bi8 O12'
_cell_volume   385.34197002
_cell_formula_units_Z   4
loop_
 _symmetry_equiv_pos_site_id
 _symmetry_equiv_pos_as_xyz
  1  'x, y, z'
loop_
 _atom_site_type_symbol
 _atom_site_label
 _atom_site_symmetry_multiplicity
 _atom_site_fract_x
 _atom_site_fract_y
 _atom_site_fract_z
 _atom_site_occupancy
  Bi  Bi0  1  0.950571  0.320463  0.625312  1
  Bi  Bi1  1  0.549429  0.820463  0.625312  1
  Bi  Bi2  1  0.450571  0.679537  0.125312  1
  Bi  Bi3  1  0.450571  0.179537  0.374688  1
  Bi  Bi4  1  0.950571  0.820463  0.874688  1
  Bi  Bi5  1  0.549429  0.320463  0.874688  1
  Bi  Bi6  1  0.049429  0.179537  0.125312  1
  Bi  Bi7  1  0.049429  0.679537  0.374688  1
  O  O8  1  0.381107  0.330157  0.056699  1
  O  O9  1  0.118893  0.830157  0.056699  1
  O  O10  1  0.250000  0.481959  0.250000  1
  O  O11  1  0.750000  0.518041  0.750000  1
  O  O12  1  0.750000  0.018041  0.750000  1
  O  O13  1  0.118893  0.330157  0.443301  1
  O  O14  1  0.381107  0.830157  0.443301  1
  O  O15  1  0.881107  0.169843  0.943301  1
  O  O16  1  0.618893  0.669843  0.943301  1
  O  O17  1  0.618893  0.169843  0.556699  1
  O  O18  1  0.881107  0.669843  0.556699  1
  O  O19  1  0.250000  0.981959  0.250000  1
