# generated using pymatgen
data_K9Bi5O13
_symmetry_space_group_name_H-M   'P 1'
_cell_length_a   15.37680236
_cell_length_b   5.82338744
_cell_length_c   27.33690078
_cell_angle_alpha   90.00000000
_cell_angle_beta   111.03107337
_cell_angle_gamma   90.00000000
_symmetry_Int_Tables_number   1
_chemical_formula_structural   K9Bi5O13
_chemical_formula_sum   'K36 Bi20 O52'
_cell_volume   2284.82134078
_cell_formula_units_Z   4
loop_
 _symmetry_equiv_pos_site_id
 _symmetry_equiv_pos_as_xyz
  1  'x, y, z'
loop_
 _atom_site_type_symbol
 _atom_site_label
 _atom_site_symmetry_multiplicity
 _atom_site_fract_x
 _atom_site_fract_y
 _atom_site_fract_z
 _atom_site_occupancy
  K  K0  1  0.474503  0.259384  0.300406  1
  K  K1  1  0.525497  0.740616  0.699594  1
  K  K2  1  0.877658  0.763899  0.302257  1
  K  K3  1  0.122342  0.263899  0.197743  1
  K  K4  1  0.558857  0.268533  0.614210  1
  K  K5  1  0.232302  0.749366  0.918849  1
  K  K6  1  0.558857  0.231467  0.114210  1
  K  K7  1  0.642075  0.245039  0.439503  1
  K  K8  1  0.171272  0.813610  0.100170  1
  K  K9  1  0.194074  0.255873  0.497402  1
  K  K10  1  0.297707  0.750440  0.240433  1
  K  K11  1  0.702293  0.249560  0.759567  1
  K  K12  1  0.171272  0.686390  0.600170  1
  K  K13  1  0.911345  0.254222  0.718304  1
  K  K14  1  0.357925  0.754961  0.560497  1
  K  K15  1  0.767698  0.249366  0.581151  1
  K  K16  1  0.828728  0.186390  0.899830  1
  K  K17  1  0.194074  0.244127  0.997402  1
  K  K18  1  0.088655  0.754222  0.781696  1
  K  K19  1  0.357925  0.745039  0.060497  1
  K  K20  1  0.805926  0.744127  0.502598  1
  K  K21  1  0.441143  0.731467  0.385790  1
  K  K22  1  0.441143  0.768533  0.885790  1
  K  K23  1  0.877658  0.736101  0.802257  1
  K  K24  1  0.525497  0.759384  0.199594  1
  K  K25  1  0.767698  0.250634  0.081151  1
  K  K26  1  0.805926  0.755873  0.002598  1
  K  K27  1  0.642075  0.254961  0.939503  1
  K  K28  1  0.702293  0.250440  0.259567  1
  K  K29  1  0.232302  0.750634  0.418849  1
  K  K30  1  0.828728  0.313610  0.399830  1
  K  K31  1  0.911345  0.245778  0.218304  1
  K  K32  1  0.122342  0.236101  0.697743  1
  K  K33  1  0.474503  0.240616  0.800406  1
  K  K34  1  0.088655  0.745778  0.281696  1
  K  K35  1  0.297707  0.749560  0.740433  1
  Bi  Bi36  1  0.422907  0.278928  0.968815  1
  Bi  Bi37  1  0.363263  0.297178  0.162671  1
  Bi  Bi38  1  0.738745  0.742735  0.661207  1
  Bi  Bi39  1  0.039375  0.238509  0.364599  1
  Bi  Bi40  1  0.636737  0.702822  0.837329  1
  Bi  Bi41  1  0.039375  0.261491  0.864599  1
  Bi  Bi42  1  0.422907  0.221072  0.468815  1
  Bi  Bi43  1  0.024850  0.701322  0.958714  1
  Bi  Bi44  1  0.738745  0.757265  0.161207  1
  Bi  Bi45  1  0.975150  0.201322  0.541286  1
  Bi  Bi46  1  0.975150  0.298678  0.041286  1
  Bi  Bi47  1  0.636737  0.797178  0.337329  1
  Bi  Bi48  1  0.024850  0.798678  0.458714  1
  Bi  Bi49  1  0.960625  0.761491  0.635401  1
  Bi  Bi50  1  0.960625  0.738509  0.135401  1
  Bi  Bi51  1  0.261255  0.242735  0.838793  1
  Bi  Bi52  1  0.261255  0.257265  0.338793  1
  Bi  Bi53  1  0.577093  0.778928  0.531185  1
  Bi  Bi54  1  0.363263  0.202822  0.662671  1
  Bi  Bi55  1  0.577093  0.721072  0.031185  1
  O  O56  1  0.897279  0.768953  0.696892  1
  O  O57  1  0.503708  0.244336  0.199055  1
  O  O58  1  0.700390  0.799544  0.786498  1
  O  O59  1  0.443534  0.269528  0.897083  1
  O  O60  1  0.503708  0.255664  0.699055  1
  O  O61  1  0.318299  0.161356  0.089163  1
  O  O62  1  0.042986  0.875534  0.376627  1
  O  O63  1  0.318299  0.338644  0.589163  1
  O  O64  1  0.008503  0.336854  0.962251  1
  O  O65  1  0.342436  0.857030  0.653941  1
  O  O66  1  0.099897  0.764180  0.184852  1
  O  O67  1  0.099897  0.735820  0.684852  1
  O  O68  1  0.263555  0.243348  0.417529  1
  O  O69  1  0.736445  0.756652  0.582471  1
  O  O70  1  0.342436  0.642970  0.153941  1
  O  O71  1  0.700390  0.700456  0.286498  1
  O  O72  1  0.833494  0.262961  0.000595  1
  O  O73  1  0.102721  0.268953  0.803108  1
  O  O74  1  0.496292  0.744336  0.300945  1
  O  O75  1  0.299610  0.299544  0.713502  1
  O  O76  1  0.265849  0.891945  0.829591  1
  O  O77  1  0.957014  0.124466  0.623373  1
  O  O78  1  0.833494  0.237039  0.500595  1
  O  O79  1  0.584296  0.139103  0.521100  1
  O  O80  1  0.166506  0.762961  0.499405  1
  O  O81  1  0.299610  0.200456  0.213502  1
  O  O82  1  0.265849  0.608055  0.329591  1
  O  O83  1  0.657564  0.142970  0.346059  1
  O  O84  1  0.991497  0.663146  0.037749  1
  O  O85  1  0.681701  0.661356  0.410837  1
  O  O86  1  0.657564  0.357030  0.846059  1
  O  O87  1  0.681701  0.838644  0.910837  1
  O  O88  1  0.900103  0.264180  0.315148  1
  O  O89  1  0.736445  0.743348  0.082471  1
  O  O90  1  0.900103  0.235820  0.815148  1
  O  O91  1  0.991497  0.836854  0.537749  1
  O  O92  1  0.042986  0.624466  0.876627  1
  O  O93  1  0.734151  0.391945  0.670409  1
  O  O94  1  0.584296  0.360897  0.021100  1
  O  O95  1  0.443534  0.230472  0.397083  1
  O  O96  1  0.263555  0.256652  0.917529  1
  O  O97  1  0.957014  0.375534  0.123373  1
  O  O98  1  0.556466  0.730472  0.102917  1
  O  O99  1  0.897279  0.731047  0.196892  1
  O  O100  1  0.415704  0.860897  0.478900  1
  O  O101  1  0.496292  0.755664  0.800945  1
  O  O102  1  0.166506  0.737039  0.999405  1
  O  O103  1  0.556466  0.769528  0.602917  1
  O  O104  1  0.415704  0.639103  0.978900  1
  O  O105  1  0.734151  0.108055  0.170409  1
  O  O106  1  0.008503  0.163146  0.462251  1
  O  O107  1  0.102721  0.231047  0.303108  1
