# generated using pymatgen
data_Li6Tb2O7
_symmetry_space_group_name_H-M   'P 1'
_cell_length_a   5.61590389
_cell_length_b   6.27073091
_cell_length_c   10.85053323
_cell_angle_alpha   90.00000000
_cell_angle_beta   109.50438082
_cell_angle_gamma   90.00000000
_symmetry_Int_Tables_number   1
_chemical_formula_structural   Li6Tb2O7
_chemical_formula_sum   'Li12 Tb4 O14'
_cell_volume   360.18340879
_cell_formula_units_Z   2
loop_
 _symmetry_equiv_pos_site_id
 _symmetry_equiv_pos_as_xyz
  1  'x, y, z'
loop_
 _atom_site_type_symbol
 _atom_site_label
 _atom_site_symmetry_multiplicity
 _atom_site_fract_x
 _atom_site_fract_y
 _atom_site_fract_z
 _atom_site_occupancy
  Li  Li0  1  0.155523  0.009154  0.614790  1
  Li  Li1  1  0.221223  0.743638  0.365779  1
  Li  Li2  1  0.844477  0.509154  0.885210  1
  Li  Li3  1  0.197947  0.210183  0.850450  1
  Li  Li4  1  0.221223  0.756362  0.865779  1
  Li  Li5  1  0.778777  0.256362  0.634221  1
  Li  Li6  1  0.802053  0.710183  0.649550  1
  Li  Li7  1  0.197947  0.289817  0.350450  1
  Li  Li8  1  0.802053  0.789817  0.149550  1
  Li  Li9  1  0.844477  0.990846  0.385210  1
  Li  Li10  1  0.778777  0.243638  0.134221  1
  Li  Li11  1  0.155523  0.490846  0.114790  1
  Tb  Tb12  1  0.724422  0.987809  0.866591  1
  Tb  Tb13  1  0.275578  0.487809  0.633409  1
  Tb  Tb14  1  0.724422  0.512191  0.366591  1
  Tb  Tb15  1  0.275578  0.012191  0.133409  1
  O  O16  1  0.976912  0.247256  0.994872  1
  O  O17  1  0.023088  0.747256  0.505128  1
  O  O18  1  0.454555  0.318426  0.213909  1
  O  O19  1  0.545445  0.818426  0.286091  1
  O  O20  1  0.970805  0.518947  0.241545  1
  O  O21  1  0.023088  0.752744  0.005128  1
  O  O22  1  0.970805  0.981053  0.741545  1
  O  O23  1  0.545445  0.681574  0.786091  1
  O  O24  1  0.029195  0.481053  0.758455  1
  O  O25  1  0.500000  0.000000  0.000000  1
  O  O26  1  0.976912  0.252744  0.494872  1
  O  O27  1  0.454555  0.181574  0.713909  1
  O  O28  1  0.029195  0.018947  0.258455  1
  O  O29  1  0.500000  0.500000  0.500000  1
