# generated using pymatgen
data_Mg3Hg
_symmetry_space_group_name_H-M   'P 1'
_cell_length_a   10.16151756
_cell_length_b   10.16151756
_cell_length_c   10.16151756
_cell_angle_alpha   48.35700556
_cell_angle_beta   48.35700556
_cell_angle_gamma   48.35700556
_symmetry_Int_Tables_number   1
_chemical_formula_structural   Mg3Hg
_chemical_formula_sum   'Mg18 Hg6'
_cell_volume   537.23858970
_cell_formula_units_Z   6
loop_
 _symmetry_equiv_pos_site_id
 _symmetry_equiv_pos_as_xyz
  1  'x, y, z'
loop_
 _atom_site_type_symbol
 _atom_site_label
 _atom_site_symmetry_multiplicity
 _atom_site_fract_x
 _atom_site_fract_y
 _atom_site_fract_z
 _atom_site_occupancy
  Mg  Mg0  1  0.672789  0.240384  0.918102  1
  Mg  Mg1  1  0.137060  0.137060  0.137060  1
  Mg  Mg2  1  0.229318  0.480542  0.962310  1
  Mg  Mg3  1  0.557119  0.557119  0.557119  1
  Mg  Mg4  1  0.240384  0.918102  0.672789  1
  Mg  Mg5  1  0.327211  0.081898  0.759616  1
  Mg  Mg6  1  0.037690  0.519458  0.770682  1
  Mg  Mg7  1  0.962310  0.229318  0.480542  1
  Mg  Mg8  1  0.480542  0.962310  0.229318  1
  Mg  Mg9  1  0.318835  0.318835  0.318835  1
  Mg  Mg10  1  0.918102  0.672789  0.240384  1
  Mg  Mg11  1  0.081898  0.759616  0.327211  1
  Mg  Mg12  1  0.862940  0.862940  0.862940  1
  Mg  Mg13  1  0.519458  0.770682  0.037690  1
  Mg  Mg14  1  0.442881  0.442881  0.442881  1
  Mg  Mg15  1  0.770682  0.037690  0.519458  1
  Mg  Mg16  1  0.759616  0.327211  0.081898  1
  Mg  Mg17  1  0.681165  0.681165  0.681165  1
  Hg  Hg18  1  0.818336  0.500000  0.181664  1
  Hg  Hg19  1  0.000000  0.326180  0.673820  1
  Hg  Hg20  1  0.673820  0.000000  0.326180  1
  Hg  Hg21  1  0.326180  0.673820  0.000000  1
  Hg  Hg22  1  0.500000  0.181664  0.818336  1
  Hg  Hg23  1  0.181664  0.818336  0.500000  1
