# generated using pymatgen
data_Tb2SnS5
_symmetry_space_group_name_H-M   'P 1'
_cell_length_a   3.83127263
_cell_length_b   7.76756204
_cell_length_c   11.37605679
_cell_angle_alpha   90.00000000
_cell_angle_beta   90.00000000
_cell_angle_gamma   90.00000000
_symmetry_Int_Tables_number   1
_chemical_formula_structural   Tb2SnS5
_chemical_formula_sum   'Tb4 Sn2 S10'
_cell_volume   338.54744394
_cell_formula_units_Z   2
loop_
 _symmetry_equiv_pos_site_id
 _symmetry_equiv_pos_as_xyz
  1  'x, y, z'
loop_
 _atom_site_type_symbol
 _atom_site_label
 _atom_site_symmetry_multiplicity
 _atom_site_fract_x
 _atom_site_fract_y
 _atom_site_fract_z
 _atom_site_occupancy
  Tb  Tb0  1  0.500000  0.968159  0.327335  1
  Tb  Tb1  1  0.500000  0.468159  0.172665  1
  Tb  Tb2  1  0.500000  0.531841  0.827335  1
  Tb  Tb3  1  0.500000  0.031841  0.672665  1
  Sn  Sn4  1  0.000000  0.500000  0.500000  1
  Sn  Sn5  1  0.000000  0.000000  0.000000  1
  S  S6  1  0.500000  0.671631  0.596367  1
  S  S7  1  0.000000  0.174890  0.196087  1
  S  S8  1  0.500000  0.171631  0.903633  1
  S  S9  1  0.000000  0.000000  0.500000  1
  S  S10  1  0.500000  0.828369  0.096367  1
  S  S11  1  0.000000  0.674890  0.303913  1
  S  S12  1  0.000000  0.325110  0.696087  1
  S  S13  1  0.000000  0.825110  0.803913  1
  S  S14  1  0.500000  0.328369  0.403633  1
  S  S15  1  0.000000  0.500000  0.000000  1
