# generated using pymatgen
data_In4Br7
_symmetry_space_group_name_H-M   'P 1'
_cell_length_a   16.50297527
_cell_length_b   16.50297527
_cell_length_c   16.50297527
_cell_angle_alpha   27.39884713
_cell_angle_beta   27.39884713
_cell_angle_gamma   27.39884713
_symmetry_Int_Tables_number   1
_chemical_formula_structural   In4Br7
_chemical_formula_sum   'In8 Br14'
_cell_volume   839.97526095
_cell_formula_units_Z   2
loop_
 _symmetry_equiv_pos_site_id
 _symmetry_equiv_pos_as_xyz
  1  'x, y, z'
loop_
 _atom_site_type_symbol
 _atom_site_label
 _atom_site_symmetry_multiplicity
 _atom_site_fract_x
 _atom_site_fract_y
 _atom_site_fract_z
 _atom_site_occupancy
  In  In0  1  0.848942  0.848942  0.848942  1
  In  In1  1  0.291840  0.291840  0.291840  1
  In  In2  1  0.582936  0.582936  0.582936  1
  In  In3  1  0.500000  0.500000  0.500000  1
  In  In4  1  0.417064  0.417064  0.417064  1
  In  In5  1  0.708160  0.708160  0.708160  1
  In  In6  1  0.000000  0.000000  0.000000  1
  In  In7  1  0.151058  0.151058  0.151058  1
  Br  Br8  1  0.860874  0.369028  0.369028  1
  Br  Br9  1  0.903056  0.903056  0.372306  1
  Br  Br10  1  0.903056  0.372306  0.903056  1
  Br  Br11  1  0.630972  0.139126  0.630972  1
  Br  Br12  1  0.627694  0.096944  0.096944  1
  Br  Br13  1  0.369028  0.369028  0.860874  1
  Br  Br14  1  0.369028  0.860874  0.369028  1
  Br  Br15  1  0.096944  0.096944  0.627694  1
  Br  Br16  1  0.345251  0.345251  0.345251  1
  Br  Br17  1  0.372306  0.903056  0.903056  1
  Br  Br18  1  0.096944  0.627694  0.096944  1
  Br  Br19  1  0.139126  0.630972  0.630972  1
  Br  Br20  1  0.654749  0.654749  0.654749  1
  Br  Br21  1  0.630972  0.630972  0.139126  1
