# generated using pymatgen
data_LiCr3O8
_symmetry_space_group_name_H-M   'P 1'
_cell_length_a   5.06578474
_cell_length_b   5.06578474
_cell_length_c   6.43829895
_cell_angle_alpha   88.95430962
_cell_angle_beta   91.04569038
_cell_angle_gamma   113.74710026
_symmetry_Int_Tables_number   1
_chemical_formula_structural   LiCr3O8
_chemical_formula_sum   'Li1 Cr3 O8'
_cell_volume   151.19590818
_cell_formula_units_Z   1
loop_
 _symmetry_equiv_pos_site_id
 _symmetry_equiv_pos_as_xyz
  1  'x, y, z'
loop_
 _atom_site_type_symbol
 _atom_site_label
 _atom_site_symmetry_multiplicity
 _atom_site_fract_x
 _atom_site_fract_y
 _atom_site_fract_z
 _atom_site_occupancy
  Li  Li0  1  0.000000  0.000000  0.000000  1
  Cr  Cr1  1  0.355963  0.644037  0.259778  1
  Cr  Cr2  1  0.644037  0.355963  0.740222  1
  Cr  Cr3  1  0.000000  1.000000  0.500000  1
  O  O4  1  0.257440  0.742560  0.043435  1
  O  O5  1  0.742560  0.257440  0.956565  1
  O  O6  1  0.215958  0.275662  0.272087  1
  O  O7  1  0.784042  0.724338  0.727913  1
  O  O8  1  0.231114  0.768886  0.454434  1
  O  O9  1  0.724338  0.784042  0.272087  1
  O  O10  1  0.768886  0.231114  0.545566  1
  O  O11  1  0.275662  0.215958  0.727913  1
