# generated using pymatgen
data_CuBiTeO
_symmetry_space_group_name_H-M   'P 1'
_cell_length_a   4.06110762
_cell_length_b   4.06110762
_cell_length_c   9.62390979
_cell_angle_alpha   90.00000000
_cell_angle_beta   90.00000000
_cell_angle_gamma   90.00000000
_symmetry_Int_Tables_number   1
_chemical_formula_structural   CuBiTeO
_chemical_formula_sum   'Cu2 Bi2 Te2 O2'
_cell_volume   158.72324746
_cell_formula_units_Z   2
loop_
 _symmetry_equiv_pos_site_id
 _symmetry_equiv_pos_as_xyz
  1  'x, y, z'
loop_
 _atom_site_type_symbol
 _atom_site_label
 _atom_site_symmetry_multiplicity
 _atom_site_fract_x
 _atom_site_fract_y
 _atom_site_fract_z
 _atom_site_occupancy
  Cu  Cu0  1  0.000000  0.000000  0.500000  1
  Cu  Cu1  1  0.500000  0.500000  0.500000  1
  Bi  Bi2  1  0.000000  0.500000  0.872736  1
  Bi  Bi3  1  0.500000  0.000000  0.127264  1
  Te  Te4  1  0.000000  0.500000  0.319563  1
  Te  Te5  1  0.500000  0.000000  0.680437  1
  O  O6  1  0.000000  0.000000  0.000000  1
  O  O7  1  0.500000  0.500000  0.000000  1
