# generated using pymatgen
data_LaH4S2NO8
_symmetry_space_group_name_H-M   'P 1'
_cell_length_a   7.17009613
_cell_length_b   5.54970833
_cell_length_c   9.35530956
_cell_angle_alpha   90.00000000
_cell_angle_beta   98.54874948
_cell_angle_gamma   90.00000000
_symmetry_Int_Tables_number   1
_chemical_formula_structural   LaH4S2NO8
_chemical_formula_sum   'La2 H8 S4 N2 O16'
_cell_volume   368.12996760
_cell_formula_units_Z   2
loop_
 _symmetry_equiv_pos_site_id
 _symmetry_equiv_pos_as_xyz
  1  'x, y, z'
loop_
 _atom_site_type_symbol
 _atom_site_label
 _atom_site_symmetry_multiplicity
 _atom_site_fract_x
 _atom_site_fract_y
 _atom_site_fract_z
 _atom_site_occupancy
  La  La0  1  0.197845  0.750000  0.276099  1
  La  La1  1  0.802155  0.250000  0.723901  1
  H  H2  1  0.169972  0.750000  0.802594  1
  H  H3  1  0.376249  0.899632  0.853460  1
  H  H4  1  0.830028  0.250000  0.197406  1
  H  H5  1  0.657298  0.250000  0.304153  1
  H  H6  1  0.623751  0.100368  0.146540  1
  H  H7  1  0.623751  0.399632  0.146540  1
  H  H8  1  0.376249  0.600368  0.853460  1
  H  H9  1  0.342702  0.750000  0.695847  1
  S  S10  1  0.723878  0.750000  0.434079  1
  S  S11  1  0.811295  0.750000  0.926829  1
  S  S12  1  0.188705  0.250000  0.073171  1
  S  S13  1  0.276122  0.250000  0.565921  1
  N  N14  1  0.684619  0.250000  0.199358  1
  N  N15  1  0.315381  0.750000  0.800642  1
  O  O16  1  0.065612  0.250000  0.932458  1
  O  O17  1  0.099828  0.250000  0.631538  1
  O  O18  1  0.559520  0.750000  0.316287  1
  O  O19  1  0.281817  0.029389  0.476684  1
  O  O20  1  0.689895  0.529586  0.912477  1
  O  O21  1  0.900172  0.750000  0.368462  1
  O  O22  1  0.718183  0.970611  0.523316  1
  O  O23  1  0.922544  0.750000  0.802456  1
  O  O24  1  0.310105  0.029586  0.087523  1
  O  O25  1  0.281817  0.470611  0.476684  1
  O  O26  1  0.934388  0.750000  0.067542  1
  O  O27  1  0.440480  0.250000  0.683713  1
  O  O28  1  0.718183  0.529389  0.523316  1
  O  O29  1  0.310105  0.470414  0.087523  1
  O  O30  1  0.077456  0.250000  0.197544  1
  O  O31  1  0.689895  0.970414  0.912477  1
