# generated using pymatgen
data_GaTe
_symmetry_space_group_name_H-M   'P 1'
_cell_length_a   9.34643378
_cell_length_b   9.34643378
_cell_length_c   10.82410382
_cell_angle_alpha   73.94892765
_cell_angle_beta   106.05107235
_cell_angle_gamma   154.34467697
_symmetry_Int_Tables_number   1
_chemical_formula_structural   GaTe
_chemical_formula_sum   'Ga6 Te6'
_cell_volume   392.57657566
_cell_formula_units_Z   6
loop_
 _symmetry_equiv_pos_site_id
 _symmetry_equiv_pos_as_xyz
  1  'x, y, z'
loop_
 _atom_site_type_symbol
 _atom_site_label
 _atom_site_symmetry_multiplicity
 _atom_site_fract_x
 _atom_site_fract_y
 _atom_site_fract_z
 _atom_site_occupancy
  Ga  Ga0  1  0.860982  0.139018  0.584001  1
  Ga  Ga1  1  0.139018  0.860982  0.415999  1
  Ga  Ga2  1  0.761575  0.238425  0.697656  1
  Ga  Ga3  1  0.238425  0.761575  0.302344  1
  Ga  Ga4  1  0.436989  0.563011  0.917124  1
  Ga  Ga5  1  0.563011  0.436989  0.082876  1
  Te  Te6  1  0.846830  0.153170  0.945849  1
  Te  Te7  1  0.153170  0.846830  0.054151  1
  Te  Te8  1  0.836869  0.163131  0.327218  1
  Te  Te9  1  0.163131  0.836869  0.672782  1
  Te  Te10  1  0.456318  0.543682  0.676064  1
  Te  Te11  1  0.543682  0.456318  0.323936  1
