# generated using pymatgen
data_CrMoF6
_symmetry_space_group_name_H-M   'P 1'
_cell_length_a   5.58275577
_cell_length_b   5.58275577
_cell_length_c   5.58275577
_cell_angle_alpha   56.07302483
_cell_angle_beta   56.07302483
_cell_angle_gamma   56.07302483
_symmetry_Int_Tables_number   1
_chemical_formula_structural   CrMoF6
_chemical_formula_sum   'Cr1 Mo1 F6'
_cell_volume   111.84598256
_cell_formula_units_Z   1
loop_
 _symmetry_equiv_pos_site_id
 _symmetry_equiv_pos_as_xyz
  1  'x, y, z'
loop_
 _atom_site_type_symbol
 _atom_site_label
 _atom_site_symmetry_multiplicity
 _atom_site_fract_x
 _atom_site_fract_y
 _atom_site_fract_z
 _atom_site_occupancy
  Cr  Cr0  1  0.000000  0.000000  0.000000  1
  Mo  Mo1  1  0.500000  0.500000  0.500000  1
  F  F2  1  0.633588  0.237692  0.887903  1
  F  F3  1  0.366412  0.762308  0.112097  1
  F  F4  1  0.112097  0.366412  0.762308  1
  F  F5  1  0.887903  0.633588  0.237692  1
  F  F6  1  0.237692  0.887903  0.633588  1
  F  F7  1  0.762308  0.112097  0.366412  1
