# generated using pymatgen
data_RbMnBr3
_symmetry_space_group_name_H-M   'P 1'
_cell_length_a   13.18852841
_cell_length_b   13.18852841
_cell_length_c   6.60949519
_cell_angle_alpha   90.00000000
_cell_angle_beta   90.00000000
_cell_angle_gamma   120.00000000
_symmetry_Int_Tables_number   1
_chemical_formula_structural   RbMnBr3
_chemical_formula_sum   'Rb6 Mn6 Br18'
_cell_volume   995.61538979
_cell_formula_units_Z   6
loop_
 _symmetry_equiv_pos_site_id
 _symmetry_equiv_pos_as_xyz
  1  'x, y, z'
loop_
 _atom_site_type_symbol
 _atom_site_label
 _atom_site_symmetry_multiplicity
 _atom_site_fract_x
 _atom_site_fract_y
 _atom_site_fract_z
 _atom_site_occupancy
  Rb  Rb0  1  0.666467  0.666467  0.300572  1
  Rb  Rb1  1  0.000000  0.666467  0.800572  1
  Rb  Rb2  1  0.666467  0.000000  0.800572  1
  Rb  Rb3  1  0.333533  0.333533  0.800572  1
  Rb  Rb4  1  0.000000  0.333533  0.300572  1
  Rb  Rb5  1  0.333533  0.000000  0.300572  1
  Mn  Mn6  1  0.666667  0.333333  0.608702  1
  Mn  Mn7  1  0.333333  0.666667  0.608702  1
  Mn  Mn8  1  0.666667  0.333333  0.108702  1
  Mn  Mn9  1  0.333333  0.666667  0.108702  1
  Mn  Mn10  1  0.000000  0.000000  0.001635  1
  Mn  Mn11  1  0.000000  0.000000  0.501635  1
  Br  Br12  1  0.828315  0.333196  0.861254  1
  Br  Br13  1  0.837959  0.837959  0.749641  1
  Br  Br14  1  0.495119  0.828315  0.361254  1
  Br  Br15  1  0.171685  0.504881  0.861254  1
  Br  Br16  1  0.000000  0.837959  0.249641  1
  Br  Br17  1  0.504881  0.171685  0.861254  1
  Br  Br18  1  0.837959  0.000000  0.249641  1
  Br  Br19  1  0.495119  0.666804  0.861254  1
  Br  Br20  1  0.333196  0.828315  0.861254  1
  Br  Br21  1  0.171685  0.666804  0.361254  1
  Br  Br22  1  0.000000  0.162041  0.749641  1
  Br  Br23  1  0.666804  0.495119  0.861254  1
  Br  Br24  1  0.333196  0.504881  0.361254  1
  Br  Br25  1  0.828315  0.495119  0.361254  1
  Br  Br26  1  0.666804  0.171685  0.361254  1
  Br  Br27  1  0.162041  0.162041  0.249641  1
  Br  Br28  1  0.162041  0.000000  0.749641  1
  Br  Br29  1  0.504881  0.333196  0.361254  1
