# generated using pymatgen
data_LiYSn
_symmetry_space_group_name_H-M   'P 1'
_cell_length_a   9.37499579
_cell_length_b   9.37499579
_cell_length_c   7.35910589
_cell_angle_alpha   90.00000000
_cell_angle_beta   90.00000000
_cell_angle_gamma   120.00000000
_symmetry_Int_Tables_number   1
_chemical_formula_structural   LiYSn
_chemical_formula_sum   'Li8 Y8 Sn8'
_cell_volume   560.14162469
_cell_formula_units_Z   8
loop_
 _symmetry_equiv_pos_site_id
 _symmetry_equiv_pos_as_xyz
  1  'x, y, z'
loop_
 _atom_site_type_symbol
 _atom_site_label
 _atom_site_symmetry_multiplicity
 _atom_site_fract_x
 _atom_site_fract_y
 _atom_site_fract_z
 _atom_site_occupancy
  Li  Li0  1  0.167046  0.832954  0.188621  1
  Li  Li1  1  0.334091  0.167046  0.688621  1
  Li  Li2  1  0.832954  0.665909  0.688621  1
  Li  Li3  1  0.167046  0.334091  0.188621  1
  Li  Li4  1  0.665909  0.832954  0.188621  1
  Li  Li5  1  0.832954  0.167046  0.688621  1
  Li  Li6  1  0.333333  0.666667  0.816898  1
  Li  Li7  1  0.666667  0.333333  0.316898  1
  Y  Y8  1  0.513662  0.486338  0.991774  1
  Y  Y9  1  0.027324  0.513662  0.491774  1
  Y  Y10  1  0.486338  0.972676  0.491774  1
  Y  Y11  1  0.513662  0.027324  0.991774  1
  Y  Y12  1  0.972676  0.486338  0.991774  1
  Y  Y13  1  0.486338  0.513662  0.491774  1
  Y  Y14  1  0.000000  0.000000  0.986804  1
  Y  Y15  1  0.000000  0.000000  0.486804  1
  Sn  Sn16  1  0.166479  0.833521  0.759052  1
  Sn  Sn17  1  0.332957  0.166479  0.259052  1
  Sn  Sn18  1  0.833521  0.667043  0.259052  1
  Sn  Sn19  1  0.166479  0.332957  0.759052  1
  Sn  Sn20  1  0.667043  0.833521  0.759052  1
  Sn  Sn21  1  0.833521  0.166479  0.259052  1
  Sn  Sn22  1  0.333333  0.666667  0.222959  1
  Sn  Sn23  1  0.666667  0.333333  0.722959  1
