# generated using pymatgen
data_Fe5(SiO4)3
_symmetry_space_group_name_H-M   'P 1'
_cell_length_a   10.28442510
_cell_length_b   10.28442510
_cell_length_c   10.28442510
_cell_angle_alpha   109.47122063
_cell_angle_beta   109.47122063
_cell_angle_gamma   109.47122063
_symmetry_Int_Tables_number   1
_chemical_formula_structural   Fe5(SiO4)3
_chemical_formula_sum   'Fe20 Si12 O48'
_cell_volume   837.37148681
_cell_formula_units_Z   4
loop_
 _symmetry_equiv_pos_site_id
 _symmetry_equiv_pos_as_xyz
  1  'x, y, z'
loop_
 _atom_site_type_symbol
 _atom_site_label
 _atom_site_symmetry_multiplicity
 _atom_site_fract_x
 _atom_site_fract_y
 _atom_site_fract_z
 _atom_site_occupancy
  Fe  Fe0  1  1.000000  1.000000  0.500000  1
  Fe  Fe1  1  0.500000  0.500000  0.500000  1
  Fe  Fe2  1  0.125000  0.375000  0.750000  1
  Fe  Fe3  1  0.000000  0.000000  0.000000  1
  Fe  Fe4  1  1.000000  0.500000  1.000000  1
  Fe  Fe5  1  0.250000  0.875000  0.625000  1
  Fe  Fe6  1  0.500000  1.000000  1.000000  1
  Fe  Fe7  1  0.875000  0.750000  0.625000  1
  Fe  Fe8  1  0.750000  0.625000  0.875000  1
  Fe  Fe9  1  0.500000  1.000000  0.500000  1
  Fe  Fe10  1  0.500000  0.500000  0.000000  1
  Fe  Fe11  1  0.875000  0.625000  0.250000  1
  Fe  Fe12  1  0.625000  0.250000  0.875000  1
  Fe  Fe13  1  0.250000  0.375000  0.125000  1
  Fe  Fe14  1  0.625000  0.875000  0.750000  1
  Fe  Fe15  1  0.750000  0.125000  0.375000  1
  Fe  Fe16  1  1.000000  0.500000  0.500000  1
  Fe  Fe17  1  0.375000  0.750000  0.125000  1
  Fe  Fe18  1  0.375000  0.125000  0.250000  1
  Fe  Fe19  1  0.125000  0.250000  0.375000  1
  Si  Si20  1  0.125000  0.750000  0.875000  1
  Si  Si21  1  0.875000  0.125000  0.750000  1
  Si  Si22  1  0.625000  0.750000  0.375000  1
  Si  Si23  1  0.750000  0.375000  0.625000  1
  Si  Si24  1  0.250000  0.625000  0.375000  1
  Si  Si25  1  0.375000  0.625000  0.750000  1
  Si  Si26  1  0.375000  0.250000  0.625000  1
  Si  Si27  1  0.750000  0.875000  0.125000  1
  Si  Si28  1  0.875000  0.250000  0.125000  1
  Si  Si29  1  0.250000  0.125000  0.875000  1
  Si  Si30  1  0.125000  0.875000  0.250000  1
  Si  Si31  1  0.625000  0.375000  0.250000  1
  O  O32  1  0.710499  0.517738  0.622016  1
  O  O33  1  0.289501  0.482262  0.377984  1
  O  O34  1  0.807239  0.517738  0.395722  1
  O  O35  1  0.807239  0.789501  0.411517  1
  O  O36  1  0.210499  0.588483  0.192761  1
  O  O37  1  0.588483  0.895722  0.377984  1
  O  O38  1  0.307239  0.895722  0.017738  1
  O  O39  1  0.192761  0.210499  0.588483  1
  O  O40  1  0.895722  0.377984  0.588483  1
  O  O41  1  0.482262  0.377984  0.289501  1
  O  O42  1  0.088483  0.877984  0.395722  1
  O  O43  1  0.017738  0.210499  0.122016  1
  O  O44  1  0.210499  0.122016  0.017738  1
  O  O45  1  0.088483  0.710499  0.692761  1
  O  O46  1  0.017738  0.307239  0.895722  1
  O  O47  1  0.588483  0.192761  0.210499  1
  O  O48  1  0.517738  0.395722  0.807239  1
  O  O49  1  0.622016  0.710499  0.517738  1
  O  O50  1  0.877984  0.982262  0.789501  1
  O  O51  1  0.911517  0.122016  0.604278  1
  O  O52  1  0.604278  0.911517  0.122016  1
  O  O53  1  0.622016  0.411517  0.104278  1
  O  O54  1  0.789501  0.877984  0.982262  1
  O  O55  1  0.411517  0.807239  0.789501  1
  O  O56  1  0.377984  0.289501  0.482262  1
  O  O57  1  0.395722  0.088483  0.877984  1
  O  O58  1  0.982262  0.692761  0.104278  1
  O  O59  1  0.289501  0.307239  0.911517  1
  O  O60  1  0.482262  0.604278  0.192761  1
  O  O61  1  0.192761  0.482262  0.604278  1
  O  O62  1  0.104278  0.982262  0.692761  1
  O  O63  1  0.692761  0.088483  0.710499  1
  O  O64  1  0.895722  0.017738  0.307239  1
  O  O65  1  0.911517  0.289501  0.307239  1
  O  O66  1  0.104278  0.622016  0.411517  1
  O  O67  1  0.411517  0.104278  0.622016  1
  O  O68  1  0.789501  0.411517  0.807239  1
  O  O69  1  0.377984  0.588483  0.895722  1
  O  O70  1  0.710499  0.692761  0.088483  1
  O  O71  1  0.877984  0.395722  0.088483  1
  O  O72  1  0.395722  0.807239  0.517738  1
  O  O73  1  0.122016  0.604278  0.911517  1
  O  O74  1  0.307239  0.911517  0.289501  1
  O  O75  1  0.692761  0.104278  0.982262  1
  O  O76  1  0.982262  0.789501  0.877984  1
  O  O77  1  0.604278  0.192761  0.482262  1
  O  O78  1  0.122016  0.017738  0.210499  1
  O  O79  1  0.517738  0.622016  0.710499  1
