# generated using pymatgen
data_CrPO4
_symmetry_space_group_name_H-M   'P 1'
_cell_length_a   5.66458166
_cell_length_b   6.40504305
_cell_length_c   9.57206439
_cell_angle_alpha   74.83823075
_cell_angle_beta   76.61484657
_cell_angle_gamma   80.68137978
_symmetry_Int_Tables_number   1
_chemical_formula_structural   CrPO4
_chemical_formula_sum   'Cr4 P4 O16'
_cell_volume   324.19203481
_cell_formula_units_Z   4
loop_
 _symmetry_equiv_pos_site_id
 _symmetry_equiv_pos_as_xyz
  1  'x, y, z'
loop_
 _atom_site_type_symbol
 _atom_site_label
 _atom_site_symmetry_multiplicity
 _atom_site_fract_x
 _atom_site_fract_y
 _atom_site_fract_z
 _atom_site_occupancy
  Cr  Cr0  1  0.742105  0.331945  0.939235  1
  Cr  Cr1  1  0.124566  0.593722  0.687989  1
  Cr  Cr2  1  0.875434  0.406278  0.312011  1
  Cr  Cr3  1  0.257895  0.668055  0.060765  1
  P  P4  1  0.820279  0.795440  0.972077  1
  P  P5  1  0.697851  0.648368  0.598556  1
  P  P6  1  0.302149  0.351632  0.401444  1
  P  P7  1  0.179721  0.204560  0.027923  1
  O  O8  1  0.626278  0.650884  0.964827  1
  O  O9  1  0.067947  0.729082  0.873626  1
  O  O10  1  0.730338  0.033589  0.929212  1
  O  O11  1  0.114592  0.282898  0.871296  1
  O  O12  1  0.788996  0.449528  0.724260  1
  O  O13  1  0.885969  0.806428  0.590224  1
  O  O14  1  0.431599  0.729821  0.650789  1
  O  O15  1  0.265275  0.424351  0.544777  1
  O  O16  1  0.734725  0.575649  0.455223  1
  O  O17  1  0.568401  0.270179  0.349211  1
  O  O18  1  0.114031  0.193572  0.409776  1
  O  O19  1  0.211004  0.550472  0.275740  1
  O  O20  1  0.885408  0.717102  0.128704  1
  O  O21  1  0.269662  0.966411  0.070788  1
  O  O22  1  0.932053  0.270918  0.126374  1
  O  O23  1  0.373722  0.349116  0.035173  1
