# generated using pymatgen
data_Pr4Te3N2
_symmetry_space_group_name_H-M   'P 1'
_cell_length_a   7.47471681
_cell_length_b   11.52857719
_cell_length_c   11.85068693
_cell_angle_alpha   90.00000000
_cell_angle_beta   90.00000000
_cell_angle_gamma   90.00000000
_symmetry_Int_Tables_number   1
_chemical_formula_structural   Pr4Te3N2
_chemical_formula_sum   'Pr16 Te12 N8'
_cell_volume   1021.20746387
_cell_formula_units_Z   4
loop_
 _symmetry_equiv_pos_site_id
 _symmetry_equiv_pos_as_xyz
  1  'x, y, z'
loop_
 _atom_site_type_symbol
 _atom_site_label
 _atom_site_symmetry_multiplicity
 _atom_site_fract_x
 _atom_site_fract_y
 _atom_site_fract_z
 _atom_site_occupancy
  Pr  Pr0  1  0.854305  0.609764  0.450005  1
  Pr  Pr1  1  0.145695  0.390236  0.549995  1
  Pr  Pr2  1  0.090219  0.659507  0.750000  1
  Pr  Pr3  1  0.227975  0.031029  0.750000  1
  Pr  Pr4  1  0.272025  0.531029  0.250000  1
  Pr  Pr5  1  0.409781  0.159507  0.250000  1
  Pr  Pr6  1  0.145695  0.390236  0.950005  1
  Pr  Pr7  1  0.772025  0.968971  0.250000  1
  Pr  Pr8  1  0.727975  0.468971  0.750000  1
  Pr  Pr9  1  0.590219  0.840493  0.750000  1
  Pr  Pr10  1  0.354305  0.890236  0.450005  1
  Pr  Pr11  1  0.645695  0.109764  0.950005  1
  Pr  Pr12  1  0.354305  0.890236  0.049995  1
  Pr  Pr13  1  0.909781  0.340493  0.250000  1
  Pr  Pr14  1  0.854305  0.609764  0.049995  1
  Pr  Pr15  1  0.645695  0.109764  0.549995  1
  Te  Te16  1  0.917618  0.227132  0.750000  1
  Te  Te17  1  0.082382  0.772868  0.250000  1
  Te  Te18  1  0.566106  0.364608  0.421279  1
  Te  Te19  1  0.066106  0.135392  0.078721  1
  Te  Te20  1  0.417618  0.272868  0.750000  1
  Te  Te21  1  0.582382  0.727132  0.250000  1
  Te  Te22  1  0.566106  0.364608  0.078721  1
  Te  Te23  1  0.433894  0.635392  0.578721  1
  Te  Te24  1  0.933894  0.864608  0.921279  1
  Te  Te25  1  0.933894  0.864608  0.578721  1
  Te  Te26  1  0.066106  0.135392  0.421279  1
  Te  Te27  1  0.433894  0.635392  0.921279  1
  N  N28  1  0.053575  0.467134  0.378104  1
  N  N29  1  0.553575  0.032866  0.121896  1
  N  N30  1  0.446425  0.967134  0.621896  1
  N  N31  1  0.946425  0.532866  0.621896  1
  N  N32  1  0.946425  0.532866  0.878104  1
  N  N33  1  0.446425  0.967134  0.878104  1
  N  N34  1  0.553575  0.032866  0.378104  1
  N  N35  1  0.053575  0.467134  0.121896  1
