# generated using pymatgen
data_CrHg3O5
_symmetry_space_group_name_H-M   'P 1'
_cell_length_a   9.63826764
_cell_length_b   10.68019488
_cell_length_c   11.81986523
_cell_angle_alpha   90.00000000
_cell_angle_beta   90.00000000
_cell_angle_gamma   90.00000000
_symmetry_Int_Tables_number   1
_chemical_formula_structural   CrHg3O5
_chemical_formula_sum   'Cr8 Hg24 O40'
_cell_volume   1216.72010357
_cell_formula_units_Z   8
loop_
 _symmetry_equiv_pos_site_id
 _symmetry_equiv_pos_as_xyz
  1  'x, y, z'
loop_
 _atom_site_type_symbol
 _atom_site_label
 _atom_site_symmetry_multiplicity
 _atom_site_fract_x
 _atom_site_fract_y
 _atom_site_fract_z
 _atom_site_occupancy
  Cr  Cr0  1  0.947479  0.578787  0.863669  1
  Cr  Cr1  1  0.448385  0.579235  0.856430  1
  Cr  Cr2  1  0.551615  0.079235  0.143570  1
  Cr  Cr3  1  0.448385  0.079235  0.643570  1
  Cr  Cr4  1  0.052521  0.078787  0.136331  1
  Cr  Cr5  1  0.551615  0.579235  0.356430  1
  Cr  Cr6  1  0.947479  0.078787  0.636331  1
  Cr  Cr7  1  0.052521  0.578787  0.363669  1
  Hg  Hg8  1  0.264701  0.828885  0.252364  1
  Hg  Hg9  1  0.735299  0.328885  0.747636  1
  Hg  Hg10  1  0.425392  0.910837  0.906108  1
  Hg  Hg11  1  0.735299  0.828885  0.752364  1
  Hg  Hg12  1  0.245174  0.578484  0.090374  1
  Hg  Hg13  1  0.068199  0.259885  0.878545  1
  Hg  Hg14  1  0.754826  0.078484  0.909626  1
  Hg  Hg15  1  0.338983  0.247627  0.902561  1
  Hg  Hg16  1  0.155326  0.402668  0.614540  1
  Hg  Hg17  1  0.425392  0.410837  0.593892  1
  Hg  Hg18  1  0.844674  0.902668  0.385460  1
  Hg  Hg19  1  0.661017  0.747627  0.097439  1
  Hg  Hg20  1  0.754826  0.578484  0.590374  1
  Hg  Hg21  1  0.574608  0.910837  0.406108  1
  Hg  Hg22  1  0.264701  0.328885  0.247636  1
  Hg  Hg23  1  0.245174  0.078484  0.409626  1
  Hg  Hg24  1  0.931801  0.759885  0.121455  1
  Hg  Hg25  1  0.931801  0.259885  0.378545  1
  Hg  Hg26  1  0.068199  0.759885  0.621455  1
  Hg  Hg27  1  0.338983  0.747627  0.597439  1
  Hg  Hg28  1  0.155326  0.902668  0.885460  1
  Hg  Hg29  1  0.574608  0.410837  0.093892  1
  Hg  Hg30  1  0.844674  0.402668  0.114540  1
  Hg  Hg31  1  0.661017  0.247627  0.402561  1
  O  O32  1  0.998546  0.729704  0.860292  1
  O  O33  1  0.994821  0.004925  0.018495  1
  O  O34  1  0.163688  0.258447  0.390898  1
  O  O35  1  0.657848  0.402579  0.596602  1
  O  O36  1  0.501178  0.427924  0.862544  1
  O  O37  1  0.994821  0.504925  0.481505  1
  O  O38  1  0.498822  0.427924  0.362544  1
  O  O39  1  0.005179  0.004925  0.518495  1
  O  O40  1  0.342152  0.902579  0.403398  1
  O  O41  1  0.836312  0.758447  0.609102  1
  O  O42  1  0.001454  0.729704  0.360292  1
  O  O43  1  0.222488  0.578237  0.366253  1
  O  O44  1  0.998546  0.229704  0.639708  1
  O  O45  1  0.005179  0.504925  0.981505  1
  O  O46  1  0.501178  0.927924  0.637456  1
  O  O47  1  0.493636  0.650451  0.238555  1
  O  O48  1  0.777512  0.578237  0.866253  1
  O  O49  1  0.720669  0.079741  0.147744  1
  O  O50  1  0.498822  0.927924  0.137456  1
  O  O51  1  0.657848  0.902579  0.903398  1
  O  O52  1  0.494660  0.658660  0.975339  1
  O  O53  1  0.279331  0.079741  0.647744  1
  O  O54  1  0.342152  0.402579  0.096602  1
  O  O55  1  0.720669  0.579741  0.352256  1
  O  O56  1  0.505340  0.158660  0.024661  1
  O  O57  1  0.506364  0.650451  0.738555  1
  O  O58  1  0.994979  0.500954  0.745920  1
  O  O59  1  0.005021  0.500954  0.245920  1
  O  O60  1  0.994979  0.000954  0.754080  1
  O  O61  1  0.493636  0.150451  0.261445  1
  O  O62  1  0.005021  0.000954  0.254080  1
  O  O63  1  0.505340  0.658660  0.475339  1
  O  O64  1  0.001454  0.229704  0.139708  1
  O  O65  1  0.279331  0.579741  0.852256  1
  O  O66  1  0.222488  0.078237  0.133747  1
  O  O67  1  0.163688  0.758447  0.109102  1
  O  O68  1  0.777512  0.078237  0.633747  1
  O  O69  1  0.836312  0.258447  0.890898  1
  O  O70  1  0.494660  0.158660  0.524661  1
  O  O71  1  0.506364  0.150451  0.761445  1
