# generated using pymatgen
data_Dy2InGe2
_symmetry_space_group_name_H-M   'P 1'
_cell_length_a   7.44019143
_cell_length_b   7.44019143
_cell_length_c   4.18156520
_cell_angle_alpha   90.00000000
_cell_angle_beta   90.00000000
_cell_angle_gamma   90.00000000
_symmetry_Int_Tables_number   1
_chemical_formula_structural   Dy2InGe2
_chemical_formula_sum   'Dy4 In2 Ge4'
_cell_volume   231.47659871
_cell_formula_units_Z   2
loop_
 _symmetry_equiv_pos_site_id
 _symmetry_equiv_pos_as_xyz
  1  'x, y, z'
loop_
 _atom_site_type_symbol
 _atom_site_label
 _atom_site_symmetry_multiplicity
 _atom_site_fract_x
 _atom_site_fract_y
 _atom_site_fract_z
 _atom_site_occupancy
  Dy  Dy0  1  0.177853  0.322147  0.500000  1
  Dy  Dy1  1  0.822147  0.677853  0.500000  1
  Dy  Dy2  1  0.322147  0.822147  0.500000  1
  Dy  Dy3  1  0.677853  0.177853  0.500000  1
  In  In4  1  0.000000  0.000000  0.000000  1
  In  In5  1  0.500000  0.500000  0.000000  1
  Ge  Ge6  1  0.121880  0.621880  0.000000  1
  Ge  Ge7  1  0.878120  0.378120  0.000000  1
  Ge  Ge8  1  0.378120  0.121880  0.000000  1
  Ge  Ge9  1  0.621880  0.878120  0.000000  1
