# generated using pymatgen
data_Zr4Cd(PO4)6
_symmetry_space_group_name_H-M   'P 1'
_cell_length_a   9.11932711
_cell_length_b   9.11932711
_cell_length_c   9.11932711
_cell_angle_alpha   59.06187102
_cell_angle_beta   59.06187102
_cell_angle_gamma   59.06187102
_symmetry_Int_Tables_number   1
_chemical_formula_structural   Zr4Cd(PO4)6
_chemical_formula_sum   'Zr4 Cd1 P6 O24'
_cell_volume   524.78619956
_cell_formula_units_Z   1
loop_
 _symmetry_equiv_pos_site_id
 _symmetry_equiv_pos_as_xyz
  1  'x, y, z'
loop_
 _atom_site_type_symbol
 _atom_site_label
 _atom_site_symmetry_multiplicity
 _atom_site_fract_x
 _atom_site_fract_y
 _atom_site_fract_z
 _atom_site_occupancy
  Zr  Zr0  1  0.863525  0.863525  0.863525  1
  Zr  Zr1  1  0.136475  0.136475  0.136475  1
  Zr  Zr2  1  0.351821  0.351821  0.351821  1
  Zr  Zr3  1  0.648179  0.648179  0.648179  1
  Cd  Cd4  1  0.500000  0.500000  0.500000  1
  P  P5  1  0.046823  0.743442  0.470174  1
  P  P6  1  0.470174  0.046823  0.743442  1
  P  P7  1  0.743442  0.470174  0.046823  1
  P  P8  1  0.953177  0.256558  0.529826  1
  P  P9  1  0.529826  0.953177  0.256558  1
  P  P10  1  0.256558  0.529826  0.953177  1
  O  O11  1  0.008995  0.785966  0.630489  1
  O  O12  1  0.630489  0.008995  0.785966  1
  O  O13  1  0.785966  0.630489  0.008995  1
  O  O14  1  0.991005  0.214034  0.369511  1
  O  O15  1  0.369511  0.991005  0.214034  1
  O  O16  1  0.214034  0.369511  0.991005  1
  O  O17  1  0.491633  0.107484  0.312314  1
  O  O18  1  0.312314  0.491633  0.107484  1
  O  O19  1  0.107484  0.312314  0.491633  1
  O  O20  1  0.508367  0.892516  0.687686  1
  O  O21  1  0.687686  0.508367  0.892516  1
  O  O22  1  0.892516  0.687686  0.508367  1
  O  O23  1  0.937549  0.094484  0.707619  1
  O  O24  1  0.707619  0.937549  0.094484  1
  O  O25  1  0.094484  0.707619  0.937549  1
  O  O26  1  0.062451  0.905516  0.292381  1
  O  O27  1  0.292381  0.062451  0.905516  1
  O  O28  1  0.905516  0.292381  0.062451  1
  O  O29  1  0.446159  0.230774  0.580528  1
  O  O30  1  0.580528  0.446159  0.230774  1
  O  O31  1  0.230774  0.580528  0.446159  1
  O  O32  1  0.553841  0.769226  0.419472  1
  O  O33  1  0.419472  0.553841  0.769226  1
  O  O34  1  0.769226  0.419472  0.553841  1
