# generated using pymatgen
data_B
_symmetry_space_group_name_H-M   'P 1'
_cell_length_a   11.60396737
_cell_length_b   11.60396737
_cell_length_c   11.60396737
_cell_angle_alpha   53.44424877
_cell_angle_beta   53.44424877
_cell_angle_gamma   53.44424877
_symmetry_Int_Tables_number   1
_chemical_formula_structural   B
_chemical_formula_sum   B108
_cell_volume   935.33577212
_cell_formula_units_Z   108
loop_
 _symmetry_equiv_pos_site_id
 _symmetry_equiv_pos_as_xyz
  1  'x, y, z'
loop_
 _atom_site_type_symbol
 _atom_site_label
 _atom_site_symmetry_multiplicity
 _atom_site_fract_x
 _atom_site_fract_y
 _atom_site_fract_z
 _atom_site_occupancy
  B  B0  1  0.704264  0.867087  0.025664  1
  B  B1  1  0.025664  0.704264  0.867087  1
  B  B2  1  0.867087  0.025664  0.704264  1
  B  B3  1  0.974336  0.132913  0.295736  1
  B  B4  1  0.295736  0.974336  0.132913  1
  B  B5  1  0.132913  0.295736  0.974336  1
  B  B6  1  0.295736  0.132913  0.974336  1
  B  B7  1  0.974336  0.295736  0.132913  1
  B  B8  1  0.132913  0.974336  0.295736  1
  B  B9  1  0.025664  0.867087  0.704264  1
  B  B10  1  0.704264  0.025664  0.867087  1
  B  B11  1  0.867087  0.704264  0.025664  1
  B  B12  1  0.525031  0.059274  0.357546  1
  B  B13  1  0.357546  0.525031  0.059274  1
  B  B14  1  0.059274  0.357546  0.525031  1
  B  B15  1  0.642454  0.940726  0.474969  1
  B  B16  1  0.474969  0.642454  0.940726  1
  B  B17  1  0.940726  0.474969  0.642454  1
  B  B18  1  0.474969  0.940726  0.642454  1
  B  B19  1  0.642454  0.474969  0.940726  1
  B  B20  1  0.940726  0.642454  0.474969  1
  B  B21  1  0.357546  0.059274  0.525031  1
  B  B22  1  0.525031  0.357546  0.059274  1
  B  B23  1  0.059274  0.525031  0.357546  1
  B  B24  1  0.674414  0.945712  0.209131  1
  B  B25  1  0.209131  0.674414  0.945712  1
  B  B26  1  0.945712  0.209131  0.674414  1
  B  B27  1  0.790869  0.054288  0.325586  1
  B  B28  1  0.325586  0.790869  0.054288  1
  B  B29  1  0.054288  0.325586  0.790869  1
  B  B30  1  0.325586  0.054288  0.790869  1
  B  B31  1  0.790869  0.325586  0.054288  1
  B  B32  1  0.054288  0.790869  0.325586  1
  B  B33  1  0.209131  0.945712  0.674414  1
  B  B34  1  0.674414  0.209131  0.945712  1
  B  B35  1  0.945712  0.674414  0.209131  1
  B  B36  1  0.533885  0.749254  0.303666  1
  B  B37  1  0.303666  0.533885  0.749254  1
  B  B38  1  0.749254  0.303666  0.533885  1
  B  B39  1  0.696334  0.250746  0.466115  1
  B  B40  1  0.466115  0.696334  0.250746  1
  B  B41  1  0.250746  0.466115  0.696334  1
  B  B42  1  0.466115  0.250746  0.696334  1
  B  B43  1  0.696334  0.466115  0.250746  1
  B  B44  1  0.250746  0.696334  0.466115  1
  B  B45  1  0.303666  0.749254  0.533885  1
  B  B46  1  0.533885  0.303666  0.749254  1
  B  B47  1  0.749254  0.533885  0.303666  1
  B  B48  1  0.360634  0.955591  0.955591  1
  B  B49  1  0.955591  0.360634  0.955591  1
  B  B50  1  0.955591  0.955591  0.360634  1
  B  B51  1  0.044409  0.044409  0.639366  1
  B  B52  1  0.639366  0.044409  0.044409  1
  B  B53  1  0.044409  0.639366  0.044409  1
  B  B54  1  0.312495  0.764386  0.764386  1
  B  B55  1  0.764386  0.312495  0.764386  1
  B  B56  1  0.764386  0.764386  0.312495  1
  B  B57  1  0.235614  0.235614  0.687505  1
  B  B58  1  0.687505  0.235614  0.235614  1
  B  B59  1  0.235614  0.687505  0.235614  1
  B  B60  1  0.505508  0.338003  0.338003  1
  B  B61  1  0.338003  0.505508  0.338003  1
  B  B62  1  0.338003  0.338003  0.505508  1
  B  B63  1  0.661997  0.661997  0.494492  1
  B  B64  1  0.494492  0.661997  0.661997  1
  B  B65  1  0.661997  0.494492  0.661997  1
  B  B66  1  0.227359  0.533817  0.533817  1
  B  B67  1  0.533817  0.227359  0.533817  1
  B  B68  1  0.533817  0.533817  0.227359  1
  B  B69  1  0.466183  0.466183  0.772641  1
  B  B70  1  0.772641  0.466183  0.466183  1
  B  B71  1  0.466183  0.772641  0.466183  1
  B  B72  1  0.169873  0.881190  0.881190  1
  B  B73  1  0.881190  0.169873  0.881190  1
  B  B74  1  0.881190  0.881190  0.169873  1
  B  B75  1  0.118810  0.118810  0.830127  1
  B  B76  1  0.830127  0.118810  0.118810  1
  B  B77  1  0.118810  0.830127  0.118810  1
  B  B78  1  0.154147  0.678578  0.678578  1
  B  B79  1  0.678578  0.154147  0.678578  1
  B  B80  1  0.678578  0.678578  0.154147  1
  B  B81  1  0.321422  0.321422  0.845853  1
  B  B82  1  0.845853  0.321422  0.321422  1
  B  B83  1  0.321422  0.845853  0.321422  1
  B  B84  1  0.566451  0.151360  0.151360  1
  B  B85  1  0.151360  0.566451  0.151360  1
  B  B86  1  0.151360  0.151360  0.566451  1
  B  B87  1  0.848640  0.848640  0.433549  1
  B  B88  1  0.433549  0.848640  0.848640  1
  B  B89  1  0.848640  0.433549  0.848640  1
  B  B90  1  0.196966  0.743882  0.743882  1
  B  B91  1  0.743882  0.196966  0.743882  1
  B  B92  1  0.743882  0.743882  0.196966  1
  B  B93  1  0.256118  0.256118  0.803034  1
  B  B94  1  0.803034  0.256118  0.256118  1
  B  B95  1  0.256118  0.803034  0.256118  1
  B  B96  1  0.113146  0.497914  0.497914  1
  B  B97  1  0.497914  0.113146  0.497914  1
  B  B98  1  0.497914  0.497914  0.113146  1
  B  B99  1  0.502086  0.502086  0.886854  1
  B  B100  1  0.886854  0.502086  0.502086  1
  B  B101  1  0.502086  0.886854  0.502086  1
  B  B102  1  0.782033  0.054838  0.054838  1
  B  B103  1  0.054838  0.782033  0.054838  1
  B  B104  1  0.054838  0.054838  0.782033  1
  B  B105  1  0.945162  0.945162  0.217967  1
  B  B106  1  0.217967  0.945162  0.945162  1
  B  B107  1  0.945162  0.217967  0.945162  1
