# generated using pymatgen
data_Nb3Se12I
_symmetry_space_group_name_H-M   'P 1'
_cell_length_a   9.78490412
_cell_length_b   9.78490412
_cell_length_c   19.41691438
_cell_angle_alpha   90.00000000
_cell_angle_beta   90.00000000
_cell_angle_gamma   90.00000000
_symmetry_Int_Tables_number   1
_chemical_formula_structural   Nb3Se12I
_chemical_formula_sum   'Nb12 Se48 I4'
_cell_volume   1859.05981987
_cell_formula_units_Z   4
loop_
 _symmetry_equiv_pos_site_id
 _symmetry_equiv_pos_as_xyz
  1  'x, y, z'
loop_
 _atom_site_type_symbol
 _atom_site_label
 _atom_site_symmetry_multiplicity
 _atom_site_fract_x
 _atom_site_fract_y
 _atom_site_fract_z
 _atom_site_occupancy
  Nb  Nb0  1  0.500000  0.000000  0.589405  1
  Nb  Nb1  1  0.500000  0.000000  0.089405  1
  Nb  Nb2  1  0.000000  0.500000  0.572107  1
  Nb  Nb3  1  0.500000  0.000000  0.760437  1
  Nb  Nb4  1  0.000000  0.500000  0.739563  1
  Nb  Nb5  1  0.000000  0.500000  0.072107  1
  Nb  Nb6  1  0.500000  0.000000  0.260437  1
  Nb  Nb7  1  0.500000  0.000000  0.427893  1
  Nb  Nb8  1  0.000000  0.500000  0.239563  1
  Nb  Nb9  1  0.500000  0.000000  0.927893  1
  Nb  Nb10  1  0.000000  0.500000  0.910595  1
  Nb  Nb11  1  0.000000  0.500000  0.410595  1
  Se  Se12  1  0.789795  0.545221  0.318729  1
  Se  Se13  1  0.288881  0.950746  0.837737  1
  Se  Se14  1  0.788881  0.549254  0.662263  1
  Se  Se15  1  0.625773  0.818684  0.848263  1
  Se  Se16  1  0.818684  0.374227  0.151737  1
  Se  Se17  1  0.517573  0.780968  0.508975  1
  Se  Se18  1  0.211119  0.450746  0.662263  1
  Se  Se19  1  0.710205  0.045221  0.181271  1
  Se  Se20  1  0.289795  0.954779  0.181271  1
  Se  Se21  1  0.711119  0.049254  0.837737  1
  Se  Se22  1  0.210205  0.454779  0.318729  1
  Se  Se23  1  0.318684  0.125773  0.348263  1
  Se  Se24  1  0.304474  0.895028  0.509105  1
  Se  Se25  1  0.316823  0.122855  0.669182  1
  Se  Se26  1  0.719032  0.982427  0.008975  1
  Se  Se27  1  0.982427  0.280968  0.991025  1
  Se  Se28  1  0.454779  0.789795  0.681271  1
  Se  Se29  1  0.877145  0.316823  0.330818  1
  Se  Se30  1  0.017573  0.719032  0.991025  1
  Se  Se31  1  0.045221  0.289795  0.818729  1
  Se  Se32  1  0.219032  0.517573  0.491025  1
  Se  Se33  1  0.874227  0.318684  0.651737  1
  Se  Se34  1  0.482427  0.219032  0.508975  1
  Se  Se35  1  0.954779  0.710205  0.818729  1
  Se  Se36  1  0.183177  0.622855  0.830818  1
  Se  Se37  1  0.374227  0.181316  0.848263  1
  Se  Se38  1  0.622855  0.816823  0.169182  1
  Se  Se39  1  0.545221  0.210205  0.681271  1
  Se  Se40  1  0.377145  0.183177  0.169182  1
  Se  Se41  1  0.195526  0.395028  0.990895  1
  Se  Se42  1  0.125773  0.681316  0.651737  1
  Se  Se43  1  0.604972  0.195526  0.009105  1
  Se  Se44  1  0.780968  0.482427  0.491025  1
  Se  Se45  1  0.549254  0.211119  0.337737  1
  Se  Se46  1  0.683177  0.877145  0.669182  1
  Se  Se47  1  0.804474  0.604972  0.990895  1
  Se  Se48  1  0.049254  0.288881  0.162263  1
  Se  Se49  1  0.950746  0.711119  0.162263  1
  Se  Se50  1  0.681316  0.874227  0.348263  1
  Se  Se51  1  0.181316  0.625773  0.151737  1
  Se  Se52  1  0.280968  0.017573  0.008975  1
  Se  Se53  1  0.895028  0.695526  0.490895  1
  Se  Se54  1  0.695526  0.104972  0.509105  1
  Se  Se55  1  0.816823  0.377145  0.830818  1
  Se  Se56  1  0.450746  0.788881  0.337737  1
  Se  Se57  1  0.104972  0.304474  0.490895  1
  Se  Se58  1  0.395028  0.804474  0.009105  1
  Se  Se59  1  0.122855  0.683177  0.330818  1
  I  I60  1  0.500000  0.500000  0.869996  1
  I  I61  1  0.000000  0.000000  0.369996  1
  I  I62  1  0.500000  0.500000  0.130004  1
  I  I63  1  0.000000  0.000000  0.630004  1
