# generated using pymatgen
data_AsS(IF3)2
_symmetry_space_group_name_H-M   'P 1'
_cell_length_a   8.21646714
_cell_length_b   8.21646714
_cell_length_c   14.17221843
_cell_angle_alpha   87.25164945
_cell_angle_beta   92.74835055
_cell_angle_gamma   71.52032154
_symmetry_Int_Tables_number   1
_chemical_formula_structural   AsS(IF3)2
_chemical_formula_sum   'As4 S4 I8 F24'
_cell_volume   904.37669180
_cell_formula_units_Z   4
loop_
 _symmetry_equiv_pos_site_id
 _symmetry_equiv_pos_as_xyz
  1  'x, y, z'
loop_
 _atom_site_type_symbol
 _atom_site_label
 _atom_site_symmetry_multiplicity
 _atom_site_fract_x
 _atom_site_fract_y
 _atom_site_fract_z
 _atom_site_occupancy
  As  As0  1  0.822411  0.822411  0.250000  1
  As  As1  1  0.177589  0.177589  0.750000  1
  As  As2  1  0.500000  0.500000  0.500000  1
  As  As3  1  0.500000  0.500000  0.000000  1
  S  S4  1  0.789871  0.595800  0.753785  1
  S  S5  1  0.210129  0.404200  0.246215  1
  S  S6  1  0.404200  0.210129  0.253785  1
  S  S7  1  0.595800  0.789871  0.746215  1
  I  I8  1  0.259147  0.019113  0.419044  1
  I  I9  1  0.980887  0.740853  0.919044  1
  I  I10  1  0.009986  0.314434  0.387401  1
  I  I11  1  0.740853  0.980887  0.580956  1
  I  I12  1  0.990014  0.685566  0.612599  1
  I  I13  1  0.314434  0.009986  0.112599  1
  I  I14  1  0.685566  0.990014  0.887401  1
  I  I15  1  0.019113  0.259147  0.080956  1
  F  F16  1  0.599169  0.459454  0.391484  1
  F  F17  1  0.278863  0.080246  0.861692  1
  F  F18  1  0.973309  0.194529  0.791704  1
  F  F19  1  0.721137  0.919754  0.138308  1
  F  F20  1  0.400831  0.540546  0.608516  1
  F  F21  1  0.384756  0.159123  0.710259  1
  F  F22  1  0.080246  0.278863  0.638308  1
  F  F23  1  0.840877  0.615244  0.210259  1
  F  F24  1  0.523411  0.709816  0.496128  1
  F  F25  1  0.290184  0.476589  0.996128  1
  F  F26  1  0.540546  0.400831  0.891484  1
  F  F27  1  0.805471  0.026691  0.291704  1
  F  F28  1  0.026691  0.805471  0.208296  1
  F  F29  1  0.709816  0.523411  0.003872  1
  F  F30  1  0.615244  0.840877  0.289741  1
  F  F31  1  0.159123  0.384756  0.789741  1
  F  F32  1  0.413150  0.704000  0.937741  1
  F  F33  1  0.459454  0.599169  0.108516  1
  F  F34  1  0.919754  0.721137  0.361692  1
  F  F35  1  0.476589  0.290184  0.503872  1
  F  F36  1  0.194529  0.973309  0.708296  1
  F  F37  1  0.586850  0.296000  0.062259  1
  F  F38  1  0.704000  0.413150  0.562259  1
  F  F39  1  0.296000  0.586850  0.437741  1
