# generated using pymatgen
data_Na3SO4F
_symmetry_space_group_name_H-M   'P 1'
_cell_length_a   11.64202972
_cell_length_b   7.03847073
_cell_length_c   18.32510440
_cell_angle_alpha   90.00000000
_cell_angle_beta   107.38733868
_cell_angle_gamma   90.00000000
_symmetry_Int_Tables_number   1
_chemical_formula_structural   Na3SO4F
_chemical_formula_sum   'Na36 S12 O48 F12'
_cell_volume   1432.98386696
_cell_formula_units_Z   12
loop_
 _symmetry_equiv_pos_site_id
 _symmetry_equiv_pos_as_xyz
  1  'x, y, z'
loop_
 _atom_site_type_symbol
 _atom_site_label
 _atom_site_symmetry_multiplicity
 _atom_site_fract_x
 _atom_site_fract_y
 _atom_site_fract_z
 _atom_site_occupancy
  Na  Na0  1  0.500000  0.500000  0.500000  1
  Na  Na1  1  0.500000  0.000000  0.500000  1
  Na  Na2  1  0.697080  0.250000  0.649613  1
  Na  Na3  1  0.302920  0.750000  0.350387  1
  Na  Na4  1  0.126460  0.250000  0.882694  1
  Na  Na5  1  0.873540  0.750000  0.117306  1
  Na  Na6  1  0.604324  0.250000  0.384234  1
  Na  Na7  1  0.395676  0.750000  0.615766  1
  Na  Na8  1  0.184683  0.250000  0.147302  1
  Na  Na9  1  0.815317  0.750000  0.852698  1
  Na  Na10  1  0.091228  0.250000  0.606716  1
  Na  Na11  1  0.908772  0.750000  0.393284  1
  Na  Na12  1  0.000000  0.500000  0.000000  1
  Na  Na13  1  0.000000  0.000000  0.000000  1
  Na  Na14  1  0.562895  0.250000  0.107151  1
  Na  Na15  1  0.437105  0.750000  0.892849  1
  Na  Na16  1  0.967598  0.473484  0.720512  1
  Na  Na17  1  0.032402  0.973484  0.279488  1
  Na  Na18  1  0.032402  0.526516  0.279488  1
  Na  Na19  1  0.967598  0.026516  0.720512  1
  Na  Na20  1  0.809084  0.481804  0.534525  1
  Na  Na21  1  0.190916  0.981804  0.465475  1
  Na  Na22  1  0.190916  0.518196  0.465475  1
  Na  Na23  1  0.809084  0.018196  0.534525  1
  Na  Na24  1  0.265299  0.499384  0.754704  1
  Na  Na25  1  0.734701  0.999384  0.245296  1
  Na  Na26  1  0.734701  0.500616  0.245296  1
  Na  Na27  1  0.265299  0.000616  0.754704  1
  Na  Na28  1  0.448796  0.477370  0.225759  1
  Na  Na29  1  0.551204  0.977370  0.774241  1
  Na  Na30  1  0.551204  0.522630  0.774241  1
  Na  Na31  1  0.448796  0.022630  0.225759  1
  Na  Na32  1  0.292032  0.476955  0.029744  1
  Na  Na33  1  0.707968  0.976955  0.970256  1
  Na  Na34  1  0.707968  0.523045  0.970256  1
  Na  Na35  1  0.292032  0.023045  0.029744  1
  S  S36  1  0.806669  0.250000  0.838385  1
  S  S37  1  0.193331  0.750000  0.161615  1
  S  S38  1  0.919275  0.250000  0.403264  1
  S  S39  1  0.080725  0.750000  0.596736  1
  S  S40  1  0.299044  0.250000  0.346422  1
  S  S41  1  0.700956  0.750000  0.653578  1
  S  S42  1  0.455876  0.250000  0.914561  1
  S  S43  1  0.544124  0.750000  0.085439  1
  S  S44  1  0.386667  0.250000  0.625253  1
  S  S45  1  0.613333  0.750000  0.374747  1
  S  S46  1  0.880583  0.250000  0.130174  1
  S  S47  1  0.119417  0.750000  0.869826  1
  O  O48  1  0.819914  0.422744  0.887321  1
  O  O49  1  0.180086  0.922744  0.112679  1
  O  O50  1  0.180086  0.577256  0.112679  1
  O  O51  1  0.819914  0.077256  0.887321  1
  O  O52  1  0.907445  0.423488  0.354469  1
  O  O53  1  0.092555  0.923488  0.645531  1
  O  O54  1  0.092555  0.576512  0.645531  1
  O  O55  1  0.907445  0.076512  0.354469  1
  O  O56  1  0.225641  0.423520  0.347224  1
  O  O57  1  0.774359  0.923520  0.652776  1
  O  O58  1  0.774359  0.576480  0.652776  1
  O  O59  1  0.225641  0.076480  0.347224  1
  O  O60  1  0.445886  0.423227  0.866158  1
  O  O61  1  0.554114  0.923227  0.133842  1
  O  O62  1  0.554114  0.576773  0.133842  1
  O  O63  1  0.445886  0.076773  0.866158  1
  O  O64  1  0.901337  0.250000  0.798692  1
  O  O65  1  0.098663  0.750000  0.201308  1
  O  O66  1  0.821643  0.250000  0.440657  1
  O  O67  1  0.178357  0.750000  0.559343  1
  O  O68  1  0.337449  0.250000  0.275501  1
  O  O69  1  0.662551  0.750000  0.724499  1
  O  O70  1  0.357906  0.250000  0.951730  1
  O  O71  1  0.642094  0.750000  0.048270  1
  O  O72  1  0.684419  0.250000  0.780391  1
  O  O73  1  0.315581  0.750000  0.219609  1
  O  O74  1  0.039062  0.250000  0.462770  1
  O  O75  1  0.960938  0.750000  0.537230  1
  O  O76  1  0.405882  0.250000  0.415336  1
  O  O77  1  0.594118  0.750000  0.584664  1
  O  O78  1  0.575975  0.250000  0.975025  1
  O  O79  1  0.424025  0.750000  0.024975  1
  O  O80  1  0.871609  0.422956  0.081706  1
  O  O81  1  0.128391  0.922956  0.918294  1
  O  O82  1  0.128391  0.577044  0.918294  1
  O  O83  1  0.871609  0.077044  0.081706  1
  O  O84  1  0.999131  0.250000  0.191581  1
  O  O85  1  0.000869  0.750000  0.808419  1
  O  O86  1  0.780907  0.250000  0.165987  1
  O  O87  1  0.219093  0.750000  0.834013  1
  O  O88  1  0.461240  0.422863  0.624725  1
  O  O89  1  0.538760  0.922863  0.375275  1
  O  O90  1  0.538760  0.577137  0.375275  1
  O  O91  1  0.461240  0.077137  0.624725  1
  O  O92  1  0.277838  0.250000  0.556918  1
  O  O93  1  0.722162  0.750000  0.443082  1
  O  O94  1  0.348852  0.250000  0.696444  1
  O  O95  1  0.651148  0.750000  0.303556  1
  F  F96  1  0.642879  0.250000  0.519829  1
  F  F97  1  0.357121  0.750000  0.480171  1
  F  F98  1  0.904172  0.250000  0.622234  1
  F  F99  1  0.095828  0.750000  0.377766  1
  F  F100  1  0.134751  0.250000  0.760997  1
  F  F101  1  0.865249  0.750000  0.239003  1
  F  F102  1  0.124119  0.250000  0.009531  1
  F  F103  1  0.875881  0.750000  0.990469  1
  F  F104  1  0.605569  0.250000  0.256276  1
  F  F105  1  0.394431  0.750000  0.743724  1
  F  F106  1  0.373157  0.250000  0.124346  1
  F  F107  1  0.626843  0.750000  0.875654  1
