# generated using pymatgen
data_BaBiBO4
_symmetry_space_group_name_H-M   'P 1'
_cell_length_a   5.20234826
_cell_length_b   8.81672541
_cell_length_c   9.86375418
_cell_angle_alpha   90.00000000
_cell_angle_beta   90.00000000
_cell_angle_gamma   90.00000000
_symmetry_Int_Tables_number   1
_chemical_formula_structural   BaBiBO4
_chemical_formula_sum   'Ba4 Bi4 B4 O16'
_cell_volume   452.42748181
_cell_formula_units_Z   4
loop_
 _symmetry_equiv_pos_site_id
 _symmetry_equiv_pos_as_xyz
  1  'x, y, z'
loop_
 _atom_site_type_symbol
 _atom_site_label
 _atom_site_symmetry_multiplicity
 _atom_site_fract_x
 _atom_site_fract_y
 _atom_site_fract_z
 _atom_site_occupancy
  Ba  Ba0  1  0.250000  0.008380  0.816962  1
  Ba  Ba1  1  0.750000  0.491620  0.316962  1
  Ba  Ba2  1  0.750000  0.991620  0.183038  1
  Ba  Ba3  1  0.250000  0.508380  0.683038  1
  Bi  Bi4  1  0.750000  0.304909  0.938724  1
  Bi  Bi5  1  0.250000  0.695091  0.061276  1
  Bi  Bi6  1  0.250000  0.195091  0.438724  1
  Bi  Bi7  1  0.750000  0.804909  0.561276  1
  B  B8  1  0.750000  0.199933  0.556145  1
  B  B9  1  0.250000  0.800067  0.443855  1
  B  B10  1  0.250000  0.300067  0.056145  1
  B  B11  1  0.750000  0.699933  0.943855  1
  O  O12  1  0.986530  0.706358  0.877260  1
  O  O13  1  0.250000  0.811897  0.585408  1
  O  O14  1  0.013470  0.793642  0.377260  1
  O  O15  1  0.513470  0.706358  0.877260  1
  O  O16  1  0.486530  0.793642  0.377260  1
  O  O17  1  0.750000  0.574561  0.583873  1
  O  O18  1  0.750000  0.688103  0.085408  1
  O  O19  1  0.750000  0.188103  0.414592  1
  O  O20  1  0.013470  0.293642  0.122740  1
  O  O21  1  0.513470  0.206358  0.622740  1
  O  O22  1  0.750000  0.074561  0.916127  1
  O  O23  1  0.250000  0.925439  0.083873  1
  O  O24  1  0.986530  0.206358  0.622740  1
  O  O25  1  0.250000  0.425439  0.416127  1
  O  O26  1  0.486530  0.293642  0.122740  1
  O  O27  1  0.250000  0.311897  0.914592  1
