# generated using pymatgen
data_Er2PbSe4
_symmetry_space_group_name_H-M   'P 1'
_cell_length_a   4.11240919
_cell_length_b   12.56748347
_cell_length_c   14.94341193
_cell_angle_alpha   90.00000000
_cell_angle_beta   90.00000000
_cell_angle_gamma   90.00000000
_symmetry_Int_Tables_number   1
_chemical_formula_structural   Er2PbSe4
_chemical_formula_sum   'Er8 Pb4 Se16'
_cell_volume   772.31489722
_cell_formula_units_Z   4
loop_
 _symmetry_equiv_pos_site_id
 _symmetry_equiv_pos_as_xyz
  1  'x, y, z'
loop_
 _atom_site_type_symbol
 _atom_site_label
 _atom_site_symmetry_multiplicity
 _atom_site_fract_x
 _atom_site_fract_y
 _atom_site_fract_z
 _atom_site_occupancy
  Er  Er0  1  0.250000  0.939134  0.889607  1
  Er  Er1  1  0.750000  0.581511  0.903432  1
  Er  Er2  1  0.250000  0.418489  0.096568  1
  Er  Er3  1  0.250000  0.439134  0.610393  1
  Er  Er4  1  0.750000  0.081511  0.596568  1
  Er  Er5  1  0.250000  0.918489  0.403432  1
  Er  Er6  1  0.750000  0.060866  0.110393  1
  Er  Er7  1  0.750000  0.560866  0.389607  1
  Pb  Pb8  1  0.750000  0.736176  0.170279  1
  Pb  Pb9  1  0.250000  0.263824  0.829721  1
  Pb  Pb10  1  0.750000  0.236176  0.329721  1
  Pb  Pb11  1  0.250000  0.763824  0.670279  1
  Se  Se12  1  0.250000  0.630408  0.030114  1
  Se  Se13  1  0.250000  0.523535  0.785929  1
  Se  Se14  1  0.750000  0.089537  0.923121  1
  Se  Se15  1  0.750000  0.869592  0.530114  1
  Se  Se16  1  0.750000  0.369592  0.969886  1
  Se  Se17  1  0.250000  0.707174  0.330238  1
  Se  Se18  1  0.750000  0.476465  0.214071  1
  Se  Se19  1  0.250000  0.910463  0.076879  1
  Se  Se20  1  0.750000  0.589537  0.576879  1
  Se  Se21  1  0.750000  0.976465  0.285929  1
  Se  Se22  1  0.250000  0.023535  0.714071  1
  Se  Se23  1  0.750000  0.792826  0.830238  1
  Se  Se24  1  0.250000  0.410463  0.423121  1
  Se  Se25  1  0.250000  0.130408  0.469886  1
  Se  Se26  1  0.750000  0.292826  0.669762  1
  Se  Se27  1  0.250000  0.207174  0.169762  1
