# generated using pymatgen
data_Nb10Se40I3
_symmetry_space_group_name_H-M   'P 1'
_cell_length_a   9.78710330
_cell_length_b   9.78710330
_cell_length_c   32.35331616
_cell_angle_alpha   90.00000000
_cell_angle_beta   90.00000000
_cell_angle_gamma   90.00000000
_symmetry_Int_Tables_number   1
_chemical_formula_structural   Nb10Se40I3
_chemical_formula_sum   'Nb20 Se80 I6'
_cell_volume   3099.03974532
_cell_formula_units_Z   2
loop_
 _symmetry_equiv_pos_site_id
 _symmetry_equiv_pos_as_xyz
  1  'x, y, z'
loop_
 _atom_site_type_symbol
 _atom_site_label
 _atom_site_symmetry_multiplicity
 _atom_site_fract_x
 _atom_site_fract_y
 _atom_site_fract_z
 _atom_site_occupancy
  Nb  Nb0  1  0.500000  0.000000  0.951039  1
  Nb  Nb1  1  0.000000  0.500000  0.250000  1
  Nb  Nb2  1  0.500000  0.000000  0.849112  1
  Nb  Nb3  1  0.500000  0.000000  0.048961  1
  Nb  Nb4  1  0.000000  0.500000  0.951039  1
  Nb  Nb5  1  0.000000  0.500000  0.548961  1
  Nb  Nb6  1  0.000000  0.500000  0.451039  1
  Nb  Nb7  1  0.000000  0.500000  0.750000  1
  Nb  Nb8  1  0.500000  0.000000  0.548961  1
  Nb  Nb9  1  0.500000  0.000000  0.150888  1
  Nb  Nb10  1  0.500000  0.000000  0.250000  1
  Nb  Nb11  1  0.500000  0.000000  0.451039  1
  Nb  Nb12  1  0.000000  0.500000  0.849112  1
  Nb  Nb13  1  0.500000  0.000000  0.750000  1
  Nb  Nb14  1  0.000000  0.500000  0.150888  1
  Nb  Nb15  1  0.500000  0.000000  0.650888  1
  Nb  Nb16  1  0.000000  0.500000  0.650888  1
  Nb  Nb17  1  0.500000  0.000000  0.349112  1
  Nb  Nb18  1  0.000000  0.500000  0.349112  1
  Nb  Nb19  1  0.000000  0.500000  0.048961  1
  Se  Se20  1  0.963770  0.715043  0.302550  1
  Se  Se21  1  0.790001  0.449452  0.103177  1
  Se  Se22  1  0.187068  0.380618  0.796246  1
  Se  Se23  1  0.619382  0.812932  0.703754  1
  Se  Se24  1  0.104095  0.304901  0.500000  1
  Se  Se25  1  0.320125  0.125284  0.596904  1
  Se  Se26  1  0.715043  0.963770  0.802550  1
  Se  Se27  1  0.449452  0.209999  0.103177  1
  Se  Se28  1  0.781425  0.517483  0.000000  1
  Se  Se29  1  0.619382  0.187068  0.203754  1
  Se  Se30  1  0.715043  0.963770  0.197450  1
  Se  Se31  1  0.187068  0.619382  0.703754  1
  Se  Se32  1  0.812932  0.380618  0.703754  1
  Se  Se33  1  0.695099  0.104095  0.500000  1
  Se  Se34  1  0.482517  0.218575  0.500000  1
  Se  Se35  1  0.449452  0.790001  0.396823  1
  Se  Se36  1  0.550548  0.209999  0.603177  1
  Se  Se37  1  0.284957  0.036230  0.802550  1
  Se  Se38  1  0.715043  0.036230  0.302550  1
  Se  Se39  1  0.679875  0.125284  0.903096  1
  Se  Se40  1  0.874716  0.320125  0.596904  1
  Se  Se41  1  0.550548  0.790001  0.103177  1
  Se  Se42  1  0.874716  0.320125  0.403096  1
  Se  Se43  1  0.304901  0.895905  0.500000  1
  Se  Se44  1  0.320125  0.874716  0.096904  1
  Se  Se45  1  0.284957  0.036230  0.197450  1
  Se  Se46  1  0.812932  0.380618  0.296246  1
  Se  Se47  1  0.218575  0.482517  0.000000  1
  Se  Se48  1  0.125284  0.320125  0.096904  1
  Se  Se49  1  0.209999  0.449452  0.396823  1
  Se  Se50  1  0.036230  0.284957  0.697450  1
  Se  Se51  1  0.284957  0.963770  0.697450  1
  Se  Se52  1  0.284957  0.963770  0.302550  1
  Se  Se53  1  0.812932  0.619382  0.203754  1
  Se  Se54  1  0.036230  0.284957  0.302550  1
  Se  Se55  1  0.036230  0.715043  0.802550  1
  Se  Se56  1  0.517483  0.218575  0.000000  1
  Se  Se57  1  0.380618  0.812932  0.203754  1
  Se  Se58  1  0.125284  0.679875  0.403096  1
  Se  Se59  1  0.874716  0.679875  0.096904  1
  Se  Se60  1  0.380618  0.812932  0.796246  1
  Se  Se61  1  0.320125  0.125284  0.403096  1
  Se  Se62  1  0.679875  0.125284  0.096904  1
  Se  Se63  1  0.550548  0.790001  0.896823  1
  Se  Se64  1  0.104095  0.695099  0.000000  1
  Se  Se65  1  0.781425  0.482517  0.500000  1
  Se  Se66  1  0.812932  0.619382  0.796246  1
  Se  Se67  1  0.380618  0.187068  0.296246  1
  Se  Se68  1  0.482517  0.781425  0.000000  1
  Se  Se69  1  0.209999  0.449452  0.603177  1
  Se  Se70  1  0.209999  0.550548  0.103177  1
  Se  Se71  1  0.449452  0.790001  0.603177  1
  Se  Se72  1  0.790001  0.550548  0.396823  1
  Se  Se73  1  0.895905  0.695099  0.500000  1
  Se  Se74  1  0.715043  0.036230  0.697450  1
  Se  Se75  1  0.790001  0.550548  0.603177  1
  Se  Se76  1  0.619382  0.187068  0.796246  1
  Se  Se77  1  0.790001  0.449452  0.896823  1
  Se  Se78  1  0.963770  0.284957  0.802550  1
  Se  Se79  1  0.125284  0.679875  0.596904  1
  Se  Se80  1  0.209999  0.550548  0.896823  1
  Se  Se81  1  0.304901  0.104095  0.000000  1
  Se  Se82  1  0.874716  0.679875  0.903096  1
  Se  Se83  1  0.449452  0.209999  0.896823  1
  Se  Se84  1  0.187068  0.380618  0.203754  1
  Se  Se85  1  0.679875  0.874716  0.403096  1
  Se  Se86  1  0.036230  0.715043  0.197450  1
  Se  Se87  1  0.550548  0.209999  0.396823  1
  Se  Se88  1  0.963770  0.284957  0.197450  1
  Se  Se89  1  0.679875  0.874716  0.596904  1
  Se  Se90  1  0.187068  0.619382  0.296246  1
  Se  Se91  1  0.517483  0.781425  0.500000  1
  Se  Se92  1  0.380618  0.187068  0.703754  1
  Se  Se93  1  0.125284  0.320125  0.903096  1
  Se  Se94  1  0.695099  0.895905  0.000000  1
  Se  Se95  1  0.963770  0.715043  0.697450  1
  Se  Se96  1  0.218575  0.517483  0.500000  1
  Se  Se97  1  0.320125  0.874716  0.903096  1
  Se  Se98  1  0.619382  0.812932  0.296246  1
  Se  Se99  1  0.895905  0.304901  0.000000  1
  I  I100  1  0.000000  0.000000  0.580369  1
  I  I101  1  0.000000  0.000000  0.419631  1
  I  I102  1  0.000000  0.000000  0.919631  1
  I  I103  1  0.000000  0.000000  0.080369  1
  I  I104  1  0.500000  0.500000  0.250000  1
  I  I105  1  0.500000  0.500000  0.750000  1
