# generated using pymatgen
data_VBiPbO5
_symmetry_space_group_name_H-M   'P 1'
_cell_length_a   5.83139705
_cell_length_b   7.31773259
_cell_length_c   7.32906619
_cell_angle_alpha   106.28982187
_cell_angle_beta   97.95068523
_cell_angle_gamma   112.39444474
_symmetry_Int_Tables_number   1
_chemical_formula_structural   VBiPbO5
_chemical_formula_sum   'V2 Bi2 Pb2 O10'
_cell_volume   266.75239545
_cell_formula_units_Z   2
loop_
 _symmetry_equiv_pos_site_id
 _symmetry_equiv_pos_as_xyz
  1  'x, y, z'
loop_
 _atom_site_type_symbol
 _atom_site_label
 _atom_site_symmetry_multiplicity
 _atom_site_fract_x
 _atom_site_fract_y
 _atom_site_fract_z
 _atom_site_occupancy
  V  V0  1  0.421880  0.692599  0.621044  1
  V  V1  1  0.735178  0.393345  0.924808  1
  Bi  Bi2  1  0.988261  0.010615  0.018843  1
  Bi  Bi3  1  0.166783  0.076586  0.523837  1
  Pb  Pb4  1  0.761240  0.356593  0.384546  1
  Pb  Pb5  1  0.391693  0.733201  0.157658  1
  O  O6  1  0.319909  0.065751  0.269965  1
  O  O7  1  0.946279  0.326268  0.058160  1
  O  O8  1  0.919198  0.663627  0.971734  1
  O  O9  1  0.623264  0.245677  0.667525  1
  O  O10  1  0.835249  0.023883  0.273420  1
  O  O11  1  0.527166  0.848625  0.875691  1
  O  O12  1  0.685780  0.723850  0.534196  1
  O  O13  1  0.478611  0.354815  0.021874  1
  O  O14  1  0.223119  0.762406  0.477713  1
  O  O15  1  0.231087  0.424961  0.581487  1
