# generated using pymatgen
data_LiNiP2O7
_symmetry_space_group_name_H-M   'P 1'
_cell_length_a   7.06205686
_cell_length_b   8.30619316
_cell_length_c   9.16169087
_cell_angle_alpha   90.00000000
_cell_angle_beta   113.74034487
_cell_angle_gamma   90.00000000
_symmetry_Int_Tables_number   1
_chemical_formula_structural   LiNiP2O7
_chemical_formula_sum   'Li4 Ni4 P8 O28'
_cell_volume   491.93755001
_cell_formula_units_Z   4
loop_
 _symmetry_equiv_pos_site_id
 _symmetry_equiv_pos_as_xyz
  1  'x, y, z'
loop_
 _atom_site_type_symbol
 _atom_site_label
 _atom_site_symmetry_multiplicity
 _atom_site_fract_x
 _atom_site_fract_y
 _atom_site_fract_z
 _atom_site_occupancy
  Li  Li0  1  0.302835  0.441449  0.674893  1
  Li  Li1  1  0.697165  0.941449  0.825107  1
  Li  Li2  1  0.697165  0.558551  0.325107  1
  Li  Li3  1  0.302835  0.058551  0.174893  1
  Ni  Ni4  1  0.761640  0.576132  0.885147  1
  Ni  Ni5  1  0.761640  0.923868  0.385147  1
  Ni  Ni6  1  0.238360  0.423868  0.114853  1
  Ni  Ni7  1  0.238360  0.076132  0.614853  1
  P  P8  1  0.058673  0.768194  0.745583  1
  P  P9  1  0.058673  0.731806  0.245583  1
  P  P10  1  0.530566  0.268459  0.468167  1
  P  P11  1  0.469434  0.731541  0.531833  1
  P  P12  1  0.941327  0.268194  0.754417  1
  P  P13  1  0.941327  0.231806  0.254417  1
  P  P14  1  0.530566  0.231541  0.968167  1
  P  P15  1  0.469434  0.768459  0.031833  1
  O  O16  1  0.889918  0.111172  0.815335  1
  O  O17  1  0.438197  0.894283  0.598656  1
  O  O18  1  0.882026  0.742966  0.298938  1
  O  O19  1  0.480498  0.096490  0.842807  1
  O  O20  1  0.561803  0.394283  0.901344  1
  O  O21  1  0.976281  0.405925  0.878614  1
  O  O22  1  0.438197  0.605717  0.098656  1
  O  O23  1  0.253313  0.669090  0.398923  1
  O  O24  1  0.519502  0.903510  0.157193  1
  O  O25  1  0.117974  0.242966  0.201062  1
  O  O26  1  0.377334  0.258749  0.546215  1
  O  O27  1  0.889918  0.388828  0.315335  1
  O  O28  1  0.110082  0.611172  0.684665  1
  O  O29  1  0.746687  0.169090  0.101077  1
  O  O30  1  0.377334  0.241251  0.046215  1
  O  O31  1  0.519502  0.596490  0.657193  1
  O  O32  1  0.622666  0.758749  0.953785  1
  O  O33  1  0.117974  0.257034  0.701062  1
  O  O34  1  0.253313  0.830910  0.898923  1
  O  O35  1  0.622666  0.741251  0.453785  1
  O  O36  1  0.110082  0.888828  0.184665  1
  O  O37  1  0.976281  0.094075  0.378614  1
  O  O38  1  0.561803  0.105717  0.401344  1
  O  O39  1  0.746687  0.330910  0.601077  1
  O  O40  1  0.023719  0.905925  0.621386  1
  O  O41  1  0.882026  0.757034  0.798938  1
  O  O42  1  0.023719  0.594075  0.121386  1
  O  O43  1  0.480498  0.403510  0.342807  1
