# generated using pymatgen
data_Nd12C6I17
_symmetry_space_group_name_H-M   'P 1'
_cell_length_a   11.93452313
_cell_length_b   11.93452313
_cell_length_c   19.35605278
_cell_angle_alpha   89.25034136
_cell_angle_beta   90.74965864
_cell_angle_gamma   116.02381925
_symmetry_Int_Tables_number   1
_chemical_formula_structural   Nd12C6I17
_chemical_formula_sum   'Nd24 C12 I34'
_cell_volume   2477.12168919
_cell_formula_units_Z   2
loop_
 _symmetry_equiv_pos_site_id
 _symmetry_equiv_pos_as_xyz
  1  'x, y, z'
loop_
 _atom_site_type_symbol
 _atom_site_label
 _atom_site_symmetry_multiplicity
 _atom_site_fract_x
 _atom_site_fract_y
 _atom_site_fract_z
 _atom_site_occupancy
  Nd  Nd0  1  0.923223  0.019682  0.152272  1
  Nd  Nd1  1  0.338050  0.192108  0.711347  1
  Nd  Nd2  1  0.702953  0.709648  0.020988  1
  Nd  Nd3  1  0.661950  0.807892  0.288653  1
  Nd  Nd4  1  0.576744  0.897843  0.116983  1
  Nd  Nd5  1  0.897843  0.576744  0.383017  1
  Nd  Nd6  1  0.640531  0.358254  0.050173  1
  Nd  Nd7  1  0.359469  0.641746  0.949827  1
  Nd  Nd8  1  0.102157  0.423256  0.616983  1
  Nd  Nd9  1  0.466167  0.548233  0.627596  1
  Nd  Nd10  1  0.451767  0.533833  0.127596  1
  Nd  Nd11  1  0.980318  0.076777  0.652272  1
  Nd  Nd12  1  0.641746  0.359469  0.550173  1
  Nd  Nd13  1  0.192108  0.338050  0.788653  1
  Nd  Nd14  1  0.423256  0.102157  0.883017  1
  Nd  Nd15  1  0.709648  0.702953  0.479012  1
  Nd  Nd16  1  0.290352  0.297047  0.520988  1
  Nd  Nd17  1  0.076777  0.980318  0.847728  1
  Nd  Nd18  1  0.358254  0.640531  0.449827  1
  Nd  Nd19  1  0.533833  0.451767  0.372404  1
  Nd  Nd20  1  0.019682  0.923223  0.347728  1
  Nd  Nd21  1  0.807892  0.661950  0.211347  1
  Nd  Nd22  1  0.297047  0.290352  0.979012  1
  Nd  Nd23  1  0.548233  0.466167  0.872404  1
  C  C24  1  0.533289  0.468011  0.511681  1
  C  C25  1  0.468011  0.533289  0.988319  1
  C  C26  1  0.168754  0.256152  0.652959  1
  C  C27  1  0.466711  0.531989  0.488319  1
  C  C28  1  0.280193  0.366167  0.649826  1
  C  C29  1  0.366167  0.280193  0.850174  1
  C  C30  1  0.256152  0.168754  0.847041  1
  C  C31  1  0.531989  0.466711  0.011681  1
  C  C32  1  0.831246  0.743848  0.347041  1
  C  C33  1  0.743848  0.831246  0.152959  1
  C  C34  1  0.719807  0.633833  0.350174  1
  C  C35  1  0.633833  0.719807  0.149826  1
  I  I36  1  0.397472  0.095419  0.048720  1
  I  I37  1  0.179879  0.787385  0.398924  1
  I  I38  1  0.894834  0.602462  0.060115  1
  I  I39  1  0.000000  0.000000  0.000000  1
  I  I40  1  0.602528  0.904581  0.951280  1
  I  I41  1  0.716468  0.806666  0.637503  1
  I  I42  1  0.498173  0.033884  0.746257  1
  I  I43  1  0.093442  0.887965  0.196907  1
  I  I44  1  0.095419  0.397472  0.451280  1
  I  I45  1  0.283532  0.193334  0.362497  1
  I  I46  1  0.374141  0.576173  0.292017  1
  I  I47  1  0.501827  0.966116  0.253743  1
  I  I48  1  0.904581  0.602528  0.548720  1
  I  I49  1  0.397538  0.105166  0.560115  1
  I  I50  1  0.423827  0.625859  0.792017  1
  I  I51  1  0.887965  0.093442  0.303093  1
  I  I52  1  0.602462  0.894834  0.439885  1
  I  I53  1  0.966116  0.501827  0.246257  1
  I  I54  1  0.212615  0.820121  0.898924  1
  I  I55  1  0.105166  0.397538  0.939885  1
  I  I56  1  0.193334  0.283532  0.137503  1
  I  I57  1  0.708320  0.310104  0.899788  1
  I  I58  1  0.033884  0.498173  0.753743  1
  I  I59  1  0.820121  0.212615  0.601076  1
  I  I60  1  0.291680  0.689896  0.100212  1
  I  I61  1  0.625859  0.423827  0.707983  1
  I  I62  1  0.787385  0.179879  0.101076  1
  I  I63  1  0.689896  0.291680  0.399788  1
  I  I64  1  0.806666  0.716468  0.862497  1
  I  I65  1  0.310104  0.708320  0.600212  1
  I  I66  1  0.906558  0.112035  0.803093  1
  I  I67  1  0.112035  0.906558  0.696907  1
  I  I68  1  0.576173  0.374141  0.207983  1
  I  I69  1  0.000000  0.000000  0.500000  1
