# generated using pymatgen
data_Y2Si2O7
_symmetry_space_group_name_H-M   'P 1'
_cell_length_a   6.65763054
_cell_length_b   6.70696194
_cell_length_c   36.36485866
_cell_angle_alpha   94.47325127
_cell_angle_beta   91.30608866
_cell_angle_gamma   91.76651414
_symmetry_Int_Tables_number   1
_chemical_formula_structural   Y2Si2O7
_chemical_formula_sum   'Y24 Si24 O84'
_cell_volume   1617.54790160
_cell_formula_units_Z   12
loop_
 _symmetry_equiv_pos_site_id
 _symmetry_equiv_pos_as_xyz
  1  'x, y, z'
loop_
 _atom_site_type_symbol
 _atom_site_label
 _atom_site_symmetry_multiplicity
 _atom_site_fract_x
 _atom_site_fract_y
 _atom_site_fract_z
 _atom_site_occupancy
  Y  Y0  1  0.622164  0.299891  0.955163  1
  Y  Y1  1  0.907015  0.178868  0.792552  1
  Y  Y2  1  0.349540  0.329501  0.201296  1
  Y  Y3  1  0.314359  0.842364  0.369556  1
  Y  Y4  1  0.882487  0.397895  0.048594  1
  Y  Y5  1  0.685641  0.157636  0.630444  1
  Y  Y6  1  0.953326  0.156226  0.128671  1
  Y  Y7  1  0.381585  0.790577  0.696510  1
  Y  Y8  1  0.117513  0.602105  0.951406  1
  Y  Y9  1  0.623626  0.809253  0.454297  1
  Y  Y10  1  0.117253  0.109697  0.451995  1
  Y  Y11  1  0.092985  0.821132  0.207448  1
  Y  Y12  1  0.650460  0.670499  0.798704  1
  Y  Y13  1  0.882747  0.890303  0.548005  1
  Y  Y14  1  0.048859  0.331478  0.706305  1
  Y  Y15  1  0.046674  0.843774  0.871329  1
  Y  Y16  1  0.950148  0.664338  0.630583  1
  Y  Y17  1  0.377836  0.700109  0.044837  1
  Y  Y18  1  0.680028  0.665143  0.133011  1
  Y  Y19  1  0.319972  0.334857  0.866989  1
  Y  Y20  1  0.618415  0.209423  0.303490  1
  Y  Y21  1  0.049852  0.335662  0.369417  1
  Y  Y22  1  0.951141  0.668522  0.293695  1
  Y  Y23  1  0.376374  0.190747  0.545703  1
  Si  Si24  1  0.157481  0.655988  0.790793  1
  Si  Si25  1  0.457873  0.676394  0.276640  1
  Si  Si26  1  0.151785  0.153493  0.290071  1
  Si  Si27  1  0.133925  0.638119  0.459424  1
  Si  Si28  1  0.848215  0.846507  0.709929  1
  Si  Si29  1  0.491387  0.152911  0.107522  1
  Si  Si30  1  0.401045  0.042935  0.778226  1
  Si  Si31  1  0.375926  0.216702  0.031449  1
  Si  Si32  1  0.625619  0.289512  0.469286  1
  Si  Si33  1  0.160802  0.136915  0.630549  1
  Si  Si34  1  0.137212  0.135863  0.959740  1
  Si  Si35  1  0.624074  0.783298  0.968551  1
  Si  Si36  1  0.495932  0.646546  0.606077  1
  Si  Si37  1  0.504068  0.353454  0.393923  1
  Si  Si38  1  0.862788  0.864137  0.040260  1
  Si  Si39  1  0.841951  0.360691  0.871413  1
  Si  Si40  1  0.374381  0.710488  0.530714  1
  Si  Si41  1  0.542127  0.323606  0.723360  1
  Si  Si42  1  0.839198  0.863085  0.369451  1
  Si  Si43  1  0.598955  0.957065  0.221774  1
  Si  Si44  1  0.842519  0.344012  0.209207  1
  Si  Si45  1  0.866075  0.361881  0.540576  1
  Si  Si46  1  0.158049  0.639309  0.128587  1
  Si  Si47  1  0.508613  0.847089  0.892478  1
  O  O48  1  0.324999  0.254002  0.266122  1
  O  O49  1  0.418581  0.671563  0.981854  1
  O  O50  1  0.296319  0.712520  0.309156  1
  O  O51  1  0.222775  0.065575  0.670774  1
  O  O52  1  0.409172  0.548733  0.562861  1
  O  O53  1  0.581419  0.328437  0.018146  1
  O  O54  1  0.046605  0.216371  0.525346  1
  O  O55  1  0.384922  0.992277  0.201770  1
  O  O56  1  0.615078  0.007723  0.798230  1
  O  O57  1  0.935601  0.568663  0.564287  1
  O  O58  1  0.774327  0.607130  0.956494  1
  O  O59  1  0.014571  0.330656  0.640410  1
  O  O60  1  0.020470  0.198697  0.192214  1
  O  O61  1  0.305840  0.598295  0.824931  1
  O  O62  1  0.941755  0.534756  0.233900  1
  O  O63  1  0.726564  0.426777  0.504851  1
  O  O64  1  0.306429  0.803941  0.766578  1
  O  O65  1  0.364727  0.463333  0.708847  1
  O  O66  1  0.280931  0.077053  0.995454  1
  O  O67  1  0.991451  0.478296  0.108153  1
  O  O68  1  0.703113  0.802507  0.867914  1
  O  O69  1  0.589268  0.944564  0.936512  1
  O  O70  1  0.355116  0.003762  0.875634  1
  O  O71  1  0.271817  0.115406  0.329848  1
  O  O72  1  0.985429  0.669344  0.359590  1
  O  O73  1  0.578632  0.823177  0.517104  1
  O  O74  1  0.629069  0.843553  0.595448  1
  O  O75  1  0.253241  0.170737  0.804379  1
  O  O76  1  0.979530  0.801303  0.807786  1
  O  O77  1  0.774387  0.113774  0.456193  1
  O  O78  1  0.296887  0.197493  0.132086  1
  O  O79  1  0.954976  0.279340  0.974659  1
  O  O80  1  0.728183  0.884594  0.670152  1
  O  O81  1  0.370931  0.156447  0.404552  1
  O  O82  1  0.746759  0.829263  0.195621  1
  O  O83  1  0.719451  0.707234  0.062323  1
  O  O84  1  0.644884  0.996238  0.124366  1
  O  O85  1  0.353167  0.619072  0.236455  1
  O  O86  1  0.675001  0.745998  0.733878  1
  O  O87  1  0.025985  0.688903  0.694948  1
  O  O88  1  0.645446  0.310370  0.894865  1
  O  O89  1  0.012393  0.830290  0.139045  1
  O  O90  1  0.703681  0.287480  0.690844  1
  O  O91  1  0.643842  0.812828  0.393462  1
  O  O92  1  0.630242  0.348156  0.097741  1
  O  O93  1  0.064399  0.431337  0.435713  1
  O  O94  1  0.421368  0.176823  0.482896  1
  O  O95  1  0.280549  0.292766  0.937677  1
  O  O96  1  0.369758  0.651844  0.902259  1
  O  O97  1  0.354554  0.689630  0.105135  1
  O  O98  1  0.225673  0.392870  0.043506  1
  O  O99  1  0.693571  0.196059  0.233422  1
  O  O100  1  0.225613  0.886226  0.543807  1
  O  O101  1  0.974015  0.311097  0.305052  1
  O  O102  1  0.273436  0.573223  0.495149  1
  O  O103  1  0.772090  0.425877  0.831220  1
  O  O104  1  0.953395  0.783629  0.474654  1
  O  O105  1  0.694160  0.401705  0.175069  1
  O  O106  1  0.068395  0.927371  0.936527  1
  O  O107  1  0.646833  0.380928  0.763545  1
  O  O108  1  0.227910  0.574123  0.168780  1
  O  O109  1  0.691353  0.309641  0.366872  1
  O  O110  1  0.651782  0.493443  0.622886  1
  O  O111  1  0.581571  0.893964  0.265590  1
  O  O112  1  0.418429  0.106036  0.734410  1
  O  O113  1  0.048464  0.953674  0.266734  1
  O  O114  1  0.996130  0.979678  0.607769  1
  O  O115  1  0.635273  0.536667  0.291153  1
  O  O116  1  0.951536  0.046326  0.733266  1
  O  O117  1  0.931605  0.072629  0.063473  1
  O  O118  1  0.987607  0.169710  0.860955  1
  O  O119  1  0.045024  0.720660  0.025341  1
  O  O120  1  0.008549  0.521704  0.891847  1
  O  O121  1  0.348218  0.506557  0.377114  1
  O  O122  1  0.719807  0.202639  0.561648  1
  O  O123  1  0.410732  0.055436  0.063488  1
  O  O124  1  0.308647  0.690359  0.633128  1
  O  O125  1  0.590828  0.451267  0.437139  1
  O  O126  1  0.356158  0.187172  0.606538  1
  O  O127  1  0.003870  0.020322  0.392231  1
  O  O128  1  0.719069  0.922947  0.004546  1
  O  O129  1  0.058245  0.465244  0.766100  1
  O  O130  1  0.280193  0.797361  0.438352  1
  O  O131  1  0.777225  0.934425  0.329226  1
