# generated using pymatgen
data_AlPO4
_symmetry_space_group_name_H-M   'P 1'
_cell_length_a   18.90773820
_cell_length_b   18.90773820
_cell_length_c   8.69464097
_cell_angle_alpha   90.00000000
_cell_angle_beta   90.00000000
_cell_angle_gamma   120.00000000
_symmetry_Int_Tables_number   1
_chemical_formula_structural   AlPO4
_chemical_formula_sum   'Al18 P18 O72'
_cell_volume   2691.91563886
_cell_formula_units_Z   18
loop_
 _symmetry_equiv_pos_site_id
 _symmetry_equiv_pos_as_xyz
  1  'x, y, z'
loop_
 _atom_site_type_symbol
 _atom_site_label
 _atom_site_symmetry_multiplicity
 _atom_site_fract_x
 _atom_site_fract_y
 _atom_site_fract_z
 _atom_site_occupancy
  Al  Al0  1  0.587270  0.000000  0.685280  1
  Al  Al1  1  0.338678  0.508969  0.171609  1
  Al  Al2  1  0.000000  0.412730  0.185280  1
  Al  Al3  1  0.508969  0.338678  0.171609  1
  Al  Al4  1  0.412730  0.412730  0.685280  1
  Al  Al5  1  0.170291  0.508969  0.671609  1
  Al  Al6  1  0.661322  0.491031  0.671609  1
  Al  Al7  1  0.508969  0.170291  0.671609  1
  Al  Al8  1  0.000000  0.587270  0.685280  1
  Al  Al9  1  0.829709  0.491031  0.171609  1
  Al  Al10  1  0.587270  0.587270  0.185280  1
  Al  Al11  1  0.338678  0.829709  0.671609  1
  Al  Al12  1  0.170291  0.661322  0.171609  1
  Al  Al13  1  0.491031  0.661322  0.671609  1
  Al  Al14  1  0.412730  0.000000  0.185280  1
  Al  Al15  1  0.829709  0.338678  0.671609  1
  Al  Al16  1  0.491031  0.829709  0.171609  1
  Al  Al17  1  0.661322  0.170291  0.171609  1
  P  P18  1  0.500475  0.173943  0.297031  1
  P  P19  1  0.173943  0.500475  0.297031  1
  P  P20  1  0.000000  0.574736  0.310827  1
  P  P21  1  0.826057  0.326532  0.297031  1
  P  P22  1  0.000000  0.425264  0.810827  1
  P  P23  1  0.326532  0.826057  0.297031  1
  P  P24  1  0.499525  0.673468  0.297031  1
  P  P25  1  0.574736  0.000000  0.310827  1
  P  P26  1  0.500475  0.326532  0.797031  1
  P  P27  1  0.173943  0.673468  0.797031  1
  P  P28  1  0.425264  0.000000  0.810827  1
  P  P29  1  0.673468  0.499525  0.297031  1
  P  P30  1  0.673468  0.173943  0.797031  1
  P  P31  1  0.425264  0.425264  0.310827  1
  P  P32  1  0.826057  0.499525  0.797031  1
  P  P33  1  0.326532  0.500475  0.797031  1
  P  P34  1  0.574736  0.574736  0.810827  1
  P  P35  1  0.499525  0.826057  0.797031  1
  O  O36  1  0.570574  0.647171  0.740565  1
  O  O37  1  0.504844  0.504844  0.276270  1
  O  O38  1  0.244474  0.753360  0.249682  1
  O  O39  1  0.508886  0.755526  0.249682  1
  O  O40  1  0.923403  0.352829  0.740565  1
  O  O41  1  0.578445  0.182902  0.222306  1
  O  O42  1  0.329398  0.423750  0.743854  1
  O  O43  1  0.504844  0.000000  0.776270  1
  O  O44  1  0.423750  0.094352  0.243854  1
  O  O45  1  0.352829  0.923403  0.740565  1
  O  O46  1  0.905648  0.576250  0.743854  1
  O  O47  1  0.492069  0.826889  0.972073  1
  O  O48  1  0.182902  0.604457  0.722306  1
  O  O49  1  0.429426  0.352829  0.240565  1
  O  O50  1  0.570574  0.923403  0.240565  1
  O  O51  1  0.414914  0.414914  0.485386  1
  O  O52  1  0.246640  0.755526  0.749682  1
  O  O53  1  0.755526  0.246640  0.749682  1
  O  O54  1  0.352829  0.429426  0.240565  1
  O  O55  1  0.421555  0.817098  0.722306  1
  O  O56  1  0.094352  0.423750  0.243854  1
  O  O57  1  0.507931  0.173111  0.472073  1
  O  O58  1  0.905648  0.329398  0.243854  1
  O  O59  1  0.076597  0.429426  0.740565  1
  O  O60  1  0.423750  0.329398  0.743854  1
  O  O61  1  0.665180  0.173111  0.972073  1
  O  O62  1  0.826889  0.492069  0.972073  1
  O  O63  1  0.585086  0.000000  0.485386  1
  O  O64  1  0.578445  0.395543  0.722306  1
  O  O65  1  0.414914  0.000000  0.985386  1
  O  O66  1  0.923403  0.570574  0.240565  1
  O  O67  1  0.604457  0.421555  0.222306  1
  O  O68  1  0.817098  0.395543  0.222306  1
  O  O69  1  0.491114  0.244474  0.749682  1
  O  O70  1  0.334820  0.507931  0.972073  1
  O  O71  1  0.000000  0.414914  0.985386  1
  O  O72  1  0.395543  0.817098  0.222306  1
  O  O73  1  0.334820  0.826889  0.472073  1
  O  O74  1  0.604457  0.182902  0.722306  1
  O  O75  1  0.508886  0.753360  0.749682  1
  O  O76  1  0.817098  0.421555  0.722306  1
  O  O77  1  0.495156  0.495156  0.776270  1
  O  O78  1  0.670602  0.094352  0.743854  1
  O  O79  1  0.507931  0.334820  0.972073  1
  O  O80  1  0.244474  0.491114  0.749682  1
  O  O81  1  0.173111  0.507931  0.472073  1
  O  O82  1  0.753360  0.244474  0.249682  1
  O  O83  1  0.094352  0.670602  0.743854  1
  O  O84  1  0.576250  0.670602  0.243854  1
  O  O85  1  0.495156  0.000000  0.276270  1
  O  O86  1  0.076597  0.647171  0.240565  1
  O  O87  1  0.429426  0.076597  0.740565  1
  O  O88  1  0.491114  0.246640  0.249682  1
  O  O89  1  0.000000  0.504844  0.776270  1
  O  O90  1  0.647171  0.570574  0.740565  1
  O  O91  1  0.492069  0.665180  0.472073  1
  O  O92  1  0.182902  0.578445  0.222306  1
  O  O93  1  0.665180  0.492069  0.472073  1
  O  O94  1  0.826889  0.334820  0.472073  1
  O  O95  1  0.329398  0.905648  0.243854  1
  O  O96  1  0.173111  0.665180  0.972073  1
  O  O97  1  0.246640  0.491114  0.249682  1
  O  O98  1  0.421555  0.604457  0.222306  1
  O  O99  1  0.000000  0.495156  0.276270  1
  O  O100  1  0.576250  0.905648  0.743854  1
  O  O101  1  0.000000  0.585086  0.485386  1
  O  O102  1  0.647171  0.076597  0.240565  1
  O  O103  1  0.395543  0.578445  0.722306  1
  O  O104  1  0.585086  0.585086  0.985386  1
  O  O105  1  0.755526  0.508886  0.249682  1
  O  O106  1  0.670602  0.576250  0.243854  1
  O  O107  1  0.753360  0.508886  0.749682  1
