# generated using pymatgen
data_Ba2Ru7O18
_symmetry_space_group_name_H-M   'P 1'
_cell_length_a   6.83651184
_cell_length_b   7.22805214
_cell_length_c   7.64974025
_cell_angle_alpha   93.34925907
_cell_angle_beta   94.60072399
_cell_angle_gamma   115.63633346
_symmetry_Int_Tables_number   1
_chemical_formula_structural   Ba2Ru7O18
_chemical_formula_sum   'Ba2 Ru7 O18'
_cell_volume   337.87045311
_cell_formula_units_Z   1
loop_
 _symmetry_equiv_pos_site_id
 _symmetry_equiv_pos_as_xyz
  1  'x, y, z'
loop_
 _atom_site_type_symbol
 _atom_site_label
 _atom_site_symmetry_multiplicity
 _atom_site_fract_x
 _atom_site_fract_y
 _atom_site_fract_z
 _atom_site_occupancy
  Ba  Ba0  1  0.319928  0.687559  0.621515  1
  Ba  Ba1  1  0.680072  0.312441  0.378485  1
  Ru  Ru2  1  0.387349  0.275917  0.884557  1
  Ru  Ru3  1  0.802365  0.127863  0.815813  1
  Ru  Ru4  1  0.197635  0.872137  0.184187  1
  Ru  Ru5  1  0.612651  0.724083  0.115443  1
  Ru  Ru6  1  0.000000  0.000000  0.500000  1
  Ru  Ru7  1  0.825306  0.620124  0.801695  1
  Ru  Ru8  1  0.174694  0.379876  0.198305  1
  O  O9  1  0.918028  0.731999  0.582761  1
  O  O10  1  0.287854  0.167736  0.114353  1
  O  O11  1  0.323059  0.511892  0.985701  1
  O  O12  1  0.475651  0.556027  0.305443  1
  O  O13  1  0.489538  0.908861  0.166175  1
  O  O14  1  0.905021  0.401828  0.730590  1
  O  O15  1  0.712146  0.832264  0.885647  1
  O  O16  1  0.917778  0.233583  0.048755  1
  O  O17  1  0.676941  0.488108  0.014299  1
  O  O18  1  0.081972  0.268001  0.417239  1
  O  O19  1  0.096865  0.131816  0.749854  1
  O  O20  1  0.726498  0.003179  0.572178  1
  O  O21  1  0.094979  0.598172  0.269410  1
  O  O22  1  0.903135  0.868184  0.250146  1
  O  O23  1  0.082222  0.766417  0.951245  1
  O  O24  1  0.510462  0.091139  0.833825  1
  O  O25  1  0.273502  0.996821  0.427822  1
  O  O26  1  0.524349  0.443973  0.694557  1
