# generated using pymatgen
data_Li3Co3(PO4)4
_symmetry_space_group_name_H-M   'P 1'
_cell_length_a   5.08064312
_cell_length_b   7.68397902
_cell_length_c   8.01721109
_cell_angle_alpha   87.90068346
_cell_angle_beta   89.09830015
_cell_angle_gamma   85.69055338
_symmetry_Int_Tables_number   1
_chemical_formula_structural   Li3Co3(PO4)4
_chemical_formula_sum   'Li3 Co3 P4 O16'
_cell_volume   311.86750896
_cell_formula_units_Z   1
loop_
 _symmetry_equiv_pos_site_id
 _symmetry_equiv_pos_as_xyz
  1  'x, y, z'
loop_
 _atom_site_type_symbol
 _atom_site_label
 _atom_site_symmetry_multiplicity
 _atom_site_fract_x
 _atom_site_fract_y
 _atom_site_fract_z
 _atom_site_occupancy
  Li  Li0  1  0.088724  0.403225  0.863355  1
  Li  Li1  1  0.602238  0.895799  0.638324  1
  Li  Li2  1  0.912058  0.595948  0.140766  1
  Co  Co3  1  0.484207  0.988553  0.978729  1
  Co  Co4  1  0.405504  0.099722  0.357838  1
  Co  Co5  1  0.999014  0.523260  0.513382  1
  P  P6  1  0.534979  0.303950  0.689129  1
  P  P7  1  0.463775  0.700696  0.307082  1
  P  P8  1  0.965390  0.197113  0.192544  1
  P  P9  1  0.032362  0.799109  0.808993  1
  O  O10  1  0.939459  0.352614  0.075630  1
  O  O11  1  0.055092  0.643820  0.928577  1
  O  O12  1  0.183916  0.051691  0.142716  1
  O  O13  1  0.538060  0.764020  0.127744  1
  O  O14  1  0.069939  0.239414  0.371194  1
  O  O15  1  0.441183  0.858312  0.426388  1
  O  O16  1  0.687655  0.565501  0.365740  1
  O  O17  1  0.302338  0.887192  0.801310  1
  O  O18  1  0.693825  0.112407  0.208696  1
  O  O19  1  0.953860  0.748080  0.628851  1
  O  O20  1  0.548144  0.149967  0.566830  1
  O  O21  1  0.808231  0.383436  0.683834  1
  O  O22  1  0.460241  0.231675  0.866565  1
  O  O23  1  0.317435  0.447733  0.642845  1
  O  O24  1  0.196599  0.613510  0.316896  1
  O  O25  1  0.815770  0.943250  0.856041  1
