# generated using pymatgen
data_LiNi6P7O24
_symmetry_space_group_name_H-M   'P 1'
_cell_length_a   5.25083876
_cell_length_b   26.38660452
_cell_length_c   6.40251474
_cell_angle_alpha   90.00000000
_cell_angle_beta   107.35687174
_cell_angle_gamma   90.00000000
_symmetry_Int_Tables_number   1
_chemical_formula_structural   LiNi6P7O24
_chemical_formula_sum   'Li2 Ni12 P14 O48'
_cell_volume   846.68692948
_cell_formula_units_Z   2
loop_
 _symmetry_equiv_pos_site_id
 _symmetry_equiv_pos_as_xyz
  1  'x, y, z'
loop_
 _atom_site_type_symbol
 _atom_site_label
 _atom_site_symmetry_multiplicity
 _atom_site_fract_x
 _atom_site_fract_y
 _atom_site_fract_z
 _atom_site_occupancy
  Li  Li0  1  0.864972  0.250000  0.036833  1
  Li  Li1  1  0.135028  0.750000  0.963167  1
  Ni  Ni2  1  0.203563  0.902888  0.588274  1
  Ni  Ni3  1  0.796437  0.097112  0.411726  1
  Ni  Ni4  1  0.810810  0.547829  0.810686  1
  Ni  Ni5  1  0.124827  0.317175  0.774663  1
  Ni  Ni6  1  0.875173  0.682825  0.225337  1
  Ni  Ni7  1  0.189190  0.047829  0.189314  1
  Ni  Ni8  1  0.875173  0.817175  0.225337  1
  Ni  Ni9  1  0.810810  0.952171  0.810686  1
  Ni  Ni10  1  0.124827  0.182825  0.774663  1
  Ni  Ni11  1  0.796437  0.402888  0.411726  1
  Ni  Ni12  1  0.189190  0.452171  0.189314  1
  Ni  Ni13  1  0.203563  0.597112  0.588274  1
  P  P14  1  0.314541  0.889519  0.116768  1
  P  P15  1  0.464025  0.750000  0.405440  1
  P  P16  1  0.289451  0.476000  0.704713  1
  P  P17  1  0.685459  0.110481  0.883232  1
  P  P18  1  0.685459  0.389519  0.883232  1
  P  P19  1  0.756619  0.667053  0.695387  1
  P  P20  1  0.710549  0.976000  0.295287  1
  P  P21  1  0.289451  0.024000  0.704713  1
  P  P22  1  0.243381  0.167053  0.304613  1
  P  P23  1  0.535975  0.250000  0.594560  1
  P  P24  1  0.710549  0.524000  0.295287  1
  P  P25  1  0.756619  0.832947  0.695387  1
  P  P26  1  0.314541  0.610481  0.116768  1
  P  P27  1  0.243381  0.332947  0.304613  1
  O  O28  1  0.878286  0.548314  0.511977  1
  O  O29  1  0.656921  0.750000  0.267923  1
  O  O30  1  0.861394  0.977371  0.124513  1
  O  O31  1  0.137237  0.904636  0.886349  1
  O  O32  1  0.493331  0.296938  0.436335  1
  O  O33  1  0.892867  0.694229  0.910319  1
  O  O34  1  0.942384  0.664163  0.549582  1
  O  O35  1  0.892867  0.805771  0.910319  1
  O  O36  1  0.585111  0.027138  0.327692  1
  O  O37  1  0.485075  0.348959  0.885506  1
  O  O38  1  0.485075  0.151041  0.885506  1
  O  O39  1  0.137237  0.595364  0.886349  1
  O  O40  1  0.142102  0.623010  0.268031  1
  O  O41  1  0.585111  0.472862  0.327692  1
  O  O42  1  0.057616  0.164163  0.450418  1
  O  O43  1  0.857898  0.123010  0.731969  1
  O  O44  1  0.493331  0.203062  0.436335  1
  O  O45  1  0.343079  0.250000  0.732077  1
  O  O46  1  0.451111  0.941787  0.211999  1
  O  O47  1  0.393974  0.118458  0.284810  1
  O  O48  1  0.138606  0.477371  0.875487  1
  O  O49  1  0.451111  0.558213  0.211999  1
  O  O50  1  0.606026  0.618458  0.715190  1
  O  O51  1  0.878286  0.951686  0.511977  1
  O  O52  1  0.548889  0.058213  0.788001  1
  O  O53  1  0.168426  0.750000  0.277125  1
  O  O54  1  0.506669  0.796938  0.563665  1
  O  O55  1  0.107133  0.305771  0.089681  1
  O  O56  1  0.107133  0.194229  0.089681  1
  O  O57  1  0.548889  0.441787  0.788001  1
  O  O58  1  0.142102  0.876990  0.268031  1
  O  O59  1  0.514925  0.651041  0.114494  1
  O  O60  1  0.121714  0.451686  0.488023  1
  O  O61  1  0.414889  0.972862  0.672308  1
  O  O62  1  0.942384  0.835837  0.549582  1
  O  O63  1  0.393974  0.381542  0.284810  1
  O  O64  1  0.057616  0.335837  0.450418  1
  O  O65  1  0.861394  0.522629  0.124513  1
  O  O66  1  0.606026  0.881542  0.715190  1
  O  O67  1  0.121714  0.048314  0.488023  1
  O  O68  1  0.857898  0.376990  0.731969  1
  O  O69  1  0.862763  0.095364  0.113651  1
  O  O70  1  0.862763  0.404636  0.113651  1
  O  O71  1  0.506669  0.703062  0.563665  1
  O  O72  1  0.138606  0.022629  0.875487  1
  O  O73  1  0.514925  0.848959  0.114494  1
  O  O74  1  0.414889  0.527138  0.672308  1
  O  O75  1  0.831574  0.250000  0.722875  1
