# generated using pymatgen
data_Ba4NaMn2O9
_symmetry_space_group_name_H-M   'P 1'
_cell_length_a   10.17573983
_cell_length_b   10.17573983
_cell_length_c   8.40369923
_cell_angle_alpha   90.00000000
_cell_angle_beta   90.00000000
_cell_angle_gamma   120.00000000
_symmetry_Int_Tables_number   1
_chemical_formula_structural   Ba4NaMn2O9
_chemical_formula_sum   'Ba12 Na3 Mn6 O27'
_cell_volume   753.58651971
_cell_formula_units_Z   3
loop_
 _symmetry_equiv_pos_site_id
 _symmetry_equiv_pos_as_xyz
  1  'x, y, z'
loop_
 _atom_site_type_symbol
 _atom_site_label
 _atom_site_symmetry_multiplicity
 _atom_site_fract_x
 _atom_site_fract_y
 _atom_site_fract_z
 _atom_site_occupancy
  Ba  Ba0  1  0.000000  0.353310  0.000000  1
  Ba  Ba1  1  0.673666  0.673666  0.500000  1
  Ba  Ba2  1  0.664161  0.977392  0.745409  1
  Ba  Ba3  1  0.000000  0.326334  0.500000  1
  Ba  Ba4  1  0.335839  0.313231  0.254591  1
  Ba  Ba5  1  0.353310  0.000000  0.000000  1
  Ba  Ba6  1  0.977392  0.664161  0.254591  1
  Ba  Ba7  1  0.022608  0.686769  0.745409  1
  Ba  Ba8  1  0.686769  0.022608  0.254591  1
  Ba  Ba9  1  0.313231  0.335839  0.745409  1
  Ba  Ba10  1  0.326334  0.000000  0.500000  1
  Ba  Ba11  1  0.646690  0.646690  0.000000  1
  Na  Na12  1  0.666667  0.333333  0.756188  1
  Na  Na13  1  0.000000  0.000000  0.000000  1
  Na  Na14  1  0.333333  0.666667  0.243812  1
  Mn  Mn15  1  0.666667  0.333333  0.095705  1
  Mn  Mn16  1  0.000000  0.000000  0.340315  1
  Mn  Mn17  1  0.000000  0.000000  0.659685  1
  Mn  Mn18  1  0.333333  0.666667  0.904295  1
  Mn  Mn19  1  0.333333  0.666667  0.585057  1
  Mn  Mn20  1  0.666667  0.333333  0.414943  1
  O  O21  1  0.655685  0.475867  0.255716  1
  O  O22  1  0.854909  0.000000  0.500000  1
  O  O23  1  0.008561  0.163980  0.219217  1
  O  O24  1  0.182060  0.678605  0.027583  1
  O  O25  1  0.508462  0.327278  0.538383  1
  O  O26  1  0.327278  0.508462  0.461617  1
  O  O27  1  0.818815  0.491538  0.538383  1
  O  O28  1  0.524133  0.179818  0.255716  1
  O  O29  1  0.672722  0.181185  0.538383  1
  O  O30  1  0.181185  0.672722  0.461617  1
  O  O31  1  0.503455  0.321395  0.972417  1
  O  O32  1  0.491538  0.818815  0.461617  1
  O  O33  1  0.145091  0.145091  0.500000  1
  O  O34  1  0.344315  0.820182  0.744284  1
  O  O35  1  0.321395  0.503455  0.027583  1
  O  O36  1  0.475867  0.655685  0.744284  1
  O  O37  1  0.817940  0.496545  0.972417  1
  O  O38  1  0.496545  0.817940  0.027583  1
  O  O39  1  0.179818  0.524133  0.744284  1
  O  O40  1  0.991439  0.155419  0.780783  1
  O  O41  1  0.000000  0.854909  0.500000  1
  O  O42  1  0.844581  0.836020  0.780783  1
  O  O43  1  0.163980  0.008561  0.780783  1
  O  O44  1  0.820182  0.344315  0.255716  1
  O  O45  1  0.678605  0.182060  0.972417  1
  O  O46  1  0.155419  0.991439  0.219217  1
  O  O47  1  0.836020  0.844581  0.219217  1
