# generated using pymatgen
data_Li2Mo4O13
_symmetry_space_group_name_H-M   'P 1'
_cell_length_a   8.40000628
_cell_length_b   8.73455798
_cell_length_c   11.73208216
_cell_angle_alpha   95.88310257
_cell_angle_beta   109.13960584
_cell_angle_gamma   95.83433889
_symmetry_Int_Tables_number   1
_chemical_formula_structural   Li2Mo4O13
_chemical_formula_sum   'Li6 Mo12 O39'
_cell_volume   800.49889308
_cell_formula_units_Z   3
loop_
 _symmetry_equiv_pos_site_id
 _symmetry_equiv_pos_as_xyz
  1  'x, y, z'
loop_
 _atom_site_type_symbol
 _atom_site_label
 _atom_site_symmetry_multiplicity
 _atom_site_fract_x
 _atom_site_fract_y
 _atom_site_fract_z
 _atom_site_occupancy
  Li  Li0  1  0.186139  0.078902  0.634715  1
  Li  Li1  1  0.297771  0.516553  0.997929  1
  Li  Li2  1  0.777486  0.122842  0.627397  1
  Li  Li3  1  0.813861  0.921098  0.365285  1
  Li  Li4  1  0.222514  0.877158  0.372603  1
  Li  Li5  1  0.702229  0.483447  0.002071  1
  Mo  Mo6  1  0.114497  0.437566  0.635995  1
  Mo  Mo7  1  0.494339  0.580986  0.364953  1
  Mo  Mo8  1  0.041901  0.823887  0.035802  1
  Mo  Mo9  1  0.885503  0.562434  0.364005  1
  Mo  Mo10  1  0.856611  0.769470  0.633235  1
  Mo  Mo11  1  0.143389  0.230530  0.366765  1
  Mo  Mo12  1  0.645620  0.841827  0.029348  1
  Mo  Mo13  1  0.354380  0.158173  0.970652  1
  Mo  Mo14  1  0.468565  0.789824  0.639719  1
  Mo  Mo15  1  0.531435  0.210176  0.360281  1
  Mo  Mo16  1  0.505661  0.419014  0.635047  1
  Mo  Mo17  1  0.958099  0.176113  0.964198  1
  O  O18  1  0.932417  0.775735  0.788952  1
  O  O19  1  0.856904  0.327480  0.002063  1
  O  O20  1  0.331561  0.107757  0.386888  1
  O  O21  1  0.877539  0.143661  0.805516  1
  O  O22  1  0.668439  0.892243  0.613112  1
  O  O23  1  0.397285  0.729232  0.422982  1
  O  O24  1  0.676290  0.078861  0.404531  1
  O  O25  1  0.331565  0.586952  0.616493  1
  O  O26  1  0.721433  0.873628  0.187979  1
  O  O27  1  0.184463  0.289774  0.998868  1
  O  O28  1  0.967570  0.271685  0.613304  1
  O  O29  1  0.724440  0.701969  0.408386  1
  O  O30  1  0.143096  0.672520  0.997937  1
  O  O31  1  0.122461  0.856339  0.194484  1
  O  O32  1  0.032430  0.728315  0.386696  1
  O  O33  1  0.149553  0.004922  0.993823  1
  O  O34  1  0.036308  0.408472  0.416620  1
  O  O35  1  0.275560  0.298031  0.591614  1
  O  O36  1  0.375577  0.398471  0.400750  1
  O  O37  1  0.803485  0.516246  0.208015  1
  O  O38  1  0.668435  0.413048  0.383507  1
  O  O39  1  0.196515  0.483754  0.791985  1
  O  O40  1  0.411291  0.568223  0.209510  1
  O  O41  1  0.020204  0.078153  0.398738  1
  O  O42  1  0.453444  0.176881  0.201648  1
  O  O43  1  0.503108  0.326827  0.005395  1
  O  O44  1  0.602715  0.270768  0.577018  1
  O  O45  1  0.500000  0.000000  0.000000  1
  O  O46  1  0.815537  0.710226  0.001132  1
  O  O47  1  0.850447  0.995078  0.006177  1
  O  O48  1  0.067583  0.224265  0.211048  1
  O  O49  1  0.278567  0.126372  0.812021  1
  O  O50  1  0.624423  0.601529  0.599250  1
  O  O51  1  0.588709  0.431777  0.790490  1
  O  O52  1  0.546556  0.823119  0.798352  1
  O  O53  1  0.496892  0.673173  0.994605  1
  O  O54  1  0.963692  0.591528  0.583380  1
  O  O55  1  0.323710  0.921139  0.595469  1
  O  O56  1  0.979796  0.921847  0.601262  1
