# generated using pymatgen
data_Y3(B3Os4)2
_symmetry_space_group_name_H-M   'P 1'
_cell_length_a   10.05528218
_cell_length_b   9.26282352
_cell_length_c   5.52924701
_cell_angle_alpha   81.43030018
_cell_angle_beta   65.63072058
_cell_angle_gamma   32.93897924
_symmetry_Int_Tables_number   1
_chemical_formula_structural   Y3(B3Os4)2
_chemical_formula_sum   'Y3 B6 Os8'
_cell_volume   233.97188672
_cell_formula_units_Z   1
loop_
 _symmetry_equiv_pos_site_id
 _symmetry_equiv_pos_as_xyz
  1  'x, y, z'
loop_
 _atom_site_type_symbol
 _atom_site_label
 _atom_site_symmetry_multiplicity
 _atom_site_fract_x
 _atom_site_fract_y
 _atom_site_fract_z
 _atom_site_occupancy
  Y  Y0  1  0.000000  0.000000  0.000000  1
  Y  Y1  1  0.179707  0.179707  0.820293  1
  Y  Y2  1  0.820293  0.820293  0.179707  1
  B  B3  1  0.526470  0.823949  0.176051  1
  B  B4  1  0.473530  0.176051  0.823949  1
  B  B5  1  0.176051  0.473530  0.526470  1
  B  B6  1  0.318021  0.681979  0.318021  1
  B  B7  1  0.823949  0.526470  0.473530  1
  B  B8  1  0.681979  0.318021  0.681979  1
  Os  Os9  1  0.420253  0.420253  0.579747  1
  Os  Os10  1  0.590270  0.590270  0.909730  1
  Os  Os11  1  0.090270  0.090270  0.409730  1
  Os  Os12  1  0.909730  0.909730  0.590270  1
  Os  Os13  1  0.579747  0.579747  0.420253  1
  Os  Os14  1  0.250000  0.250000  0.250000  1
  Os  Os15  1  0.409730  0.409730  0.090270  1
  Os  Os16  1  0.750000  0.750000  0.750000  1
