# generated using pymatgen
data_VCo3
_symmetry_space_group_name_H-M   'P 1'
_cell_length_a   4.97939672
_cell_length_b   4.97939672
_cell_length_c   12.13731444
_cell_angle_alpha   90.00000000
_cell_angle_beta   90.00000000
_cell_angle_gamma   120.00000000
_symmetry_Int_Tables_number   1
_chemical_formula_structural   VCo3
_chemical_formula_sum   'V6 Co18'
_cell_volume   260.61937135
_cell_formula_units_Z   6
loop_
 _symmetry_equiv_pos_site_id
 _symmetry_equiv_pos_as_xyz
  1  'x, y, z'
loop_
 _atom_site_type_symbol
 _atom_site_label
 _atom_site_symmetry_multiplicity
 _atom_site_fract_x
 _atom_site_fract_y
 _atom_site_fract_z
 _atom_site_occupancy
  V  V0  1  0.000000  0.000000  0.750000  1
  V  V1  1  0.000000  0.000000  0.250000  1
  V  V2  1  0.333333  0.666667  0.088881  1
  V  V3  1  0.333333  0.666667  0.411119  1
  V  V4  1  0.666667  0.333333  0.911119  1
  V  V5  1  0.666667  0.333333  0.588881  1
  Co  Co6  1  0.495456  0.504544  0.750000  1
  Co  Co7  1  0.009089  0.504544  0.750000  1
  Co  Co8  1  0.495456  0.990911  0.750000  1
  Co  Co9  1  0.504544  0.495456  0.250000  1
  Co  Co10  1  0.990911  0.495456  0.250000  1
  Co  Co11  1  0.504544  0.009089  0.250000  1
  Co  Co12  1  0.166007  0.833993  0.917311  1
  Co  Co13  1  0.667986  0.833993  0.582689  1
  Co  Co14  1  0.166007  0.332014  0.582689  1
  Co  Co15  1  0.166007  0.332014  0.917311  1
  Co  Co16  1  0.667986  0.833993  0.917311  1
  Co  Co17  1  0.166007  0.833993  0.582689  1
  Co  Co18  1  0.833993  0.166007  0.082689  1
  Co  Co19  1  0.332014  0.166007  0.417311  1
  Co  Co20  1  0.833993  0.667986  0.417311  1
  Co  Co21  1  0.833993  0.667986  0.082689  1
  Co  Co22  1  0.332014  0.166007  0.082689  1
  Co  Co23  1  0.833993  0.166007  0.417311  1
