# generated using pymatgen
data_TaAgS3
_symmetry_space_group_name_H-M   'P 1'
_cell_length_a   7.37772219
_cell_length_b   7.37772219
_cell_length_c   7.78599523
_cell_angle_alpha   90.00000000
_cell_angle_beta   90.00000000
_cell_angle_gamma   153.41907907
_symmetry_Int_Tables_number   1
_chemical_formula_structural   TaAgS3
_chemical_formula_sum   'Ta2 Ag2 S6'
_cell_volume   189.63313492
_cell_formula_units_Z   2
loop_
 _symmetry_equiv_pos_site_id
 _symmetry_equiv_pos_as_xyz
  1  'x, y, z'
loop_
 _atom_site_type_symbol
 _atom_site_label
 _atom_site_symmetry_multiplicity
 _atom_site_fract_x
 _atom_site_fract_y
 _atom_site_fract_z
 _atom_site_occupancy
  Ta  Ta0  1  0.736990  0.263010  0.750000  1
  Ta  Ta1  1  0.263010  0.736990  0.250000  1
  Ag  Ag2  1  0.000000  0.000000  0.500000  1
  Ag  Ag3  1  0.000000  0.000000  0.000000  1
  S  S4  1  0.325398  0.674602  0.929648  1
  S  S5  1  0.674602  0.325398  0.070352  1
  S  S6  1  0.674602  0.325398  0.429648  1
  S  S7  1  0.325398  0.674602  0.570352  1
  S  S8  1  0.104304  0.895696  0.750000  1
  S  S9  1  0.895696  0.104304  0.250000  1
