# generated using pymatgen
data_CeF3
_symmetry_space_group_name_H-M   'P 1'
_cell_length_a   4.15561777
_cell_length_b   4.15561777
_cell_length_c   7.31918069
_cell_angle_alpha   90.00000000
_cell_angle_beta   90.00000000
_cell_angle_gamma   120.00000000
_symmetry_Int_Tables_number   1
_chemical_formula_structural   CeF3
_chemical_formula_sum   'Ce2 F6'
_cell_volume   109.46222945
_cell_formula_units_Z   2
loop_
 _symmetry_equiv_pos_site_id
 _symmetry_equiv_pos_as_xyz
  1  'x, y, z'
loop_
 _atom_site_type_symbol
 _atom_site_label
 _atom_site_symmetry_multiplicity
 _atom_site_fract_x
 _atom_site_fract_y
 _atom_site_fract_z
 _atom_site_occupancy
  Ce  Ce0  1  0.333333  0.666667  0.750000  1
  Ce  Ce1  1  0.666667  0.333333  0.250000  1
  F  F2  1  0.666667  0.333333  0.578343  1
  F  F3  1  0.333333  0.666667  0.078343  1
  F  F4  1  0.333333  0.666667  0.421657  1
  F  F5  1  0.000000  0.000000  0.250000  1
  F  F6  1  0.000000  0.000000  0.750000  1
  F  F7  1  0.666667  0.333333  0.921657  1
