# generated using pymatgen
data_H9C3N3O2
_symmetry_space_group_name_H-M   'P 1'
_cell_length_a   7.00514198
_cell_length_b   7.38468637
_cell_length_c   12.07735858
_cell_angle_alpha   90.00000000
_cell_angle_beta   90.00000000
_cell_angle_gamma   90.00000000
_symmetry_Int_Tables_number   1
_chemical_formula_structural   H9C3N3O2
_chemical_formula_sum   'H36 C12 N12 O8'
_cell_volume   624.77113741
_cell_formula_units_Z   4
loop_
 _symmetry_equiv_pos_site_id
 _symmetry_equiv_pos_as_xyz
  1  'x, y, z'
loop_
 _atom_site_type_symbol
 _atom_site_label
 _atom_site_symmetry_multiplicity
 _atom_site_fract_x
 _atom_site_fract_y
 _atom_site_fract_z
 _atom_site_occupancy
  H  H0  1  0.875083  0.556868  0.054160  1
  H  H1  1  0.169679  0.229909  0.070212  1
  H  H2  1  0.375083  0.943132  0.945840  1
  H  H3  1  0.191886  0.892039  0.725129  1
  H  H4  1  0.830321  0.729909  0.429788  1
  H  H5  1  0.733444  0.878949  0.134541  1
  H  H6  1  0.233444  0.621051  0.865459  1
  H  H7  1  0.596003  0.387918  0.051004  1
  H  H8  1  0.308114  0.107961  0.225129  1
  H  H9  1  0.935713  0.509814  0.419189  1
  H  H10  1  0.618138  0.787757  0.698822  1
  H  H11  1  0.381862  0.287757  0.801178  1
  H  H12  1  0.053860  0.418463  0.743738  1
  H  H13  1  0.564287  0.490186  0.919189  1
  H  H14  1  0.446140  0.581537  0.243738  1
  H  H15  1  0.766556  0.121051  0.634541  1
  H  H16  1  0.403997  0.887918  0.448996  1
  H  H17  1  0.266556  0.378949  0.365459  1
  H  H18  1  0.124917  0.056868  0.445840  1
  H  H19  1  0.903997  0.612082  0.551004  1
  H  H20  1  0.064287  0.009814  0.080811  1
  H  H21  1  0.179879  0.595630  0.007237  1
  H  H22  1  0.096003  0.112082  0.948996  1
  H  H23  1  0.820121  0.095630  0.492763  1
  H  H24  1  0.881862  0.212243  0.198822  1
  H  H25  1  0.669679  0.270091  0.929788  1
  H  H26  1  0.320121  0.404370  0.507237  1
  H  H27  1  0.435713  0.990186  0.580811  1
  H  H28  1  0.679879  0.904370  0.992763  1
  H  H29  1  0.330321  0.770091  0.570212  1
  H  H30  1  0.118138  0.712243  0.301178  1
  H  H31  1  0.946140  0.918463  0.756262  1
  H  H32  1  0.691886  0.607961  0.274871  1
  H  H33  1  0.624917  0.443132  0.554160  1
  H  H34  1  0.553860  0.081537  0.256262  1
  H  H35  1  0.808114  0.392039  0.774871  1
  C  C36  1  0.523175  0.503871  0.400747  1
  C  C37  1  0.411901  0.333321  0.714903  1
  C  C38  1  0.911901  0.166679  0.285097  1
  C  C39  1  0.476825  0.003871  0.099253  1
  C  C40  1  0.659954  0.404246  0.968811  1
  C  C41  1  0.159954  0.095754  0.031189  1
  C  C42  1  0.840046  0.595754  0.468811  1
  C  C43  1  0.976825  0.496129  0.900747  1
  C  C44  1  0.588099  0.833321  0.785097  1
  C  C45  1  0.088099  0.666679  0.214903  1
  C  C46  1  0.340046  0.904246  0.531189  1
  C  C47  1  0.023175  0.996129  0.599253  1
  N  N48  1  0.351185  0.433151  0.425505  1
  N  N49  1  0.058441  0.933799  0.701304  1
  N  N50  1  0.941559  0.433799  0.798696  1
  N  N51  1  0.648815  0.933151  0.074495  1
  N  N52  1  0.148815  0.566849  0.925505  1
  N  N53  1  0.652930  0.514885  0.481991  1
  N  N54  1  0.851185  0.066849  0.574495  1
  N  N55  1  0.441559  0.066201  0.201304  1
  N  N56  1  0.847070  0.485115  0.981991  1
  N  N57  1  0.152930  0.985115  0.518009  1
  N  N58  1  0.558441  0.566201  0.298696  1
  N  N59  1  0.347070  0.014885  0.018009  1
  O  O60  1  0.728760  0.888209  0.841635  1
  O  O61  1  0.085240  0.174481  0.316958  1
  O  O62  1  0.585240  0.325519  0.683042  1
  O  O63  1  0.414760  0.825519  0.816958  1
  O  O64  1  0.914760  0.674481  0.183042  1
  O  O65  1  0.771240  0.111791  0.341635  1
  O  O66  1  0.271240  0.388209  0.658365  1
  O  O67  1  0.228760  0.611791  0.158365  1
