# generated using pymatgen
data_NaMg4V3O12
_symmetry_space_group_name_H-M   'P 1'
_cell_length_a   10.92927826
_cell_length_b   10.92927826
_cell_length_c   10.92927826
_cell_angle_alpha   142.79590533
_cell_angle_beta   142.79590533
_cell_angle_gamma   53.63170402
_symmetry_Int_Tables_number   1
_chemical_formula_structural   NaMg4V3O12
_chemical_formula_sum   'Na2 Mg8 V6 O24'
_cell_volume   474.22723368
_cell_formula_units_Z   2
loop_
 _symmetry_equiv_pos_site_id
 _symmetry_equiv_pos_as_xyz
  1  'x, y, z'
loop_
 _atom_site_type_symbol
 _atom_site_label
 _atom_site_symmetry_multiplicity
 _atom_site_fract_x
 _atom_site_fract_y
 _atom_site_fract_z
 _atom_site_occupancy
  Na  Na0  1  0.500000  0.500000  0.000000  1
  Na  Na1  1  0.250000  0.750000  0.500000  1
  Mg  Mg2  1  0.225738  0.225738  0.000000  1
  Mg  Mg3  1  0.774262  0.774262  0.000000  1
  Mg  Mg4  1  0.524262  0.024262  0.500000  1
  Mg  Mg5  1  0.975738  0.475738  0.500000  1
  Mg  Mg6  1  0.875000  0.883480  0.508480  1
  Mg  Mg7  1  0.116520  0.625000  0.991520  1
  Mg  Mg8  1  0.633480  0.125000  0.008480  1
  Mg  Mg9  1  0.375000  0.366520  0.491520  1
  V  V10  1  0.000000  0.000000  0.000000  1
  V  V11  1  0.750000  0.250000  0.500000  1
  V  V12  1  0.375000  0.776475  0.901475  1
  V  V13  1  0.223525  0.125000  0.598525  1
  V  V14  1  0.526475  0.625000  0.401475  1
  V  V15  1  0.875000  0.473525  0.098525  1
  O  O16  1  0.837465  0.990598  0.736701  1
  O  O17  1  0.009402  0.746103  0.846866  1
  O  O18  1  0.899237  0.162535  0.153134  1
  O  O19  1  0.496103  0.259402  0.346866  1
  O  O20  1  0.912535  0.149237  0.653134  1
  O  O21  1  0.253897  0.100763  0.263299  1
  O  O22  1  0.740598  0.087465  0.236701  1
  O  O23  1  0.850763  0.503897  0.763299  1
  O  O24  1  0.556484  0.869969  0.230308  1
  O  O25  1  0.130031  0.360339  0.686514  1
  O  O26  1  0.673825  0.443516  0.313486  1
  O  O27  1  0.110339  0.380031  0.186514  1
  O  O28  1  0.193516  0.923825  0.813486  1
  O  O29  1  0.639661  0.326175  0.769692  1
  O  O30  1  0.619969  0.806484  0.730308  1
  O  O31  1  0.076175  0.889661  0.269692  1
  O  O32  1  0.859740  0.568245  0.310412  1
  O  O33  1  0.431755  0.742167  0.291495  1
  O  O34  1  0.450672  0.140260  0.708505  1
  O  O35  1  0.492167  0.681755  0.791495  1
  O  O36  1  0.890260  0.700672  0.208505  1
  O  O37  1  0.257833  0.549328  0.689588  1
  O  O38  1  0.318245  0.109740  0.810412  1
  O  O39  1  0.299328  0.507833  0.189588  1
