# generated using pymatgen
data_Nd5Co21B4
_symmetry_space_group_name_H-M   'P 1'
_cell_length_a   5.08689175
_cell_length_b   5.08689175
_cell_length_c   17.61066786
_cell_angle_alpha   90.00000000
_cell_angle_beta   90.00000000
_cell_angle_gamma   120.00000000
_symmetry_Int_Tables_number   1
_chemical_formula_structural   Nd5Co21B4
_chemical_formula_sum   'Nd5 Co21 B4'
_cell_volume   394.64940244
_cell_formula_units_Z   1
loop_
 _symmetry_equiv_pos_site_id
 _symmetry_equiv_pos_as_xyz
  1  'x, y, z'
loop_
 _atom_site_type_symbol
 _atom_site_label
 _atom_site_symmetry_multiplicity
 _atom_site_fract_x
 _atom_site_fract_y
 _atom_site_fract_z
 _atom_site_occupancy
  Nd  Nd0  1  0.000000  0.000000  0.500000  1
  Nd  Nd1  1  0.000000  0.000000  0.108393  1
  Nd  Nd2  1  0.000000  0.000000  0.891607  1
  Nd  Nd3  1  0.000000  0.000000  0.304922  1
  Nd  Nd4  1  0.000000  0.000000  0.695078  1
  Co  Co5  1  0.666667  0.333333  0.500000  1
  Co  Co6  1  0.333333  0.666667  0.500000  1
  Co  Co7  1  0.666667  0.333333  0.111012  1
  Co  Co8  1  0.333333  0.666667  0.111012  1
  Co  Co9  1  0.333333  0.666667  0.888988  1
  Co  Co10  1  0.666667  0.333333  0.888988  1
  Co  Co11  1  0.500000  0.000000  0.223432  1
  Co  Co12  1  0.500000  0.500000  0.223432  1
  Co  Co13  1  0.000000  0.500000  0.223432  1
  Co  Co14  1  0.500000  0.000000  0.776568  1
  Co  Co15  1  0.500000  0.500000  0.776568  1
  Co  Co16  1  0.000000  0.500000  0.776568  1
  Co  Co17  1  0.500000  0.000000  0.387610  1
  Co  Co18  1  0.500000  0.500000  0.387610  1
  Co  Co19  1  0.000000  0.500000  0.387610  1
  Co  Co20  1  0.500000  0.000000  0.612390  1
  Co  Co21  1  0.500000  0.500000  0.612390  1
  Co  Co22  1  0.000000  0.500000  0.612390  1
  Co  Co23  1  0.500000  0.000000  0.000000  1
  Co  Co24  1  0.500000  0.500000  0.000000  1
  Co  Co25  1  0.000000  0.500000  0.000000  1
  B  B26  1  0.666667  0.333333  0.305462  1
  B  B27  1  0.333333  0.666667  0.305462  1
  B  B28  1  0.333333  0.666667  0.694538  1
  B  B29  1  0.666667  0.333333  0.694538  1
