# generated using pymatgen
data_Tm(SiRu)2
_symmetry_space_group_name_H-M   'P 1'
_cell_length_a   5.58617032
_cell_length_b   5.58617032
_cell_length_c   5.58617032
_cell_angle_alpha   136.13176612
_cell_angle_beta   136.13176612
_cell_angle_gamma   63.77668841
_symmetry_Int_Tables_number   1
_chemical_formula_structural   Tm(SiRu)2
_chemical_formula_sum   'Tm1 Si2 Ru2'
_cell_volume   82.60862420
_cell_formula_units_Z   1
loop_
 _symmetry_equiv_pos_site_id
 _symmetry_equiv_pos_as_xyz
  1  'x, y, z'
loop_
 _atom_site_type_symbol
 _atom_site_label
 _atom_site_symmetry_multiplicity
 _atom_site_fract_x
 _atom_site_fract_y
 _atom_site_fract_z
 _atom_site_occupancy
  Tm  Tm0  1  0.000000  0.000000  0.000000  1
  Si  Si1  1  0.369429  0.369429  0.000000  1
  Si  Si2  1  0.630571  0.630571  0.000000  1
  Ru  Ru3  1  0.250000  0.750000  0.500000  1
  Ru  Ru4  1  0.750000  0.250000  0.500000  1
