# generated using pymatgen
data_CaCr2O4
_symmetry_space_group_name_H-M   'P 1'
_cell_length_a   5.18773842
_cell_length_b   5.98023048
_cell_length_c   11.11284006
_cell_angle_alpha   90.00000000
_cell_angle_beta   90.00000000
_cell_angle_gamma   90.00000000
_symmetry_Int_Tables_number   1
_chemical_formula_structural   CaCr2O4
_chemical_formula_sum   'Ca4 Cr8 O16'
_cell_volume   344.76332115
_cell_formula_units_Z   4
loop_
 _symmetry_equiv_pos_site_id
 _symmetry_equiv_pos_as_xyz
  1  'x, y, z'
loop_
 _atom_site_type_symbol
 _atom_site_label
 _atom_site_symmetry_multiplicity
 _atom_site_fract_x
 _atom_site_fract_y
 _atom_site_fract_z
 _atom_site_occupancy
  Ca  Ca0  1  0.856262  0.000000  0.500000  1
  Ca  Ca1  1  0.143738  0.500000  0.000000  1
  Ca  Ca2  1  0.535206  0.000000  0.000000  1
  Ca  Ca3  1  0.464794  0.500000  0.500000  1
  Cr  Cr4  1  0.505984  0.500000  0.240559  1
  Cr  Cr5  1  0.505984  0.500000  0.759441  1
  Cr  Cr6  1  0.494016  0.000000  0.259441  1
  Cr  Cr7  1  0.494016  0.000000  0.740559  1
  Cr  Cr8  1  0.000000  0.250000  0.250000  1
  Cr  Cr9  1  0.000000  0.750000  0.750000  1
  Cr  Cr10  1  0.000000  0.750000  0.250000  1
  Cr  Cr11  1  0.000000  0.250000  0.750000  1
  O  O12  1  0.842898  0.500000  0.152672  1
  O  O13  1  0.842898  0.500000  0.847328  1
  O  O14  1  0.157102  0.000000  0.347328  1
  O  O15  1  0.157102  0.000000  0.652672  1
  O  O16  1  0.180191  0.500000  0.339551  1
  O  O17  1  0.180191  0.500000  0.660449  1
  O  O18  1  0.819809  0.000000  0.160449  1
  O  O19  1  0.819809  0.000000  0.839551  1
  O  O20  1  0.665142  0.253280  0.350825  1
  O  O21  1  0.665142  0.746720  0.649175  1
  O  O22  1  0.334858  0.753280  0.149175  1
  O  O23  1  0.334858  0.246720  0.850825  1
  O  O24  1  0.334858  0.246720  0.149175  1
  O  O25  1  0.334858  0.753280  0.850825  1
  O  O26  1  0.665142  0.746720  0.350825  1
  O  O27  1  0.665142  0.253280  0.649175  1
