# generated using pymatgen
data_AgBF5
_symmetry_space_group_name_H-M   'P 1'
_cell_length_a   6.83424001
_cell_length_b   6.83424001
_cell_length_c   4.11244702
_cell_angle_alpha   90.00000000
_cell_angle_beta   90.00000000
_cell_angle_gamma   90.00000000
_symmetry_Int_Tables_number   1
_chemical_formula_structural   AgBF5
_chemical_formula_sum   'Ag2 B2 F10'
_cell_volume   192.07939064
_cell_formula_units_Z   2
loop_
 _symmetry_equiv_pos_site_id
 _symmetry_equiv_pos_as_xyz
  1  'x, y, z'
loop_
 _atom_site_type_symbol
 _atom_site_label
 _atom_site_symmetry_multiplicity
 _atom_site_fract_x
 _atom_site_fract_y
 _atom_site_fract_z
 _atom_site_occupancy
  Ag  Ag0  1  0.500000  0.000000  0.820315  1
  Ag  Ag1  1  0.000000  0.500000  0.179685  1
  B  B2  1  0.000000  0.000000  0.000000  1
  B  B3  1  0.500000  0.500000  0.000000  1
  F  F4  1  0.000000  0.500000  0.680114  1
  F  F5  1  0.500000  0.000000  0.319886  1
  F  F6  1  0.564894  0.657275  0.802215  1
  F  F7  1  0.842725  0.064894  0.802215  1
  F  F8  1  0.342725  0.564894  0.197785  1
  F  F9  1  0.064894  0.157275  0.197785  1
  F  F10  1  0.935106  0.842725  0.197785  1
  F  F11  1  0.657275  0.435106  0.197785  1
  F  F12  1  0.157275  0.935106  0.802215  1
  F  F13  1  0.435106  0.342725  0.802215  1
