# generated using pymatgen
data_Na2Al17Si11B7(H3O31)2
_symmetry_space_group_name_H-M   'P 1'
_cell_length_a   9.48462213
_cell_length_b   9.48934655
_cell_length_c   13.27223751
_cell_angle_alpha   98.59833994
_cell_angle_beta   98.76401351
_cell_angle_gamma   114.40693573
_symmetry_Int_Tables_number   1
_chemical_formula_structural   Na2Al17Si11B7(H3O31)2
_chemical_formula_sum   'Na2 Al17 Si11 B7 H6 O62'
_cell_volume   1044.70003413
_cell_formula_units_Z   1
loop_
 _symmetry_equiv_pos_site_id
 _symmetry_equiv_pos_as_xyz
  1  'x, y, z'
loop_
 _atom_site_type_symbol
 _atom_site_label
 _atom_site_symmetry_multiplicity
 _atom_site_fract_x
 _atom_site_fract_y
 _atom_site_fract_z
 _atom_site_occupancy
  Na  Na0  1  0.397166  0.396890  0.396905  1
  Na  Na1  1  0.864304  0.857591  0.856893  1
  Al  Al2  1  0.866492  0.431043  0.192629  1
  Al  Al3  1  0.365234  0.591045  0.029622  1
  Al  Al4  1  0.013665  0.195470  0.193913  1
  Al  Al5  1  0.287270  0.284849  0.103396  1
  Al  Al6  1  0.598501  0.375488  0.030818  1
  Al  Al7  1  0.754223  0.086078  0.310863  1
  Al  Al8  1  0.359023  0.919967  0.697898  1
  Al  Al9  1  0.866491  0.080498  0.535842  1
  Al  Al10  1  0.183715  0.003201  0.188721  1
  Al  Al11  1  0.519207  0.689122  0.679365  1
  Al  Al12  1  0.079287  0.864883  0.534086  1
  Al  Al13  1  0.253252  0.588105  0.808288  1
  Al  Al14  1  0.425105  0.867058  0.195594  1
  Al  Al15  1  0.078838  0.752475  0.306290  1
  Al  Al16  1  0.688603  0.518611  0.680365  1
  Al  Al17  1  0.586439  0.252927  0.808425  1
  Al  Al18  1  0.919831  0.360038  0.698561  1
  Si  Si19  1  0.707818  0.882545  0.078865  1
  Si  Si20  1  0.773358  0.585831  0.390545  1
  Si  Si21  1  0.670130  0.290407  0.482189  1
  Si  Si22  1  0.196104  0.390932  0.578423  1
  Si  Si23  1  0.266845  0.078416  0.889908  1
  Si  Si24  1  0.388930  0.196563  0.578548  1
  Si  Si25  1  0.160422  0.782602  0.987013  1
  Si  Si26  1  0.585858  0.775021  0.390505  1
  Si  Si27  1  0.289196  0.672362  0.481365  1
  Si  Si28  1  0.081795  0.267443  0.887958  1
  Si  Si29  1  0.789775  0.169274  0.984924  1
  B  B30  1  0.204135  0.533131  0.201816  1
  B  B31  1  0.892775  0.695869  0.080719  1
  B  B32  1  0.695523  0.024486  0.705109  1
  B  B33  1  0.532474  0.203712  0.199390  1
  B  B34  1  0.036417  0.037357  0.364458  1
  B  B35  1  0.023812  0.695161  0.704214  1
  B  B36  1  0.538497  0.538607  0.863878  1
  H  H37  1  0.987256  0.362208  0.358894  1
  H  H38  1  0.552248  0.552714  0.172827  1
  H  H39  1  0.478519  0.862014  0.859157  1
  H  H40  1  0.030137  0.028108  0.666789  1
  H  H41  1  0.355656  0.987227  0.358253  1
  H  H42  1  0.859468  0.480310  0.860704  1
  O  O43  1  0.274674  0.898372  0.101518  1
  O  O44  1  0.010714  0.804064  0.179770  1
  O  O45  1  0.521837  0.801943  0.088069  1
  O  O46  1  0.873508  0.585864  0.299972  1
  O  O47  1  0.310405  0.641404  0.158615  1
  O  O48  1  0.088667  0.566708  0.234482  1
  O  O49  1  0.770184  0.752172  0.047141  1
  O  O50  1  0.671890  0.398967  0.396849  1
  O  O51  1  0.768627  0.392541  0.601285  1
  O  O52  1  0.516458  0.311611  0.687798  1
  O  O53  1  0.195496  0.480340  0.479883  1
  O  O54  1  0.628753  0.629973  0.341898  1
  O  O55  1  0.485665  0.486406  0.103128  1
  O  O56  1  0.914361  0.294496  0.291224  1
  O  O57  1  0.208488  0.388949  0.205787  1
  O  O58  1  0.809465  0.529495  0.089931  1
  O  O59  1  0.736235  0.166105  0.442521  1
  O  O60  1  0.373637  0.090684  0.804677  1
  O  O61  1  0.013541  0.302950  0.589324  1
  O  O62  1  0.812445  0.134989  0.666463  1
  O  O63  1  0.578528  0.067688  0.730812  1
  O  O64  1  0.102559  0.104685  0.101417  1
  O  O65  1  0.177347  0.896483  0.903181  1
  O  O66  1  0.259158  0.260492  0.537634  1
  O  O67  1  0.641656  0.311757  0.157400  1
  O  O68  1  0.922313  0.072169  0.398552  1
  O  O69  1  0.116433  0.115727  0.293963  1
  O  O70  1  0.387823  0.205776  0.203901  1
  O  O71  1  0.478167  0.195968  0.480125  1
  O  O72  1  0.709182  0.978080  0.983033  1
  O  O73  1  0.116994  0.116204  0.845693  1
  O  O74  1  0.696283  0.891069  0.498111  1
  O  O75  1  0.899385  0.274318  0.101988  1
  O  O76  1  0.394841  0.796464  0.795814  1
  O  O77  1  0.013899  0.013411  0.590989  1
  O  O78  1  0.689567  0.884965  0.720390  1
  O  O79  1  0.568133  0.088213  0.231794  1
  O  O80  1  0.067248  0.920083  0.396427  1
  O  O81  1  0.228372  0.656421  0.947149  1
  O  O82  1  0.301642  0.013919  0.589062  1
  O  O83  1  0.291406  0.913338  0.290196  1
  O  O84  1  0.889118  0.695842  0.498345  1
  O  O85  1  0.815963  0.018150  0.187694  1
  O  O86  1  0.561640  0.561494  0.589482  1
  O  O87  1  0.134164  0.811539  0.665338  1
  O  O88  1  0.422889  0.572346  0.899919  1
  O  O89  1  0.613329  0.613517  0.792857  1
  O  O90  1  0.884298  0.689173  0.719326  1
  O  O91  1  0.164384  0.737948  0.441313  1
  O  O92  1  0.586934  0.875644  0.299296  1
  O  O93  1  0.974809  0.697646  0.991049  1
  O  O94  1  0.206636  0.374649  0.000758  1
  O  O95  1  0.392855  0.770174  0.600515  1
  O  O96  1  0.398582  0.674851  0.396428  1
  O  O97  1  0.067167  0.578548  0.730508  1
  O  O98  1  0.569010  0.420832  0.898624  1
  O  O99  1  0.795833  0.396899  0.796403  1
  O  O100  1  0.312166  0.518660  0.687439  1
  O  O101  1  0.376189  0.207117  0.000755  1
  O  O102  1  0.094853  0.374733  0.803230  1
  O  O103  1  0.657860  0.230202  0.947575  1
  O  O104  1  0.899406  0.184992  0.900337  1
