# generated using pymatgen
data_K4Mn3F12
_symmetry_space_group_name_H-M   'P 1'
_cell_length_a   10.31324219
_cell_length_b   10.31324219
_cell_length_c   10.31324219
_cell_angle_alpha   131.29313219
_cell_angle_beta   131.29313219
_cell_angle_gamma   71.34776541
_symmetry_Int_Tables_number   1
_chemical_formula_structural   K4Mn3F12
_chemical_formula_sum   'K8 Mn6 F24'
_cell_volume   606.10844370
_cell_formula_units_Z   2
loop_
 _symmetry_equiv_pos_site_id
 _symmetry_equiv_pos_as_xyz
  1  'x, y, z'
loop_
 _atom_site_type_symbol
 _atom_site_label
 _atom_site_symmetry_multiplicity
 _atom_site_fract_x
 _atom_site_fract_y
 _atom_site_fract_z
 _atom_site_occupancy
  K  K0  1  0.875000  0.403771  0.028771  1
  K  K1  1  0.153771  0.625000  0.028771  1
  K  K2  1  0.596229  0.125000  0.971229  1
  K  K3  1  0.375000  0.846229  0.971229  1
  K  K4  1  0.875000  0.846229  0.471229  1
  K  K5  1  0.596229  0.625000  0.471229  1
  K  K6  1  0.375000  0.403771  0.528771  1
  K  K7  1  0.153771  0.125000  0.528771  1
  Mn  Mn8  1  0.750000  0.250000  0.500000  1
  Mn  Mn9  1  0.000000  0.000000  0.000000  1
  Mn  Mn10  1  0.242726  0.242726  0.000000  1
  Mn  Mn11  1  0.992726  0.492726  0.500000  1
  Mn  Mn12  1  0.507274  0.007274  0.500000  1
  Mn  Mn13  1  0.757274  0.757274  0.000000  1
  F  F14  1  0.643889  0.643889  0.000000  1
  F  F15  1  0.393889  0.893889  0.500000  1
  F  F16  1  0.106111  0.606111  0.500000  1
  F  F17  1  0.356111  0.356111  0.000000  1
  F  F18  1  0.873022  0.873022  0.000000  1
  F  F19  1  0.623022  0.123022  0.500000  1
  F  F20  1  0.876978  0.376978  0.500000  1
  F  F21  1  0.126978  0.126978  0.000000  1
  F  F22  1  0.538184  0.758267  0.779916  1
  F  F23  1  0.241732  0.021649  0.779916  1
  F  F24  1  0.241732  0.461816  0.220084  1
  F  F25  1  0.211816  0.491732  0.720084  1
  F  F26  1  0.771649  0.491733  0.279916  1
  F  F27  1  0.508268  0.228351  0.720084  1
  F  F28  1  0.992882  0.245230  0.747652  1
  F  F29  1  0.995230  0.747578  0.752348  1
  F  F30  1  0.995230  0.242882  0.247652  1
  F  F31  1  0.757118  0.004770  0.752348  1
  F  F32  1  0.252422  0.004770  0.247652  1
  F  F33  1  0.754770  0.502422  0.747652  1
  F  F34  1  0.754770  0.007118  0.252348  1
  F  F35  1  0.497578  0.245230  0.252348  1
  F  F36  1  0.978351  0.758268  0.220084  1
  F  F37  1  0.508268  0.788184  0.279916  1
