# generated using pymatgen
data_Ca(GaO2)2
_symmetry_space_group_name_H-M   'P 1'
_cell_length_a   7.83661744
_cell_length_b   9.24074180
_cell_length_c   10.45652217
_cell_angle_alpha   90.00000000
_cell_angle_beta   90.00000000
_cell_angle_gamma   90.00000000
_symmetry_Int_Tables_number   1
_chemical_formula_structural   Ca(GaO2)2
_chemical_formula_sum   'Ca8 Ga16 O32'
_cell_volume   757.22116524
_cell_formula_units_Z   8
loop_
 _symmetry_equiv_pos_site_id
 _symmetry_equiv_pos_as_xyz
  1  'x, y, z'
loop_
 _atom_site_type_symbol
 _atom_site_label
 _atom_site_symmetry_multiplicity
 _atom_site_fract_x
 _atom_site_fract_y
 _atom_site_fract_z
 _atom_site_occupancy
  Ca  Ca0  1  0.502586  0.078586  0.886868  1
  Ca  Ca1  1  0.495933  0.626951  0.679126  1
  Ca  Ca2  1  0.995933  0.126951  0.820874  1
  Ca  Ca3  1  0.002586  0.578586  0.613132  1
  Ca  Ca4  1  0.504067  0.126951  0.320874  1
  Ca  Ca5  1  0.497414  0.578586  0.113132  1
  Ca  Ca6  1  0.997414  0.078586  0.386868  1
  Ca  Ca7  1  0.004067  0.626951  0.179126  1
  Ga  Ga8  1  0.785983  0.751134  0.883045  1
  Ga  Ga9  1  0.743031  0.423960  0.847892  1
  Ga  Ga10  1  0.693702  0.923736  0.628623  1
  Ga  Ga11  1  0.256969  0.923960  0.152108  1
  Ga  Ga12  1  0.285983  0.251134  0.616955  1
  Ga  Ga13  1  0.806298  0.923736  0.128623  1
  Ga  Ga14  1  0.714017  0.751134  0.383045  1
  Ga  Ga15  1  0.306298  0.423736  0.371377  1
  Ga  Ga16  1  0.312677  0.750959  0.406200  1
  Ga  Ga17  1  0.812677  0.250959  0.093800  1
  Ga  Ga18  1  0.687323  0.250959  0.593800  1
  Ga  Ga19  1  0.756969  0.423960  0.347892  1
  Ga  Ga20  1  0.243031  0.923960  0.652108  1
  Ga  Ga21  1  0.193702  0.423736  0.871377  1
  Ga  Ga22  1  0.214017  0.251134  0.116955  1
  Ga  Ga23  1  0.187323  0.750959  0.906200  1
  O  O24  1  0.337996  0.924177  0.320807  1
  O  O25  1  0.673333  0.272166  0.951294  1
  O  O26  1  0.978631  0.688173  0.968552  1
  O  O27  1  0.250281  0.601218  0.795451  1
  O  O28  1  0.261127  0.430566  0.042816  1
  O  O29  1  0.973397  0.398087  0.801860  1
  O  O30  1  0.761127  0.930566  0.457184  1
  O  O31  1  0.826667  0.272166  0.451294  1
  O  O32  1  0.749719  0.101218  0.204549  1
  O  O33  1  0.173333  0.772166  0.548706  1
  O  O34  1  0.521369  0.688173  0.468552  1
  O  O35  1  0.162004  0.924177  0.820807  1
  O  O36  1  0.473397  0.898087  0.698140  1
  O  O37  1  0.238873  0.430566  0.542816  1
  O  O38  1  0.137133  0.093447  0.591295  1
  O  O39  1  0.704537  0.757039  0.203337  1
  O  O40  1  0.021369  0.188173  0.031448  1
  O  O41  1  0.750281  0.101218  0.704549  1
  O  O42  1  0.326667  0.772166  0.048706  1
  O  O43  1  0.249719  0.601218  0.295451  1
  O  O44  1  0.204537  0.257039  0.296663  1
  O  O45  1  0.738873  0.930566  0.957184  1
  O  O46  1  0.526603  0.398087  0.301860  1
  O  O47  1  0.862867  0.593447  0.408705  1
  O  O48  1  0.795463  0.757039  0.703337  1
  O  O49  1  0.295463  0.257039  0.796663  1
  O  O50  1  0.478631  0.188173  0.531448  1
  O  O51  1  0.362867  0.093447  0.091295  1
  O  O52  1  0.837996  0.424177  0.179193  1
  O  O53  1  0.026603  0.898087  0.198140  1
  O  O54  1  0.637133  0.593447  0.908705  1
  O  O55  1  0.662004  0.424177  0.679193  1
