# generated using pymatgen
data_LiFe(PO3)4
_symmetry_space_group_name_H-M   'P 1'
_cell_length_a   7.00978372
_cell_length_b   7.00978372
_cell_length_c   9.61674417
_cell_angle_alpha   88.83306478
_cell_angle_beta   91.16693522
_cell_angle_gamma   70.50928004
_symmetry_Int_Tables_number   1
_chemical_formula_structural   LiFe(PO3)4
_chemical_formula_sum   'Li2 Fe2 P8 O24'
_cell_volume   445.18269011
_cell_formula_units_Z   2
loop_
 _symmetry_equiv_pos_site_id
 _symmetry_equiv_pos_as_xyz
  1  'x, y, z'
loop_
 _atom_site_type_symbol
 _atom_site_label
 _atom_site_symmetry_multiplicity
 _atom_site_fract_x
 _atom_site_fract_y
 _atom_site_fract_z
 _atom_site_occupancy
  Li  Li0  1  0.334262  0.334262  0.250000  1
  Li  Li1  1  0.665738  0.665738  0.750000  1
  Fe  Fe2  1  0.385137  0.385137  0.750000  1
  Fe  Fe3  1  0.614863  0.614863  0.250000  1
  P  P4  1  0.123215  0.229927  0.966922  1
  P  P5  1  0.229927  0.123215  0.533078  1
  P  P6  1  0.701073  0.221170  0.028201  1
  P  P7  1  0.770073  0.876785  0.466922  1
  P  P8  1  0.876785  0.770073  0.033078  1
  P  P9  1  0.778830  0.298927  0.528201  1
  P  P10  1  0.221170  0.701073  0.471799  1
  P  P11  1  0.298927  0.778830  0.971799  1
  O  O12  1  0.780850  0.435769  0.406288  1
  O  O13  1  0.784989  0.769646  0.894216  1
  O  O14  1  0.215011  0.230354  0.105784  1
  O  O15  1  0.606221  0.353273  0.148928  1
  O  O16  1  0.630872  0.852308  0.351306  1
  O  O17  1  0.435769  0.780850  0.093712  1
  O  O18  1  0.769646  0.784989  0.605784  1
  O  O19  1  0.808957  0.998418  0.093418  1
  O  O20  1  0.998418  0.808957  0.406582  1
  O  O21  1  0.287141  0.880290  0.531837  1
  O  O22  1  0.001582  0.191043  0.593418  1
  O  O23  1  0.852308  0.630872  0.148694  1
  O  O24  1  0.393779  0.646727  0.851072  1
  O  O25  1  0.147692  0.369128  0.851306  1
  O  O26  1  0.646727  0.393779  0.648928  1
  O  O27  1  0.712859  0.119710  0.468163  1
  O  O28  1  0.880290  0.287141  0.968163  1
  O  O29  1  0.353273  0.606221  0.351072  1
  O  O30  1  0.191043  0.001582  0.906582  1
  O  O31  1  0.230354  0.215011  0.394216  1
  O  O32  1  0.119710  0.712859  0.031837  1
  O  O33  1  0.564231  0.219150  0.906288  1
  O  O34  1  0.369128  0.147692  0.648694  1
  O  O35  1  0.219150  0.564231  0.593712  1
