# generated using pymatgen
data_La7Ni16
_symmetry_space_group_name_H-M   'P 1'
_cell_length_a   8.88980175
_cell_length_b   8.88980175
_cell_length_c   8.88980175
_cell_angle_alpha   131.27588325
_cell_angle_beta   131.27588325
_cell_angle_gamma   71.37512342
_symmetry_Int_Tables_number   1
_chemical_formula_structural   La7Ni16
_chemical_formula_sum   'La7 Ni16'
_cell_volume   388.37856265
_cell_formula_units_Z   1
loop_
 _symmetry_equiv_pos_site_id
 _symmetry_equiv_pos_as_xyz
  1  'x, y, z'
loop_
 _atom_site_type_symbol
 _atom_site_label
 _atom_site_symmetry_multiplicity
 _atom_site_fract_x
 _atom_site_fract_y
 _atom_site_fract_z
 _atom_site_occupancy
  La  La0  1  0.092916  0.092916  0.390656  1
  La  La1  1  0.702259  0.702259  0.609344  1
  La  La2  1  0.907084  0.297741  0.000000  1
  La  La3  1  0.750000  0.250000  0.500000  1
  La  La4  1  0.500000  0.500000  0.000000  1
  La  La5  1  0.297741  0.907084  0.000000  1
  La  La6  1  0.250000  0.750000  0.500000  1
  Ni  Ni7  1  0.431875  0.195800  0.000000  1
  Ni  Ni8  1  0.682153  0.933476  0.483695  1
  Ni  Ni9  1  0.933476  0.682153  0.483695  1
  Ni  Ni10  1  0.195800  0.431875  0.000000  1
  Ni  Ni11  1  0.317847  0.801541  0.251322  1
  Ni  Ni12  1  0.941294  0.661432  0.000000  1
  Ni  Ni13  1  0.804200  0.804200  0.236075  1
  Ni  Ni14  1  0.066524  0.550219  0.748678  1
  Ni  Ni15  1  0.058706  0.058706  0.720138  1
  Ni  Ni16  1  0.661432  0.941294  0.000000  1
  Ni  Ni17  1  0.568125  0.568125  0.763925  1
  Ni  Ni18  1  0.801541  0.317847  0.251322  1
  Ni  Ni19  1  0.550219  0.066524  0.748678  1
  Ni  Ni20  1  0.198459  0.449781  0.516305  1
  Ni  Ni21  1  0.338568  0.338568  0.279862  1
  Ni  Ni22  1  0.449781  0.198459  0.516305  1
