# generated using pymatgen
data_U7(Pd3S4)8
_symmetry_space_group_name_H-M   'P 1'
_cell_length_a   11.58880025
_cell_length_b   11.58880025
_cell_length_c   11.58880025
_cell_angle_alpha   109.47122063
_cell_angle_beta   109.47122063
_cell_angle_gamma   109.47122063
_symmetry_Int_Tables_number   1
_chemical_formula_structural   U7(Pd3S4)8
_chemical_formula_sum   'U7 Pd24 S32'
_cell_volume   1198.10130512
_cell_formula_units_Z   1
loop_
 _symmetry_equiv_pos_site_id
 _symmetry_equiv_pos_as_xyz
  1  'x, y, z'
loop_
 _atom_site_type_symbol
 _atom_site_label
 _atom_site_symmetry_multiplicity
 _atom_site_fract_x
 _atom_site_fract_y
 _atom_site_fract_z
 _atom_site_occupancy
  U  U0  1  0.500000  0.500000  0.000000  1
  U  U1  1  0.500000  0.000000  0.500000  1
  U  U2  1  0.000000  0.500000  0.000000  1
  U  U3  1  0.000000  0.000000  0.500000  1
  U  U4  1  1.000000  0.500000  0.500000  1
  U  U5  1  0.500000  0.500000  0.500000  1
  U  U6  1  0.500000  0.000000  0.000000  1
  Pd  Pd7  1  0.871684  0.751034  0.622718  1
  Pd  Pd8  1  0.871684  0.248966  0.120650  1
  Pd  Pd9  1  0.625771  0.376230  0.249541  1
  Pd  Pd10  1  0.622718  0.871684  0.751034  1
  Pd  Pd11  1  0.623770  0.750459  0.374229  1
  Pd  Pd12  1  0.623770  0.249541  0.873312  1
  Pd  Pd13  1  0.248966  0.377282  0.128316  1
  Pd  Pd14  1  0.249541  0.625771  0.376230  1
  Pd  Pd15  1  0.248966  0.120650  0.871684  1
  Pd  Pd16  1  0.249541  0.873312  0.623770  1
  Pd  Pd17  1  0.376230  0.750459  0.126688  1
  Pd  Pd18  1  0.376230  0.249541  0.625771  1
  Pd  Pd19  1  0.120650  0.871684  0.248966  1
  Pd  Pd20  1  0.126688  0.376230  0.750459  1
  Pd  Pd21  1  0.879350  0.128316  0.751034  1
  Pd  Pd22  1  0.873312  0.623770  0.249541  1
  Pd  Pd23  1  0.128316  0.751034  0.879350  1
  Pd  Pd24  1  0.128316  0.248966  0.377282  1
  Pd  Pd25  1  0.750459  0.374229  0.623770  1
  Pd  Pd26  1  0.750459  0.126688  0.376230  1
  Pd  Pd27  1  0.751034  0.879350  0.128316  1
  Pd  Pd28  1  0.751034  0.622718  0.871684  1
  Pd  Pd29  1  0.377282  0.128316  0.248966  1
  Pd  Pd30  1  0.374229  0.623770  0.750459  1
  S  S31  1  0.750305  0.500865  0.499990  1
  S  S32  1  0.738150  1.000000  1.000000  1
  S  S33  1  0.499990  0.750305  0.500865  1
  S  S34  1  0.499135  0.249440  0.999125  1
  S  S35  1  0.261850  0.261850  0.261850  1
  S  S36  1  0.249695  0.749685  0.750560  1
  S  S37  1  0.261850  0.000000  0.000000  1
  S  S38  1  0.499135  0.500010  0.249695  1
  S  S39  1  0.499990  0.999125  0.749685  1
  S  S40  1  0.249695  0.499135  0.500010  1
  S  S41  1  0.250315  0.500010  0.000875  1
  S  S42  1  1.000000  0.000000  0.738150  1
  S  S43  1  0.249440  0.750305  0.250315  1
  S  S44  1  0.000000  0.261850  0.000000  1
  S  S45  1  0.250315  0.249440  0.750305  1
  S  S46  1  0.249440  0.999125  0.499135  1
  S  S47  1  0.999125  0.749685  0.499990  1
  S  S48  1  0.999125  0.499135  0.249440  1
  S  S49  1  0.000000  0.738150  0.000000  1
  S  S50  1  0.750560  0.249695  0.749685  1
  S  S51  1  0.000875  0.250315  0.500010  1
  S  S52  1  0.749685  0.750560  0.249695  1
  S  S53  1  0.000875  0.500865  0.750560  1
  S  S54  1  0.750560  0.000875  0.500865  1
  S  S55  1  0.000000  0.000000  0.261850  1
  S  S56  1  0.749685  0.499990  0.999125  1
  S  S57  1  0.500010  0.000875  0.250315  1
  S  S58  1  0.500865  0.499990  0.750305  1
  S  S59  1  0.738150  0.738150  0.738150  1
  S  S60  1  0.500010  0.249695  0.499135  1
  S  S61  1  0.750305  0.250315  0.249440  1
  S  S62  1  0.500865  0.750560  0.000875  1
