# generated using pymatgen
data_UB2C
_symmetry_space_group_name_H-M   'P 1'
_cell_length_a   3.50577210
_cell_length_b   4.10153825
_cell_length_c   6.01141260
_cell_angle_alpha   90.00000000
_cell_angle_beta   90.00000000
_cell_angle_gamma   90.00000000
_symmetry_Int_Tables_number   1
_chemical_formula_structural   UB2C
_chemical_formula_sum   'U2 B4 C2'
_cell_volume   86.43845263
_cell_formula_units_Z   2
loop_
 _symmetry_equiv_pos_site_id
 _symmetry_equiv_pos_as_xyz
  1  'x, y, z'
loop_
 _atom_site_type_symbol
 _atom_site_label
 _atom_site_symmetry_multiplicity
 _atom_site_fract_x
 _atom_site_fract_y
 _atom_site_fract_z
 _atom_site_occupancy
  U  U0  1  0.000000  0.302257  0.250000  1
  U  U1  1  0.000000  0.697743  0.750000  1
  B  B2  1  0.500000  0.159449  0.598543  1
  B  B3  1  0.500000  0.159449  0.901457  1
  B  B4  1  0.500000  0.840551  0.098543  1
  B  B5  1  0.500000  0.840551  0.401457  1
  C  C6  1  0.500000  0.500000  0.500000  1
  C  C7  1  0.500000  0.500000  0.000000  1
