# generated using pymatgen
data_Bi7Mo2(AsO8)3
_symmetry_space_group_name_H-M   'P 1'
_cell_length_a   5.41023783
_cell_length_b   16.34719327
_cell_length_c   24.07850951
_cell_angle_alpha   90.00000000
_cell_angle_beta   90.00000000
_cell_angle_gamma   90.00000000
_symmetry_Int_Tables_number   1
_chemical_formula_structural   Bi7Mo2(AsO8)3
_chemical_formula_sum   'Bi28 Mo8 As12 O96'
_cell_volume   2129.55643670
_cell_formula_units_Z   4
loop_
 _symmetry_equiv_pos_site_id
 _symmetry_equiv_pos_as_xyz
  1  'x, y, z'
loop_
 _atom_site_type_symbol
 _atom_site_label
 _atom_site_symmetry_multiplicity
 _atom_site_fract_x
 _atom_site_fract_y
 _atom_site_fract_z
 _atom_site_occupancy
  Bi  Bi0  1  0.197537  0.324534  0.811269  1
  Bi  Bi1  1  0.695519  0.661354  0.940436  1
  Bi  Bi2  1  0.760705  0.176979  0.055981  1
  Bi  Bi3  1  0.739295  0.676979  0.555981  1
  Bi  Bi4  1  0.697537  0.324534  0.188731  1
  Bi  Bi5  1  0.304481  0.338646  0.059564  1
  Bi  Bi6  1  0.250000  0.500000  0.318707  1
  Bi  Bi7  1  0.750000  0.000000  0.181293  1
  Bi  Bi8  1  0.195520  0.838646  0.559564  1
  Bi  Bi9  1  0.239295  0.823021  0.944019  1
  Bi  Bi10  1  0.239295  0.676979  0.444019  1
  Bi  Bi11  1  0.195520  0.661354  0.059564  1
  Bi  Bi12  1  0.739295  0.823021  0.055981  1
  Bi  Bi13  1  0.260705  0.176979  0.944019  1
  Bi  Bi14  1  0.304481  0.161354  0.559564  1
  Bi  Bi15  1  0.802463  0.824534  0.688731  1
  Bi  Bi16  1  0.250000  0.000000  0.818707  1
  Bi  Bi17  1  0.302463  0.675466  0.811269  1
  Bi  Bi18  1  0.695519  0.838646  0.440436  1
  Bi  Bi19  1  0.260705  0.323021  0.444019  1
  Bi  Bi20  1  0.302463  0.824534  0.311269  1
  Bi  Bi21  1  0.760705  0.323021  0.555981  1
  Bi  Bi22  1  0.197537  0.175466  0.311269  1
  Bi  Bi23  1  0.802463  0.675466  0.188731  1
  Bi  Bi24  1  0.750000  0.500000  0.681293  1
  Bi  Bi25  1  0.697537  0.175466  0.688731  1
  Bi  Bi26  1  0.804481  0.338646  0.940436  1
  Bi  Bi27  1  0.804481  0.161354  0.440436  1
  Mo  Mo28  1  0.750000  0.500000  0.424192  1
  Mo  Mo29  1  0.250000  0.500000  0.177635  1
  Mo  Mo30  1  0.250000  0.000000  0.677635  1
  Mo  Mo31  1  0.750000  0.500000  0.822365  1
  Mo  Mo32  1  0.750000  0.000000  0.924192  1
  Mo  Mo33  1  0.750000  0.000000  0.322365  1
  Mo  Mo34  1  0.250000  0.500000  0.575808  1
  Mo  Mo35  1  0.250000  0.000000  0.075808  1
  As  As36  1  0.750000  0.000000  0.571107  1
  As  As37  1  0.250000  0.000000  0.428893  1
  As  As38  1  0.250000  0.500000  0.928893  1
  As  As39  1  0.251336  0.668531  0.672334  1
  As  As40  1  0.248664  0.331469  0.672334  1
  As  As41  1  0.751336  0.831469  0.827666  1
  As  As42  1  0.248664  0.168531  0.172334  1
  As  As43  1  0.751336  0.668531  0.327666  1
  As  As44  1  0.750000  0.500000  0.071107  1
  As  As45  1  0.251336  0.831469  0.172334  1
  As  As46  1  0.748664  0.168531  0.827666  1
  As  As47  1  0.748664  0.331469  0.327666  1
  O  O48  1  0.090453  0.226615  0.123868  1
  O  O49  1  0.537965  0.459155  0.772974  1
  O  O50  1  0.474080  0.449939  0.392234  1
  O  O51  1  0.403469  0.098807  0.653891  1
  O  O52  1  0.618987  0.074978  0.529544  1
  O  O53  1  0.450877  0.401721  0.643128  1
  O  O54  1  0.393288  0.725084  0.894320  1
  O  O55  1  0.909547  0.773385  0.876132  1
  O  O56  1  0.360328  0.077489  0.030015  1
  O  O57  1  0.455945  0.622949  0.717865  1
  O  O58  1  0.393288  0.774916  0.394320  1
  O  O59  1  0.403469  0.401193  0.153891  1
  O  O60  1  0.893288  0.774916  0.605680  1
  O  O61  1  0.582407  0.767311  0.783547  1
  O  O62  1  0.993055  0.752193  0.497162  1
  O  O63  1  0.950877  0.401721  0.356872  1
  O  O64  1  0.096531  0.901193  0.653891  1
  O  O65  1  0.955945  0.622949  0.282135  1
  O  O66  1  0.973967  0.450049  0.110394  1
  O  O67  1  0.450877  0.098279  0.143128  1
  O  O68  1  0.525920  0.949939  0.107766  1
  O  O69  1  0.881013  0.925022  0.529544  1
  O  O70  1  0.582407  0.732689  0.283547  1
  O  O71  1  0.473967  0.049951  0.389606  1
  O  O72  1  0.474080  0.050061  0.892234  1
  O  O73  1  0.950877  0.098279  0.856872  1
  O  O74  1  0.993055  0.747807  0.997162  1
  O  O75  1  0.006945  0.252193  0.002838  1
  O  O76  1  0.639672  0.577489  0.469985  1
  O  O77  1  0.590453  0.226615  0.876132  1
  O  O78  1  0.139672  0.577489  0.530015  1
  O  O79  1  0.381013  0.925022  0.470456  1
  O  O80  1  0.006945  0.247807  0.502838  1
  O  O81  1  0.974080  0.449939  0.607766  1
  O  O82  1  0.417593  0.232689  0.216453  1
  O  O83  1  0.537965  0.040845  0.272974  1
  O  O84  1  0.506945  0.252193  0.997162  1
  O  O85  1  0.525920  0.550061  0.607766  1
  O  O86  1  0.974080  0.050061  0.107766  1
  O  O87  1  0.549123  0.598279  0.356872  1
  O  O88  1  0.549123  0.901721  0.856872  1
  O  O89  1  0.909547  0.726615  0.376132  1
  O  O90  1  0.106712  0.225084  0.394320  1
  O  O91  1  0.973967  0.049951  0.610394  1
  O  O92  1  0.544055  0.122949  0.782135  1
  O  O93  1  0.118987  0.074978  0.470456  1
  O  O94  1  0.044055  0.122949  0.217865  1
  O  O95  1  0.955945  0.877051  0.782135  1
  O  O96  1  0.096531  0.598807  0.153891  1
  O  O97  1  0.049123  0.598279  0.643128  1
  O  O98  1  0.026033  0.950049  0.389606  1
  O  O99  1  0.044055  0.377051  0.717865  1
  O  O100  1  0.526033  0.549951  0.110394  1
  O  O101  1  0.139672  0.922511  0.030015  1
  O  O102  1  0.962035  0.540845  0.772974  1
  O  O103  1  0.409547  0.726615  0.623868  1
  O  O104  1  0.596531  0.598807  0.846109  1
  O  O105  1  0.473967  0.450049  0.889606  1
  O  O106  1  0.903469  0.098807  0.346109  1
  O  O107  1  0.082407  0.767311  0.216453  1
  O  O108  1  0.606712  0.225084  0.605680  1
  O  O109  1  0.903469  0.401193  0.846109  1
  O  O110  1  0.090453  0.273385  0.623868  1
  O  O111  1  0.590453  0.273385  0.376132  1
  O  O112  1  0.639672  0.922511  0.969985  1
  O  O113  1  0.526033  0.950049  0.610394  1
  O  O114  1  0.917593  0.232689  0.783547  1
  O  O115  1  0.409547  0.773385  0.123868  1
  O  O116  1  0.881013  0.574978  0.029544  1
  O  O117  1  0.106712  0.274916  0.894320  1
  O  O118  1  0.618987  0.425022  0.029544  1
  O  O119  1  0.417593  0.267311  0.716453  1
  O  O120  1  0.025920  0.949939  0.892234  1
  O  O121  1  0.893288  0.725084  0.105680  1
  O  O122  1  0.462035  0.959155  0.727026  1
  O  O123  1  0.360328  0.422511  0.530015  1
  O  O124  1  0.082407  0.732689  0.716453  1
  O  O125  1  0.606712  0.274916  0.105680  1
  O  O126  1  0.462035  0.540845  0.227026  1
  O  O127  1  0.506945  0.247807  0.497162  1
  O  O128  1  0.860328  0.077489  0.969985  1
  O  O129  1  0.037965  0.040845  0.727026  1
  O  O130  1  0.962035  0.959155  0.272974  1
  O  O131  1  0.917593  0.267311  0.283547  1
  O  O132  1  0.493055  0.752193  0.502838  1
  O  O133  1  0.493055  0.747807  0.002838  1
  O  O134  1  0.381013  0.574978  0.970456  1
  O  O135  1  0.025920  0.550061  0.392234  1
  O  O136  1  0.037965  0.459155  0.227026  1
  O  O137  1  0.860328  0.422511  0.469985  1
  O  O138  1  0.544055  0.377051  0.282135  1
  O  O139  1  0.049123  0.901721  0.143128  1
  O  O140  1  0.026033  0.549951  0.889606  1
  O  O141  1  0.118987  0.425022  0.970456  1
  O  O142  1  0.596531  0.901193  0.346109  1
  O  O143  1  0.455945  0.877051  0.217865  1
