# generated using pymatgen
data_Cs3Ti2Cl9
_symmetry_space_group_name_H-M   'P 1'
_cell_length_a   7.52509854
_cell_length_b   7.52509854
_cell_length_c   18.12192944
_cell_angle_alpha   90.00000000
_cell_angle_beta   90.00000000
_cell_angle_gamma   120.00000000
_symmetry_Int_Tables_number   1
_chemical_formula_structural   Cs3Ti2Cl9
_chemical_formula_sum   'Cs6 Ti4 Cl18'
_cell_volume   888.70873612
_cell_formula_units_Z   2
loop_
 _symmetry_equiv_pos_site_id
 _symmetry_equiv_pos_as_xyz
  1  'x, y, z'
loop_
 _atom_site_type_symbol
 _atom_site_label
 _atom_site_symmetry_multiplicity
 _atom_site_fract_x
 _atom_site_fract_y
 _atom_site_fract_z
 _atom_site_occupancy
  Cs  Cs0  1  0.666667  0.333333  0.924116  1
  Cs  Cs1  1  0.333333  0.666667  0.424116  1
  Cs  Cs2  1  0.000000  0.000000  0.250000  1
  Cs  Cs3  1  0.333333  0.666667  0.075884  1
  Cs  Cs4  1  0.000000  0.000000  0.750000  1
  Cs  Cs5  1  0.666667  0.333333  0.575884  1
  Ti  Ti6  1  0.333333  0.666667  0.665671  1
  Ti  Ti7  1  0.666667  0.333333  0.165671  1
  Ti  Ti8  1  0.333333  0.666667  0.834329  1
  Ti  Ti9  1  0.666667  0.333333  0.334329  1
  Cl  Cl10  1  0.486998  0.513002  0.750000  1
  Cl  Cl11  1  0.513002  0.486998  0.250000  1
  Cl  Cl12  1  0.180917  0.361834  0.905148  1
  Cl  Cl13  1  0.361834  0.180917  0.405148  1
  Cl  Cl14  1  0.638166  0.819083  0.905148  1
  Cl  Cl15  1  0.973997  0.486998  0.250000  1
  Cl  Cl16  1  0.486998  0.973997  0.750000  1
  Cl  Cl17  1  0.026003  0.513002  0.750000  1
  Cl  Cl18  1  0.819083  0.180917  0.405148  1
  Cl  Cl19  1  0.819083  0.638166  0.405148  1
  Cl  Cl20  1  0.180917  0.361834  0.594852  1
  Cl  Cl21  1  0.180917  0.819083  0.594852  1
  Cl  Cl22  1  0.361834  0.180917  0.094852  1
  Cl  Cl23  1  0.638166  0.819083  0.594852  1
  Cl  Cl24  1  0.513002  0.026003  0.250000  1
  Cl  Cl25  1  0.180917  0.819083  0.905148  1
  Cl  Cl26  1  0.819083  0.638166  0.094852  1
  Cl  Cl27  1  0.819083  0.180917  0.094852  1
