# generated using pymatgen
data_SrZnP2O7
_symmetry_space_group_name_H-M   'P 1'
_cell_length_a   5.38833545
_cell_length_b   8.31438830
_cell_length_c   14.00014399
_cell_angle_alpha   90.00000000
_cell_angle_beta   112.41193427
_cell_angle_gamma   90.00000000
_symmetry_Int_Tables_number   1
_chemical_formula_structural   SrZnP2O7
_chemical_formula_sum   'Sr4 Zn4 P8 O28'
_cell_volume   579.84067081
_cell_formula_units_Z   4
loop_
 _symmetry_equiv_pos_site_id
 _symmetry_equiv_pos_as_xyz
  1  'x, y, z'
loop_
 _atom_site_type_symbol
 _atom_site_label
 _atom_site_symmetry_multiplicity
 _atom_site_fract_x
 _atom_site_fract_y
 _atom_site_fract_z
 _atom_site_occupancy
  Sr  Sr0  1  0.009071  0.661240  0.720908  1
  Sr  Sr1  1  0.990929  0.161240  0.779092  1
  Sr  Sr2  1  0.990929  0.338760  0.279092  1
  Sr  Sr3  1  0.009071  0.838760  0.220908  1
  Zn  Zn4  1  0.722549  0.652818  0.395290  1
  Zn  Zn5  1  0.277451  0.347182  0.604710  1
  Zn  Zn6  1  0.277451  0.152818  0.104710  1
  Zn  Zn7  1  0.722549  0.847182  0.895290  1
  P  P8  1  0.417032  0.964371  0.665569  1
  P  P9  1  0.582968  0.035629  0.334431  1
  P  P10  1  0.335194  0.801606  0.019946  1
  P  P11  1  0.664806  0.198394  0.980054  1
  P  P12  1  0.664806  0.301606  0.480054  1
  P  P13  1  0.335194  0.698394  0.519946  1
  P  P14  1  0.417032  0.535629  0.165569  1
  P  P15  1  0.582968  0.464371  0.834431  1
  O  O16  1  0.727527  0.404068  0.399850  1
  O  O17  1  0.680970  0.384924  0.948672  1
  O  O18  1  0.680328  0.880367  0.734123  1
  O  O19  1  0.886728  0.314457  0.588569  1
  O  O20  1  0.519378  0.640365  0.847768  1
  O  O21  1  0.808111  0.058886  0.295076  1
  O  O22  1  0.272473  0.904068  0.100150  1
  O  O23  1  0.319030  0.615076  0.051328  1
  O  O24  1  0.378353  0.332384  0.474530  1
  O  O25  1  0.886728  0.185543  0.088569  1
  O  O26  1  0.378353  0.167616  0.974530  1
  O  O27  1  0.480622  0.359635  0.152232  1
  O  O28  1  0.191889  0.941114  0.704924  1
  O  O29  1  0.680328  0.619633  0.234123  1
  O  O30  1  0.272473  0.595932  0.600150  1
  O  O31  1  0.680970  0.115076  0.448672  1
  O  O32  1  0.319672  0.380367  0.765877  1
  O  O33  1  0.113272  0.685543  0.411431  1
  O  O34  1  0.113272  0.814457  0.911431  1
  O  O35  1  0.480622  0.140365  0.652232  1
  O  O36  1  0.319672  0.119633  0.265877  1
  O  O37  1  0.519378  0.859635  0.347768  1
  O  O38  1  0.727527  0.095932  0.899850  1
  O  O39  1  0.319030  0.884924  0.551328  1
  O  O40  1  0.621647  0.667616  0.525470  1
  O  O41  1  0.191889  0.558886  0.204924  1
  O  O42  1  0.808111  0.441114  0.795076  1
  O  O43  1  0.621647  0.832384  0.025470  1
