# generated using pymatgen
data_NiP2O7
_symmetry_space_group_name_H-M   'P 1'
_cell_length_a   6.37608476
_cell_length_b   6.61279613
_cell_length_c   6.97570039
_cell_angle_alpha   89.42538291
_cell_angle_beta   113.52467301
_cell_angle_gamma   94.06416959
_symmetry_Int_Tables_number   1
_chemical_formula_structural   NiP2O7
_chemical_formula_sum   'Ni2 P4 O14'
_cell_volume   268.94494360
_cell_formula_units_Z   2
loop_
 _symmetry_equiv_pos_site_id
 _symmetry_equiv_pos_as_xyz
  1  'x, y, z'
loop_
 _atom_site_type_symbol
 _atom_site_label
 _atom_site_symmetry_multiplicity
 _atom_site_fract_x
 _atom_site_fract_y
 _atom_site_fract_z
 _atom_site_occupancy
  Ni  Ni0  1  0.095359  0.358746  0.203332  1
  Ni  Ni1  1  0.904641  0.641254  0.796668  1
  P  P2  1  0.335222  0.609830  0.645051  1
  P  P3  1  0.664778  0.390170  0.354949  1
  P  P4  1  0.213385  0.855357  0.249466  1
  P  P5  1  0.786615  0.144643  0.750534  1
  O  O6  1  0.411781  0.388364  0.205772  1
  O  O7  1  0.582674  0.098137  0.813115  1
  O  O8  1  0.417326  0.901863  0.186885  1
  O  O9  1  0.904267  0.949845  0.770060  1
  O  O10  1  0.306946  0.798839  0.492205  1
  O  O11  1  0.215486  0.650937  0.790051  1
  O  O12  1  0.060876  0.670215  0.126075  1
  O  O13  1  0.588219  0.611636  0.794228  1
  O  O14  1  0.693054  0.201161  0.507795  1
  O  O15  1  0.242282  0.416455  0.512610  1
  O  O16  1  0.095733  0.050155  0.229940  1
  O  O17  1  0.939124  0.329785  0.873925  1
  O  O18  1  0.784514  0.349063  0.209949  1
  O  O19  1  0.757718  0.583545  0.487390  1
