# generated using pymatgen
data_CaNb2P2O11
_symmetry_space_group_name_H-M   'P 1'
_cell_length_a   9.35094102
_cell_length_b   9.35094102
_cell_length_c   5.29637450
_cell_angle_alpha   87.06536439
_cell_angle_beta   92.93463561
_cell_angle_gamma   108.12454859
_symmetry_Int_Tables_number   1
_chemical_formula_structural   CaNb2P2O11
_chemical_formula_sum   'Ca2 Nb4 P4 O22'
_cell_volume   439.25609103
_cell_formula_units_Z   2
loop_
 _symmetry_equiv_pos_site_id
 _symmetry_equiv_pos_as_xyz
  1  'x, y, z'
loop_
 _atom_site_type_symbol
 _atom_site_label
 _atom_site_symmetry_multiplicity
 _atom_site_fract_x
 _atom_site_fract_y
 _atom_site_fract_z
 _atom_site_occupancy
  Ca  Ca0  1  0.605771  0.605771  0.250000  1
  Ca  Ca1  1  0.394229  0.394229  0.750000  1
  Nb  Nb2  1  0.005033  0.754534  0.238459  1
  Nb  Nb3  1  0.245466  0.994967  0.738459  1
  Nb  Nb4  1  0.754534  0.005033  0.261541  1
  Nb  Nb5  1  0.994967  0.245466  0.761541  1
  P  P6  1  0.185872  0.479795  0.254763  1
  P  P7  1  0.814128  0.520205  0.745237  1
  P  P8  1  0.479795  0.185872  0.245237  1
  P  P9  1  0.520205  0.814128  0.754763  1
  O  O10  1  0.625708  0.922934  0.946929  1
  O  O11  1  0.088989  0.862417  0.927421  1
  O  O12  1  0.077066  0.374292  0.446929  1
  O  O13  1  0.831704  0.595286  0.004957  1
  O  O14  1  0.833805  0.833805  0.250000  1
  O  O15  1  0.404714  0.168296  0.504957  1
  O  O16  1  0.595286  0.831704  0.495043  1
  O  O17  1  0.373922  0.860199  0.714133  1
  O  O18  1  0.911011  0.137583  0.072579  1
  O  O19  1  0.137583  0.911011  0.427421  1
  O  O20  1  0.922934  0.625708  0.553071  1
  O  O21  1  0.515129  0.346665  0.134718  1
  O  O22  1  0.346665  0.515129  0.365282  1
  O  O23  1  0.860199  0.373922  0.785867  1
  O  O24  1  0.166195  0.166195  0.750000  1
  O  O25  1  0.862417  0.088989  0.572579  1
  O  O26  1  0.168296  0.404714  0.995043  1
  O  O27  1  0.626078  0.139801  0.285867  1
  O  O28  1  0.653335  0.484871  0.634718  1
  O  O29  1  0.374292  0.077066  0.053071  1
  O  O30  1  0.484871  0.653335  0.865282  1
  O  O31  1  0.139801  0.626078  0.214133  1
