# generated using pymatgen
data_LaRh3
_symmetry_space_group_name_H-M   'P 1'
_cell_length_a   9.48292481
_cell_length_b   9.48292481
_cell_length_c   9.48292481
_cell_angle_alpha   32.95877077
_cell_angle_beta   32.95877077
_cell_angle_gamma   32.95877077
_symmetry_Int_Tables_number   1
_chemical_formula_structural   LaRh3
_chemical_formula_sum   'La3 Rh9'
_cell_volume   224.59505468
_cell_formula_units_Z   3
loop_
 _symmetry_equiv_pos_site_id
 _symmetry_equiv_pos_as_xyz
  1  'x, y, z'
loop_
 _atom_site_type_symbol
 _atom_site_label
 _atom_site_symmetry_multiplicity
 _atom_site_fract_x
 _atom_site_fract_y
 _atom_site_fract_z
 _atom_site_occupancy
  La  La0  1  0.861499  0.861499  0.861499  1
  La  La1  1  0.000000  0.000000  0.000000  1
  La  La2  1  0.138501  0.138501  0.138501  1
  Rh  Rh3  1  0.580546  0.082602  0.580546  1
  Rh  Rh4  1  0.580546  0.580546  0.082602  1
  Rh  Rh5  1  0.917398  0.419454  0.419454  1
  Rh  Rh6  1  0.419454  0.917398  0.419454  1
  Rh  Rh7  1  0.082602  0.580546  0.580546  1
  Rh  Rh8  1  0.419454  0.419454  0.917398  1
  Rh  Rh9  1  0.667618  0.667618  0.667618  1
  Rh  Rh10  1  0.332382  0.332382  0.332382  1
  Rh  Rh11  1  0.500000  0.500000  0.500000  1
