# generated using pymatgen
data_Mg10B16Ir19
_symmetry_space_group_name_H-M   'P 1'
_cell_length_a   9.21741879
_cell_length_b   9.21741879
_cell_length_c   9.21741879
_cell_angle_alpha   109.47122063
_cell_angle_beta   109.47122063
_cell_angle_gamma   109.47122063
_symmetry_Int_Tables_number   1
_chemical_formula_structural   Mg10B16Ir19
_chemical_formula_sum   'Mg10 B16 Ir19'
_cell_volume   602.84556352
_cell_formula_units_Z   1
loop_
 _symmetry_equiv_pos_site_id
 _symmetry_equiv_pos_as_xyz
  1  'x, y, z'
loop_
 _atom_site_type_symbol
 _atom_site_label
 _atom_site_symmetry_multiplicity
 _atom_site_fract_x
 _atom_site_fract_y
 _atom_site_fract_z
 _atom_site_occupancy
  Mg  Mg0  1  0.000000  0.347373  0.347373  1
  Mg  Mg1  1  0.333749  0.000000  0.000000  1
  Mg  Mg2  1  0.347373  1.000000  0.347373  1
  Mg  Mg3  1  0.000000  0.652627  0.652627  1
  Mg  Mg4  1  0.666251  0.666251  0.666251  1
  Mg  Mg5  1  0.000000  1.000000  0.333749  1
  Mg  Mg6  1  0.652627  1.000000  0.652627  1
  Mg  Mg7  1  0.000000  0.333749  0.000000  1
  Mg  Mg8  1  0.652627  0.652627  0.000000  1
  Mg  Mg9  1  0.347373  0.347373  0.000000  1
  B  B10  1  0.424281  1.000000  0.751590  1
  B  B11  1  0.575719  0.327308  0.575719  1
  B  B12  1  0.751590  0.000000  0.424281  1
  B  B13  1  0.000000  0.000000  0.776807  1
  B  B14  1  0.223193  0.223193  0.223193  1
  B  B15  1  0.248410  0.248410  0.672692  1
  B  B16  1  0.751590  0.424281  0.000000  1
  B  B17  1  1.000000  0.424281  0.751590  1
  B  B18  1  0.000000  0.776807  0.000000  1
  B  B19  1  0.672692  0.248410  0.248410  1
  B  B20  1  0.575719  0.575719  0.327308  1
  B  B21  1  0.776807  0.000000  0.000000  1
  B  B22  1  0.424281  0.751590  1.000000  1
  B  B23  1  0.327308  0.575719  0.575719  1
  B  B24  1  0.248410  0.672692  0.248410  1
  B  B25  1  1.000000  0.751590  0.424281  1
  Ir  Ir26  1  0.182069  0.677664  0.000000  1
  Ir  Ir27  1  0.677664  0.000000  0.182069  1
  Ir  Ir28  1  0.750000  0.500000  0.250000  1
  Ir  Ir29  1  0.322336  0.504405  0.322336  1
  Ir  Ir30  1  0.000000  0.677664  0.182069  1
  Ir  Ir31  1  0.495595  0.817931  0.817931  1
  Ir  Ir32  1  0.182069  0.000000  0.677664  1
  Ir  Ir33  1  0.817931  0.495595  0.817931  1
  Ir  Ir34  1  0.000000  0.182069  0.677664  1
  Ir  Ir35  1  0.322336  0.322336  0.504405  1
  Ir  Ir36  1  0.250000  0.500000  0.750000  1
  Ir  Ir37  1  0.677664  0.182069  0.000000  1
  Ir  Ir38  1  0.250000  0.750000  0.500000  1
  Ir  Ir39  1  0.504405  0.322336  0.322336  1
  Ir  Ir40  1  0.500000  0.250000  0.750000  1
  Ir  Ir41  1  0.817931  0.817931  0.495595  1
  Ir  Ir42  1  0.500000  0.750000  0.250000  1
  Ir  Ir43  1  0.000000  0.000000  0.000000  1
  Ir  Ir44  1  0.750000  0.250000  0.500000  1
