# generated using pymatgen
data_Cr4(PO4)3
_symmetry_space_group_name_H-M   'P 1'
_cell_length_a   7.61470309
_cell_length_b   8.20711424
_cell_length_c   9.67932763
_cell_angle_alpha   108.63753378
_cell_angle_beta   112.72943594
_cell_angle_gamma   94.21110731
_symmetry_Int_Tables_number   1
_chemical_formula_structural   Cr4(PO4)3
_chemical_formula_sum   'Cr8 P6 O24'
_cell_volume   515.07838115
_cell_formula_units_Z   2
loop_
 _symmetry_equiv_pos_site_id
 _symmetry_equiv_pos_as_xyz
  1  'x, y, z'
loop_
 _atom_site_type_symbol
 _atom_site_label
 _atom_site_symmetry_multiplicity
 _atom_site_fract_x
 _atom_site_fract_y
 _atom_site_fract_z
 _atom_site_occupancy
  Cr  Cr0  1  0.027396  0.803575  0.475304  1
  Cr  Cr1  1  0.972604  0.196425  0.524696  1
  Cr  Cr2  1  0.261091  0.908556  0.905773  1
  Cr  Cr3  1  0.738909  0.091444  0.094227  1
  Cr  Cr4  1  0.266303  0.538969  0.918555  1
  Cr  Cr5  1  0.733697  0.461031  0.081445  1
  Cr  Cr6  1  0.295299  0.610328  0.294794  1
  Cr  Cr7  1  0.704701  0.389672  0.705206  1
  P  P8  1  0.030363  0.259601  0.950775  1
  P  P9  1  0.969637  0.740399  0.049225  1
  P  P10  1  0.312664  0.558827  0.616366  1
  P  P11  1  0.687336  0.441173  0.383634  1
  P  P12  1  0.396684  0.156506  0.748077  1
  P  P13  1  0.603316  0.843494  0.251923  1
  O  O14  1  0.118273  0.738544  0.973782  1
  O  O15  1  0.881727  0.261456  0.026218  1
  O  O16  1  0.112995  0.098379  0.939494  1
  O  O17  1  0.887005  0.901621  0.060506  1
  O  O18  1  0.300391  0.666864  0.777183  1
  O  O19  1  0.699609  0.333136  0.222817  1
  O  O20  1  0.160344  0.385246  0.528739  1
  O  O21  1  0.839656  0.614754  0.471261  1
  O  O22  1  0.189120  0.065542  0.603464  1
  O  O23  1  0.810880  0.934458  0.396536  1
  O  O24  1  0.061314  0.719731  0.217523  1
  O  O25  1  0.938686  0.280269  0.782477  1
  O  O26  1  0.260889  0.673213  0.506394  1
  O  O27  1  0.739111  0.326787  0.493606  1
  O  O28  1  0.400991  0.341818  0.857778  1
  O  O29  1  0.599009  0.658182  0.142222  1
  O  O30  1  0.448473  0.036715  0.846559  1
  O  O31  1  0.551527  0.963285  0.153441  1
  O  O32  1  0.193688  0.437116  0.063045  1
  O  O33  1  0.806312  0.562884  0.936955  1
  O  O34  1  0.521439  0.536669  0.652346  1
  O  O35  1  0.478561  0.463331  0.347654  1
  O  O36  1  0.546759  0.178394  0.679545  1
  O  O37  1  0.453241  0.821606  0.320455  1
