# generated using pymatgen
data_RbGa3S5
_symmetry_space_group_name_H-M   'P 1'
_cell_length_a   7.26111917
_cell_length_b   12.92120948
_cell_length_c   10.52263929
_cell_angle_alpha   90.00000000
_cell_angle_beta   103.42558648
_cell_angle_gamma   90.00000000
_symmetry_Int_Tables_number   1
_chemical_formula_structural   RbGa3S5
_chemical_formula_sum   'Rb4 Ga12 S20'
_cell_volume   960.28016600
_cell_formula_units_Z   4
loop_
 _symmetry_equiv_pos_site_id
 _symmetry_equiv_pos_as_xyz
  1  'x, y, z'
loop_
 _atom_site_type_symbol
 _atom_site_label
 _atom_site_symmetry_multiplicity
 _atom_site_fract_x
 _atom_site_fract_y
 _atom_site_fract_z
 _atom_site_occupancy
  Rb  Rb0  1  0.834246  0.612968  0.598344  1
  Rb  Rb1  1  0.165754  0.112968  0.901656  1
  Rb  Rb2  1  0.165754  0.387032  0.401656  1
  Rb  Rb3  1  0.834246  0.887032  0.098344  1
  Ga  Ga4  1  0.797571  0.920346  0.599102  1
  Ga  Ga5  1  0.797571  0.579654  0.099102  1
  Ga  Ga6  1  0.202429  0.420346  0.900898  1
  Ga  Ga7  1  0.560029  0.397309  0.195591  1
  Ga  Ga8  1  0.560029  0.102691  0.695591  1
  Ga  Ga9  1  0.710706  0.336816  0.876000  1
  Ga  Ga10  1  0.439971  0.602691  0.804409  1
  Ga  Ga11  1  0.202429  0.079654  0.400898  1
  Ga  Ga12  1  0.289294  0.663184  0.124000  1
  Ga  Ga13  1  0.439971  0.897309  0.304409  1
  Ga  Ga14  1  0.710706  0.163184  0.376000  1
  Ga  Ga15  1  0.289294  0.836816  0.624000  1
  S  S16  1  0.718811  0.831918  0.410834  1
  S  S17  1  0.809879  0.102172  0.589856  1
  S  S18  1  0.718811  0.668082  0.910834  1
  S  S19  1  0.809879  0.397828  0.089856  1
  S  S20  1  0.281189  0.331918  0.089166  1
  S  S21  1  0.345240  0.664716  0.598374  1
  S  S22  1  0.570731  0.579118  0.231167  1
  S  S23  1  0.190121  0.602172  0.910144  1
  S  S24  1  0.190121  0.897828  0.410144  1
  S  S25  1  0.064724  0.634796  0.239726  1
  S  S26  1  0.935276  0.365204  0.760274  1
  S  S27  1  0.281189  0.168082  0.589166  1
  S  S28  1  0.429269  0.079118  0.268833  1
  S  S29  1  0.570731  0.920882  0.731167  1
  S  S30  1  0.064724  0.865204  0.739726  1
  S  S31  1  0.935276  0.134796  0.260274  1
  S  S32  1  0.345240  0.835284  0.098374  1
  S  S33  1  0.654760  0.335284  0.401626  1
  S  S34  1  0.429269  0.420882  0.768833  1
  S  S35  1  0.654760  0.164716  0.901626  1
