# generated using pymatgen
data_Ti2NiP5
_symmetry_space_group_name_H-M   'P 1'
_cell_length_a   3.33742955
_cell_length_b   11.12896626
_cell_length_c   12.44361582
_cell_angle_alpha   90.00000000
_cell_angle_beta   90.00000000
_cell_angle_gamma   90.00000000
_symmetry_Int_Tables_number   1
_chemical_formula_structural   Ti2NiP5
_chemical_formula_sum   'Ti8 Ni4 P20'
_cell_volume   462.18253156
_cell_formula_units_Z   4
loop_
 _symmetry_equiv_pos_site_id
 _symmetry_equiv_pos_as_xyz
  1  'x, y, z'
loop_
 _atom_site_type_symbol
 _atom_site_label
 _atom_site_symmetry_multiplicity
 _atom_site_fract_x
 _atom_site_fract_y
 _atom_site_fract_z
 _atom_site_occupancy
  Ti  Ti0  1  0.750000  0.903236  0.234430  1
  Ti  Ti1  1  0.250000  0.096764  0.765570  1
  Ti  Ti2  1  0.750000  0.403236  0.265570  1
  Ti  Ti3  1  0.250000  0.596764  0.734430  1
  Ti  Ti4  1  0.750000  0.656100  0.401574  1
  Ti  Ti5  1  0.250000  0.343900  0.598426  1
  Ti  Ti6  1  0.750000  0.156100  0.098426  1
  Ti  Ti7  1  0.250000  0.843900  0.901574  1
  Ni  Ni8  1  0.750000  0.654212  0.172276  1
  Ni  Ni9  1  0.250000  0.345788  0.827724  1
  Ni  Ni10  1  0.750000  0.154212  0.327724  1
  Ni  Ni11  1  0.250000  0.845788  0.672276  1
  P  P12  1  0.750000  0.932739  0.035649  1
  P  P13  1  0.250000  0.067261  0.964351  1
  P  P14  1  0.750000  0.432739  0.464351  1
  P  P15  1  0.250000  0.567261  0.535649  1
  P  P16  1  0.750000  0.927266  0.770525  1
  P  P17  1  0.250000  0.072734  0.229475  1
  P  P18  1  0.750000  0.427266  0.729475  1
  P  P19  1  0.250000  0.572734  0.270525  1
  P  P20  1  0.750000  0.717870  0.612664  1
  P  P21  1  0.250000  0.282130  0.387336  1
  P  P22  1  0.750000  0.217870  0.887336  1
  P  P23  1  0.250000  0.782130  0.112664  1
  P  P24  1  0.750000  0.676172  0.873901  1
  P  P25  1  0.250000  0.323828  0.126099  1
  P  P26  1  0.750000  0.176172  0.626099  1
  P  P27  1  0.250000  0.823828  0.373901  1
  P  P28  1  0.750000  0.562473  0.018231  1
  P  P29  1  0.250000  0.437527  0.981769  1
  P  P30  1  0.750000  0.062473  0.481769  1
  P  P31  1  0.250000  0.937527  0.518231  1
