# generated using pymatgen
data_Mo6PbCl14
_symmetry_space_group_name_H-M   'P 1'
_cell_length_a   13.08628696
_cell_length_b   13.08628696
_cell_length_c   13.08628696
_cell_angle_alpha   90.00000000
_cell_angle_beta   90.00000000
_cell_angle_gamma   90.00000000
_symmetry_Int_Tables_number   1
_chemical_formula_structural   Mo6PbCl14
_chemical_formula_sum   'Mo24 Pb4 Cl56'
_cell_volume   2241.03850330
_cell_formula_units_Z   4
loop_
 _symmetry_equiv_pos_site_id
 _symmetry_equiv_pos_as_xyz
  1  'x, y, z'
loop_
 _atom_site_type_symbol
 _atom_site_label
 _atom_site_symmetry_multiplicity
 _atom_site_fract_x
 _atom_site_fract_y
 _atom_site_fract_z
 _atom_site_occupancy
  Mo  Mo0  1  0.787333  0.115385  0.279010  1
  Mo  Mo1  1  0.279010  0.787333  0.115385  1
  Mo  Mo2  1  0.615385  0.220990  0.287333  1
  Mo  Mo3  1  0.115385  0.720990  0.212667  1
  Mo  Mo4  1  0.720990  0.212667  0.115385  1
  Mo  Mo5  1  0.884615  0.720990  0.787333  1
  Mo  Mo6  1  0.384615  0.220990  0.712667  1
  Mo  Mo7  1  0.220990  0.287333  0.615385  1
  Mo  Mo8  1  0.720990  0.787333  0.884615  1
  Mo  Mo9  1  0.787333  0.884615  0.720990  1
  Mo  Mo10  1  0.615385  0.779010  0.712667  1
  Mo  Mo11  1  0.779010  0.712667  0.615385  1
  Mo  Mo12  1  0.712667  0.384615  0.220990  1
  Mo  Mo13  1  0.884615  0.279010  0.212667  1
  Mo  Mo14  1  0.779010  0.287333  0.384615  1
  Mo  Mo15  1  0.287333  0.615385  0.220990  1
  Mo  Mo16  1  0.712667  0.615385  0.779010  1
  Mo  Mo17  1  0.220990  0.712667  0.384615  1
  Mo  Mo18  1  0.279010  0.212667  0.884615  1
  Mo  Mo19  1  0.115385  0.279010  0.787333  1
  Mo  Mo20  1  0.287333  0.384615  0.779010  1
  Mo  Mo21  1  0.384615  0.779010  0.287333  1
  Mo  Mo22  1  0.212667  0.884615  0.279010  1
  Mo  Mo23  1  0.212667  0.115385  0.720990  1
  Pb  Pb24  1  0.750000  0.750000  0.250000  1
  Pb  Pb25  1  0.250000  0.250000  0.250000  1
  Pb  Pb26  1  0.250000  0.750000  0.750000  1
  Pb  Pb27  1  0.750000  0.250000  0.750000  1
  Cl  Cl28  1  0.939552  0.678055  0.158908  1
  Cl  Cl29  1  0.938526  0.813636  0.629642  1
  Cl  Cl30  1  0.186364  0.629642  0.061474  1
  Cl  Cl31  1  0.561474  0.313636  0.129642  1
  Cl  Cl32  1  0.178055  0.658908  0.560448  1
  Cl  Cl33  1  0.841092  0.939552  0.321945  1
  Cl  Cl34  1  0.061474  0.186364  0.629642  1
  Cl  Cl35  1  0.560448  0.821945  0.341092  1
  Cl  Cl36  1  0.321945  0.841092  0.939552  1
  Cl  Cl37  1  0.686364  0.870358  0.561474  1
  Cl  Cl38  1  0.439552  0.821945  0.658908  1
  Cl  Cl39  1  0.313636  0.870358  0.438526  1
  Cl  Cl40  1  0.114635  0.885365  0.114635  1
  Cl  Cl41  1  0.629642  0.061474  0.186364  1
  Cl  Cl42  1  0.614635  0.614635  0.614635  1
  Cl  Cl43  1  0.686364  0.129642  0.438526  1
  Cl  Cl44  1  0.370358  0.938526  0.186364  1
  Cl  Cl45  1  0.341092  0.560448  0.821945  1
  Cl  Cl46  1  0.439552  0.178055  0.341092  1
  Cl  Cl47  1  0.885365  0.114635  0.114635  1
  Cl  Cl48  1  0.129642  0.438526  0.686364  1
  Cl  Cl49  1  0.821945  0.341092  0.560448  1
  Cl  Cl50  1  0.438526  0.686364  0.129642  1
  Cl  Cl51  1  0.060448  0.321945  0.158908  1
  Cl  Cl52  1  0.178055  0.341092  0.439552  1
  Cl  Cl53  1  0.438526  0.313636  0.870358  1
  Cl  Cl54  1  0.370358  0.061474  0.813636  1
  Cl  Cl55  1  0.821945  0.658908  0.439552  1
  Cl  Cl56  1  0.114635  0.114635  0.885365  1
  Cl  Cl57  1  0.158908  0.060448  0.321945  1
  Cl  Cl58  1  0.678055  0.158908  0.939552  1
  Cl  Cl59  1  0.186364  0.370358  0.938526  1
  Cl  Cl60  1  0.939552  0.321945  0.841092  1
  Cl  Cl61  1  0.813636  0.370358  0.061474  1
  Cl  Cl62  1  0.885365  0.885365  0.885365  1
  Cl  Cl63  1  0.870358  0.438526  0.313636  1
  Cl  Cl64  1  0.129642  0.561474  0.313636  1
  Cl  Cl65  1  0.560448  0.178055  0.658908  1
  Cl  Cl66  1  0.061474  0.813636  0.370358  1
  Cl  Cl67  1  0.658908  0.439552  0.821945  1
  Cl  Cl68  1  0.561474  0.686364  0.870358  1
  Cl  Cl69  1  0.313636  0.129642  0.561474  1
  Cl  Cl70  1  0.870358  0.561474  0.686364  1
  Cl  Cl71  1  0.158908  0.939552  0.678055  1
  Cl  Cl72  1  0.060448  0.678055  0.841092  1
  Cl  Cl73  1  0.841092  0.060448  0.678055  1
  Cl  Cl74  1  0.341092  0.439552  0.178055  1
  Cl  Cl75  1  0.614635  0.385365  0.385365  1
  Cl  Cl76  1  0.678055  0.841092  0.060448  1
  Cl  Cl77  1  0.321945  0.158908  0.060448  1
  Cl  Cl78  1  0.629642  0.938526  0.813636  1
  Cl  Cl79  1  0.658908  0.560448  0.178055  1
  Cl  Cl80  1  0.385365  0.385365  0.614635  1
  Cl  Cl81  1  0.385365  0.614635  0.385365  1
  Cl  Cl82  1  0.938526  0.186364  0.370358  1
  Cl  Cl83  1  0.813636  0.629642  0.938526  1
