# generated using pymatgen
data_CsAgCl2
_symmetry_space_group_name_H-M   'P 1'
_cell_length_a   9.99797614
_cell_length_b   9.99797614
_cell_length_c   5.76587336
_cell_angle_alpha   90.00000000
_cell_angle_beta   90.00000000
_cell_angle_gamma   154.31471554
_symmetry_Int_Tables_number   1
_chemical_formula_structural   CsAgCl2
_chemical_formula_sum   'Cs2 Ag2 Cl4'
_cell_volume   249.80774413
_cell_formula_units_Z   2
loop_
 _symmetry_equiv_pos_site_id
 _symmetry_equiv_pos_as_xyz
  1  'x, y, z'
loop_
 _atom_site_type_symbol
 _atom_site_label
 _atom_site_symmetry_multiplicity
 _atom_site_fract_x
 _atom_site_fract_y
 _atom_site_fract_z
 _atom_site_occupancy
  Cs  Cs0  1  0.082518  0.917482  0.750000  1
  Cs  Cs1  1  0.917482  0.082518  0.250000  1
  Ag  Ag2  1  0.299583  0.700417  0.750000  1
  Ag  Ag3  1  0.700417  0.299583  0.250000  1
  Cl  Cl4  1  0.723875  0.276125  0.750000  1
  Cl  Cl5  1  0.276125  0.723875  0.250000  1
  Cl  Cl6  1  0.430941  0.569059  0.750000  1
  Cl  Cl7  1  0.569059  0.430941  0.250000  1
