# generated using pymatgen
data_Ba5Yb8Ni4O21
_symmetry_space_group_name_H-M   'P 1'
_cell_length_a   9.97015514
_cell_length_b   9.97015514
_cell_length_c   9.97015514
_cell_angle_alpha   94.61920356
_cell_angle_beta   94.61920356
_cell_angle_gamma   147.02772209
_symmetry_Int_Tables_number   1
_chemical_formula_structural   Ba5Yb8Ni4O21
_chemical_formula_sum   'Ba5 Yb8 Ni4 O21'
_cell_volume   517.20038788
_cell_formula_units_Z   1
loop_
 _symmetry_equiv_pos_site_id
 _symmetry_equiv_pos_as_xyz
  1  'x, y, z'
loop_
 _atom_site_type_symbol
 _atom_site_label
 _atom_site_symmetry_multiplicity
 _atom_site_fract_x
 _atom_site_fract_y
 _atom_site_fract_z
 _atom_site_occupancy
  Ba  Ba0  1  0.532121  0.147424  0.679545  1
  Ba  Ba1  1  0.852576  0.532121  0.384697  1
  Ba  Ba2  1  0.147424  0.467879  0.615303  1
  Ba  Ba3  1  0.467879  0.852576  0.320455  1
  Ba  Ba4  1  0.000000  0.000000  0.000000  1
  Yb  Yb5  1  0.830169  0.250541  0.080710  1
  Yb  Yb6  1  0.749459  0.830169  0.579627  1
  Yb  Yb7  1  0.250541  0.169831  0.420373  1
  Yb  Yb8  1  0.169831  0.749459  0.919290  1
  Yb  Yb9  1  0.639130  0.407385  0.046516  1
  Yb  Yb10  1  0.592615  0.639130  0.231745  1
  Yb  Yb11  1  0.407385  0.360870  0.768255  1
  Yb  Yb12  1  0.360870  0.592615  0.953484  1
  Ni  Ni13  1  0.756708  0.041432  0.798140  1
  Ni  Ni14  1  0.958568  0.756708  0.715276  1
  Ni  Ni15  1  0.041432  0.243292  0.284724  1
  Ni  Ni16  1  0.243292  0.958568  0.201860  1
  O  O17  1  0.500000  0.500000  0.000000  1
  O  O18  1  0.974813  0.361338  0.336150  1
  O  O19  1  0.638662  0.974813  0.613475  1
  O  O20  1  0.361338  0.025187  0.386525  1
  O  O21  1  0.025187  0.638662  0.663850  1
  O  O22  1  0.961880  0.366823  0.869752  1
  O  O23  1  0.092127  0.961880  0.595057  1
  O  O24  1  0.366823  0.497071  0.404943  1
  O  O25  1  0.497071  0.092127  0.130248  1
  O  O26  1  0.038120  0.633177  0.130248  1
  O  O27  1  0.907873  0.038120  0.404943  1
  O  O28  1  0.633177  0.502929  0.595057  1
  O  O29  1  0.502929  0.907873  0.869752  1
  O  O30  1  0.192904  0.418449  0.145206  1
  O  O31  1  0.047698  0.192904  0.774455  1
  O  O32  1  0.418449  0.273242  0.225545  1
  O  O33  1  0.273242  0.047698  0.854794  1
  O  O34  1  0.807096  0.581551  0.854794  1
  O  O35  1  0.952302  0.807096  0.225545  1
  O  O36  1  0.581551  0.726758  0.774455  1
  O  O37  1  0.726758  0.952302  0.145206  1
