# generated using pymatgen
data_Nb5Si3
_symmetry_space_group_name_H-M   'P 1'
_cell_length_a   7.57901189
_cell_length_b   7.57901189
_cell_length_c   7.57901189
_cell_angle_alpha   96.52392388
_cell_angle_beta   96.52392388
_cell_angle_gamma   140.60273394
_symmetry_Int_Tables_number   1
_chemical_formula_structural   Nb5Si3
_chemical_formula_sum   'Nb10 Si6'
_cell_volume   260.14312859
_cell_formula_units_Z   2
loop_
 _symmetry_equiv_pos_site_id
 _symmetry_equiv_pos_as_xyz
  1  'x, y, z'
loop_
 _atom_site_type_symbol
 _atom_site_label
 _atom_site_symmetry_multiplicity
 _atom_site_fract_x
 _atom_site_fract_y
 _atom_site_fract_z
 _atom_site_occupancy
  Nb  Nb0  1  0.719289  0.575965  0.295254  1
  Nb  Nb1  1  0.424035  0.719289  0.143324  1
  Nb  Nb2  1  0.280711  0.424035  0.704746  1
  Nb  Nb3  1  0.750000  0.250000  0.500000  1
  Nb  Nb4  1  0.219289  0.924035  0.143324  1
  Nb  Nb5  1  0.924035  0.780711  0.704746  1
  Nb  Nb6  1  0.575965  0.280711  0.856676  1
  Nb  Nb7  1  0.780711  0.075965  0.856676  1
  Nb  Nb8  1  0.075965  0.219289  0.295254  1
  Nb  Nb9  1  0.250000  0.750000  0.500000  1
  Si  Si10  1  0.335279  0.164721  0.500000  1
  Si  Si11  1  0.250000  0.250000  0.000000  1
  Si  Si12  1  0.750000  0.750000  0.000000  1
  Si  Si13  1  0.164721  0.664721  0.829442  1
  Si  Si14  1  0.835279  0.335279  0.170558  1
  Si  Si15  1  0.664721  0.835279  0.500000  1
