# generated using pymatgen
data_Na10U8W5O44
_symmetry_space_group_name_H-M   'P 1'
_cell_length_a   17.29750329
_cell_length_b   17.29750329
_cell_length_c   6.83892538
_cell_angle_alpha   86.59817936
_cell_angle_beta   93.40182064
_cell_angle_gamma   92.71666795
_symmetry_Int_Tables_number   1
_chemical_formula_structural   Na10U8W5O44
_chemical_formula_sum   'Na20 U16 W10 O88'
_cell_volume   2037.04890610
_cell_formula_units_Z   2
loop_
 _symmetry_equiv_pos_site_id
 _symmetry_equiv_pos_as_xyz
  1  'x, y, z'
loop_
 _atom_site_type_symbol
 _atom_site_label
 _atom_site_symmetry_multiplicity
 _atom_site_fract_x
 _atom_site_fract_y
 _atom_site_fract_z
 _atom_site_occupancy
  Na  Na0  1  0.372534  0.872121  0.316974  1
  Na  Na1  1  0.453178  0.957706  0.793990  1
  Na  Na2  1  0.952856  0.952856  0.250000  1
  Na  Na3  1  0.627466  0.127879  0.683026  1
  Na  Na4  1  0.295105  0.788996  0.827338  1
  Na  Na5  1  0.127879  0.627466  0.816974  1
  Na  Na6  1  0.392611  0.392611  0.250000  1
  Na  Na7  1  0.042294  0.546822  0.293990  1
  Na  Na8  1  0.893796  0.893796  0.750000  1
  Na  Na9  1  0.211004  0.704895  0.327338  1
  Na  Na10  1  0.106204  0.106204  0.250000  1
  Na  Na11  1  0.546822  0.042294  0.206010  1
  Na  Na12  1  0.872121  0.372534  0.183026  1
  Na  Na13  1  0.547416  0.547416  0.250000  1
  Na  Na14  1  0.704895  0.211004  0.172662  1
  Na  Na15  1  0.047144  0.047144  0.750000  1
  Na  Na16  1  0.957706  0.453178  0.706010  1
  Na  Na17  1  0.607389  0.607389  0.750000  1
  Na  Na18  1  0.452584  0.452584  0.750000  1
  Na  Na19  1  0.788996  0.295105  0.672662  1
  U  U20  1  0.749321  0.502137  0.484185  1
  U  U21  1  0.338846  0.592518  0.045255  1
  U  U22  1  0.001722  0.250687  0.904958  1
  U  U23  1  0.250687  0.001722  0.595042  1
  U  U24  1  0.749313  0.998278  0.404958  1
  U  U25  1  0.998278  0.749313  0.095042  1
  U  U26  1  0.093679  0.838590  0.626335  1
  U  U27  1  0.407482  0.661154  0.545255  1
  U  U28  1  0.661154  0.407482  0.954745  1
  U  U29  1  0.502137  0.749321  0.015815  1
  U  U30  1  0.161410  0.906321  0.126335  1
  U  U31  1  0.250679  0.497863  0.515815  1
  U  U32  1  0.838590  0.093679  0.873665  1
  U  U33  1  0.906321  0.161410  0.373665  1
  U  U34  1  0.592518  0.338846  0.454745  1
  U  U35  1  0.497863  0.250679  0.984185  1
  W  W36  1  0.932627  0.662411  0.622136  1
  W  W37  1  0.831012  0.569541  0.963819  1
  W  W38  1  0.662411  0.932627  0.877864  1
  W  W39  1  0.168988  0.430459  0.036181  1
  W  W40  1  0.067373  0.337589  0.377864  1
  W  W41  1  0.430459  0.168988  0.463819  1
  W  W42  1  0.569541  0.831012  0.536181  1
  W  W43  1  0.246384  0.246384  0.250000  1
  W  W44  1  0.337589  0.067373  0.122136  1
  W  W45  1  0.753616  0.753616  0.750000  1
  O  O46  1  0.749357  0.667578  0.914379  1
  O  O47  1  0.999836  0.742634  0.723282  1
  O  O48  1  0.069709  0.670887  0.125874  1
  O  O49  1  0.742634  0.999836  0.776718  1
  O  O50  1  0.568844  0.805743  0.280451  1
  O  O51  1  0.909789  0.654650  0.932930  1
  O  O52  1  0.407749  0.159039  0.147264  1
  O  O53  1  0.827818  0.928122  0.442946  1
  O  O54  1  0.319705  0.593525  0.365160  1
  O  O55  1  0.084992  0.981681  0.109254  1
  O  O56  1  0.064478  0.814206  0.320029  1
  O  O57  1  0.670887  0.069709  0.374126  1
  O  O58  1  0.826659  0.086257  0.550503  1
  O  O59  1  0.668805  0.570010  0.475572  1
  O  O60  1  0.814206  0.064478  0.179971  1
  O  O61  1  0.245939  0.156476  0.125119  1
  O  O62  1  0.667578  0.749357  0.585621  1
  O  O63  1  0.934214  0.689895  0.359610  1
  O  O64  1  0.843524  0.754061  0.625119  1
  O  O65  1  0.159039  0.407749  0.352736  1
  O  O66  1  0.156476  0.245939  0.374881  1
  O  O67  1  0.680295  0.406475  0.634840  1
  O  O68  1  0.492971  0.897712  0.513970  1
  O  O69  1  0.743660  0.511867  0.855099  1
  O  O70  1  0.521520  0.418785  0.421066  1
  O  O71  1  0.897712  0.492971  0.986030  1
  O  O72  1  0.689895  0.934214  0.140390  1
  O  O73  1  0.682704  0.438550  0.258991  1
  O  O74  1  0.840961  0.592251  0.647264  1
  O  O75  1  0.438550  0.682704  0.241009  1
  O  O76  1  0.086257  0.826659  0.949497  1
  O  O77  1  0.561450  0.317296  0.758991  1
  O  O78  1  0.166810  0.760077  0.646131  1
  O  O79  1  0.507029  0.102288  0.486030  1
  O  O80  1  0.172182  0.071878  0.557054  1
  O  O81  1  0.071878  0.172182  0.942946  1
  O  O82  1  0.345350  0.090211  0.432930  1
  O  O83  1  0.433166  0.830474  0.000221  1
  O  O84  1  0.429990  0.331195  0.975572  1
  O  O85  1  0.339803  0.744218  0.512475  1
  O  O86  1  0.833190  0.239923  0.353869  1
  O  O87  1  0.592251  0.840961  0.852736  1
  O  O88  1  0.754061  0.843524  0.874881  1
  O  O89  1  0.185794  0.935522  0.820029  1
  O  O90  1  0.065786  0.310105  0.640390  1
  O  O91  1  0.194257  0.431156  0.780451  1
  O  O92  1  0.928122  0.827818  0.057054  1
  O  O93  1  0.329113  0.930291  0.625874  1
  O  O94  1  0.570010  0.668805  0.024428  1
  O  O95  1  0.581215  0.478480  0.921066  1
  O  O96  1  0.654650  0.909789  0.567070  1
  O  O97  1  0.257366  0.000164  0.223282  1
  O  O98  1  0.981681  0.084992  0.390746  1
  O  O99  1  0.310105  0.065786  0.859610  1
  O  O100  1  0.000164  0.257366  0.276718  1
  O  O101  1  0.256340  0.488133  0.144901  1
  O  O102  1  0.930291  0.329113  0.874126  1
  O  O103  1  0.488133  0.256340  0.355099  1
  O  O104  1  0.935522  0.185794  0.679971  1
  O  O105  1  0.000951  0.586415  0.631956  1
  O  O106  1  0.317296  0.561450  0.741009  1
  O  O107  1  0.744218  0.339803  0.987525  1
  O  O108  1  0.915008  0.018319  0.890746  1
  O  O109  1  0.586415  0.000951  0.868044  1
  O  O110  1  0.413585  0.999049  0.131956  1
  O  O111  1  0.431156  0.194257  0.719549  1
  O  O112  1  0.418785  0.521520  0.078934  1
  O  O113  1  0.830474  0.433166  0.499779  1
  O  O114  1  0.760077  0.166810  0.853869  1
  O  O115  1  0.511867  0.743660  0.644901  1
  O  O116  1  0.478480  0.581215  0.578934  1
  O  O117  1  0.566834  0.169526  0.999779  1
  O  O118  1  0.173341  0.913743  0.449497  1
  O  O119  1  0.331195  0.429990  0.524428  1
  O  O120  1  0.406475  0.680295  0.865160  1
  O  O121  1  0.018319  0.915008  0.609254  1
  O  O122  1  0.250643  0.332422  0.085621  1
  O  O123  1  0.805743  0.568844  0.219549  1
  O  O124  1  0.660197  0.255782  0.487525  1
  O  O125  1  0.169526  0.566834  0.500221  1
  O  O126  1  0.239923  0.833190  0.146131  1
  O  O127  1  0.999049  0.413585  0.368044  1
  O  O128  1  0.593525  0.319705  0.134840  1
  O  O129  1  0.332422  0.250643  0.414379  1
  O  O130  1  0.913743  0.173341  0.050503  1
  O  O131  1  0.102288  0.507029  0.013970  1
  O  O132  1  0.090211  0.345350  0.067070  1
  O  O133  1  0.255782  0.660197  0.012475  1
