# generated using pymatgen
data_Gd(NiSb)2
_symmetry_space_group_name_H-M   'P 1'
_cell_length_a   6.15846466
_cell_length_b   6.15846466
_cell_length_c   6.15846466
_cell_angle_alpha   138.85561726
_cell_angle_beta   138.85561726
_cell_angle_gamma   59.59507552
_symmetry_Int_Tables_number   1
_chemical_formula_structural   Gd(NiSb)2
_chemical_formula_sum   'Gd1 Ni2 Sb2'
_cell_volume   100.10654882
_cell_formula_units_Z   1
loop_
 _symmetry_equiv_pos_site_id
 _symmetry_equiv_pos_as_xyz
  1  'x, y, z'
loop_
 _atom_site_type_symbol
 _atom_site_label
 _atom_site_symmetry_multiplicity
 _atom_site_fract_x
 _atom_site_fract_y
 _atom_site_fract_z
 _atom_site_occupancy
  Gd  Gd0  1  0.000000  0.000000  0.000000  1
  Ni  Ni1  1  0.250000  0.750000  0.500000  1
  Ni  Ni2  1  0.750000  0.250000  0.500000  1
  Sb  Sb3  1  0.365926  0.365926  0.000000  1
  Sb  Sb4  1  0.634074  0.634074  0.000000  1
