# generated using pymatgen
data_NaLa(SeO3)2
_symmetry_space_group_name_H-M   'P 1'
_cell_length_a   6.76633363
_cell_length_b   6.85678273
_cell_length_c   13.78954276
_cell_angle_alpha   90.00000000
_cell_angle_beta   107.62484642
_cell_angle_gamma   90.00000000
_symmetry_Int_Tables_number   1
_chemical_formula_structural   NaLa(SeO3)2
_chemical_formula_sum   'Na4 La4 Se8 O24'
_cell_volume   609.73855331
_cell_formula_units_Z   4
loop_
 _symmetry_equiv_pos_site_id
 _symmetry_equiv_pos_as_xyz
  1  'x, y, z'
loop_
 _atom_site_type_symbol
 _atom_site_label
 _atom_site_symmetry_multiplicity
 _atom_site_fract_x
 _atom_site_fract_y
 _atom_site_fract_z
 _atom_site_occupancy
  Na  Na0  1  0.925007  0.666967  0.617015  1
  Na  Na1  1  0.925007  0.833033  0.117015  1
  Na  Na2  1  0.074993  0.333033  0.382985  1
  Na  Na3  1  0.074993  0.166967  0.882985  1
  La  La4  1  0.508540  0.378419  0.664323  1
  La  La5  1  0.491460  0.878419  0.835677  1
  La  La6  1  0.508540  0.121581  0.164323  1
  La  La7  1  0.491460  0.621581  0.335677  1
  Se  Se8  1  0.034430  0.334966  0.138861  1
  Se  Se9  1  0.622096  0.351824  0.931439  1
  Se  Se10  1  0.965570  0.834966  0.361139  1
  Se  Se11  1  0.965570  0.665034  0.861139  1
  Se  Se12  1  0.377904  0.851824  0.568561  1
  Se  Se13  1  0.377904  0.648176  0.068561  1
  Se  Se14  1  0.034430  0.165034  0.638861  1
  Se  Se15  1  0.622096  0.148176  0.431439  1
  O  O16  1  0.306329  0.717280  0.660717  1
  O  O17  1  0.531897  0.681392  0.534612  1
  O  O18  1  0.123182  0.664021  0.330315  1
  O  O19  1  0.547671  0.484338  0.145412  1
  O  O20  1  0.251961  0.169920  0.745029  1
  O  O21  1  0.468103  0.181392  0.965388  1
  O  O22  1  0.452329  0.515662  0.854588  1
  O  O23  1  0.136169  0.205275  0.057992  1
  O  O24  1  0.531897  0.818608  0.034612  1
  O  O25  1  0.876818  0.164021  0.169685  1
  O  O26  1  0.123182  0.835979  0.830315  1
  O  O27  1  0.748039  0.830080  0.254971  1
  O  O28  1  0.863831  0.705275  0.442008  1
  O  O29  1  0.876818  0.335979  0.669685  1
  O  O30  1  0.863831  0.794725  0.942008  1
  O  O31  1  0.693671  0.282720  0.339283  1
  O  O32  1  0.251961  0.330080  0.245029  1
  O  O33  1  0.693671  0.217280  0.839283  1
  O  O34  1  0.136169  0.294725  0.557992  1
  O  O35  1  0.306329  0.782720  0.160717  1
  O  O36  1  0.452329  0.984338  0.354588  1
  O  O37  1  0.748039  0.669920  0.754971  1
  O  O38  1  0.468103  0.318608  0.465388  1
  O  O39  1  0.547671  0.015662  0.645412  1
