# generated using pymatgen
data_FePCl8
_symmetry_space_group_name_H-M   'P 1'
_cell_length_a   6.33779722
_cell_length_b   13.96979957
_cell_length_c   14.40193028
_cell_angle_alpha   90.00000000
_cell_angle_beta   90.00000000
_cell_angle_gamma   90.00000000
_symmetry_Int_Tables_number   1
_chemical_formula_structural   FePCl8
_chemical_formula_sum   'Fe4 P4 Cl32'
_cell_volume   1275.11460171
_cell_formula_units_Z   4
loop_
 _symmetry_equiv_pos_site_id
 _symmetry_equiv_pos_as_xyz
  1  'x, y, z'
loop_
 _atom_site_type_symbol
 _atom_site_label
 _atom_site_symmetry_multiplicity
 _atom_site_fract_x
 _atom_site_fract_y
 _atom_site_fract_z
 _atom_site_occupancy
  Fe  Fe0  1  0.273460  0.026440  0.250000  1
  Fe  Fe1  1  0.273460  0.473560  0.750000  1
  Fe  Fe2  1  0.726540  0.526440  0.250000  1
  Fe  Fe3  1  0.726540  0.973560  0.750000  1
  P  P4  1  0.954830  0.250000  0.000000  1
  P  P5  1  0.045170  0.750000  0.500000  1
  P  P6  1  0.045170  0.750000  0.000000  1
  P  P7  1  0.954830  0.250000  0.500000  1
  Cl  Cl8  1  0.402735  0.961952  0.121980  1
  Cl  Cl9  1  0.402735  0.538048  0.878020  1
  Cl  Cl10  1  0.597265  0.461952  0.378020  1
  Cl  Cl11  1  0.597265  0.038048  0.621980  1
  Cl  Cl12  1  0.597265  0.038048  0.878020  1
  Cl  Cl13  1  0.597265  0.461952  0.121980  1
  Cl  Cl14  1  0.402735  0.538048  0.621980  1
  Cl  Cl15  1  0.402735  0.961952  0.378020  1
  Cl  Cl16  1  0.341637  0.182925  0.250000  1
  Cl  Cl17  1  0.341637  0.317075  0.750000  1
  Cl  Cl18  1  0.658363  0.682925  0.250000  1
  Cl  Cl19  1  0.658363  0.817075  0.750000  1
  Cl  Cl20  1  0.929715  0.003727  0.250000  1
  Cl  Cl21  1  0.929715  0.496273  0.750000  1
  Cl  Cl22  1  0.070285  0.503727  0.250000  1
  Cl  Cl23  1  0.070285  0.996273  0.750000  1
  Cl  Cl24  1  0.134603  0.351584  0.050251  1
  Cl  Cl25  1  0.134603  0.148416  0.949749  1
  Cl  Cl26  1  0.865397  0.851584  0.449749  1
  Cl  Cl27  1  0.865397  0.648416  0.550251  1
  Cl  Cl28  1  0.865397  0.648416  0.949749  1
  Cl  Cl29  1  0.865397  0.851584  0.050251  1
  Cl  Cl30  1  0.134603  0.148416  0.550251  1
  Cl  Cl31  1  0.134603  0.351584  0.449749  1
  Cl  Cl32  1  0.775008  0.198087  0.098563  1
  Cl  Cl33  1  0.775008  0.301913  0.901437  1
  Cl  Cl34  1  0.224992  0.698087  0.401437  1
  Cl  Cl35  1  0.224992  0.801913  0.598563  1
  Cl  Cl36  1  0.224992  0.801913  0.901437  1
  Cl  Cl37  1  0.224992  0.698087  0.098563  1
  Cl  Cl38  1  0.775008  0.301913  0.598563  1
  Cl  Cl39  1  0.775008  0.198087  0.401437  1
