# generated using pymatgen
data_Sm3CuSnSe7
_symmetry_space_group_name_H-M   'P 1'
_cell_length_a   10.49406559
_cell_length_b   10.49406559
_cell_length_c   6.37931981
_cell_angle_alpha   90.00000000
_cell_angle_beta   90.00000000
_cell_angle_gamma   120.00000000
_symmetry_Int_Tables_number   1
_chemical_formula_structural   Sm3CuSnSe7
_chemical_formula_sum   'Sm6 Cu2 Sn2 Se14'
_cell_volume   608.40469327
_cell_formula_units_Z   2
loop_
 _symmetry_equiv_pos_site_id
 _symmetry_equiv_pos_as_xyz
  1  'x, y, z'
loop_
 _atom_site_type_symbol
 _atom_site_label
 _atom_site_symmetry_multiplicity
 _atom_site_fract_x
 _atom_site_fract_y
 _atom_site_fract_z
 _atom_site_occupancy
  Sm  Sm0  1  0.214358  0.356064  0.941474  1
  Sm  Sm1  1  0.141705  0.785642  0.941474  1
  Sm  Sm2  1  0.643936  0.858295  0.941474  1
  Sm  Sm3  1  0.785642  0.643936  0.441474  1
  Sm  Sm4  1  0.356064  0.141705  0.441474  1
  Sm  Sm5  1  0.858295  0.214358  0.441474  1
  Cu  Cu6  1  0.000000  0.000000  0.001270  1
  Cu  Cu7  1  0.000000  0.000000  0.501270  1
  Sn  Sn8  1  0.333333  0.666667  0.367014  1
  Sn  Sn9  1  0.666667  0.333333  0.867014  1
  Se  Se10  1  0.739658  0.893349  0.487168  1
  Se  Se11  1  0.433301  0.918580  0.189698  1
  Se  Se12  1  0.918580  0.485279  0.689698  1
  Se  Se13  1  0.514721  0.433301  0.689698  1
  Se  Se14  1  0.893349  0.153692  0.987168  1
  Se  Se15  1  0.566699  0.081420  0.689698  1
  Se  Se16  1  0.106651  0.846308  0.487168  1
  Se  Se17  1  0.333333  0.666667  0.763997  1
  Se  Se18  1  0.260342  0.106651  0.987168  1
  Se  Se19  1  0.485279  0.566699  0.189698  1
  Se  Se20  1  0.081420  0.514721  0.189698  1
  Se  Se21  1  0.666667  0.333333  0.263997  1
  Se  Se22  1  0.153692  0.260342  0.487168  1
  Se  Se23  1  0.846308  0.739658  0.987168  1
