# generated using pymatgen
data_SbBr(OF3)2
_symmetry_space_group_name_H-M   'P 1'
_cell_length_a   7.28053242
_cell_length_b   5.96119936
_cell_length_c   10.28495282
_cell_angle_alpha   90.00000000
_cell_angle_beta   131.99436395
_cell_angle_gamma   90.00000000
_symmetry_Int_Tables_number   1
_chemical_formula_structural   SbBr(OF3)2
_chemical_formula_sum   'Sb2 Br2 O4 F12'
_cell_volume   331.75006007
_cell_formula_units_Z   2
loop_
 _symmetry_equiv_pos_site_id
 _symmetry_equiv_pos_as_xyz
  1  'x, y, z'
loop_
 _atom_site_type_symbol
 _atom_site_label
 _atom_site_symmetry_multiplicity
 _atom_site_fract_x
 _atom_site_fract_y
 _atom_site_fract_z
 _atom_site_occupancy
  Sb  Sb0  1  0.500000  0.533160  0.750000  1
  Sb  Sb1  1  0.500000  0.466840  0.250000  1
  Br  Br2  1  0.000000  0.854872  0.250000  1
  Br  Br3  1  0.000000  0.145128  0.750000  1
  O  O4  1  0.140923  0.008232  0.423331  1
  O  O5  1  0.859077  0.991768  0.576669  1
  O  O6  1  0.859077  0.008232  0.076669  1
  O  O7  1  0.140923  0.991768  0.923331  1
  F  F8  1  0.219148  0.524276  0.503048  1
  F  F9  1  0.650568  0.294338  0.718584  1
  F  F10  1  0.349432  0.294338  0.781416  1
  F  F11  1  0.780852  0.475724  0.496952  1
  F  F12  1  0.347818  0.753146  0.785158  1
  F  F13  1  0.780852  0.524276  0.996952  1
  F  F14  1  0.650568  0.705662  0.218584  1
  F  F15  1  0.347818  0.246854  0.285158  1
  F  F16  1  0.219148  0.475724  0.003048  1
  F  F17  1  0.652182  0.753146  0.714842  1
  F  F18  1  0.349432  0.705662  0.281416  1
  F  F19  1  0.652182  0.246854  0.214842  1
