# generated using pymatgen
data_La6B(NO2)3
_symmetry_space_group_name_H-M   'P 1'
_cell_length_a   12.65378485
_cell_length_b   12.65378485
_cell_length_c   11.00787777
_cell_angle_alpha   90.00000000
_cell_angle_beta   90.00000000
_cell_angle_gamma   163.27059218
_symmetry_Int_Tables_number   1
_chemical_formula_structural   La6B(NO2)3
_chemical_formula_sum   'La12 B2 N6 O12'
_cell_volume   507.35727037
_cell_formula_units_Z   2
loop_
 _symmetry_equiv_pos_site_id
 _symmetry_equiv_pos_as_xyz
  1  'x, y, z'
loop_
 _atom_site_type_symbol
 _atom_site_label
 _atom_site_symmetry_multiplicity
 _atom_site_fract_x
 _atom_site_fract_y
 _atom_site_fract_z
 _atom_site_occupancy
  La  La0  1  0.452449  0.547551  0.250000  1
  La  La1  1  0.312809  0.687191  0.430754  1
  La  La2  1  0.312809  0.687191  0.069246  1
  La  La3  1  0.067948  0.932052  0.065430  1
  La  La4  1  0.300747  0.699253  0.750000  1
  La  La5  1  0.687191  0.312809  0.569246  1
  La  La6  1  0.932052  0.067948  0.934570  1
  La  La7  1  0.699253  0.300747  0.250000  1
  La  La8  1  0.547551  0.452449  0.750000  1
  La  La9  1  0.067948  0.932052  0.434570  1
  La  La10  1  0.932052  0.067948  0.565430  1
  La  La11  1  0.687191  0.312809  0.930754  1
  B  B12  1  0.140361  0.859639  0.750000  1
  B  B13  1  0.859639  0.140361  0.250000  1
  N  N14  1  0.199387  0.800613  0.750000  1
  N  N15  1  0.110725  0.889275  0.633918  1
  N  N16  1  0.889275  0.110725  0.366082  1
  N  N17  1  0.800613  0.199387  0.250000  1
  N  N18  1  0.889275  0.110725  0.133918  1
  N  N19  1  0.110725  0.889275  0.866082  1
  O  O20  1  0.623499  0.376501  0.106408  1
  O  O21  1  0.217429  0.782571  0.091872  1
  O  O22  1  0.012931  0.987069  0.250000  1
  O  O23  1  0.217429  0.782571  0.408128  1
  O  O24  1  0.782571  0.217429  0.908128  1
  O  O25  1  0.782571  0.217429  0.591872  1
  O  O26  1  0.623499  0.376501  0.393592  1
  O  O27  1  0.376501  0.623499  0.606408  1
  O  O28  1  0.987069  0.012931  0.750000  1
  O  O29  1  0.376501  0.623499  0.893592  1
  O  O30  1  0.500000  0.500000  1.000000  1
  O  O31  1  0.500000  0.500000  0.500000  1
