# generated using pymatgen
data_Pr7Al7Co6
_symmetry_space_group_name_H-M   'P 1'
_cell_length_a   13.96013108
_cell_length_b   13.96013108
_cell_length_c   4.18363065
_cell_angle_alpha   90.00000000
_cell_angle_beta   90.00000000
_cell_angle_gamma   90.00000000
_symmetry_Int_Tables_number   1
_chemical_formula_structural   Pr7Al7Co6
_chemical_formula_sum   'Pr14 Al14 Co12'
_cell_volume   815.32794601
_cell_formula_units_Z   2
loop_
 _symmetry_equiv_pos_site_id
 _symmetry_equiv_pos_as_xyz
  1  'x, y, z'
loop_
 _atom_site_type_symbol
 _atom_site_label
 _atom_site_symmetry_multiplicity
 _atom_site_fract_x
 _atom_site_fract_y
 _atom_site_fract_z
 _atom_site_occupancy
  Pr  Pr0  1  0.000000  0.000000  0.000000  1
  Pr  Pr1  1  0.500000  0.500000  0.000000  1
  Pr  Pr2  1  0.868283  0.368283  0.500000  1
  Pr  Pr3  1  0.368283  0.131717  0.500000  1
  Pr  Pr4  1  0.631717  0.868283  0.500000  1
  Pr  Pr5  1  0.131717  0.631717  0.500000  1
  Pr  Pr6  1  0.047552  0.261649  0.000000  1
  Pr  Pr7  1  0.261649  0.952448  0.000000  1
  Pr  Pr8  1  0.738351  0.047552  0.000000  1
  Pr  Pr9  1  0.952448  0.738351  0.000000  1
  Pr  Pr10  1  0.452448  0.761649  0.000000  1
  Pr  Pr11  1  0.547552  0.238351  0.000000  1
  Pr  Pr12  1  0.761649  0.547552  0.000000  1
  Pr  Pr13  1  0.238351  0.452448  0.000000  1
  Al  Al14  1  0.500000  0.000000  0.000000  1
  Al  Al15  1  0.000000  0.500000  0.000000  1
  Al  Al16  1  0.714572  0.214572  0.500000  1
  Al  Al17  1  0.214572  0.285428  0.500000  1
  Al  Al18  1  0.785428  0.714572  0.500000  1
  Al  Al19  1  0.285428  0.785428  0.500000  1
  Al  Al20  1  0.139609  0.099231  0.500000  1
  Al  Al21  1  0.099231  0.860391  0.500000  1
  Al  Al22  1  0.900769  0.139609  0.500000  1
  Al  Al23  1  0.860391  0.900769  0.500000  1
  Al  Al24  1  0.360391  0.599231  0.500000  1
  Al  Al25  1  0.639609  0.400769  0.500000  1
  Al  Al26  1  0.599231  0.639609  0.500000  1
  Al  Al27  1  0.400769  0.360391  0.500000  1
  Co  Co28  1  0.572847  0.072847  0.500000  1
  Co  Co29  1  0.072847  0.427153  0.500000  1
  Co  Co30  1  0.927153  0.572847  0.500000  1
  Co  Co31  1  0.427153  0.927153  0.500000  1
  Co  Co32  1  0.334224  0.288870  0.000000  1
  Co  Co33  1  0.288870  0.665776  0.000000  1
  Co  Co34  1  0.711130  0.334224  0.000000  1
  Co  Co35  1  0.665776  0.711130  0.000000  1
  Co  Co36  1  0.165776  0.788870  0.000000  1
  Co  Co37  1  0.834224  0.211130  0.000000  1
  Co  Co38  1  0.788870  0.834224  0.000000  1
  Co  Co39  1  0.211130  0.165776  0.000000  1
