# generated using pymatgen
data_U(AlC)3
_symmetry_space_group_name_H-M   'P 1'
_cell_length_a   3.38756762
_cell_length_b   3.38756762
_cell_length_c   17.42626735
_cell_angle_alpha   90.00000000
_cell_angle_beta   90.00000000
_cell_angle_gamma   120.00000000
_symmetry_Int_Tables_number   1
_chemical_formula_structural   U(AlC)3
_chemical_formula_sum   'U2 Al6 C6'
_cell_volume   173.18526981
_cell_formula_units_Z   2
loop_
 _symmetry_equiv_pos_site_id
 _symmetry_equiv_pos_as_xyz
  1  'x, y, z'
loop_
 _atom_site_type_symbol
 _atom_site_label
 _atom_site_symmetry_multiplicity
 _atom_site_fract_x
 _atom_site_fract_y
 _atom_site_fract_z
 _atom_site_occupancy
  U  U0  1  0.000000  0.000000  0.002856  1
  U  U1  1  0.000000  0.000000  0.502856  1
  Al  Al2  1  0.333333  0.666667  0.137014  1
  Al  Al3  1  0.666667  0.333333  0.869862  1
  Al  Al4  1  0.666667  0.333333  0.637014  1
  Al  Al5  1  0.333333  0.666667  0.756550  1
  Al  Al6  1  0.333333  0.666667  0.369862  1
  Al  Al7  1  0.666667  0.333333  0.256550  1
  C  C8  1  0.333333  0.666667  0.595625  1
  C  C9  1  0.666667  0.333333  0.407345  1
  C  C10  1  0.333333  0.666667  0.907345  1
  C  C11  1  0.666667  0.333333  0.095625  1
  C  C12  1  0.666667  0.333333  0.753048  1
  C  C13  1  0.333333  0.666667  0.253048  1
