# generated using pymatgen
data_U2(Co7B2)3
_symmetry_space_group_name_H-M   'P 1'
_cell_length_a   7.50235456
_cell_length_b   7.50235456
_cell_length_c   7.50235456
_cell_angle_alpha   60.00000000
_cell_angle_beta   60.00000000
_cell_angle_gamma   60.00000000
_symmetry_Int_Tables_number   1
_chemical_formula_structural   U2(Co7B2)3
_chemical_formula_sum   'U2 Co21 B6'
_cell_volume   298.59171788
_cell_formula_units_Z   1
loop_
 _symmetry_equiv_pos_site_id
 _symmetry_equiv_pos_as_xyz
  1  'x, y, z'
loop_
 _atom_site_type_symbol
 _atom_site_label
 _atom_site_symmetry_multiplicity
 _atom_site_fract_x
 _atom_site_fract_y
 _atom_site_fract_z
 _atom_site_occupancy
  U  U0  1  0.750000  0.750000  0.750000  1
  U  U1  1  0.250000  0.250000  0.250000  1
  Co  Co2  1  0.000000  0.000000  0.000000  1
  Co  Co3  1  0.616973  0.149080  0.616973  1
  Co  Co4  1  0.383027  0.383027  0.383027  1
  Co  Co5  1  0.383027  0.383027  0.850920  1
  Co  Co6  1  0.850920  0.383027  0.383027  1
  Co  Co7  1  0.616973  0.616973  0.149080  1
  Co  Co8  1  0.149080  0.616973  0.616973  1
  Co  Co9  1  0.616973  0.616973  0.616973  1
  Co  Co10  1  0.383027  0.850920  0.383027  1
  Co  Co11  1  1.000000  0.335934  0.664066  1
  Co  Co12  1  1.000000  0.335934  0.000000  1
  Co  Co13  1  0.335934  0.000000  0.664066  1
  Co  Co14  1  0.664066  0.000000  1.000000  1
  Co  Co15  1  0.335934  0.000000  0.000000  1
  Co  Co16  1  0.664066  0.335934  1.000000  1
  Co  Co17  1  0.000000  0.000000  0.664066  1
  Co  Co18  1  0.664066  0.000000  0.335934  1
  Co  Co19  1  0.335934  0.664066  1.000000  1
  Co  Co20  1  0.000000  0.000000  0.335934  1
  Co  Co21  1  1.000000  0.664066  0.000000  1
  Co  Co22  1  0.000000  0.664066  0.335934  1
  B  B23  1  0.725839  0.274161  0.274161  1
  B  B24  1  0.274161  0.725839  0.274161  1
  B  B25  1  0.725839  0.274161  0.725839  1
  B  B26  1  0.725839  0.725839  0.274161  1
  B  B27  1  0.274161  0.274161  0.725839  1
  B  B28  1  0.274161  0.725839  0.725839  1
