# generated using pymatgen
data_UPt
_symmetry_space_group_name_H-M   'P 1'
_cell_length_a   5.77324074
_cell_length_b   10.66920921
_cell_length_c   5.81619569
_cell_angle_alpha   90.00000000
_cell_angle_beta   101.58452257
_cell_angle_gamma   90.00000000
_symmetry_Int_Tables_number   1
_chemical_formula_structural   UPt
_chemical_formula_sum   'U8 Pt8'
_cell_volume   350.95608566
_cell_formula_units_Z   8
loop_
 _symmetry_equiv_pos_site_id
 _symmetry_equiv_pos_as_xyz
  1  'x, y, z'
loop_
 _atom_site_type_symbol
 _atom_site_label
 _atom_site_symmetry_multiplicity
 _atom_site_fract_x
 _atom_site_fract_y
 _atom_site_fract_z
 _atom_site_occupancy
  U  U0  1  0.138601  0.002956  0.091366  1
  U  U1  1  0.861399  0.502956  0.908634  1
  U  U2  1  0.610604  0.015854  0.653187  1
  U  U3  1  0.389396  0.515854  0.346813  1
  U  U4  1  0.861083  0.289150  0.402399  1
  U  U5  1  0.138917  0.789150  0.597601  1
  U  U6  1  0.398606  0.279513  0.842168  1
  U  U7  1  0.601394  0.779513  0.157832  1
  Pt  Pt8  1  0.086254  0.739540  0.088772  1
  Pt  Pt9  1  0.913746  0.239540  0.911228  1
  Pt  Pt10  1  0.648169  0.747223  0.663832  1
  Pt  Pt11  1  0.351831  0.247223  0.336168  1
  Pt  Pt12  1  0.902167  0.553533  0.419098  1
  Pt  Pt13  1  0.097833  0.053533  0.580902  1
  Pt  Pt14  1  0.351899  0.548230  0.843923  1
  Pt  Pt15  1  0.648101  0.048230  0.156077  1
