# generated using pymatgen
data_BaLu2CuO5
_symmetry_space_group_name_H-M   'P 1'
_cell_length_a   5.62016643
_cell_length_b   7.09310849
_cell_length_c   12.05655721
_cell_angle_alpha   90.00000000
_cell_angle_beta   90.00000000
_cell_angle_gamma   90.00000000
_symmetry_Int_Tables_number   1
_chemical_formula_structural   BaLu2CuO5
_chemical_formula_sum   'Ba4 Lu8 Cu4 O20'
_cell_volume   480.62802472
_cell_formula_units_Z   4
loop_
 _symmetry_equiv_pos_site_id
 _symmetry_equiv_pos_as_xyz
  1  'x, y, z'
loop_
 _atom_site_type_symbol
 _atom_site_label
 _atom_site_symmetry_multiplicity
 _atom_site_fract_x
 _atom_site_fract_y
 _atom_site_fract_z
 _atom_site_occupancy
  Ba  Ba0  1  0.250000  0.929411  0.903675  1
  Ba  Ba1  1  0.750000  0.070589  0.096325  1
  Ba  Ba2  1  0.750000  0.429411  0.596325  1
  Ba  Ba3  1  0.250000  0.570589  0.403675  1
  Lu  Lu4  1  0.250000  0.114905  0.286866  1
  Lu  Lu5  1  0.750000  0.885095  0.713134  1
  Lu  Lu6  1  0.750000  0.614905  0.213134  1
  Lu  Lu7  1  0.250000  0.385095  0.786866  1
  Lu  Lu8  1  0.250000  0.398071  0.073827  1
  Lu  Lu9  1  0.750000  0.601929  0.926173  1
  Lu  Lu10  1  0.750000  0.898071  0.426173  1
  Lu  Lu11  1  0.250000  0.101929  0.573827  1
  Cu  Cu12  1  0.250000  0.717288  0.660603  1
  Cu  Cu13  1  0.750000  0.282712  0.339397  1
  Cu  Cu14  1  0.750000  0.217288  0.839397  1
  Cu  Cu15  1  0.250000  0.782712  0.160603  1
  O  O16  1  0.997743  0.158421  0.431900  1
  O  O17  1  0.497743  0.841579  0.568100  1
  O  O18  1  0.002257  0.658421  0.068100  1
  O  O19  1  0.502257  0.341579  0.931900  1
  O  O20  1  0.002257  0.841579  0.568100  1
  O  O21  1  0.502257  0.158421  0.431900  1
  O  O22  1  0.997743  0.341579  0.931900  1
  O  O23  1  0.497743  0.658421  0.068100  1
  O  O24  1  0.501323  0.360435  0.228033  1
  O  O25  1  0.001323  0.639565  0.771967  1
  O  O26  1  0.498677  0.860435  0.271967  1
  O  O27  1  0.998677  0.139565  0.728033  1
  O  O28  1  0.498677  0.639565  0.771967  1
  O  O29  1  0.998677  0.360435  0.228033  1
  O  O30  1  0.501323  0.139565  0.728033  1
  O  O31  1  0.001323  0.860435  0.271967  1
  O  O32  1  0.250000  0.090105  0.101853  1
  O  O33  1  0.750000  0.909895  0.898147  1
  O  O34  1  0.750000  0.590105  0.398147  1
  O  O35  1  0.250000  0.409895  0.601853  1
