# generated using pymatgen
data_SiO2
_symmetry_space_group_name_H-M   'P 1'
_cell_length_a   9.27309380
_cell_length_b   9.27309380
_cell_length_c   9.00393472
_cell_angle_alpha   81.27292996
_cell_angle_beta   98.72707004
_cell_angle_gamma   69.03535352
_symmetry_Int_Tables_number   1
_chemical_formula_structural   SiO2
_chemical_formula_sum   'Si12 O24'
_cell_volume   696.59709571
_cell_formula_units_Z   12
loop_
 _symmetry_equiv_pos_site_id
 _symmetry_equiv_pos_as_xyz
  1  'x, y, z'
loop_
 _atom_site_type_symbol
 _atom_site_label
 _atom_site_symmetry_multiplicity
 _atom_site_fract_x
 _atom_site_fract_y
 _atom_site_fract_z
 _atom_site_occupancy
  Si  Si0  1  0.108064  0.404229  0.894583  1
  Si  Si1  1  0.799579  0.997593  0.689537  1
  Si  Si2  1  0.200421  0.002407  0.310463  1
  Si  Si3  1  0.891936  0.595771  0.105417  1
  Si  Si4  1  0.997593  0.799579  0.310463  1
  Si  Si5  1  0.297576  0.905468  0.670574  1
  Si  Si6  1  0.595771  0.891936  0.894583  1
  Si  Si7  1  0.094532  0.702424  0.670574  1
  Si  Si8  1  0.404229  0.108064  0.105417  1
  Si  Si9  1  0.702424  0.094532  0.329426  1
  Si  Si10  1  0.002407  0.200421  0.689537  1
  Si  Si11  1  0.905468  0.297576  0.329426  1
  O  O12  1  0.821497  0.937547  0.284989  1
  O  O13  1  0.000000  0.500000  0.000000  1
  O  O14  1  0.275390  0.275390  0.000000  1
  O  O15  1  0.122139  0.877861  0.268293  1
  O  O16  1  0.682062  0.990534  0.803292  1
  O  O17  1  0.178503  0.062453  0.715011  1
  O  O18  1  0.146742  0.525168  0.771814  1
  O  O19  1  0.062453  0.178503  0.284989  1
  O  O20  1  0.760213  0.239787  0.291928  1
  O  O21  1  0.300333  0.943365  0.488628  1
  O  O22  1  0.525168  0.146742  0.228186  1
  O  O23  1  0.699667  0.056635  0.511372  1
  O  O24  1  0.474832  0.853258  0.771814  1
  O  O25  1  0.317938  0.009466  0.196708  1
  O  O26  1  0.877861  0.122139  0.731707  1
  O  O27  1  0.853258  0.474832  0.228186  1
  O  O28  1  0.724610  0.724610  0.000000  1
  O  O29  1  0.937547  0.821497  0.715011  1
  O  O30  1  0.500000  0.000000  0.000000  1
  O  O31  1  0.943365  0.300333  0.511372  1
  O  O32  1  0.990534  0.682062  0.196708  1
  O  O33  1  0.239787  0.760213  0.708072  1
  O  O34  1  0.056635  0.699667  0.488628  1
  O  O35  1  0.009466  0.317938  0.803292  1
