# generated using pymatgen
data_Eu2PI
_symmetry_space_group_name_H-M   'P 1'
_cell_length_a   8.09008454
_cell_length_b   8.09008454
_cell_length_c   8.09008454
_cell_angle_alpha   31.56210003
_cell_angle_beta   31.56210003
_cell_angle_gamma   31.56210003
_symmetry_Int_Tables_number   1
_chemical_formula_structural   Eu2PI
_chemical_formula_sum   'Eu2 P1 I1'
_cell_volume   128.80143921
_cell_formula_units_Z   1
loop_
 _symmetry_equiv_pos_site_id
 _symmetry_equiv_pos_as_xyz
  1  'x, y, z'
loop_
 _atom_site_type_symbol
 _atom_site_label
 _atom_site_symmetry_multiplicity
 _atom_site_fract_x
 _atom_site_fract_y
 _atom_site_fract_z
 _atom_site_occupancy
  Eu  Eu0  1  0.767773  0.767773  0.767773  1
  Eu  Eu1  1  0.232227  0.232227  0.232227  1
  P  P2  1  0.500000  0.500000  0.500000  1
  I  I3  1  0.000000  0.000000  0.000000  1
