# generated using pymatgen
data_K2Ag4Pd3(NO2)12
_symmetry_space_group_name_H-M   'P 1'
_cell_length_a   7.33485789
_cell_length_b   24.07771709
_cell_length_c   9.83958699
_cell_angle_alpha   90.00000000
_cell_angle_beta   128.27330050
_cell_angle_gamma   90.00000000
_symmetry_Int_Tables_number   1
_chemical_formula_structural   K2Ag4Pd3(NO2)12
_chemical_formula_sum   'K4 Ag8 Pd6 N24 O48'
_cell_volume   1364.23614376
_cell_formula_units_Z   2
loop_
 _symmetry_equiv_pos_site_id
 _symmetry_equiv_pos_as_xyz
  1  'x, y, z'
loop_
 _atom_site_type_symbol
 _atom_site_label
 _atom_site_symmetry_multiplicity
 _atom_site_fract_x
 _atom_site_fract_y
 _atom_site_fract_z
 _atom_site_occupancy
  K  K0  1  0.326259  0.134065  0.922925  1
  K  K1  1  0.673741  0.865935  0.077075  1
  K  K2  1  0.326259  0.365935  0.422925  1
  K  K3  1  0.673741  0.634065  0.577075  1
  Ag  Ag4  1  0.235230  0.526442  0.108533  1
  Ag  Ag5  1  0.764770  0.026442  0.391467  1
  Ag  Ag6  1  0.235230  0.973558  0.608533  1
  Ag  Ag7  1  0.433693  0.681261  0.824787  1
  Ag  Ag8  1  0.566307  0.181261  0.675213  1
  Ag  Ag9  1  0.764770  0.473558  0.891467  1
  Ag  Ag10  1  0.566307  0.318739  0.175213  1
  Ag  Ag11  1  0.433693  0.818739  0.324787  1
  Pd  Pd12  1  0.162434  0.323881  0.774642  1
  Pd  Pd13  1  0.837566  0.823881  0.725358  1
  Pd  Pd14  1  0.162434  0.176119  0.274642  1
  Pd  Pd15  1  0.000000  0.000000  0.000000  1
  Pd  Pd16  1  0.837566  0.676119  0.225358  1
  Pd  Pd17  1  0.000000  0.500000  0.500000  1
  N  N18  1  0.780921  0.067744  0.900346  1
  N  N19  1  0.016207  0.505649  0.718148  1
  N  N20  1  0.016207  0.994351  0.218148  1
  N  N21  1  0.910939  0.233970  0.200877  1
  N  N22  1  0.587902  0.616483  0.157135  1
  N  N23  1  0.412098  0.116483  0.342865  1
  N  N24  1  0.318034  0.230023  0.210843  1
  N  N25  1  0.681966  0.769977  0.789157  1
  N  N26  1  0.219079  0.567744  0.599654  1
  N  N27  1  0.989710  0.623191  0.154516  1
  N  N28  1  0.010290  0.123191  0.345484  1
  N  N29  1  0.910939  0.266030  0.700877  1
  N  N30  1  0.318034  0.269977  0.710843  1
  N  N31  1  0.089061  0.766030  0.799123  1
  N  N32  1  0.219079  0.932256  0.099654  1
  N  N33  1  0.010290  0.376809  0.845484  1
  N  N34  1  0.780921  0.432256  0.400346  1
  N  N35  1  0.587902  0.883517  0.657135  1
  N  N36  1  0.983793  0.494351  0.281852  1
  N  N37  1  0.089061  0.733970  0.299123  1
  N  N38  1  0.681966  0.730023  0.289157  1
  N  N39  1  0.989710  0.876809  0.654516  1
  N  N40  1  0.412098  0.383517  0.842865  1
  N  N41  1  0.983793  0.005649  0.781852  1
  O  O42  1  0.416526  0.611526  0.000256  1
  O  O43  1  0.801885  0.507960  0.136748  1
  O  O44  1  0.952186  0.225400  0.795804  1
  O  O45  1  0.416526  0.888474  0.500256  1
  O  O46  1  0.583474  0.388474  0.999744  1
  O  O47  1  0.400600  0.087226  0.232873  1
  O  O48  1  0.282776  0.772458  0.941188  1
  O  O49  1  0.599400  0.587226  0.267127  1
  O  O50  1  0.282776  0.727542  0.441188  1
  O  O51  1  0.816432  0.101716  0.230198  1
  O  O52  1  0.816432  0.398284  0.730198  1
  O  O53  1  0.599400  0.912774  0.767127  1
  O  O54  1  0.047814  0.774600  0.204196  1
  O  O55  1  0.140772  0.886540  0.104976  1
  O  O56  1  0.115389  0.388825  0.000168  1
  O  O57  1  0.845047  0.523970  0.703790  1
  O  O58  1  0.717224  0.227542  0.058812  1
  O  O59  1  0.859228  0.386540  0.395024  1
  O  O60  1  0.574822  0.062904  0.840551  1
  O  O61  1  0.183568  0.601716  0.269802  1
  O  O62  1  0.425178  0.562904  0.659449  1
  O  O63  1  0.198115  0.492040  0.863252  1
  O  O64  1  0.154953  0.476030  0.296210  1
  O  O65  1  0.154953  0.023970  0.796210  1
  O  O66  1  0.291392  0.281696  0.209342  1
  O  O67  1  0.140772  0.613460  0.604976  1
  O  O68  1  0.552126  0.711850  0.319953  1
  O  O69  1  0.952186  0.274600  0.295804  1
  O  O70  1  0.047814  0.725400  0.704196  1
  O  O71  1  0.708608  0.718304  0.790658  1
  O  O72  1  0.801885  0.992040  0.636748  1
  O  O73  1  0.425178  0.937096  0.159449  1
  O  O74  1  0.708608  0.781696  0.290658  1
  O  O75  1  0.717224  0.272458  0.558812  1
  O  O76  1  0.884611  0.611175  0.999832  1
  O  O77  1  0.574822  0.437096  0.340551  1
  O  O78  1  0.291392  0.218304  0.709342  1
  O  O79  1  0.845047  0.976030  0.203790  1
  O  O80  1  0.198115  0.007960  0.363252  1
  O  O81  1  0.447874  0.288150  0.680047  1
  O  O82  1  0.400600  0.412774  0.732873  1
  O  O83  1  0.583474  0.111526  0.499744  1
  O  O84  1  0.115389  0.111175  0.500168  1
  O  O85  1  0.884611  0.888825  0.499832  1
  O  O86  1  0.183568  0.898284  0.769802  1
  O  O87  1  0.859228  0.113460  0.895024  1
  O  O88  1  0.447874  0.211850  0.180047  1
  O  O89  1  0.552126  0.788150  0.819953  1
