# generated using pymatgen
data_CuSe
_symmetry_space_group_name_H-M   'P 1'
_cell_length_a   4.03037286
_cell_length_b   4.03037286
_cell_length_c   17.43492252
_cell_angle_alpha   90.00000000
_cell_angle_beta   90.00000000
_cell_angle_gamma   120.35559305
_symmetry_Int_Tables_number   1
_chemical_formula_structural   CuSe
_chemical_formula_sum   'Cu6 Se6'
_cell_volume   244.38456047
_cell_formula_units_Z   6
loop_
 _symmetry_equiv_pos_site_id
 _symmetry_equiv_pos_as_xyz
  1  'x, y, z'
loop_
 _atom_site_type_symbol
 _atom_site_label
 _atom_site_symmetry_multiplicity
 _atom_site_fract_x
 _atom_site_fract_y
 _atom_site_fract_z
 _atom_site_occupancy
  Cu  Cu0  1  0.340510  0.659490  0.107913  1
  Cu  Cu1  1  0.659490  0.340510  0.892087  1
  Cu  Cu2  1  0.659490  0.340510  0.607913  1
  Cu  Cu3  1  0.340510  0.659490  0.392087  1
  Cu  Cu4  1  0.366399  0.633601  0.750000  1
  Cu  Cu5  1  0.633601  0.366399  0.250000  1
  Se  Se6  1  0.698015  0.301985  0.750000  1
  Se  Se7  1  0.301985  0.698015  0.250000  1
  Se  Se8  1  0.993198  0.006802  0.569572  1
  Se  Se9  1  0.006802  0.993198  0.069572  1
  Se  Se10  1  0.993198  0.006802  0.930428  1
  Se  Se11  1  0.006802  0.993198  0.430428  1
