# generated using pymatgen
data_Rb2HgPSe5
_symmetry_space_group_name_H-M   'P 1'
_cell_length_a   18.06491749
_cell_length_b   18.06491749
_cell_length_c   7.37690290
_cell_angle_alpha   90.00000000
_cell_angle_beta   90.00000000
_cell_angle_gamma   90.00000000
_symmetry_Int_Tables_number   1
_chemical_formula_structural   Rb2HgPSe5
_chemical_formula_sum   'Rb16 Hg8 P8 Se40'
_cell_volume   2407.38766867
_cell_formula_units_Z   8
loop_
 _symmetry_equiv_pos_site_id
 _symmetry_equiv_pos_as_xyz
  1  'x, y, z'
loop_
 _atom_site_type_symbol
 _atom_site_label
 _atom_site_symmetry_multiplicity
 _atom_site_fract_x
 _atom_site_fract_y
 _atom_site_fract_z
 _atom_site_occupancy
  Rb  Rb0  1  0.147326  0.173495  0.021820  1
  Rb  Rb1  1  0.411655  0.121319  0.985353  1
  Rb  Rb2  1  0.647326  0.673495  0.478180  1
  Rb  Rb3  1  0.621319  0.088345  0.485353  1
  Rb  Rb4  1  0.826505  0.147326  0.978180  1
  Rb  Rb5  1  0.088345  0.378681  0.514647  1
  Rb  Rb6  1  0.352674  0.326505  0.478180  1
  Rb  Rb7  1  0.588345  0.878681  0.985353  1
  Rb  Rb8  1  0.878681  0.411655  0.014647  1
  Rb  Rb9  1  0.378681  0.911655  0.485353  1
  Rb  Rb10  1  0.673495  0.352674  0.521820  1
  Rb  Rb11  1  0.911655  0.621319  0.514647  1
  Rb  Rb12  1  0.852674  0.826505  0.021820  1
  Rb  Rb13  1  0.121319  0.588345  0.014647  1
  Rb  Rb14  1  0.173495  0.852674  0.978180  1
  Rb  Rb15  1  0.326505  0.647326  0.521820  1
  Hg  Hg16  1  0.130163  0.937790  0.474186  1
  Hg  Hg17  1  0.869837  0.062210  0.474186  1
  Hg  Hg18  1  0.562210  0.630163  0.974186  1
  Hg  Hg19  1  0.437790  0.369837  0.974186  1
  Hg  Hg20  1  0.630163  0.437790  0.025814  1
  Hg  Hg21  1  0.937790  0.869837  0.525814  1
  Hg  Hg22  1  0.369837  0.562210  0.025814  1
  Hg  Hg23  1  0.062210  0.130163  0.525814  1
  P  P24  1  0.731784  0.906084  0.518753  1
  P  P25  1  0.268216  0.093916  0.518753  1
  P  P26  1  0.093916  0.731784  0.481247  1
  P  P27  1  0.406084  0.768216  0.018753  1
  P  P28  1  0.768216  0.593916  0.981247  1
  P  P29  1  0.231784  0.406084  0.981247  1
  P  P30  1  0.593916  0.231784  0.018753  1
  P  P31  1  0.906084  0.268216  0.481247  1
  Se  Se32  1  0.266111  0.480298  0.211501  1
  Se  Se33  1  0.696396  0.304295  0.005252  1
  Se  Se34  1  0.803604  0.195705  0.494748  1
  Se  Se35  1  0.432729  0.489527  0.740059  1
  Se  Se36  1  0.989527  0.067271  0.240059  1
  Se  Se37  1  0.233889  0.019702  0.288499  1
  Se  Se38  1  0.489527  0.567271  0.259941  1
  Se  Se39  1  0.753841  0.537816  0.717809  1
  Se  Se40  1  0.371752  0.883769  0.972055  1
  Se  Se41  1  0.567271  0.510473  0.740059  1
  Se  Se42  1  0.116231  0.371752  0.027945  1
  Se  Se43  1  0.037816  0.746159  0.217809  1
  Se  Se44  1  0.519702  0.266111  0.788499  1
  Se  Se45  1  0.962184  0.253841  0.217809  1
  Se  Se46  1  0.019702  0.766111  0.711501  1
  Se  Se47  1  0.010473  0.932729  0.240059  1
  Se  Se48  1  0.067271  0.010473  0.759941  1
  Se  Se49  1  0.246159  0.462184  0.717809  1
  Se  Se50  1  0.804295  0.803604  0.505252  1
  Se  Se51  1  0.883769  0.628248  0.027945  1
  Se  Se52  1  0.128248  0.616231  0.527945  1
  Se  Se53  1  0.628248  0.116231  0.972055  1
  Se  Se54  1  0.537816  0.246159  0.282191  1
  Se  Se55  1  0.510473  0.432729  0.259941  1
  Se  Se56  1  0.480298  0.733889  0.788499  1
  Se  Se57  1  0.746159  0.962184  0.782191  1
  Se  Se58  1  0.253841  0.037816  0.782191  1
  Se  Se59  1  0.980298  0.233889  0.711501  1
  Se  Se60  1  0.196396  0.804295  0.494748  1
  Se  Se61  1  0.695705  0.696396  0.994748  1
  Se  Se62  1  0.462184  0.753841  0.282191  1
  Se  Se63  1  0.383769  0.128248  0.472055  1
  Se  Se64  1  0.195705  0.196396  0.505252  1
  Se  Se65  1  0.932729  0.989527  0.759941  1
  Se  Se66  1  0.616231  0.871752  0.472055  1
  Se  Se67  1  0.733889  0.519702  0.211501  1
  Se  Se68  1  0.303604  0.695705  0.005252  1
  Se  Se69  1  0.766111  0.980298  0.288499  1
  Se  Se70  1  0.871752  0.383769  0.527945  1
  Se  Se71  1  0.304295  0.303604  0.994748  1
