# generated using pymatgen
data_PbI2
_symmetry_space_group_name_H-M   'P 1'
_cell_length_a   4.67829931
_cell_length_b   4.67829931
_cell_length_c   31.58383880
_cell_angle_alpha   90.00000000
_cell_angle_beta   90.00000000
_cell_angle_gamma   120.00000000
_symmetry_Int_Tables_number   1
_chemical_formula_structural   PbI2
_chemical_formula_sum   'Pb4 I8'
_cell_volume   598.64802556
_cell_formula_units_Z   4
loop_
 _symmetry_equiv_pos_site_id
 _symmetry_equiv_pos_as_xyz
  1  'x, y, z'
loop_
 _atom_site_type_symbol
 _atom_site_label
 _atom_site_symmetry_multiplicity
 _atom_site_fract_x
 _atom_site_fract_y
 _atom_site_fract_z
 _atom_site_occupancy
  Pb  Pb0  1  0.333333  0.666667  0.750131  1
  Pb  Pb1  1  0.333333  0.666667  0.999881  1
  Pb  Pb2  1  0.666667  0.333333  0.250131  1
  Pb  Pb3  1  0.666667  0.333333  0.499881  1
  I  I4  1  0.333333  0.666667  0.191239  1
  I  I5  1  0.000000  0.000000  0.809118  1
  I  I6  1  0.000000  0.000000  0.058629  1
  I  I7  1  0.666667  0.333333  0.941002  1
  I  I8  1  0.666667  0.333333  0.691239  1
  I  I9  1  0.000000  0.000000  0.309118  1
  I  I10  1  0.333333  0.666667  0.441002  1
  I  I11  1  0.000000  0.000000  0.558629  1
