# generated using pymatgen
data_Zn2P2O7
_symmetry_space_group_name_H-M   'P 1'
_cell_length_a   5.02255395
_cell_length_b   13.50761625
_cell_length_c   16.67657274
_cell_angle_alpha   90.00000000
_cell_angle_beta   90.00000000
_cell_angle_gamma   90.00000000
_symmetry_Int_Tables_number   1
_chemical_formula_structural   Zn2P2O7
_chemical_formula_sum   'Zn16 P16 O56'
_cell_volume   1131.38424426
_cell_formula_units_Z   8
loop_
 _symmetry_equiv_pos_site_id
 _symmetry_equiv_pos_as_xyz
  1  'x, y, z'
loop_
 _atom_site_type_symbol
 _atom_site_label
 _atom_site_symmetry_multiplicity
 _atom_site_fract_x
 _atom_site_fract_y
 _atom_site_fract_z
 _atom_site_occupancy
  Zn  Zn0  1  0.679256  0.757863  0.656777  1
  Zn  Zn1  1  0.320744  0.257863  0.843223  1
  Zn  Zn2  1  0.908935  0.545608  0.913620  1
  Zn  Zn3  1  0.091065  0.454392  0.086380  1
  Zn  Zn4  1  0.908935  0.545608  0.586380  1
  Zn  Zn5  1  0.320744  0.257863  0.656777  1
  Zn  Zn6  1  0.679256  0.757863  0.843223  1
  Zn  Zn7  1  0.908935  0.954392  0.413620  1
  Zn  Zn8  1  0.908935  0.954392  0.086380  1
  Zn  Zn9  1  0.091065  0.045608  0.586380  1
  Zn  Zn10  1  0.679256  0.742137  0.343223  1
  Zn  Zn11  1  0.320744  0.242137  0.156777  1
  Zn  Zn12  1  0.091065  0.454392  0.413620  1
  Zn  Zn13  1  0.679256  0.742137  0.156777  1
  Zn  Zn14  1  0.320744  0.242137  0.343223  1
  Zn  Zn15  1  0.091065  0.045608  0.913620  1
  P  P16  1  0.173173  0.849732  0.250000  1
  P  P17  1  0.421456  0.856058  0.997227  1
  P  P18  1  0.826827  0.349732  0.250000  1
  P  P19  1  0.041620  0.443846  0.750000  1
  P  P20  1  0.421456  0.643942  0.002773  1
  P  P21  1  0.578544  0.143942  0.497227  1
  P  P22  1  0.826827  0.150268  0.750000  1
  P  P23  1  0.041620  0.056154  0.250000  1
  P  P24  1  0.421456  0.856058  0.502773  1
  P  P25  1  0.173173  0.650268  0.750000  1
  P  P26  1  0.578544  0.143942  0.002773  1
  P  P27  1  0.958380  0.943846  0.750000  1
  P  P28  1  0.421456  0.643942  0.497227  1
  P  P29  1  0.958380  0.556154  0.250000  1
  P  P30  1  0.578544  0.356058  0.502773  1
  P  P31  1  0.578544  0.356058  0.997227  1
  O  O32  1  0.986351  0.168823  0.672351  1
  O  O33  1  0.013649  0.668823  0.827649  1
  O  O34  1  0.118455  0.951800  0.826912  1
  O  O35  1  0.013649  0.831177  0.327649  1
  O  O36  1  0.197287  0.933579  0.002713  1
  O  O37  1  0.986351  0.331177  0.327649  1
  O  O38  1  0.881545  0.451800  0.673088  1
  O  O39  1  0.197287  0.933579  0.497287  1
  O  O40  1  0.268055  0.750000  0.500000  1
  O  O41  1  0.438378  0.792739  0.250000  1
  O  O42  1  0.881545  0.451800  0.826912  1
  O  O43  1  0.731945  0.250000  0.500000  1
  O  O44  1  0.417915  0.138116  0.079421  1
  O  O45  1  0.881545  0.048200  0.173088  1
  O  O46  1  0.438378  0.707261  0.750000  1
  O  O47  1  0.741798  0.035398  0.750000  1
  O  O48  1  0.118455  0.548200  0.326912  1
  O  O49  1  0.118455  0.951800  0.673088  1
  O  O50  1  0.598939  0.859580  0.073369  1
  O  O51  1  0.118455  0.548200  0.173088  1
  O  O52  1  0.013649  0.668823  0.672351  1
  O  O53  1  0.986351  0.168823  0.827649  1
  O  O54  1  0.598939  0.640420  0.926631  1
  O  O55  1  0.802713  0.066421  0.502713  1
  O  O56  1  0.401061  0.359580  0.073369  1
  O  O57  1  0.731945  0.250000  0.000000  1
  O  O58  1  0.417915  0.138116  0.420579  1
  O  O59  1  0.417915  0.361884  0.579421  1
  O  O60  1  0.598939  0.859580  0.426631  1
  O  O61  1  0.561622  0.292739  0.250000  1
  O  O62  1  0.802713  0.433579  0.002713  1
  O  O63  1  0.197287  0.566421  0.502713  1
  O  O64  1  0.582085  0.861884  0.579421  1
  O  O65  1  0.401061  0.359580  0.426631  1
  O  O66  1  0.258202  0.535398  0.750000  1
  O  O67  1  0.802713  0.433579  0.497287  1
  O  O68  1  0.401061  0.140420  0.573369  1
  O  O69  1  0.582085  0.638116  0.420579  1
  O  O70  1  0.582085  0.638116  0.079421  1
  O  O71  1  0.212198  0.349110  0.750000  1
  O  O72  1  0.561622  0.207261  0.750000  1
  O  O73  1  0.986351  0.331177  0.172351  1
  O  O74  1  0.787802  0.849110  0.750000  1
  O  O75  1  0.268055  0.750000  0.000000  1
  O  O76  1  0.013649  0.831177  0.172351  1
  O  O77  1  0.881545  0.048200  0.326912  1
  O  O78  1  0.401061  0.140420  0.926631  1
  O  O79  1  0.582085  0.861884  0.920579  1
  O  O80  1  0.197287  0.566421  0.997287  1
  O  O81  1  0.787802  0.650890  0.250000  1
  O  O82  1  0.258202  0.964602  0.250000  1
  O  O83  1  0.212198  0.150890  0.250000  1
  O  O84  1  0.741798  0.464602  0.250000  1
  O  O85  1  0.417915  0.361884  0.920579  1
  O  O86  1  0.802713  0.066421  0.997287  1
  O  O87  1  0.598939  0.640420  0.573369  1
