# generated using pymatgen
data_DyAl3
_symmetry_space_group_name_H-M   'P 1'
_cell_length_a   6.12367139
_cell_length_b   6.12367139
_cell_length_c   9.55052562
_cell_angle_alpha   90.00000000
_cell_angle_beta   90.00000000
_cell_angle_gamma   120.00000000
_symmetry_Int_Tables_number   1
_chemical_formula_structural   DyAl3
_chemical_formula_sum   'Dy4 Al12'
_cell_volume   310.15705227
_cell_formula_units_Z   4
loop_
 _symmetry_equiv_pos_site_id
 _symmetry_equiv_pos_as_xyz
  1  'x, y, z'
loop_
 _atom_site_type_symbol
 _atom_site_label
 _atom_site_symmetry_multiplicity
 _atom_site_fract_x
 _atom_site_fract_y
 _atom_site_fract_z
 _atom_site_occupancy
  Dy  Dy0  1  0.000000  0.000000  0.500000  1
  Dy  Dy1  1  0.666667  0.333333  0.750000  1
  Dy  Dy2  1  0.333333  0.666667  0.250000  1
  Dy  Dy3  1  0.000000  0.000000  0.000000  1
  Al  Al4  1  0.183431  0.816569  0.750000  1
  Al  Al5  1  0.633138  0.816569  0.750000  1
  Al  Al6  1  0.000000  0.500000  0.000000  1
  Al  Al7  1  0.500000  0.500000  0.000000  1
  Al  Al8  1  0.816569  0.633138  0.250000  1
  Al  Al9  1  0.366862  0.183431  0.250000  1
  Al  Al10  1  0.183431  0.366862  0.750000  1
  Al  Al11  1  0.500000  0.500000  0.500000  1
  Al  Al12  1  0.500000  0.000000  0.500000  1
  Al  Al13  1  0.816569  0.183431  0.250000  1
  Al  Al14  1  0.500000  0.000000  0.000000  1
  Al  Al15  1  0.000000  0.500000  0.500000  1
