# generated using pymatgen
data_AlSb2(TeCl2)2
_symmetry_space_group_name_H-M   'P 1'
_cell_length_a   9.85487959
_cell_length_b   13.72276742
_cell_length_c   18.56542881
_cell_angle_alpha   77.62708766
_cell_angle_beta   88.09447807
_cell_angle_gamma   87.96360257
_symmetry_Int_Tables_number   1
_chemical_formula_structural   AlSb2(TeCl2)2
_chemical_formula_sum   'Al8 Sb16 Te16 Cl32'
_cell_volume   2450.00947779
_cell_formula_units_Z   8
loop_
 _symmetry_equiv_pos_site_id
 _symmetry_equiv_pos_as_xyz
  1  'x, y, z'
loop_
 _atom_site_type_symbol
 _atom_site_label
 _atom_site_symmetry_multiplicity
 _atom_site_fract_x
 _atom_site_fract_y
 _atom_site_fract_z
 _atom_site_occupancy
  Al  Al0  1  0.006595  0.251978  0.185093  1
  Al  Al1  1  0.529401  0.517337  0.331492  1
  Al  Al2  1  0.523539  0.996177  0.337970  1
  Al  Al3  1  0.470599  0.482663  0.668508  1
  Al  Al4  1  0.993405  0.748022  0.814907  1
  Al  Al5  1  0.476461  0.003823  0.662030  1
  Al  Al6  1  0.021234  0.758087  0.140273  1
  Al  Al7  1  0.978766  0.241913  0.859727  1
  Sb  Sb8  1  0.881393  0.263748  0.416744  1
  Sb  Sb9  1  0.683556  0.242959  0.052206  1
  Sb  Sb10  1  0.316444  0.757041  0.947794  1
  Sb  Sb11  1  0.663417  0.983288  0.937093  1
  Sb  Sb12  1  0.118607  0.736252  0.583256  1
  Sb  Sb13  1  0.813949  0.047040  0.464940  1
  Sb  Sb14  1  0.704718  0.763845  0.995789  1
  Sb  Sb15  1  0.295282  0.236155  0.004211  1
  Sb  Sb16  1  0.807820  0.514347  0.532345  1
  Sb  Sb17  1  0.566468  0.506506  0.895862  1
  Sb  Sb18  1  0.186051  0.952960  0.535060  1
  Sb  Sb19  1  0.192180  0.485653  0.467655  1
  Sb  Sb20  1  0.336583  0.016712  0.062907  1
  Sb  Sb21  1  0.037742  0.223425  0.616114  1
  Sb  Sb22  1  0.962258  0.776575  0.383886  1
  Sb  Sb23  1  0.433532  0.493494  0.104138  1
  Te  Te24  1  0.624073  0.017879  0.084262  1
  Te  Te25  1  0.304655  0.514568  0.964352  1
  Te  Te26  1  0.375927  0.982121  0.915738  1
  Te  Te27  1  0.055809  0.468209  0.609512  1
  Te  Te28  1  0.943009  0.015468  0.605916  1
  Te  Te29  1  0.944191  0.531791  0.390488  1
  Te  Te30  1  0.056991  0.984532  0.394084  1
  Te  Te31  1  0.847747  0.752269  0.530239  1
  Te  Te32  1  0.152253  0.247731  0.469761  1
  Te  Te33  1  0.695345  0.485432  0.035648  1
  Te  Te34  1  0.434760  0.258874  0.133885  1
  Te  Te35  1  0.775313  0.286356  0.558794  1
  Te  Te36  1  0.565240  0.741126  0.866115  1
  Te  Te37  1  0.458108  0.731814  0.083156  1
  Te  Te38  1  0.224687  0.713644  0.441206  1
  Te  Te39  1  0.541892  0.268186  0.916844  1
  Cl  Cl40  1  0.792758  0.251354  0.215828  1
  Cl  Cl41  1  0.732497  0.970109  0.302566  1
  Cl  Cl42  1  0.513026  0.103595  0.556494  1
  Cl  Cl43  1  0.317296  0.538571  0.301973  1
  Cl  Cl44  1  0.207242  0.748646  0.784172  1
  Cl  Cl45  1  0.121809  0.282617  0.274166  1
  Cl  Cl46  1  0.386248  0.966045  0.258217  1
  Cl  Cl47  1  0.546175  0.386256  0.419477  1
  Cl  Cl48  1  0.066394  0.109118  0.161967  1
  Cl  Cl49  1  0.598823  0.643424  0.370313  1
  Cl  Cl50  1  0.501798  0.147983  0.350004  1
  Cl  Cl51  1  0.353933  0.502901  0.764937  1
  Cl  Cl52  1  0.401177  0.356576  0.629687  1
  Cl  Cl53  1  0.453825  0.613744  0.580523  1
  Cl  Cl54  1  0.906532  0.383717  0.879855  1
  Cl  Cl55  1  0.052568  0.869431  0.039019  1
  Cl  Cl56  1  0.093468  0.616283  0.120145  1
  Cl  Cl57  1  0.193232  0.242978  0.831846  1
  Cl  Cl58  1  0.041698  0.365267  0.086838  1
  Cl  Cl59  1  0.958302  0.634733  0.913162  1
  Cl  Cl60  1  0.267503  0.029891  0.697434  1
  Cl  Cl61  1  0.866252  0.203958  0.772191  1
  Cl  Cl62  1  0.682704  0.461429  0.698027  1
  Cl  Cl63  1  0.613752  0.033955  0.741783  1
  Cl  Cl64  1  0.646067  0.497099  0.235063  1
  Cl  Cl65  1  0.933606  0.890882  0.838033  1
  Cl  Cl66  1  0.947432  0.130569  0.960981  1
  Cl  Cl67  1  0.878191  0.717383  0.725834  1
  Cl  Cl68  1  0.498202  0.852017  0.649996  1
  Cl  Cl69  1  0.133748  0.796042  0.227809  1
  Cl  Cl70  1  0.806768  0.757022  0.168154  1
  Cl  Cl71  1  0.486974  0.896405  0.443506  1
