# generated using pymatgen
data_Al2BiS4
_symmetry_space_group_name_H-M   'P 1'
_cell_length_a   7.68799902
_cell_length_b   7.68799902
_cell_length_c   12.03183885
_cell_angle_alpha   90.00000000
_cell_angle_beta   90.00000000
_cell_angle_gamma   90.00000000
_symmetry_Int_Tables_number   1
_chemical_formula_structural   Al2BiS4
_chemical_formula_sum   'Al8 Bi4 S16'
_cell_volume   711.14579288
_cell_formula_units_Z   4
loop_
 _symmetry_equiv_pos_site_id
 _symmetry_equiv_pos_as_xyz
  1  'x, y, z'
loop_
 _atom_site_type_symbol
 _atom_site_label
 _atom_site_symmetry_multiplicity
 _atom_site_fract_x
 _atom_site_fract_y
 _atom_site_fract_z
 _atom_site_occupancy
  Al  Al0  1  0.000000  0.500000  0.750000  1
  Al  Al1  1  0.000000  0.500000  0.000000  1
  Al  Al2  1  0.000000  0.500000  0.250000  1
  Al  Al3  1  0.500000  0.000000  0.500000  1
  Al  Al4  1  0.500000  0.000000  0.250000  1
  Al  Al5  1  0.500000  0.000000  0.750000  1
  Al  Al6  1  0.000000  0.500000  0.500000  1
  Al  Al7  1  0.500000  0.000000  0.000000  1
  Bi  Bi8  1  0.500000  0.500000  0.630684  1
  Bi  Bi9  1  0.000000  0.000000  0.869316  1
  Bi  Bi10  1  0.500000  0.500000  0.369316  1
  Bi  Bi11  1  0.000000  0.000000  0.130684  1
  S  S12  1  0.845659  0.339131  0.875074  1
  S  S13  1  0.654341  0.839131  0.375074  1
  S  S14  1  0.339131  0.845659  0.124926  1
  S  S15  1  0.839131  0.654341  0.624926  1
  S  S16  1  0.345659  0.160869  0.375074  1
  S  S17  1  0.154341  0.660869  0.875074  1
  S  S18  1  0.839131  0.345659  0.375074  1
  S  S19  1  0.660869  0.154341  0.124926  1
  S  S20  1  0.654341  0.160869  0.624926  1
  S  S21  1  0.160869  0.345659  0.624926  1
  S  S22  1  0.660869  0.845659  0.875074  1
  S  S23  1  0.339131  0.154341  0.875074  1
  S  S24  1  0.160869  0.654341  0.375074  1
  S  S25  1  0.154341  0.339131  0.124926  1
  S  S26  1  0.845659  0.660869  0.124926  1
  S  S27  1  0.345659  0.839131  0.624926  1
