# generated using pymatgen
data_Mo6PbS8
_symmetry_space_group_name_H-M   'P 1'
_cell_length_a   6.60475957
_cell_length_b   6.60475957
_cell_length_c   6.60475957
_cell_angle_alpha   89.12772281
_cell_angle_beta   89.12772281
_cell_angle_gamma   89.12772281
_symmetry_Int_Tables_number   1
_chemical_formula_structural   Mo6PbS8
_chemical_formula_sum   'Mo6 Pb1 S8'
_cell_volume   288.01926850
_cell_formula_units_Z   1
loop_
 _symmetry_equiv_pos_site_id
 _symmetry_equiv_pos_as_xyz
  1  'x, y, z'
loop_
 _atom_site_type_symbol
 _atom_site_label
 _atom_site_symmetry_multiplicity
 _atom_site_fract_x
 _atom_site_fract_y
 _atom_site_fract_z
 _atom_site_occupancy
  Mo  Mo0  1  0.584932  0.436848  0.772514  1
  Mo  Mo1  1  0.563152  0.227486  0.415068  1
  Mo  Mo2  1  0.772514  0.584932  0.436848  1
  Mo  Mo3  1  0.415068  0.563152  0.227486  1
  Mo  Mo4  1  0.227486  0.415068  0.563152  1
  Mo  Mo5  1  0.436848  0.772514  0.584932  1
  Pb  Pb6  1  0.000000  0.000000  0.000000  1
  S  S7  1  0.740739  0.384735  0.125949  1
  S  S8  1  0.755261  0.755261  0.755261  1
  S  S9  1  0.874051  0.259261  0.615265  1
  S  S10  1  0.259261  0.615265  0.874051  1
  S  S11  1  0.615265  0.874051  0.259261  1
  S  S12  1  0.125949  0.740739  0.384735  1
  S  S13  1  0.244739  0.244739  0.244739  1
  S  S14  1  0.384735  0.125949  0.740739  1
