# generated using pymatgen
data_Zn4Cu5(TeO6)3
_symmetry_space_group_name_H-M   'P 1'
_cell_length_a   8.75317346
_cell_length_b   8.75317346
_cell_length_c   10.52292346
_cell_angle_alpha   84.62132444
_cell_angle_beta   95.37867556
_cell_angle_gamma   118.88991043
_symmetry_Int_Tables_number   1
_chemical_formula_structural   Zn4Cu5(TeO6)3
_chemical_formula_sum   'Zn8 Cu10 Te6 O36'
_cell_volume   701.71362208
_cell_formula_units_Z   2
loop_
 _symmetry_equiv_pos_site_id
 _symmetry_equiv_pos_as_xyz
  1  'x, y, z'
loop_
 _atom_site_type_symbol
 _atom_site_label
 _atom_site_symmetry_multiplicity
 _atom_site_fract_x
 _atom_site_fract_y
 _atom_site_fract_z
 _atom_site_occupancy
  Zn  Zn0  1  0.935192  0.339287  0.581644  1
  Zn  Zn1  1  0.323051  0.361891  0.461403  1
  Zn  Zn2  1  0.339287  0.935192  0.918356  1
  Zn  Zn3  1  0.361891  0.323051  0.038597  1
  Zn  Zn4  1  0.638109  0.676949  0.961403  1
  Zn  Zn5  1  0.660713  0.064808  0.081644  1
  Zn  Zn6  1  0.064808  0.660713  0.418356  1
  Zn  Zn7  1  0.676949  0.638109  0.538597  1
  Cu  Cu8  1  0.013626  0.314089  0.235804  1
  Cu  Cu9  1  0.685911  0.986374  0.735804  1
  Cu  Cu10  1  0.470226  0.143310  0.553093  1
  Cu  Cu11  1  0.856690  0.529774  0.053093  1
  Cu  Cu12  1  0.143310  0.470226  0.946907  1
  Cu  Cu13  1  0.830271  0.830271  0.250000  1
  Cu  Cu14  1  0.169729  0.169729  0.750000  1
  Cu  Cu15  1  0.529774  0.856690  0.446907  1
  Cu  Cu16  1  0.986374  0.685911  0.764196  1
  Cu  Cu17  1  0.314089  0.013626  0.264196  1
  Te  Te18  1  0.349793  0.665747  0.198285  1
  Te  Te19  1  0.000000  0.000000  0.500000  1
  Te  Te20  1  0.000000  0.000000  0.000000  1
  Te  Te21  1  0.334253  0.650207  0.698285  1
  Te  Te22  1  0.650207  0.334253  0.801715  1
  Te  Te23  1  0.665747  0.349793  0.301715  1
  O  O24  1  0.409873  0.885996  0.098989  1
  O  O25  1  0.099702  0.242969  0.050751  1
  O  O26  1  0.232043  0.427902  0.798846  1
  O  O27  1  0.065700  0.919909  0.665496  1
  O  O28  1  0.242969  0.099702  0.449249  1
  O  O29  1  0.919909  0.065700  0.834504  1
  O  O30  1  0.420327  0.571282  0.568655  1
  O  O31  1  0.772051  0.916310  0.075498  1
  O  O32  1  0.227949  0.083690  0.924502  1
  O  O33  1  0.720526  0.223105  0.670840  1
  O  O34  1  0.250336  0.445490  0.301869  1
  O  O35  1  0.279474  0.776895  0.329160  1
  O  O36  1  0.900298  0.757031  0.949249  1
  O  O37  1  0.111493  0.546019  0.112461  1
  O  O38  1  0.445490  0.250336  0.198131  1
  O  O39  1  0.579673  0.428718  0.431345  1
  O  O40  1  0.749664  0.554510  0.698131  1
  O  O41  1  0.546019  0.111493  0.387539  1
  O  O42  1  0.427902  0.232043  0.701154  1
  O  O43  1  0.554510  0.749664  0.801869  1
  O  O44  1  0.114004  0.590127  0.598989  1
  O  O45  1  0.888507  0.453981  0.887539  1
  O  O46  1  0.916310  0.772051  0.424502  1
  O  O47  1  0.428718  0.579673  0.068655  1
  O  O48  1  0.767957  0.572098  0.201154  1
  O  O49  1  0.080091  0.934300  0.165496  1
  O  O50  1  0.776895  0.279474  0.170840  1
  O  O51  1  0.571282  0.420327  0.931345  1
  O  O52  1  0.757031  0.900298  0.550751  1
  O  O53  1  0.453981  0.888507  0.612461  1
  O  O54  1  0.590127  0.114004  0.901011  1
  O  O55  1  0.934300  0.080091  0.334504  1
  O  O56  1  0.083690  0.227949  0.575498  1
  O  O57  1  0.223105  0.720526  0.829160  1
  O  O58  1  0.572098  0.767957  0.298846  1
  O  O59  1  0.885996  0.409873  0.401011  1
