# generated using pymatgen
data_Mg2PClO4
_symmetry_space_group_name_H-M   'P 1'
_cell_length_a   4.86496144
_cell_length_b   8.01069263
_cell_length_c   11.06794867
_cell_angle_alpha   90.00000000
_cell_angle_beta   90.00000000
_cell_angle_gamma   90.00000000
_symmetry_Int_Tables_number   1
_chemical_formula_structural   Mg2PClO4
_chemical_formula_sum   'Mg8 P4 Cl4 O16'
_cell_volume   431.33689419
_cell_formula_units_Z   4
loop_
 _symmetry_equiv_pos_site_id
 _symmetry_equiv_pos_as_xyz
  1  'x, y, z'
loop_
 _atom_site_type_symbol
 _atom_site_label
 _atom_site_symmetry_multiplicity
 _atom_site_fract_x
 _atom_site_fract_y
 _atom_site_fract_z
 _atom_site_occupancy
  Mg  Mg0  1  0.507207  0.163279  0.627517  1
  Mg  Mg1  1  0.007207  0.836721  0.372483  1
  Mg  Mg2  1  0.000539  0.401638  0.378293  1
  Mg  Mg3  1  0.007207  0.663279  0.872483  1
  Mg  Mg4  1  0.507207  0.336721  0.127517  1
  Mg  Mg5  1  0.500539  0.901638  0.121707  1
  Mg  Mg6  1  0.000539  0.098362  0.878293  1
  Mg  Mg7  1  0.500539  0.598362  0.621707  1
  P  P8  1  0.952856  0.120501  0.166352  1
  P  P9  1  0.452856  0.879499  0.833648  1
  P  P10  1  0.952856  0.379499  0.666352  1
  P  P11  1  0.452856  0.620501  0.333648  1
  Cl  Cl12  1  0.257645  0.378050  0.937876  1
  Cl  Cl13  1  0.757645  0.621950  0.062124  1
  Cl  Cl14  1  0.757645  0.878050  0.562124  1
  Cl  Cl15  1  0.257645  0.121950  0.437876  1
  O  O16  1  0.347282  0.460199  0.270443  1
  O  O17  1  0.347866  0.778322  0.266914  1
  O  O18  1  0.768711  0.619612  0.348178  1
  O  O19  1  0.847866  0.221678  0.733086  1
  O  O20  1  0.796795  0.123140  0.042052  1
  O  O21  1  0.268711  0.380388  0.651822  1
  O  O22  1  0.768711  0.880388  0.848178  1
  O  O23  1  0.847282  0.539801  0.729557  1
  O  O24  1  0.796795  0.376860  0.542052  1
  O  O25  1  0.347866  0.721678  0.766914  1
  O  O26  1  0.296795  0.623140  0.457948  1
  O  O27  1  0.268711  0.119612  0.151822  1
  O  O28  1  0.296795  0.876860  0.957948  1
  O  O29  1  0.847282  0.960199  0.229557  1
  O  O30  1  0.847866  0.278322  0.233086  1
  O  O31  1  0.347282  0.039801  0.770443  1
