# generated using pymatgen
data_LiB6O9F
_symmetry_space_group_name_H-M   'P 1'
_cell_length_a   7.88270016
_cell_length_b   8.65136978
_cell_length_c   10.95802784
_cell_angle_alpha   90.00000000
_cell_angle_beta   90.00000000
_cell_angle_gamma   90.00000000
_symmetry_Int_Tables_number   1
_chemical_formula_structural   LiB6O9F
_chemical_formula_sum   'Li4 B24 O36 F4'
_cell_volume   747.29535355
_cell_formula_units_Z   4
loop_
 _symmetry_equiv_pos_site_id
 _symmetry_equiv_pos_as_xyz
  1  'x, y, z'
loop_
 _atom_site_type_symbol
 _atom_site_label
 _atom_site_symmetry_multiplicity
 _atom_site_fract_x
 _atom_site_fract_y
 _atom_site_fract_z
 _atom_site_occupancy
  Li  Li0  1  0.737544  0.800768  0.226466  1
  Li  Li1  1  0.262456  0.199232  0.726466  1
  Li  Li2  1  0.237544  0.699232  0.226466  1
  Li  Li3  1  0.762456  0.300768  0.726466  1
  B  B4  1  0.371643  0.897412  0.654131  1
  B  B5  1  0.558140  0.848449  0.486953  1
  B  B6  1  0.094356  0.412920  0.602993  1
  B  B7  1  0.628357  0.102588  0.154131  1
  B  B8  1  0.863026  0.106488  0.313087  1
  B  B9  1  0.441860  0.151551  0.986953  1
  B  B10  1  0.546655  0.341867  0.483136  1
  B  B11  1  0.046655  0.158133  0.483136  1
  B  B12  1  0.136974  0.893512  0.813087  1
  B  B13  1  0.038591  0.904051  0.394386  1
  B  B14  1  0.405644  0.912920  0.102993  1
  B  B15  1  0.058140  0.651551  0.486953  1
  B  B16  1  0.871643  0.602588  0.654131  1
  B  B17  1  0.941860  0.348449  0.986953  1
  B  B18  1  0.453345  0.658133  0.983136  1
  B  B19  1  0.594356  0.087080  0.602993  1
  B  B20  1  0.636974  0.606488  0.813087  1
  B  B21  1  0.953345  0.841867  0.983136  1
  B  B22  1  0.128357  0.397412  0.154131  1
  B  B23  1  0.905644  0.587080  0.102993  1
  B  B24  1  0.538591  0.595949  0.394386  1
  B  B25  1  0.363026  0.393512  0.313087  1
  B  B26  1  0.461409  0.404051  0.894386  1
  B  B27  1  0.961409  0.095949  0.894386  1
  O  O28  1  0.249802  0.838317  0.730676  1
  O  O29  1  0.432399  0.291486  0.395579  1
  O  O30  1  0.132717  0.511404  0.498261  1
  O  O31  1  0.895096  0.994498  0.977520  1
  O  O32  1  0.435458  0.796202  0.568009  1
  O  O33  1  0.568320  0.954452  0.163016  1
  O  O34  1  0.431680  0.045548  0.663016  1
  O  O35  1  0.067601  0.791486  0.895579  1
  O  O36  1  0.932399  0.208514  0.395579  1
  O  O37  1  0.604904  0.494498  0.477520  1
  O  O38  1  0.397878  0.747502  0.075542  1
  O  O39  1  0.064542  0.296202  0.068009  1
  O  O40  1  0.395096  0.505502  0.977520  1
  O  O41  1  0.104904  0.005502  0.477520  1
  O  O42  1  0.250198  0.338317  0.230676  1
  O  O43  1  0.595244  0.748217  0.390532  1
  O  O44  1  0.904756  0.248217  0.890532  1
  O  O45  1  0.367283  0.011404  0.998261  1
  O  O46  1  0.935458  0.703798  0.568009  1
  O  O47  1  0.567601  0.708514  0.895579  1
  O  O48  1  0.564542  0.203798  0.068009  1
  O  O49  1  0.095244  0.751783  0.390532  1
  O  O50  1  0.414939  0.548983  0.311569  1
  O  O51  1  0.585061  0.451017  0.811569  1
  O  O52  1  0.914939  0.951017  0.311569  1
  O  O53  1  0.749802  0.661683  0.730676  1
  O  O54  1  0.085061  0.048983  0.811569  1
  O  O55  1  0.068320  0.545548  0.163016  1
  O  O56  1  0.602122  0.252498  0.575542  1
  O  O57  1  0.897878  0.752498  0.075542  1
  O  O58  1  0.102122  0.247502  0.575542  1
  O  O59  1  0.404756  0.251783  0.890532  1
  O  O60  1  0.632717  0.988596  0.498261  1
  O  O61  1  0.931680  0.454452  0.663016  1
  O  O62  1  0.750198  0.161683  0.230676  1
  O  O63  1  0.867283  0.488596  0.998261  1
  F  F64  1  0.228435  0.428146  0.694843  1
  F  F65  1  0.271565  0.928146  0.194843  1
  F  F66  1  0.728435  0.071854  0.694843  1
  F  F67  1  0.771565  0.571854  0.194843  1
