# generated using pymatgen
data_BaCaVP2O9
_symmetry_space_group_name_H-M   'P 1'
_cell_length_a   7.41048524
_cell_length_b   7.16020321
_cell_length_c   14.64780163
_cell_angle_alpha   90.00000000
_cell_angle_beta   101.62185415
_cell_angle_gamma   90.00000000
_symmetry_Int_Tables_number   1
_chemical_formula_structural   BaCaVP2O9
_chemical_formula_sum   'Ba4 Ca4 V4 P8 O36'
_cell_volume   761.28664542
_cell_formula_units_Z   4
loop_
 _symmetry_equiv_pos_site_id
 _symmetry_equiv_pos_as_xyz
  1  'x, y, z'
loop_
 _atom_site_type_symbol
 _atom_site_label
 _atom_site_symmetry_multiplicity
 _atom_site_fract_x
 _atom_site_fract_y
 _atom_site_fract_z
 _atom_site_occupancy
  Ba  Ba0  1  0.621459  0.234110  0.572579  1
  Ba  Ba1  1  0.378541  0.765890  0.427421  1
  Ba  Ba2  1  0.378541  0.734110  0.927421  1
  Ba  Ba3  1  0.621459  0.265890  0.072579  1
  Ca  Ca4  1  0.811583  0.019105  0.338137  1
  Ca  Ca5  1  0.188417  0.519105  0.161863  1
  Ca  Ca6  1  0.811583  0.480895  0.838137  1
  Ca  Ca7  1  0.188417  0.980895  0.661863  1
  V  V8  1  0.844020  0.515295  0.334089  1
  V  V9  1  0.155980  0.484705  0.665911  1
  V  V10  1  0.844020  0.984705  0.834089  1
  V  V11  1  0.155980  0.015295  0.165911  1
  P  P12  1  0.879322  0.725959  0.498180  1
  P  P13  1  0.120678  0.225959  0.001820  1
  P  P14  1  0.462278  0.223446  0.801518  1
  P  P15  1  0.879322  0.774041  0.998180  1
  P  P16  1  0.537722  0.723446  0.698482  1
  P  P17  1  0.462278  0.276554  0.301518  1
  P  P18  1  0.537722  0.776554  0.198482  1
  P  P19  1  0.120678  0.274041  0.501820  1
  O  O20  1  0.338894  0.680817  0.718940  1
  O  O21  1  0.783404  0.916577  0.494638  1
  O  O22  1  0.661106  0.319183  0.281060  1
  O  O23  1  0.988263  0.722981  0.414767  1
  O  O24  1  0.020978  0.796936  0.091722  1
  O  O25  1  0.347685  0.215250  0.203326  1
  O  O26  1  0.338894  0.819183  0.218940  1
  O  O27  1  0.258164  0.061247  0.026376  1
  O  O28  1  0.496702  0.380821  0.874043  1
  O  O29  1  0.496702  0.119179  0.374043  1
  O  O30  1  0.783404  0.583423  0.994638  1
  O  O31  1  0.652315  0.715250  0.296674  1
  O  O32  1  0.661106  0.180817  0.781060  1
  O  O33  1  0.979022  0.203064  0.908278  1
  O  O34  1  0.347685  0.284750  0.703326  1
  O  O35  1  0.956303  0.971513  0.746914  1
  O  O36  1  0.503298  0.619179  0.125957  1
  O  O37  1  0.503298  0.880821  0.625957  1
  O  O38  1  0.216596  0.083423  0.505362  1
  O  O39  1  0.956303  0.528487  0.246914  1
  O  O40  1  0.741836  0.938753  0.973624  1
  O  O41  1  0.633290  0.951676  0.173396  1
  O  O42  1  0.020978  0.703064  0.591722  1
  O  O43  1  0.979022  0.296936  0.408278  1
  O  O44  1  0.011737  0.222981  0.085233  1
  O  O45  1  0.652315  0.784750  0.796674  1
  O  O46  1  0.043697  0.028487  0.253086  1
  O  O47  1  0.043697  0.471513  0.753086  1
  O  O48  1  0.216596  0.416577  0.005362  1
  O  O49  1  0.011737  0.277019  0.585233  1
  O  O50  1  0.366710  0.048324  0.826604  1
  O  O51  1  0.988263  0.777019  0.914767  1
  O  O52  1  0.258164  0.438753  0.526376  1
  O  O53  1  0.366710  0.451676  0.326604  1
  O  O54  1  0.741836  0.561247  0.473624  1
  O  O55  1  0.633290  0.548324  0.673396  1
