# generated using pymatgen
data_Gd2(Zn2Ge)3
_symmetry_space_group_name_H-M   'P 1'
_cell_length_a   7.63156960
_cell_length_b   7.63156960
_cell_length_c   4.05307273
_cell_angle_alpha   90.00000000
_cell_angle_beta   90.00000000
_cell_angle_gamma   120.00000000
_symmetry_Int_Tables_number   1
_chemical_formula_structural   Gd2(Zn2Ge)3
_chemical_formula_sum   'Gd2 Zn6 Ge3'
_cell_volume   204.42912404
_cell_formula_units_Z   1
loop_
 _symmetry_equiv_pos_site_id
 _symmetry_equiv_pos_as_xyz
  1  'x, y, z'
loop_
 _atom_site_type_symbol
 _atom_site_label
 _atom_site_symmetry_multiplicity
 _atom_site_fract_x
 _atom_site_fract_y
 _atom_site_fract_z
 _atom_site_occupancy
  Gd  Gd0  1  0.666667  0.333333  0.000000  1
  Gd  Gd1  1  0.333333  0.666667  0.000000  1
  Zn  Zn2  1  0.285942  0.285942  0.500000  1
  Zn  Zn3  1  0.190940  0.000000  0.000000  1
  Zn  Zn4  1  0.714058  0.000000  0.500000  1
  Zn  Zn5  1  0.000000  0.190940  0.000000  1
  Zn  Zn6  1  0.809060  0.809060  0.000000  1
  Zn  Zn7  1  0.000000  0.714058  0.500000  1
  Ge  Ge8  1  0.387027  0.000000  0.500000  1
  Ge  Ge9  1  0.612973  0.612973  0.500000  1
  Ge  Ge10  1  0.000000  0.387027  0.500000  1
