# generated using pymatgen
data_Ba3LuRu2O9
_symmetry_space_group_name_H-M   'P 1'
_cell_length_a   5.92038683
_cell_length_b   5.92038683
_cell_length_c   14.46618244
_cell_angle_alpha   90.00000000
_cell_angle_beta   90.00000000
_cell_angle_gamma   120.00000000
_symmetry_Int_Tables_number   1
_chemical_formula_structural   Ba3LuRu2O9
_chemical_formula_sum   'Ba6 Lu2 Ru4 O18'
_cell_volume   439.12153643
_cell_formula_units_Z   2
loop_
 _symmetry_equiv_pos_site_id
 _symmetry_equiv_pos_as_xyz
  1  'x, y, z'
loop_
 _atom_site_type_symbol
 _atom_site_label
 _atom_site_symmetry_multiplicity
 _atom_site_fract_x
 _atom_site_fract_y
 _atom_site_fract_z
 _atom_site_occupancy
  Ba  Ba0  1  0.333333  0.666667  0.907852  1
  Ba  Ba1  1  0.666667  0.333333  0.407852  1
  Ba  Ba2  1  0.333333  0.666667  0.592148  1
  Ba  Ba3  1  0.666667  0.333333  0.092148  1
  Ba  Ba4  1  0.000000  0.000000  0.750000  1
  Ba  Ba5  1  0.000000  0.000000  0.250000  1
  Lu  Lu6  1  0.000000  0.000000  0.500000  1
  Lu  Lu7  1  0.000000  0.000000  0.000000  1
  Ru  Ru8  1  0.666667  0.333333  0.663255  1
  Ru  Ru9  1  0.333333  0.666667  0.163255  1
  Ru  Ru10  1  0.333333  0.666667  0.336745  1
  Ru  Ru11  1  0.666667  0.333333  0.836745  1
  O  O12  1  0.174228  0.348455  0.413807  1
  O  O13  1  0.348455  0.174228  0.913807  1
  O  O14  1  0.651545  0.825772  0.413807  1
  O  O15  1  0.825772  0.174228  0.913807  1
  O  O16  1  0.348455  0.174228  0.586193  1
  O  O17  1  0.651545  0.825772  0.086193  1
  O  O18  1  0.509773  0.019546  0.750000  1
  O  O19  1  0.509773  0.490227  0.750000  1
  O  O20  1  0.019546  0.509773  0.250000  1
  O  O21  1  0.825772  0.174228  0.586193  1
  O  O22  1  0.825772  0.651545  0.586193  1
  O  O23  1  0.825772  0.651545  0.913807  1
  O  O24  1  0.174228  0.348455  0.086193  1
  O  O25  1  0.174228  0.825772  0.413807  1
  O  O26  1  0.174228  0.825772  0.086193  1
  O  O27  1  0.490227  0.980454  0.250000  1
  O  O28  1  0.490227  0.509773  0.250000  1
  O  O29  1  0.980454  0.490227  0.750000  1
