# generated using pymatgen
data_Sn(SeO3)2
_symmetry_space_group_name_H-M   'P 1'
_cell_length_a   8.35828743
_cell_length_b   8.35828743
_cell_length_c   8.35828743
_cell_angle_alpha   90.00000000
_cell_angle_beta   90.00000000
_cell_angle_gamma   90.00000000
_symmetry_Int_Tables_number   1
_chemical_formula_structural   Sn(SeO3)2
_chemical_formula_sum   'Sn4 Se8 O24'
_cell_volume   583.91805706
_cell_formula_units_Z   4
loop_
 _symmetry_equiv_pos_site_id
 _symmetry_equiv_pos_as_xyz
  1  'x, y, z'
loop_
 _atom_site_type_symbol
 _atom_site_label
 _atom_site_symmetry_multiplicity
 _atom_site_fract_x
 _atom_site_fract_y
 _atom_site_fract_z
 _atom_site_occupancy
  Sn  Sn0  1  0.500000  0.500000  0.000000  1
  Sn  Sn1  1  0.500000  0.000000  0.500000  1
  Sn  Sn2  1  0.000000  0.000000  0.000000  1
  Sn  Sn3  1  0.000000  0.500000  0.500000  1
  Se  Se4  1  0.833104  0.166896  0.666896  1
  Se  Se5  1  0.166896  0.833104  0.333104  1
  Se  Se6  1  0.666896  0.666896  0.666896  1
  Se  Se7  1  0.166896  0.666896  0.833104  1
  Se  Se8  1  0.333104  0.166896  0.833104  1
  Se  Se9  1  0.833104  0.333104  0.166896  1
  Se  Se10  1  0.666896  0.833104  0.166896  1
  Se  Se11  1  0.333104  0.333104  0.333104  1
  O  O12  1  0.244802  0.465357  0.467038  1
  O  O13  1  0.967038  0.244802  0.034643  1
  O  O14  1  0.032962  0.744802  0.465357  1
  O  O15  1  0.467038  0.255198  0.965357  1
  O  O16  1  0.255198  0.965357  0.467038  1
  O  O17  1  0.534643  0.532962  0.755198  1
  O  O18  1  0.965357  0.032962  0.755198  1
  O  O19  1  0.532962  0.744802  0.034643  1
  O  O20  1  0.534643  0.967038  0.255198  1
  O  O21  1  0.465357  0.032962  0.744802  1
  O  O22  1  0.755198  0.965357  0.032962  1
  O  O23  1  0.255198  0.534643  0.967038  1
  O  O24  1  0.034643  0.532962  0.744802  1
  O  O25  1  0.034643  0.967038  0.244802  1
  O  O26  1  0.244802  0.034643  0.967038  1
  O  O27  1  0.465357  0.467038  0.244802  1
  O  O28  1  0.755198  0.534643  0.532962  1
  O  O29  1  0.965357  0.467038  0.255198  1
  O  O30  1  0.032962  0.755198  0.965357  1
  O  O31  1  0.467038  0.244802  0.465357  1
  O  O32  1  0.532962  0.755198  0.534643  1
  O  O33  1  0.967038  0.255198  0.534643  1
  O  O34  1  0.744802  0.034643  0.532962  1
  O  O35  1  0.744802  0.465357  0.032962  1
