# generated using pymatgen
data_Mn3Se3O10
_symmetry_space_group_name_H-M   'P 1'
_cell_length_a   8.74694634
_cell_length_b   8.74694634
_cell_length_c   9.94040153
_cell_angle_alpha   63.19078429
_cell_angle_beta   116.80921571
_cell_angle_gamma   134.23674397
_symmetry_Int_Tables_number   1
_chemical_formula_structural   Mn3Se3O10
_chemical_formula_sum   'Mn6 Se6 O20'
_cell_volume   475.13485622
_cell_formula_units_Z   2
loop_
 _symmetry_equiv_pos_site_id
 _symmetry_equiv_pos_as_xyz
  1  'x, y, z'
loop_
 _atom_site_type_symbol
 _atom_site_label
 _atom_site_symmetry_multiplicity
 _atom_site_fract_x
 _atom_site_fract_y
 _atom_site_fract_z
 _atom_site_occupancy
  Mn  Mn0  1  0.000000  0.500000  0.500000  1
  Mn  Mn1  1  0.500000  0.000000  0.500000  1
  Mn  Mn2  1  0.617154  0.382846  0.084759  1
  Mn  Mn3  1  0.382846  0.617154  0.915241  1
  Mn  Mn4  1  0.000000  0.500000  0.000000  1
  Mn  Mn5  1  0.500000  0.000000  0.000000  1
  Se  Se6  1  0.531299  0.468701  0.332684  1
  Se  Se7  1  0.468701  0.531299  0.667316  1
  Se  Se8  1  0.860497  0.139503  0.326957  1
  Se  Se9  1  0.139503  0.860497  0.673043  1
  Se  Se10  1  0.886274  0.113726  0.829371  1
  Se  Se11  1  0.113726  0.886274  0.170629  1
  O  O12  1  0.307424  0.692576  0.015058  1
  O  O13  1  0.692576  0.307424  0.984942  1
  O  O14  1  0.216196  0.783804  0.348191  1
  O  O15  1  0.783804  0.216196  0.651809  1
  O  O16  1  0.750817  0.249183  0.329509  1
  O  O17  1  0.249183  0.750817  0.670491  1
  O  O18  1  0.483026  0.516974  0.859706  1
  O  O19  1  0.516974  0.483026  0.140294  1
  O  O20  1  0.058403  0.332928  0.919051  1
  O  O21  1  0.332928  0.058403  0.080949  1
  O  O22  1  0.941597  0.667072  0.080949  1
  O  O23  1  0.667072  0.941597  0.919051  1
  O  O24  1  0.402415  0.196388  0.408078  1
  O  O25  1  0.196388  0.402415  0.591922  1
  O  O26  1  0.597585  0.803612  0.591922  1
  O  O27  1  0.803612  0.597585  0.408078  1
  O  O28  1  0.050779  0.351122  0.214240  1
  O  O29  1  0.949221  0.648878  0.785760  1
  O  O30  1  0.351122  0.050779  0.785760  1
  O  O31  1  0.648878  0.949221  0.214240  1
