# generated using pymatgen
data_KCa2Nb3O10
_symmetry_space_group_name_H-M   'P 1'
_cell_length_a   7.85488076
_cell_length_b   7.80844310
_cell_length_c   15.19056053
_cell_angle_alpha   90.00000000
_cell_angle_beta   97.00606140
_cell_angle_gamma   90.00000000
_symmetry_Int_Tables_number   1
_chemical_formula_structural   KCa2Nb3O10
_chemical_formula_sum   'K4 Ca8 Nb12 O40'
_cell_volume   924.74695970
_cell_formula_units_Z   4
loop_
 _symmetry_equiv_pos_site_id
 _symmetry_equiv_pos_as_xyz
  1  'x, y, z'
loop_
 _atom_site_type_symbol
 _atom_site_label
 _atom_site_symmetry_multiplicity
 _atom_site_fract_x
 _atom_site_fract_y
 _atom_site_fract_z
 _atom_site_occupancy
  K  K0  1  0.864141  0.250000  0.477182  1
  K  K1  1  0.369393  0.250000  0.490431  1
  K  K2  1  0.630607  0.750000  0.509569  1
  K  K3  1  0.135859  0.750000  0.522818  1
  Ca  Ca4  1  0.701698  0.250000  0.850828  1
  Ca  Ca5  1  0.207409  0.250000  0.842007  1
  Ca  Ca6  1  0.716045  0.750000  0.850901  1
  Ca  Ca7  1  0.298302  0.750000  0.149172  1
  Ca  Ca8  1  0.792591  0.750000  0.157993  1
  Ca  Ca9  1  0.788140  0.250000  0.138082  1
  Ca  Ca10  1  0.283955  0.250000  0.149099  1
  Ca  Ca11  1  0.211860  0.750000  0.861918  1
  Nb  Nb12  1  0.432331  0.505216  0.714119  1
  Nb  Nb13  1  0.567669  0.005216  0.285881  1
  Nb  Nb14  1  0.567669  0.494784  0.285881  1
  Nb  Nb15  1  0.071443  0.003318  0.286692  1
  Nb  Nb16  1  0.928557  0.503318  0.713308  1
  Nb  Nb17  1  0.432331  0.994784  0.714119  1
  Nb  Nb18  1  0.928557  0.996682  0.713308  1
  Nb  Nb19  1  0.000000  0.500000  0.000000  1
  Nb  Nb20  1  0.071443  0.496682  0.286692  1
  Nb  Nb21  1  0.500000  0.000000  0.000000  1
  Nb  Nb22  1  0.000000  0.000000  0.000000  1
  Nb  Nb23  1  0.500000  0.500000  0.000000  1
  O  O24  1  0.814997  0.510774  0.268927  1
  O  O25  1  0.583127  0.044927  0.402947  1
  O  O26  1  0.690633  0.512288  0.754840  1
  O  O27  1  0.999967  0.035724  0.872128  1
  O  O28  1  0.185003  0.489226  0.731073  1
  O  O29  1  0.047257  0.250000  0.241927  1
  O  O30  1  0.690633  0.987712  0.754840  1
  O  O31  1  0.451795  0.250000  0.718653  1
  O  O32  1  0.252836  0.566801  0.011035  1
  O  O33  1  0.747164  0.066801  0.988965  1
  O  O34  1  0.430183  0.750000  0.763175  1
  O  O35  1  0.111615  0.466868  0.404820  1
  O  O36  1  0.814997  0.989226  0.268927  1
  O  O37  1  0.952743  0.750000  0.758073  1
  O  O38  1  0.456122  0.250000  0.031470  1
  O  O39  1  0.084436  0.750000  0.273919  1
  O  O40  1  0.888385  0.533132  0.595180  1
  O  O41  1  0.936481  0.750000  0.974571  1
  O  O42  1  0.111615  0.033132  0.404820  1
  O  O43  1  0.442220  0.051010  0.872852  1
  O  O44  1  0.915564  0.250000  0.726081  1
  O  O45  1  0.999967  0.464276  0.872128  1
  O  O46  1  0.416873  0.955073  0.597053  1
  O  O47  1  0.416873  0.544927  0.597053  1
  O  O48  1  0.309367  0.012288  0.245160  1
  O  O49  1  0.557780  0.948990  0.127148  1
  O  O50  1  0.309367  0.487712  0.245160  1
  O  O51  1  0.548205  0.750000  0.281347  1
  O  O52  1  0.185003  0.010774  0.731073  1
  O  O53  1  0.063519  0.250000  0.025429  1
  O  O54  1  0.000033  0.964276  0.127872  1
  O  O55  1  0.888385  0.966868  0.595180  1
  O  O56  1  0.543878  0.750000  0.968530  1
  O  O57  1  0.747164  0.433199  0.988965  1
  O  O58  1  0.442220  0.448990  0.872852  1
  O  O59  1  0.000033  0.535724  0.127872  1
  O  O60  1  0.557780  0.551010  0.127148  1
  O  O61  1  0.583127  0.455073  0.402947  1
  O  O62  1  0.252836  0.933199  0.011035  1
  O  O63  1  0.569817  0.250000  0.236825  1
