# generated using pymatgen
data_Tl4Hg3Sb2(As2S5)4
_symmetry_space_group_name_H-M   'P 1'
_cell_length_a   14.02225482
_cell_length_b   14.02225482
_cell_length_c   11.58472597
_cell_angle_alpha   90.00000000
_cell_angle_beta   90.00000000
_cell_angle_gamma   121.92771360
_symmetry_Int_Tables_number   1
_chemical_formula_structural   Tl4Hg3Sb2(As2S5)4
_chemical_formula_sum   'Tl8 Hg6 Sb4 As16 S40'
_cell_volume   1933.23147761
_cell_formula_units_Z   2
loop_
 _symmetry_equiv_pos_site_id
 _symmetry_equiv_pos_as_xyz
  1  'x, y, z'
loop_
 _atom_site_type_symbol
 _atom_site_label
 _atom_site_symmetry_multiplicity
 _atom_site_fract_x
 _atom_site_fract_y
 _atom_site_fract_z
 _atom_site_occupancy
  Tl  Tl0  1  0.017609  0.480086  0.442257  1
  Tl  Tl1  1  0.853000  0.635240  0.702890  1
  Tl  Tl2  1  0.517609  0.980086  0.057743  1
  Tl  Tl3  1  0.480086  0.017609  0.557743  1
  Tl  Tl4  1  0.353000  0.135240  0.797110  1
  Tl  Tl5  1  0.635240  0.853000  0.297110  1
  Tl  Tl6  1  0.980086  0.517609  0.942257  1
  Tl  Tl7  1  0.135240  0.353000  0.202890  1
  Hg  Hg8  1  0.054121  0.939154  0.425716  1
  Hg  Hg9  1  0.554121  0.439154  0.074284  1
  Hg  Hg10  1  0.939154  0.054121  0.574284  1
  Hg  Hg11  1  0.439154  0.554121  0.925716  1
  Hg  Hg12  1  0.996612  0.996612  0.000000  1
  Hg  Hg13  1  0.496612  0.496612  0.500000  1
  Sb  Sb14  1  0.347357  0.671001  0.707761  1
  Sb  Sb15  1  0.171001  0.847357  0.207761  1
  Sb  Sb16  1  0.847357  0.171001  0.792239  1
  Sb  Sb17  1  0.671001  0.347357  0.292239  1
  As  As18  1  0.812863  0.702235  0.103549  1
  As  As19  1  0.296672  0.691397  0.094074  1
  As  As20  1  0.290847  0.708054  0.387021  1
  As  As21  1  0.687856  0.788135  0.604441  1
  As  As22  1  0.202235  0.312863  0.603549  1
  As  As23  1  0.796672  0.191397  0.405926  1
  As  As24  1  0.191397  0.796672  0.594074  1
  As  As25  1  0.691397  0.296672  0.905926  1
  As  As26  1  0.790847  0.208054  0.112979  1
  As  As27  1  0.288135  0.187856  0.104441  1
  As  As28  1  0.708054  0.290847  0.612979  1
  As  As29  1  0.187856  0.288135  0.895559  1
  As  As30  1  0.788135  0.687856  0.395559  1
  As  As31  1  0.208054  0.790847  0.887021  1
  As  As32  1  0.312863  0.202235  0.396451  1
  As  As33  1  0.702235  0.812863  0.896451  1
  S  S34  1  0.376856  0.368808  0.173874  1
  S  S35  1  0.368808  0.376856  0.826126  1
  S  S36  1  0.136601  0.858606  0.754008  1
  S  S37  1  0.275905  0.936979  0.018426  1
  S  S38  1  0.982475  0.802419  0.017863  1
  S  S39  1  0.620046  0.855245  0.745292  1
  S  S40  1  0.351115  0.882153  0.309872  1
  S  S41  1  0.542748  0.227980  0.020079  1
  S  S42  1  0.636601  0.358606  0.745992  1
  S  S43  1  0.882153  0.351115  0.690128  1
  S  S44  1  0.616017  0.625840  0.323211  1
  S  S45  1  0.302419  0.482475  0.517863  1
  S  S46  1  0.868808  0.876856  0.673874  1
  S  S47  1  0.802419  0.982475  0.982137  1
  S  S48  1  0.227980  0.542748  0.979921  1
  S  S49  1  0.116017  0.125840  0.176789  1
  S  S50  1  0.052273  0.234472  0.479360  1
  S  S51  1  0.651106  0.123758  0.830138  1
  S  S52  1  0.775905  0.436979  0.481574  1
  S  S53  1  0.123758  0.651106  0.169862  1
  S  S54  1  0.234472  0.052273  0.520640  1
  S  S55  1  0.358606  0.636601  0.254008  1
  S  S56  1  0.120046  0.355245  0.754708  1
  S  S57  1  0.042748  0.727980  0.479921  1
  S  S58  1  0.936979  0.275905  0.981574  1
  S  S59  1  0.552273  0.734472  0.020640  1
  S  S60  1  0.482475  0.302419  0.482137  1
  S  S61  1  0.734472  0.552273  0.979360  1
  S  S62  1  0.876856  0.868808  0.326126  1
  S  S63  1  0.625840  0.616017  0.676789  1
  S  S64  1  0.436979  0.775905  0.518426  1
  S  S65  1  0.855245  0.620046  0.254708  1
  S  S66  1  0.858606  0.136601  0.245992  1
  S  S67  1  0.623758  0.151106  0.330138  1
  S  S68  1  0.727980  0.042748  0.520079  1
  S  S69  1  0.382153  0.851115  0.809872  1
  S  S70  1  0.355245  0.120046  0.245292  1
  S  S71  1  0.125840  0.116017  0.823211  1
  S  S72  1  0.851115  0.382153  0.190128  1
  S  S73  1  0.151106  0.623758  0.669862  1
