# generated using pymatgen
data_Ba3NaOs2O9
_symmetry_space_group_name_H-M   'P 1'
_cell_length_a   5.98391153
_cell_length_b   5.98391153
_cell_length_c   14.48351881
_cell_angle_alpha   90.00000000
_cell_angle_beta   90.00000000
_cell_angle_gamma   120.00000000
_symmetry_Int_Tables_number   1
_chemical_formula_structural   Ba3NaOs2O9
_chemical_formula_sum   'Ba6 Na2 Os4 O18'
_cell_volume   449.13308472
_cell_formula_units_Z   2
loop_
 _symmetry_equiv_pos_site_id
 _symmetry_equiv_pos_as_xyz
  1  'x, y, z'
loop_
 _atom_site_type_symbol
 _atom_site_label
 _atom_site_symmetry_multiplicity
 _atom_site_fract_x
 _atom_site_fract_y
 _atom_site_fract_z
 _atom_site_occupancy
  Ba  Ba0  1  0.666667  0.333333  0.088360  1
  Ba  Ba1  1  0.333333  0.666667  0.588360  1
  Ba  Ba2  1  0.333333  0.666667  0.911640  1
  Ba  Ba3  1  0.666667  0.333333  0.411640  1
  Ba  Ba4  1  0.000000  0.000000  0.250000  1
  Ba  Ba5  1  0.000000  0.000000  0.750000  1
  Na  Na6  1  0.000000  0.000000  0.000000  1
  Na  Na7  1  0.000000  0.000000  0.500000  1
  Os  Os8  1  0.333333  0.666667  0.162284  1
  Os  Os9  1  0.666667  0.333333  0.662284  1
  Os  Os10  1  0.666667  0.333333  0.837716  1
  Os  Os11  1  0.333333  0.666667  0.337716  1
  O  O12  1  0.180192  0.360384  0.091146  1
  O  O13  1  0.819808  0.180192  0.591146  1
  O  O14  1  0.360384  0.180192  0.591146  1
  O  O15  1  0.639616  0.819808  0.091146  1
  O  O16  1  0.180192  0.819808  0.091146  1
  O  O17  1  0.819808  0.639616  0.908854  1
  O  O18  1  0.819808  0.180192  0.908854  1
  O  O19  1  0.819808  0.639616  0.591146  1
  O  O20  1  0.360384  0.180192  0.908854  1
  O  O21  1  0.639616  0.819808  0.408854  1
  O  O22  1  0.180192  0.360384  0.408854  1
  O  O23  1  0.180192  0.819808  0.408854  1
  O  O24  1  0.017198  0.508599  0.250000  1
  O  O25  1  0.508599  0.017198  0.750000  1
  O  O26  1  0.508599  0.491401  0.750000  1
  O  O27  1  0.491401  0.508599  0.250000  1
  O  O28  1  0.491401  0.982802  0.250000  1
  O  O29  1  0.982802  0.491401  0.750000  1
