# generated using pymatgen
data_Ho2Mo4O15
_symmetry_space_group_name_H-M   'P 1'
_cell_length_a   6.92362176
_cell_length_b   9.68757704
_cell_length_c   10.76083658
_cell_angle_alpha   90.00000000
_cell_angle_beta   104.86880317
_cell_angle_gamma   90.00000000
_symmetry_Int_Tables_number   1
_chemical_formula_structural   Ho2Mo4O15
_chemical_formula_sum   'Ho4 Mo8 O30'
_cell_volume   697.59532422
_cell_formula_units_Z   2
loop_
 _symmetry_equiv_pos_site_id
 _symmetry_equiv_pos_as_xyz
  1  'x, y, z'
loop_
 _atom_site_type_symbol
 _atom_site_label
 _atom_site_symmetry_multiplicity
 _atom_site_fract_x
 _atom_site_fract_y
 _atom_site_fract_z
 _atom_site_occupancy
  Ho  Ho0  1  0.792904  0.976818  0.725315  1
  Ho  Ho1  1  0.207096  0.476818  0.774685  1
  Ho  Ho2  1  0.207096  0.023182  0.274685  1
  Ho  Ho3  1  0.792904  0.523182  0.225315  1
  Mo  Mo4  1  0.382257  0.094500  0.843601  1
  Mo  Mo5  1  0.617743  0.594500  0.656399  1
  Mo  Mo6  1  0.617743  0.905500  0.156399  1
  Mo  Mo7  1  0.382257  0.405500  0.343601  1
  Mo  Mo8  1  0.920682  0.257253  0.990371  1
  Mo  Mo9  1  0.079318  0.757253  0.509629  1
  Mo  Mo10  1  0.079318  0.742747  0.009629  1
  Mo  Mo11  1  0.920682  0.242747  0.490371  1
  O  O12  1  0.500000  0.000000  0.000000  1
  O  O13  1  0.500000  0.500000  0.500000  1
  O  O14  1  0.456965  0.027140  0.709398  1
  O  O15  1  0.543035  0.527140  0.790602  1
  O  O16  1  0.543035  0.972860  0.290602  1
  O  O17  1  0.456965  0.472860  0.209398  1
  O  O18  1  0.384883  0.277361  0.849241  1
  O  O19  1  0.615117  0.777361  0.650759  1
  O  O20  1  0.615117  0.722639  0.150759  1
  O  O21  1  0.384883  0.222639  0.349241  1
  O  O22  1  0.125332  0.051581  0.813877  1
  O  O23  1  0.874668  0.551581  0.686123  1
  O  O24  1  0.029459  0.126536  0.399283  1
  O  O25  1  0.970541  0.626536  0.100717  1
  O  O26  1  0.970541  0.873464  0.600717  1
  O  O27  1  0.029459  0.373464  0.899283  1
  O  O28  1  0.115691  0.334534  0.601354  1
  O  O29  1  0.884309  0.834534  0.898646  1
  O  O30  1  0.884309  0.665466  0.398646  1
  O  O31  1  0.115691  0.165466  0.101354  1
  O  O32  1  0.781219  0.149528  0.581958  1
  O  O33  1  0.218781  0.649528  0.918042  1
  O  O34  1  0.218781  0.850472  0.418042  1
  O  O35  1  0.781219  0.350472  0.081958  1
  O  O36  1  0.759689  0.363718  0.382506  1
  O  O37  1  0.240311  0.863718  0.117494  1
  O  O38  1  0.240311  0.636282  0.617494  1
  O  O39  1  0.759689  0.136282  0.882506  1
  O  O40  1  0.125332  0.448419  0.313877  1
  O  O41  1  0.874668  0.948419  0.186123  1
