# generated using pymatgen
data_Dy12Co7
_symmetry_space_group_name_H-M   'P 1'
_cell_length_a   8.27900681
_cell_length_b   11.21546212
_cell_length_c   11.01209922
_cell_angle_alpha   90.00000000
_cell_angle_beta   125.24773259
_cell_angle_gamma   90.00000000
_symmetry_Int_Tables_number   1
_chemical_formula_structural   Dy12Co7
_chemical_formula_sum   'Dy24 Co14'
_cell_volume   835.04359661
_cell_formula_units_Z   2
loop_
 _symmetry_equiv_pos_site_id
 _symmetry_equiv_pos_as_xyz
  1  'x, y, z'
loop_
 _atom_site_type_symbol
 _atom_site_label
 _atom_site_symmetry_multiplicity
 _atom_site_fract_x
 _atom_site_fract_y
 _atom_site_fract_z
 _atom_site_occupancy
  Dy  Dy0  1  0.501976  0.841344  0.342676  1
  Dy  Dy1  1  0.846856  0.494560  0.146937  1
  Dy  Dy2  1  0.501976  0.658656  0.842676  1
  Dy  Dy3  1  0.750299  0.800227  0.175644  1
  Dy  Dy4  1  0.770380  0.572311  0.414254  1
  Dy  Dy5  1  0.267151  0.929934  0.694778  1
  Dy  Dy6  1  0.267151  0.570066  0.194778  1
  Dy  Dy7  1  0.766260  0.295020  0.538316  1
  Dy  Dy8  1  0.249701  0.300227  0.324356  1
  Dy  Dy9  1  0.732849  0.429934  0.805222  1
  Dy  Dy10  1  0.229620  0.427689  0.585746  1
  Dy  Dy11  1  0.153144  0.505440  0.853063  1
  Dy  Dy12  1  0.498024  0.341344  0.157324  1
  Dy  Dy13  1  0.846856  0.005440  0.646937  1
  Dy  Dy14  1  0.732849  0.070066  0.305222  1
  Dy  Dy15  1  0.770380  0.927689  0.914254  1
  Dy  Dy16  1  0.766260  0.204980  0.038316  1
  Dy  Dy17  1  0.233740  0.795020  0.961684  1
  Dy  Dy18  1  0.233740  0.704980  0.461684  1
  Dy  Dy19  1  0.153144  0.994560  0.353063  1
  Dy  Dy20  1  0.750299  0.699773  0.675644  1
  Dy  Dy21  1  0.249701  0.199773  0.824356  1
  Dy  Dy22  1  0.498024  0.158656  0.657324  1
  Dy  Dy23  1  0.229620  0.072311  0.085746  1
  Co  Co24  1  0.500000  0.500000  0.500000  1
  Co  Co25  1  0.090732  0.327423  0.031086  1
  Co  Co26  1  0.902641  0.190698  0.843295  1
  Co  Co27  1  0.909268  0.827423  0.468914  1
  Co  Co28  1  0.493412  0.402056  0.900595  1
  Co  Co29  1  0.493412  0.097944  0.400595  1
  Co  Co30  1  0.909268  0.672577  0.968914  1
  Co  Co31  1  0.506588  0.597944  0.099405  1
  Co  Co32  1  0.500000  0.000000  0.000000  1
  Co  Co33  1  0.097359  0.690698  0.656705  1
  Co  Co34  1  0.090732  0.172577  0.531086  1
  Co  Co35  1  0.902641  0.309302  0.343295  1
  Co  Co36  1  0.506588  0.902056  0.599405  1
  Co  Co37  1  0.097359  0.809302  0.156705  1
