# generated using pymatgen
data_SbPS4
_symmetry_space_group_name_H-M   'P 1'
_cell_length_a   6.38748051
_cell_length_b   13.83159399
_cell_length_c   23.78762512
_cell_angle_alpha   89.85191814
_cell_angle_beta   89.96094804
_cell_angle_gamma   88.39982901
_symmetry_Int_Tables_number   1
_chemical_formula_structural   SbPS4
_chemical_formula_sum   'Sb12 P12 S48'
_cell_volume   2100.78680137
_cell_formula_units_Z   12
loop_
 _symmetry_equiv_pos_site_id
 _symmetry_equiv_pos_as_xyz
  1  'x, y, z'
loop_
 _atom_site_type_symbol
 _atom_site_label
 _atom_site_symmetry_multiplicity
 _atom_site_fract_x
 _atom_site_fract_y
 _atom_site_fract_z
 _atom_site_occupancy
  Sb  Sb0  1  0.119911  0.503250  0.682485  1
  Sb  Sb1  1  0.860387  0.776917  0.089853  1
  Sb  Sb2  1  0.348933  0.002908  0.182926  1
  Sb  Sb3  1  0.637000  0.276597  0.589563  1
  Sb  Sb4  1  0.848168  0.977034  0.343475  1
  Sb  Sb5  1  0.651067  0.997092  0.817074  1
  Sb  Sb6  1  0.139613  0.223083  0.910147  1
  Sb  Sb7  1  0.880089  0.496750  0.317515  1
  Sb  Sb8  1  0.363000  0.723403  0.410437  1
  Sb  Sb9  1  0.623686  0.476605  0.843083  1
  Sb  Sb10  1  0.151832  0.022966  0.656525  1
  Sb  Sb11  1  0.376314  0.523395  0.156917  1
  P  P12  1  0.621251  0.294603  0.942069  1
  P  P13  1  0.104491  0.560544  0.823049  1
  P  P14  1  0.378749  0.705397  0.057931  1
  P  P15  1  0.394109  0.485003  0.369219  1
  P  P16  1  0.861637  0.015117  0.131166  1
  P  P17  1  0.642330  0.939483  0.676503  1
  P  P18  1  0.872057  0.794982  0.442464  1
  P  P19  1  0.138363  0.984883  0.868834  1
  P  P20  1  0.357670  0.060517  0.323497  1
  P  P21  1  0.127943  0.205018  0.557536  1
  P  P22  1  0.895509  0.439456  0.176951  1
  P  P23  1  0.605891  0.514997  0.630781  1
  S  S24  1  0.623562  0.131824  0.348432  1
  S  S25  1  0.331172  0.586854  0.606381  1
  S  S26  1  0.439070  0.922178  0.301743  1
  S  S27  1  0.449375  0.741244  0.138519  1
  S  S28  1  0.750508  0.431478  0.940522  1
  S  S29  1  0.652668  0.120853  0.157087  1
  S  S30  1  0.326471  0.296105  0.517138  1
  S  S31  1  0.040448  0.422217  0.801224  1
  S  S32  1  0.692540  0.425059  0.111051  1
  S  S33  1  0.668828  0.413146  0.393619  1
  S  S34  1  0.249492  0.568522  0.059478  1
  S  S35  1  0.273323  0.068069  0.559062  1
  S  S36  1  0.751653  0.444129  0.563354  1
  S  S37  1  0.801716  0.620950  0.656537  1
  S  S38  1  0.351229  0.292706  0.990598  1
  S  S39  1  0.237214  0.626745  0.753154  1
  S  S40  1  0.872105  0.912800  0.892901  1
  S  S41  1  0.959552  0.577783  0.198776  1
  S  S42  1  0.857467  0.207085  0.509160  1
  S  S43  1  0.170462  0.368593  0.151793  1
  S  S44  1  0.762786  0.373255  0.246846  1
  S  S45  1  0.152719  0.075172  0.389396  1
  S  S46  1  0.307460  0.574941  0.888949  1
  S  S47  1  0.830322  0.203252  0.982357  1
  S  S48  1  0.537862  0.413116  0.689467  1
  S  S49  1  0.274629  0.055598  0.936383  1
  S  S50  1  0.673529  0.703895  0.482862  1
  S  S51  1  0.550625  0.258756  0.861481  1
  S  S52  1  0.725371  0.944402  0.063617  1
  S  S53  1  0.347332  0.879147  0.842913  1
  S  S54  1  0.829538  0.631407  0.848207  1
  S  S55  1  0.169678  0.796748  0.017643  1
  S  S56  1  0.142533  0.792915  0.490840  1
  S  S57  1  0.248347  0.555871  0.436646  1
  S  S58  1  0.127895  0.087200  0.107099  1
  S  S59  1  0.376438  0.868176  0.651568  1
  S  S60  1  0.462138  0.586884  0.310533  1
  S  S61  1  0.560930  0.077822  0.698257  1
  S  S62  1  0.053103  0.241106  0.638106  1
  S  S63  1  0.216262  0.126167  0.253610  1
  S  S64  1  0.726677  0.931931  0.440938  1
  S  S65  1  0.058509  0.087037  0.810278  1
  S  S66  1  0.198284  0.379050  0.343463  1
  S  S67  1  0.941491  0.912963  0.189722  1
  S  S68  1  0.648771  0.707294  0.009402  1
  S  S69  1  0.783738  0.873833  0.746390  1
  S  S70  1  0.847281  0.924828  0.610604  1
  S  S71  1  0.946897  0.758894  0.361894  1
