# generated using pymatgen
data_LiCr4(PO4)3
_symmetry_space_group_name_H-M   'P 1'
_cell_length_a   7.56967157
_cell_length_b   8.12145008
_cell_length_c   9.79395591
_cell_angle_alpha   109.76921448
_cell_angle_beta   110.43487885
_cell_angle_gamma   93.47479222
_symmetry_Int_Tables_number   1
_chemical_formula_structural   LiCr4(PO4)3
_chemical_formula_sum   'Li2 Cr8 P6 O24'
_cell_volume   519.94061140
_cell_formula_units_Z   2
loop_
 _symmetry_equiv_pos_site_id
 _symmetry_equiv_pos_as_xyz
  1  'x, y, z'
loop_
 _atom_site_type_symbol
 _atom_site_label
 _atom_site_symmetry_multiplicity
 _atom_site_fract_x
 _atom_site_fract_y
 _atom_site_fract_z
 _atom_site_occupancy
  Li  Li0  1  0.409167  0.119055  0.432688  1
  Li  Li1  1  0.590833  0.880945  0.567312  1
  Cr  Cr2  1  0.987617  0.204288  0.528290  1
  Cr  Cr3  1  0.741554  0.098764  0.095064  1
  Cr  Cr4  1  0.728556  0.474447  0.081774  1
  Cr  Cr5  1  0.734220  0.430163  0.717923  1
  Cr  Cr6  1  0.265780  0.569837  0.282077  1
  Cr  Cr7  1  0.271444  0.525553  0.918226  1
  Cr  Cr8  1  0.258446  0.901236  0.904936  1
  Cr  Cr9  1  0.012383  0.795712  0.471710  1
  P  P10  1  0.017393  0.249658  0.934439  1
  P  P11  1  0.321938  0.559845  0.615276  1
  P  P12  1  0.396616  0.136681  0.738039  1
  P  P13  1  0.603384  0.863319  0.261961  1
  P  P14  1  0.678062  0.440155  0.384724  1
  P  P15  1  0.982607  0.750342  0.065561  1
  O  O16  1  0.277417  0.646655  0.766063  1
  O  O17  1  0.791996  0.634836  0.474958  1
  O  O18  1  0.750731  0.328636  0.491923  1
  O  O19  1  0.582006  0.666457  0.155584  1
  O  O20  1  0.864106  0.261499  0.009790  1
  O  O21  1  0.923987  0.929066  0.093423  1
  O  O22  1  0.538599  0.579651  0.659933  1
  O  O23  1  0.814955  0.942016  0.393931  1
  O  O24  1  0.135894  0.738501  0.990210  1
  O  O25  1  0.076013  0.070934  0.906577  1
  O  O26  1  0.941236  0.283851  0.777826  1
  O  O27  1  0.185045  0.057984  0.606069  1
  O  O28  1  0.058764  0.716149  0.222174  1
  O  O29  1  0.557676  0.977858  0.160010  1
  O  O30  1  0.249269  0.671364  0.508077  1
  O  O31  1  0.417994  0.333543  0.844416  1
  O  O32  1  0.442324  0.022142  0.839990  1
  O  O33  1  0.192019  0.409664  0.050130  1
  O  O34  1  0.722583  0.353345  0.233937  1
  O  O35  1  0.533593  0.125203  0.650831  1
  O  O36  1  0.466407  0.874797  0.349169  1
  O  O37  1  0.461401  0.420349  0.340067  1
  O  O38  1  0.807981  0.590336  0.949870  1
  O  O39  1  0.208004  0.365164  0.525042  1
