# generated using pymatgen
data_Cr2(PO4)3
_symmetry_space_group_name_H-M   'P 1'
_cell_length_a   8.35921983
_cell_length_b   8.36272059
_cell_length_c   8.68514383
_cell_angle_alpha   118.04619268
_cell_angle_beta   90.04132279
_cell_angle_gamma   119.83506619
_symmetry_Int_Tables_number   1
_chemical_formula_structural   Cr2(PO4)3
_chemical_formula_sum   'Cr4 P6 O24'
_cell_volume   442.45564914
_cell_formula_units_Z   2
loop_
 _symmetry_equiv_pos_site_id
 _symmetry_equiv_pos_as_xyz
  1  'x, y, z'
loop_
 _atom_site_type_symbol
 _atom_site_label
 _atom_site_symmetry_multiplicity
 _atom_site_fract_x
 _atom_site_fract_y
 _atom_site_fract_z
 _atom_site_occupancy
  Cr  Cr0  1  0.352475  0.139286  0.078584  1
  Cr  Cr1  1  0.146785  0.352382  0.434718  1
  Cr  Cr2  1  0.647525  0.860714  0.921416  1
  Cr  Cr3  1  0.853215  0.647618  0.565282  1
  P  P4  1  0.252717  0.971223  0.748589  1
  P  P5  1  0.747283  0.028777  0.251411  1
  P  P6  1  0.030354  0.747971  0.246532  1
  P  P7  1  0.468831  0.459855  0.257368  1
  P  P8  1  0.531169  0.540145  0.742632  1
  P  P9  1  0.969646  0.252029  0.753468  1
  O  O10  1  0.287298  0.173932  0.595515  1
  O  O11  1  0.288400  0.995723  0.926027  1
  O  O12  1  0.010304  0.536154  0.297812  1
  O  O13  1  0.600800  0.108560  0.221456  1
  O  O14  1  0.989054  0.772108  0.386186  1
  O  O15  1  0.046373  0.828185  0.695261  1
  O  O16  1  0.298866  0.475336  0.270726  1
  O  O17  1  0.354661  0.531465  0.569734  1
  O  O18  1  0.010946  0.227892  0.613814  1
  O  O19  1  0.519326  0.620679  0.084337  1
  O  O20  1  0.953627  0.171815  0.304739  1
  O  O21  1  0.886210  0.804432  0.053669  1
  O  O22  1  0.712702  0.826068  0.404485  1
  O  O23  1  0.989696  0.463846  0.702188  1
  O  O24  1  0.645339  0.468535  0.430266  1
  O  O25  1  0.711600  0.004277  0.073973  1
  O  O26  1  0.600027  0.741975  0.758372  1
  O  O27  1  0.237092  0.888961  0.241146  1
  O  O28  1  0.399200  0.891440  0.778544  1
  O  O29  1  0.762908  0.111039  0.758854  1
  O  O30  1  0.480674  0.379321  0.915663  1
  O  O31  1  0.701134  0.524664  0.729274  1
  O  O32  1  0.399973  0.258025  0.241628  1
  O  O33  1  0.113790  0.195568  0.946331  1
