# generated using pymatgen
data_DyGa3Ni2
_symmetry_space_group_name_H-M   'P 1'
_cell_length_a   9.00367502
_cell_length_b   9.00367502
_cell_length_c   4.06369153
_cell_angle_alpha   90.00000000
_cell_angle_beta   90.00000000
_cell_angle_gamma   120.00000000
_symmetry_Int_Tables_number   1
_chemical_formula_structural   DyGa3Ni2
_chemical_formula_sum   'Dy3 Ga9 Ni6'
_cell_volume   285.29291594
_cell_formula_units_Z   3
loop_
 _symmetry_equiv_pos_site_id
 _symmetry_equiv_pos_as_xyz
  1  'x, y, z'
loop_
 _atom_site_type_symbol
 _atom_site_label
 _atom_site_symmetry_multiplicity
 _atom_site_fract_x
 _atom_site_fract_y
 _atom_site_fract_z
 _atom_site_occupancy
  Dy  Dy0  1  0.333333  0.666667  0.000000  1
  Dy  Dy1  1  0.666667  0.333333  0.000000  1
  Dy  Dy2  1  0.000000  0.000000  0.500000  1
  Ga  Ga3  1  0.292160  0.000000  0.000000  1
  Ga  Ga4  1  0.292160  0.292160  0.000000  1
  Ga  Ga5  1  0.000000  0.707840  0.000000  1
  Ga  Ga6  1  0.000000  0.292160  0.000000  1
  Ga  Ga7  1  0.707840  0.707840  0.000000  1
  Ga  Ga8  1  0.707840  0.000000  0.000000  1
  Ga  Ga9  1  0.500000  0.000000  0.500000  1
  Ga  Ga10  1  0.500000  0.500000  0.500000  1
  Ga  Ga11  1  0.000000  0.500000  0.500000  1
  Ni  Ni12  1  0.183174  0.366348  0.500000  1
  Ni  Ni13  1  0.816826  0.183174  0.500000  1
  Ni  Ni14  1  0.366348  0.183174  0.500000  1
  Ni  Ni15  1  0.633652  0.816826  0.500000  1
  Ni  Ni16  1  0.183174  0.816826  0.500000  1
  Ni  Ni17  1  0.816826  0.633652  0.500000  1
