# generated using pymatgen
data_Co21(B3Sb)2
_symmetry_space_group_name_H-M   'P 1'
_cell_length_a   7.45477885
_cell_length_b   7.45477885
_cell_length_c   7.45477885
_cell_angle_alpha   60.00000000
_cell_angle_beta   60.00000000
_cell_angle_gamma   60.00000000
_symmetry_Int_Tables_number   1
_chemical_formula_structural   Co21(B3Sb)2
_chemical_formula_sum   'Co21 B6 Sb2'
_cell_volume   292.94716272
_cell_formula_units_Z   1
loop_
 _symmetry_equiv_pos_site_id
 _symmetry_equiv_pos_as_xyz
  1  'x, y, z'
loop_
 _atom_site_type_symbol
 _atom_site_label
 _atom_site_symmetry_multiplicity
 _atom_site_fract_x
 _atom_site_fract_y
 _atom_site_fract_z
 _atom_site_occupancy
  Co  Co0  1  0.000000  0.000000  0.000000  1
  Co  Co1  1  0.616414  0.616414  0.150759  1
  Co  Co2  1  0.150759  0.616414  0.616414  1
  Co  Co3  1  0.616414  0.616414  0.616414  1
  Co  Co4  1  0.616414  0.150759  0.616414  1
  Co  Co5  1  0.383586  0.383586  0.849241  1
  Co  Co6  1  0.849241  0.383586  0.383586  1
  Co  Co7  1  0.383586  0.383586  0.383586  1
  Co  Co8  1  0.383586  0.849241  0.383586  1
  Co  Co9  1  0.000000  0.666151  0.333849  1
  Co  Co10  1  1.000000  1.000000  0.333849  1
  Co  Co11  1  0.666151  0.000000  0.333849  1
  Co  Co12  1  0.333849  0.000000  0.000000  1
  Co  Co13  1  0.333849  0.666151  1.000000  1
  Co  Co14  1  0.333849  0.000000  0.666151  1
  Co  Co15  1  0.666151  1.000000  0.000000  1
  Co  Co16  1  0.000000  1.000000  0.666151  1
  Co  Co17  1  1.000000  0.666151  0.000000  1
  Co  Co18  1  0.000000  0.333849  0.666151  1
  Co  Co19  1  0.666151  0.333849  1.000000  1
  Co  Co20  1  1.000000  0.333849  1.000000  1
  B  B21  1  0.723564  0.276436  0.276436  1
  B  B22  1  0.723564  0.723564  0.276436  1
  B  B23  1  0.276436  0.723564  0.276436  1
  B  B24  1  0.276436  0.723564  0.723564  1
  B  B25  1  0.276436  0.276436  0.723564  1
  B  B26  1  0.723564  0.276436  0.723564  1
  Sb  Sb27  1  0.750000  0.750000  0.750000  1
  Sb  Sb28  1  0.250000  0.250000  0.250000  1
