# generated using pymatgen
data_KLaCr2O8
_symmetry_space_group_name_H-M   'P 1'
_cell_length_a   8.90803750
_cell_length_b   7.59660426
_cell_length_c   11.16379623
_cell_angle_alpha   90.00000000
_cell_angle_beta   92.48841264
_cell_angle_gamma   90.00000000
_symmetry_Int_Tables_number   1
_chemical_formula_structural   KLaCr2O8
_chemical_formula_sum   'K4 La4 Cr8 O32'
_cell_volume   754.75103486
_cell_formula_units_Z   4
loop_
 _symmetry_equiv_pos_site_id
 _symmetry_equiv_pos_as_xyz
  1  'x, y, z'
loop_
 _atom_site_type_symbol
 _atom_site_label
 _atom_site_symmetry_multiplicity
 _atom_site_fract_x
 _atom_site_fract_y
 _atom_site_fract_z
 _atom_site_occupancy
  K  K0  1  0.432329  0.151900  0.161888  1
  K  K1  1  0.567671  0.651900  0.338112  1
  K  K2  1  0.567671  0.848100  0.838112  1
  K  K3  1  0.432329  0.348100  0.661888  1
  La  La4  1  0.059441  0.837113  0.344923  1
  La  La5  1  0.940559  0.337113  0.155077  1
  La  La6  1  0.940559  0.162887  0.655077  1
  La  La7  1  0.059441  0.662887  0.844923  1
  Cr  Cr8  1  0.280085  0.664275  0.088366  1
  Cr  Cr9  1  0.719915  0.164275  0.411634  1
  Cr  Cr10  1  0.719915  0.335725  0.911634  1
  Cr  Cr11  1  0.280085  0.835725  0.588366  1
  Cr  Cr12  1  0.810201  0.836471  0.106466  1
  Cr  Cr13  1  0.189799  0.336471  0.393534  1
  Cr  Cr14  1  0.189799  0.163529  0.893534  1
  Cr  Cr15  1  0.810201  0.663529  0.606466  1
  O  O16  1  0.257828  0.818978  0.193558  1
  O  O17  1  0.742172  0.318978  0.306442  1
  O  O18  1  0.742172  0.181022  0.806442  1
  O  O19  1  0.257828  0.681022  0.693558  1
  O  O20  1  0.115330  0.558951  0.061387  1
  O  O21  1  0.884670  0.058951  0.438613  1
  O  O22  1  0.884670  0.441049  0.938613  1
  O  O23  1  0.115330  0.941049  0.561387  1
  O  O24  1  0.305960  0.752213  0.953945  1
  O  O25  1  0.694040  0.252213  0.546055  1
  O  O26  1  0.694040  0.247787  0.046055  1
  O  O27  1  0.305960  0.747787  0.453945  1
  O  O28  1  0.412538  0.526687  0.129766  1
  O  O29  1  0.587462  0.026687  0.370234  1
  O  O30  1  0.587462  0.473313  0.870234  1
  O  O31  1  0.412538  0.973313  0.629766  1
  O  O32  1  0.855475  0.659322  0.191540  1
  O  O33  1  0.144525  0.159322  0.308460  1
  O  O34  1  0.144525  0.340678  0.808460  1
  O  O35  1  0.855475  0.840678  0.691540  1
  O  O36  1  0.907344  0.001345  0.177163  1
  O  O37  1  0.092656  0.501345  0.322837  1
  O  O38  1  0.092656  0.998655  0.822837  1
  O  O39  1  0.907344  0.498655  0.677163  1
  O  O40  1  0.629565  0.868892  0.105145  1
  O  O41  1  0.370435  0.368892  0.394855  1
  O  O42  1  0.370435  0.131108  0.894855  1
  O  O43  1  0.629565  0.631108  0.605145  1
  O  O44  1  0.863533  0.810521  0.967004  1
  O  O45  1  0.136467  0.310521  0.532996  1
  O  O46  1  0.136467  0.189479  0.032996  1
  O  O47  1  0.863533  0.689479  0.467004  1
