# generated using pymatgen
data_Sr8Ga16S31
_symmetry_space_group_name_H-M   'P 1'
_cell_length_a   11.98422369
_cell_length_b   12.08139149
_cell_length_c   12.25468049
_cell_angle_alpha   104.94459744
_cell_angle_beta   104.64359281
_cell_angle_gamma   118.67668436
_symmetry_Int_Tables_number   1
_chemical_formula_structural   Sr8Ga16S31
_chemical_formula_sum   'Sr8 Ga16 S31'
_cell_volume   1347.47320364
_cell_formula_units_Z   1
loop_
 _symmetry_equiv_pos_site_id
 _symmetry_equiv_pos_as_xyz
  1  'x, y, z'
loop_
 _atom_site_type_symbol
 _atom_site_label
 _atom_site_symmetry_multiplicity
 _atom_site_fract_x
 _atom_site_fract_y
 _atom_site_fract_z
 _atom_site_occupancy
  Sr  Sr0  1  0.126078  0.875571  0.248311  1
  Sr  Sr1  1  0.625283  0.877593  0.246272  1
  Sr  Sr2  1  0.375145  0.616562  0.749084  1
  Sr  Sr3  1  0.121813  0.372738  0.249651  1
  Sr  Sr4  1  0.877253  0.626296  0.750231  1
  Sr  Sr5  1  0.622767  0.370523  0.248785  1
  Sr  Sr6  1  0.375762  0.132852  0.751087  1
  Sr  Sr7  1  0.873440  0.124570  0.752292  1
  Ga  Ga8  1  0.378070  0.969159  0.995434  1
  Ga  Ga9  1  0.389358  0.862180  0.499949  1
  Ga  Ga10  1  0.136184  0.612579  0.999394  1
  Ga  Ga11  1  0.033025  0.640837  0.501618  1
  Ga  Ga12  1  0.858814  0.891112  0.997956  1
  Ga  Ga13  1  0.889149  0.862748  0.500235  1
  Ga  Ga14  1  0.531998  0.639413  0.499515  1
  Ga  Ga15  1  0.640244  0.532704  0.000071  1
  Ga  Ga16  1  0.360050  0.468114  0.001437  1
  Ga  Ga17  1  0.468705  0.361475  0.500789  1
  Ga  Ga18  1  0.108990  0.135776  0.498963  1
  Ga  Ga19  1  0.137472  0.106808  0.997646  1
  Ga  Ga20  1  0.969042  0.362343  0.501791  1
  Ga  Ga21  1  0.861761  0.385216  0.998047  1
  Ga  Ga22  1  0.610377  0.137171  0.501602  1
  Ga  Ga23  1  0.610213  0.023587  0.990129  1
  S  S24  1  0.165258  0.815353  0.995885  1
  S  S25  1  0.418338  0.918001  0.338192  1
  S  S26  1  0.190711  0.846757  0.506092  1
  S  S27  1  0.080481  0.580859  0.162128  1
  S  S28  1  0.686373  0.842948  0.498301  1
  S  S29  1  0.918380  0.917707  0.336246  1
  S  S30  1  0.349766  0.659890  0.503206  1
  S  S31  1  0.088034  0.586008  0.666755  1
  S  S32  1  0.843128  0.691220  0.998963  1
  S  S33  1  0.650215  0.849198  0.992191  1
  S  S34  1  0.917271  0.917773  0.835082  1
  S  S35  1  0.582998  0.582521  0.164049  1
  S  S36  1  0.340038  0.648748  0.998677  1
  S  S37  1  0.583265  0.583302  0.663967  1
  S  S38  1  0.150373  0.339855  0.499477  1
  S  S39  1  0.848730  0.658928  0.500139  1
  S  S40  1  0.416903  0.416931  0.336336  1
  S  S41  1  0.658126  0.350015  0.998687  1
  S  S42  1  0.416235  0.416999  0.835721  1
  S  S43  1  0.079971  0.080269  0.161449  1
  S  S44  1  0.341285  0.144205  0.993448  1
  S  S45  1  0.156271  0.309241  0.001348  1
  S  S46  1  0.919900  0.420985  0.338445  1
  S  S47  1  0.651920  0.341630  0.502795  1
  S  S48  1  0.080646  0.081662  0.663000  1
  S  S49  1  0.312700  0.157320  0.500486  1
  S  S50  1  0.588859  0.090108  0.181636  1
  S  S51  1  0.918053  0.417963  0.836259  1
  S  S52  1  0.814016  0.158657  0.503206  1
  S  S53  1  0.579831  0.080405  0.665411  1
  S  S54  1  0.828634  0.179918  0.997133  1
