# generated using pymatgen
data_ReSe2
_symmetry_space_group_name_H-M   'P 1'
_cell_length_a   6.66990999
_cell_length_b   6.79280670
_cell_length_c   7.19998192
_cell_angle_alpha   91.82629945
_cell_angle_beta   104.14796331
_cell_angle_gamma   118.81263982
_symmetry_Int_Tables_number   1
_chemical_formula_structural   ReSe2
_chemical_formula_sum   'Re4 Se8'
_cell_volume   272.82338782
_cell_formula_units_Z   4
loop_
 _symmetry_equiv_pos_site_id
 _symmetry_equiv_pos_as_xyz
  1  'x, y, z'
loop_
 _atom_site_type_symbol
 _atom_site_label
 _atom_site_symmetry_multiplicity
 _atom_site_fract_x
 _atom_site_fract_y
 _atom_site_fract_z
 _atom_site_occupancy
  Re  Re0  1  0.064232  0.316166  0.490846  1
  Re  Re1  1  0.935768  0.683834  0.509154  1
  Re  Re2  1  0.486745  0.290893  0.496785  1
  Re  Re3  1  0.513255  0.709107  0.503215  1
  Se  Se4  1  0.255349  0.386402  0.223832  1
  Se  Se5  1  0.744651  0.613598  0.776168  1
  Se  Se6  1  0.725892  0.342743  0.255420  1
  Se  Se7  1  0.274108  0.657257  0.744580  1
  Se  Se8  1  0.220389  0.106541  0.708452  1
  Se  Se9  1  0.779611  0.893459  0.291548  1
  Se  Se10  1  0.750788  0.134439  0.682474  1
  Se  Se11  1  0.249212  0.865561  0.317526  1
