# generated using pymatgen
data_K2ZrF6
_symmetry_space_group_name_H-M   'P 1'
_cell_length_a   6.72325504
_cell_length_b   6.72325504
_cell_length_c   7.08658682
_cell_angle_alpha   89.98276424
_cell_angle_beta   90.01723576
_cell_angle_gamma   59.44373359
_symmetry_Int_Tables_number   1
_chemical_formula_structural   K2ZrF6
_chemical_formula_sum   'K4 Zr2 F12'
_cell_volume   275.84498210
_cell_formula_units_Z   2
loop_
 _symmetry_equiv_pos_site_id
 _symmetry_equiv_pos_as_xyz
  1  'x, y, z'
loop_
 _atom_site_type_symbol
 _atom_site_label
 _atom_site_symmetry_multiplicity
 _atom_site_fract_x
 _atom_site_fract_y
 _atom_site_fract_z
 _atom_site_occupancy
  K  K0  1  0.360417  0.322843  0.503095  1
  K  K1  1  0.322843  0.360417  0.996905  1
  K  K2  1  0.639583  0.677157  0.496905  1
  K  K3  1  0.677157  0.639583  0.003095  1
  Zr  Zr4  1  0.046213  0.046213  0.750000  1
  Zr  Zr5  1  0.953787  0.953787  0.250000  1
  F  F6  1  0.061205  0.135292  0.044396  1
  F  F7  1  0.135292  0.061205  0.455604  1
  F  F8  1  0.938795  0.864708  0.955604  1
  F  F9  1  0.864708  0.938795  0.544396  1
  F  F10  1  0.381224  0.000418  0.776462  1
  F  F11  1  0.000418  0.381224  0.723538  1
  F  F12  1  0.305063  0.725298  0.213572  1
  F  F13  1  0.725298  0.305063  0.286428  1
  F  F14  1  0.694937  0.274702  0.786428  1
  F  F15  1  0.274702  0.694937  0.713572  1
  F  F16  1  0.999582  0.618776  0.276462  1
  F  F17  1  0.618776  0.999582  0.223538  1
