# generated using pymatgen
data_La3MnGaS7
_symmetry_space_group_name_H-M   'P 1'
_cell_length_a   10.26502361
_cell_length_b   10.26502361
_cell_length_c   6.07469527
_cell_angle_alpha   90.00000000
_cell_angle_beta   90.00000000
_cell_angle_gamma   120.00000000
_symmetry_Int_Tables_number   1
_chemical_formula_structural   La3MnGaS7
_chemical_formula_sum   'La6 Mn2 Ga2 S14'
_cell_volume   554.33848901
_cell_formula_units_Z   2
loop_
 _symmetry_equiv_pos_site_id
 _symmetry_equiv_pos_as_xyz
  1  'x, y, z'
loop_
 _atom_site_type_symbol
 _atom_site_label
 _atom_site_symmetry_multiplicity
 _atom_site_fract_x
 _atom_site_fract_y
 _atom_site_fract_z
 _atom_site_occupancy
  La  La0  1  0.139282  0.374290  0.000596  1
  La  La1  1  0.764992  0.139282  0.500596  1
  La  La2  1  0.374290  0.235008  0.500596  1
  La  La3  1  0.625710  0.764992  0.000596  1
  La  La4  1  0.235008  0.860718  0.000596  1
  La  La5  1  0.860718  0.625710  0.500596  1
  Mn  Mn6  1  0.000000  0.000000  0.227068  1
  Mn  Mn7  1  0.000000  0.000000  0.727068  1
  Ga  Ga8  1  0.666667  0.333333  0.081242  1
  Ga  Ga9  1  0.333333  0.666667  0.581242  1
  S  S10  1  0.234692  0.146194  0.965351  1
  S  S11  1  0.088498  0.234692  0.465351  1
  S  S12  1  0.146194  0.911502  0.465351  1
  S  S13  1  0.853806  0.088498  0.965351  1
  S  S14  1  0.911502  0.765308  0.965351  1
  S  S15  1  0.765308  0.853806  0.465351  1
  S  S16  1  0.517116  0.098726  0.231441  1
  S  S17  1  0.418390  0.517116  0.731441  1
  S  S18  1  0.098726  0.581610  0.731441  1
  S  S19  1  0.901274  0.418390  0.231441  1
  S  S20  1  0.581610  0.482884  0.231441  1
  S  S21  1  0.482884  0.901274  0.731441  1
  S  S22  1  0.333333  0.666667  0.210226  1
  S  S23  1  0.666667  0.333333  0.710226  1
