# generated using pymatgen
data_Pr5(CBr4)2
_symmetry_space_group_name_H-M   'P 1'
_cell_length_a   9.29346774
_cell_length_b   12.45059868
_cell_length_c   17.09196897
_cell_angle_alpha   100.13488522
_cell_angle_beta   90.10666655
_cell_angle_gamma   95.79886817
_symmetry_Int_Tables_number   1
_chemical_formula_structural   Pr5(CBr4)2
_chemical_formula_sum   'Pr20 C8 Br32'
_cell_volume   1936.48703834
_cell_formula_units_Z   4
loop_
 _symmetry_equiv_pos_site_id
 _symmetry_equiv_pos_as_xyz
  1  'x, y, z'
loop_
 _atom_site_type_symbol
 _atom_site_label
 _atom_site_symmetry_multiplicity
 _atom_site_fract_x
 _atom_site_fract_y
 _atom_site_fract_z
 _atom_site_occupancy
  Pr  Pr0  1  0.259523  0.005766  0.302039  1
  Pr  Pr1  1  0.129312  0.369328  0.226626  1
  Pr  Pr2  1  0.835366  0.934378  0.906642  1
  Pr  Pr3  1  0.164634  0.065622  0.093358  1
  Pr  Pr4  1  0.414133  0.565394  0.382258  1
  Pr  Pr5  1  0.553888  0.740104  0.753754  1
  Pr  Pr6  1  0.740477  0.994234  0.697961  1
  Pr  Pr7  1  0.658800  0.512629  0.200298  1
  Pr  Pr8  1  0.341200  0.487371  0.799702  1
  Pr  Pr9  1  0.585867  0.434606  0.617742  1
  Pr  Pr10  1  0.316811  0.627268  0.177181  1
  Pr  Pr11  1  0.380127  0.352045  0.036544  1
  Pr  Pr12  1  0.683189  0.372732  0.822819  1
  Pr  Pr13  1  0.914859  0.115473  0.275020  1
  Pr  Pr14  1  0.446112  0.259896  0.246246  1
  Pr  Pr15  1  0.177151  0.268445  0.441328  1
  Pr  Pr16  1  0.619873  0.647955  0.963456  1
  Pr  Pr17  1  0.870688  0.630672  0.773374  1
  Pr  Pr18  1  0.085141  0.884527  0.724980  1
  Pr  Pr19  1  0.822849  0.731555  0.558672  1
  C  C20  1  0.601772  0.523925  0.748733  1
  C  C21  1  0.818113  0.796446  0.694619  1
  C  C22  1  0.398228  0.476075  0.251267  1
  C  C23  1  0.822441  0.845407  0.775653  1
  C  C24  1  0.181887  0.203554  0.305381  1
  C  C25  1  0.177559  0.154593  0.224347  1
  C  C26  1  0.391390  0.427361  0.170456  1
  C  C27  1  0.608610  0.572639  0.829544  1
  Br  Br28  1  0.929777  0.725244  0.954269  1
  Br  Br29  1  0.868958  0.206691  0.444784  1
  Br  Br30  1  0.302099  0.565910  0.987424  1
  Br  Br31  1  0.522160  0.854882  0.929483  1
  Br  Br32  1  0.785318  0.312847  0.230874  1
  Br  Br33  1  0.002471  0.570826  0.181260  1
  Br  Br34  1  0.104161  0.488900  0.402901  1
  Br  Br35  1  0.214682  0.687153  0.769126  1
  Br  Br36  1  0.709900  0.926664  0.523549  1
  Br  Br37  1  0.427255  0.945678  0.718544  1
  Br  Br38  1  0.131042  0.793309  0.555216  1
  Br  Br39  1  0.497226  0.644367  0.570484  1
  Br  Br40  1  0.997529  0.429174  0.818740  1
  Br  Br41  1  0.037499  0.094595  0.686253  1
  Br  Br42  1  0.748635  0.141012  0.864622  1
  Br  Br43  1  0.251365  0.858988  0.135378  1
  Br  Br44  1  0.895840  0.511100  0.597099  1
  Br  Br45  1  0.663049  0.229830  0.662290  1
  Br  Br46  1  0.618437  0.724607  0.153004  1
  Br  Br47  1  0.070223  0.274756  0.045731  1
  Br  Br48  1  0.572745  0.054322  0.281456  1
  Br  Br49  1  0.336951  0.770170  0.337710  1
  Br  Br50  1  0.150045  0.996958  0.899882  1
  Br  Br51  1  0.962501  0.905405  0.313747  1
  Br  Br52  1  0.849955  0.003042  0.100118  1
  Br  Br53  1  0.697901  0.434090  0.012576  1
  Br  Br54  1  0.381563  0.275393  0.846996  1
  Br  Br55  1  0.729568  0.623980  0.368388  1
  Br  Br56  1  0.270432  0.376020  0.631612  1
  Br  Br57  1  0.477840  0.145118  0.070517  1
  Br  Br58  1  0.502774  0.355633  0.429516  1
  Br  Br59  1  0.290100  0.073336  0.476451  1
