# generated using pymatgen
data_Ca2SiH2O5
_symmetry_space_group_name_H-M   'P 1'
_cell_length_a   9.25271277
_cell_length_b   9.55352675
_cell_length_c   10.78945411
_cell_angle_alpha   90.00000000
_cell_angle_beta   90.00000000
_cell_angle_gamma   90.00000000
_symmetry_Int_Tables_number   1
_chemical_formula_structural   Ca2SiH2O5
_chemical_formula_sum   'Ca16 Si8 H16 O40'
_cell_volume   953.74500585
_cell_formula_units_Z   8
loop_
 _symmetry_equiv_pos_site_id
 _symmetry_equiv_pos_as_xyz
  1  'x, y, z'
loop_
 _atom_site_type_symbol
 _atom_site_label
 _atom_site_symmetry_multiplicity
 _atom_site_fract_x
 _atom_site_fract_y
 _atom_site_fract_z
 _atom_site_occupancy
  Ca  Ca0  1  0.831446  0.517050  0.069688  1
  Ca  Ca1  1  0.331446  0.482950  0.430312  1
  Ca  Ca2  1  0.668554  0.017050  0.930312  1
  Ca  Ca3  1  0.168554  0.982950  0.569688  1
  Ca  Ca4  1  0.168554  0.482950  0.930312  1
  Ca  Ca5  1  0.668554  0.517050  0.569688  1
  Ca  Ca6  1  0.331446  0.982950  0.069688  1
  Ca  Ca7  1  0.831446  0.017050  0.430312  1
  Ca  Ca8  1  0.995284  0.654051  0.387862  1
  Ca  Ca9  1  0.495284  0.345949  0.112138  1
  Ca  Ca10  1  0.504716  0.154051  0.612138  1
  Ca  Ca11  1  0.004716  0.845949  0.887862  1
  Ca  Ca12  1  0.004716  0.345949  0.612138  1
  Ca  Ca13  1  0.504716  0.654051  0.887862  1
  Ca  Ca14  1  0.495284  0.845949  0.387862  1
  Ca  Ca15  1  0.995284  0.154051  0.112138  1
  Si  Si16  1  0.786293  0.832068  0.159268  1
  Si  Si17  1  0.286293  0.167932  0.340732  1
  Si  Si18  1  0.713707  0.332068  0.840732  1
  Si  Si19  1  0.213707  0.667932  0.659268  1
  Si  Si20  1  0.213707  0.167932  0.840732  1
  Si  Si21  1  0.713707  0.832068  0.659268  1
  Si  Si22  1  0.286293  0.667932  0.159268  1
  Si  Si23  1  0.786293  0.332068  0.340732  1
  H  H24  1  0.557442  0.760598  0.122401  1
  H  H25  1  0.057442  0.239402  0.377599  1
  H  H26  1  0.942558  0.260598  0.877599  1
  H  H27  1  0.442558  0.739402  0.622401  1
  H  H28  1  0.442558  0.239402  0.877599  1
  H  H29  1  0.942558  0.760598  0.622401  1
  H  H30  1  0.057442  0.739402  0.122401  1
  H  H31  1  0.557442  0.260598  0.377599  1
  H  H32  1  0.600327  0.572230  0.325613  1
  H  H33  1  0.100327  0.427770  0.174387  1
  H  H34  1  0.899673  0.072230  0.674387  1
  H  H35  1  0.399673  0.927770  0.825613  1
  H  H36  1  0.399673  0.427770  0.674387  1
  H  H37  1  0.899673  0.572230  0.825613  1
  H  H38  1  0.100327  0.927770  0.325613  1
  H  H39  1  0.600327  0.072230  0.174387  1
  O  O40  1  0.860172  0.945700  0.063857  1
  O  O41  1  0.360172  0.054300  0.436143  1
  O  O42  1  0.639828  0.445700  0.936143  1
  O  O43  1  0.139828  0.554300  0.563857  1
  O  O44  1  0.139828  0.054300  0.936143  1
  O  O45  1  0.639828  0.945700  0.563857  1
  O  O46  1  0.360172  0.554300  0.063857  1
  O  O47  1  0.860172  0.445700  0.436143  1
  O  O48  1  0.652534  0.750548  0.074814  1
  O  O49  1  0.152534  0.249452  0.425186  1
  O  O50  1  0.847466  0.250548  0.925186  1
  O  O51  1  0.347466  0.749452  0.574814  1
  O  O52  1  0.347466  0.249452  0.925186  1
  O  O53  1  0.847466  0.750548  0.574814  1
  O  O54  1  0.152534  0.749452  0.074814  1
  O  O55  1  0.652534  0.250548  0.425186  1
  O  O56  1  0.902168  0.706982  0.190699  1
  O  O57  1  0.402168  0.293018  0.309301  1
  O  O58  1  0.597832  0.206982  0.809301  1
  O  O59  1  0.097832  0.793018  0.690699  1
  O  O60  1  0.097832  0.293018  0.809301  1
  O  O61  1  0.597832  0.706982  0.690699  1
  O  O62  1  0.402168  0.793018  0.190699  1
  O  O63  1  0.902168  0.206982  0.309301  1
  O  O64  1  0.707190  0.900972  0.279208  1
  O  O65  1  0.207190  0.099028  0.220792  1
  O  O66  1  0.792810  0.400972  0.720792  1
  O  O67  1  0.292810  0.599028  0.779208  1
  O  O68  1  0.292810  0.099028  0.720792  1
  O  O69  1  0.792810  0.900972  0.779208  1
  O  O70  1  0.207190  0.599028  0.279208  1
  O  O71  1  0.707190  0.400972  0.220792  1
  O  O72  1  0.547184  0.607242  0.397619  1
  O  O73  1  0.047184  0.392758  0.102381  1
  O  O74  1  0.952816  0.107242  0.602381  1
  O  O75  1  0.452816  0.892758  0.897619  1
  O  O76  1  0.452816  0.392758  0.602381  1
  O  O77  1  0.952816  0.607242  0.897619  1
  O  O78  1  0.047184  0.892758  0.397619  1
  O  O79  1  0.547184  0.107242  0.102381  1
