# generated using pymatgen
data_CsNb6I11
_symmetry_space_group_name_H-M   'P 1'
_cell_length_a   11.27850455
_cell_length_b   11.27850455
_cell_length_c   12.14987508
_cell_angle_alpha   90.00000000
_cell_angle_beta   90.00000000
_cell_angle_gamma   120.00000000
_symmetry_Int_Tables_number   1
_chemical_formula_structural   CsNb6I11
_chemical_formula_sum   'Cs2 Nb12 I22'
_cell_volume   1338.46026551
_cell_formula_units_Z   2
loop_
 _symmetry_equiv_pos_site_id
 _symmetry_equiv_pos_as_xyz
  1  'x, y, z'
loop_
 _atom_site_type_symbol
 _atom_site_label
 _atom_site_symmetry_multiplicity
 _atom_site_fract_x
 _atom_site_fract_y
 _atom_site_fract_z
 _atom_site_occupancy
  Cs  Cs0  1  0.000000  0.000000  0.250000  1
  Cs  Cs1  1  0.000000  0.000000  0.750000  1
  Nb  Nb2  1  0.482171  0.677163  0.347179  1
  Nb  Nb3  1  0.517829  0.194992  0.652821  1
  Nb  Nb4  1  0.194992  0.517829  0.347179  1
  Nb  Nb5  1  0.482171  0.805008  0.152821  1
  Nb  Nb6  1  0.805008  0.482171  0.847179  1
  Nb  Nb7  1  0.322837  0.805008  0.347179  1
  Nb  Nb8  1  0.805008  0.322837  0.652821  1
  Nb  Nb9  1  0.677163  0.194992  0.847179  1
  Nb  Nb10  1  0.677163  0.482171  0.652821  1
  Nb  Nb11  1  0.322837  0.517829  0.152821  1
  Nb  Nb12  1  0.517829  0.322837  0.847179  1
  Nb  Nb13  1  0.194992  0.677163  0.152821  1
  I  I14  1  0.973779  0.622773  0.658605  1
  I  I15  1  0.622773  0.973779  0.341395  1
  I  I16  1  0.351006  0.377227  0.341395  1
  I  I17  1  0.377227  0.351006  0.658605  1
  I  I18  1  0.648994  0.622773  0.841395  1
  I  I19  1  0.284102  0.000000  0.500000  1
  I  I20  1  0.715898  0.715898  0.500000  1
  I  I21  1  0.973779  0.351006  0.841395  1
  I  I22  1  0.377227  0.026221  0.841395  1
  I  I23  1  0.351006  0.973779  0.158605  1
  I  I24  1  0.715898  0.000000  0.000000  1
  I  I25  1  0.333333  0.666667  0.957912  1
  I  I26  1  0.333333  0.666667  0.542088  1
  I  I27  1  0.666667  0.333333  0.042088  1
  I  I28  1  0.026221  0.377227  0.158605  1
  I  I29  1  0.284102  0.284102  0.000000  1
  I  I30  1  0.648994  0.026221  0.658605  1
  I  I31  1  0.026221  0.648994  0.341395  1
  I  I32  1  0.622773  0.648994  0.158605  1
  I  I33  1  0.000000  0.715898  0.000000  1
  I  I34  1  0.000000  0.284102  0.500000  1
  I  I35  1  0.666667  0.333333  0.457912  1
