# generated using pymatgen
data_NaZr2CoF11
_symmetry_space_group_name_H-M   'P 1'
_cell_length_a   5.75203744
_cell_length_b   5.75203744
_cell_length_c   7.90405860
_cell_angle_alpha   69.19540641
_cell_angle_beta   110.80459359
_cell_angle_gamma   107.31878980
_symmetry_Int_Tables_number   1
_chemical_formula_structural   NaZr2CoF11
_chemical_formula_sum   'Na1 Zr2 Co1 F11'
_cell_volume   224.07614442
_cell_formula_units_Z   1
loop_
 _symmetry_equiv_pos_site_id
 _symmetry_equiv_pos_as_xyz
  1  'x, y, z'
loop_
 _atom_site_type_symbol
 _atom_site_label
 _atom_site_symmetry_multiplicity
 _atom_site_fract_x
 _atom_site_fract_y
 _atom_site_fract_z
 _atom_site_occupancy
  Na  Na0  1  0.000000  0.000000  0.000000  1
  Zr  Zr1  1  0.505956  0.494044  0.236332  1
  Zr  Zr2  1  0.494044  0.505956  0.763668  1
  Co  Co3  1  0.000000  0.000000  0.500000  1
  F  F4  1  0.780238  0.810241  0.688148  1
  F  F5  1  0.219762  0.189759  0.311852  1
  F  F6  1  0.267603  0.732397  0.110020  1
  F  F7  1  0.671358  0.671358  0.000000  1
  F  F8  1  0.753131  0.246869  0.351623  1
  F  F9  1  0.328642  0.328642  0.000000  1
  F  F10  1  0.810241  0.780238  0.311852  1
  F  F11  1  0.189759  0.219762  0.688148  1
  F  F12  1  0.732397  0.267603  0.889980  1
  F  F13  1  0.246869  0.753131  0.648377  1
  F  F14  1  0.500000  0.500000  0.500000  1
