# generated using pymatgen
data_TaTl2AgS4
_symmetry_space_group_name_H-M   'P 1'
_cell_length_a   8.12681757
_cell_length_b   10.62038951
_cell_length_c   13.00487460
_cell_angle_alpha   90.00000000
_cell_angle_beta   127.66960437
_cell_angle_gamma   90.00000000
_symmetry_Int_Tables_number   1
_chemical_formula_structural   TaTl2AgS4
_chemical_formula_sum   'Ta4 Tl8 Ag4 S16'
_cell_volume   888.47311821
_cell_formula_units_Z   4
loop_
 _symmetry_equiv_pos_site_id
 _symmetry_equiv_pos_as_xyz
  1  'x, y, z'
loop_
 _atom_site_type_symbol
 _atom_site_label
 _atom_site_symmetry_multiplicity
 _atom_site_fract_x
 _atom_site_fract_y
 _atom_site_fract_z
 _atom_site_occupancy
  Ta  Ta0  1  0.923577  0.274308  0.546552  1
  Ta  Ta1  1  0.076423  0.774308  0.953448  1
  Ta  Ta2  1  0.923577  0.225692  0.046552  1
  Ta  Ta3  1  0.076423  0.725692  0.453448  1
  Tl  Tl4  1  0.396580  0.229082  0.502627  1
  Tl  Tl5  1  0.660536  0.005269  0.274457  1
  Tl  Tl6  1  0.339464  0.994731  0.725543  1
  Tl  Tl7  1  0.603420  0.770918  0.497373  1
  Tl  Tl8  1  0.660536  0.494731  0.774457  1
  Tl  Tl9  1  0.339464  0.505269  0.225543  1
  Tl  Tl10  1  0.396580  0.270918  0.002627  1
  Tl  Tl11  1  0.603420  0.729082  0.997373  1
  Ag  Ag12  1  0.088966  0.512137  0.711978  1
  Ag  Ag13  1  0.911034  0.487863  0.288022  1
  Ag  Ag14  1  0.911034  0.012137  0.788022  1
  Ag  Ag15  1  0.088966  0.987863  0.211978  1
  S  S16  1  0.880059  0.234667  0.855801  1
  S  S17  1  0.813957  0.081425  0.564942  1
  S  S18  1  0.119941  0.734667  0.644199  1
  S  S19  1  0.729311  0.689585  0.285430  1
  S  S20  1  0.186043  0.581425  0.935058  1
  S  S21  1  0.715374  0.070773  0.034103  1
  S  S22  1  0.284626  0.570773  0.465897  1
  S  S23  1  0.119941  0.765333  0.144199  1
  S  S24  1  0.813957  0.418575  0.064942  1
  S  S25  1  0.729311  0.810415  0.785430  1
  S  S26  1  0.270689  0.189585  0.214570  1
  S  S27  1  0.186043  0.918575  0.435058  1
  S  S28  1  0.270689  0.310415  0.714570  1
  S  S29  1  0.880059  0.265333  0.355801  1
  S  S30  1  0.284626  0.929227  0.965897  1
  S  S31  1  0.715374  0.429227  0.534103  1
