# generated using pymatgen
data_Pr3CuGeSe7
_symmetry_space_group_name_H-M   'P 1'
_cell_length_a   10.70549760
_cell_length_b   10.70549760
_cell_length_c   6.18185454
_cell_angle_alpha   90.00000000
_cell_angle_beta   90.00000000
_cell_angle_gamma   120.00000000
_symmetry_Int_Tables_number   1
_chemical_formula_structural   Pr3CuGeSe7
_chemical_formula_sum   'Pr6 Cu2 Ge2 Se14'
_cell_volume   613.56860655
_cell_formula_units_Z   2
loop_
 _symmetry_equiv_pos_site_id
 _symmetry_equiv_pos_as_xyz
  1  'x, y, z'
loop_
 _atom_site_type_symbol
 _atom_site_label
 _atom_site_symmetry_multiplicity
 _atom_site_fract_x
 _atom_site_fract_y
 _atom_site_fract_z
 _atom_site_occupancy
  Pr  Pr0  1  0.130379  0.355449  0.748484  1
  Pr  Pr1  1  0.225070  0.869621  0.748484  1
  Pr  Pr2  1  0.644551  0.774930  0.748484  1
  Pr  Pr3  1  0.355449  0.225070  0.248484  1
  Pr  Pr4  1  0.774930  0.130379  0.248484  1
  Pr  Pr5  1  0.869621  0.644551  0.248484  1
  Cu  Cu6  1  0.000000  0.000000  0.217025  1
  Cu  Cu7  1  0.000000  0.000000  0.717025  1
  Ge  Ge8  1  0.666667  0.333333  0.832131  1
  Ge  Ge9  1  0.333333  0.666667  0.332131  1
  Se  Se10  1  0.161550  0.905850  0.230144  1
  Se  Se11  1  0.255700  0.161550  0.730144  1
  Se  Se12  1  0.519228  0.098870  0.989438  1
  Se  Se13  1  0.333333  0.666667  0.950445  1
  Se  Se14  1  0.905850  0.744300  0.730144  1
  Se  Se15  1  0.666667  0.333333  0.450445  1
  Se  Se16  1  0.579642  0.480772  0.989438  1
  Se  Se17  1  0.098870  0.579642  0.489438  1
  Se  Se18  1  0.420358  0.519228  0.489438  1
  Se  Se19  1  0.744300  0.838450  0.230144  1
  Se  Se20  1  0.901130  0.420358  0.989438  1
  Se  Se21  1  0.838450  0.094150  0.730144  1
  Se  Se22  1  0.094150  0.255700  0.230144  1
  Se  Se23  1  0.480772  0.901130  0.489438  1
