# generated using pymatgen
data_V2O5
_symmetry_space_group_name_H-M   'P 1'
_cell_length_a   6.47206082
_cell_length_b   6.47206082
_cell_length_c   5.39244709
_cell_angle_alpha   77.31237655
_cell_angle_beta   102.68762345
_cell_angle_gamma   137.18794254
_symmetry_Int_Tables_number   1
_chemical_formula_structural   V2O5
_chemical_formula_sum   'V4 O10'
_cell_volume   149.17205482
_cell_formula_units_Z   2
loop_
 _symmetry_equiv_pos_site_id
 _symmetry_equiv_pos_as_xyz
  1  'x, y, z'
loop_
 _atom_site_type_symbol
 _atom_site_label
 _atom_site_symmetry_multiplicity
 _atom_site_fract_x
 _atom_site_fract_y
 _atom_site_fract_z
 _atom_site_occupancy
  V  V0  1  0.383142  0.097388  0.247337  1
  V  V1  1  0.902612  0.616858  0.747337  1
  V  V2  1  0.616858  0.902612  0.752663  1
  V  V3  1  0.097388  0.383142  0.252663  1
  O  O4  1  0.670132  0.450213  0.482447  1
  O  O5  1  0.450213  0.670132  0.017553  1
  O  O6  1  0.549787  0.329868  0.982447  1
  O  O7  1  0.329868  0.549787  0.517553  1
  O  O8  1  0.866745  0.273623  0.868417  1
  O  O9  1  0.726377  0.133255  0.368417  1
  O  O10  1  0.133255  0.726377  0.131583  1
  O  O11  1  0.273623  0.866745  0.631583  1
  O  O12  1  0.114771  0.114771  0.250000  1
  O  O13  1  0.885229  0.885229  0.750000  1
