# generated using pymatgen
data_Ca(BH4)2
_symmetry_space_group_name_H-M   'P 1'
_cell_length_a   7.35432216
_cell_length_b   8.76523218
_cell_length_c   13.35253547
_cell_angle_alpha   90.00000000
_cell_angle_beta   90.00000000
_cell_angle_gamma   90.00000000
_symmetry_Int_Tables_number   1
_chemical_formula_structural   Ca(BH4)2
_chemical_formula_sum   'Ca8 B16 H64'
_cell_volume   860.73569814
_cell_formula_units_Z   8
loop_
 _symmetry_equiv_pos_site_id
 _symmetry_equiv_pos_as_xyz
  1  'x, y, z'
loop_
 _atom_site_type_symbol
 _atom_site_label
 _atom_site_symmetry_multiplicity
 _atom_site_fract_x
 _atom_site_fract_y
 _atom_site_fract_z
 _atom_site_occupancy
  Ca  Ca0  1  0.686578  0.431597  0.114620  1
  Ca  Ca1  1  0.313422  0.068403  0.614620  1
  Ca  Ca2  1  0.813422  0.931597  0.885380  1
  Ca  Ca3  1  0.186578  0.568403  0.385380  1
  Ca  Ca4  1  0.313422  0.568403  0.885380  1
  Ca  Ca5  1  0.686578  0.931597  0.385380  1
  Ca  Ca6  1  0.813422  0.431597  0.614620  1
  Ca  Ca7  1  0.186578  0.068403  0.114620  1
  B  B8  1  0.539514  0.053856  0.781094  1
  B  B9  1  0.460486  0.446144  0.281094  1
  B  B10  1  0.856342  0.687084  0.484920  1
  B  B11  1  0.960486  0.553856  0.218906  1
  B  B12  1  0.356342  0.812916  0.484920  1
  B  B13  1  0.039514  0.946144  0.718906  1
  B  B14  1  0.643658  0.187084  0.515080  1
  B  B15  1  0.143658  0.312916  0.515080  1
  B  B16  1  0.539514  0.553856  0.718906  1
  B  B17  1  0.460486  0.946144  0.218906  1
  B  B18  1  0.039514  0.446144  0.781094  1
  B  B19  1  0.856342  0.187084  0.015080  1
  B  B20  1  0.643658  0.687084  0.984920  1
  B  B21  1  0.143658  0.812916  0.984920  1
  B  B22  1  0.960486  0.053856  0.281094  1
  B  B23  1  0.356342  0.312916  0.015080  1
  H  H24  1  0.994154  0.483872  0.141379  1
  H  H25  1  0.274667  0.899162  0.986231  1
  H  H26  1  0.512450  0.635841  0.031104  1
  H  H27  1  0.494154  0.016128  0.141379  1
  H  H28  1  0.725333  0.100838  0.013769  1
  H  H29  1  0.505846  0.983872  0.858621  1
  H  H30  1  0.919632  0.350348  0.770268  1
  H  H31  1  0.080368  0.649652  0.229732  1
  H  H32  1  0.987550  0.635841  0.531104  1
  H  H33  1  0.314437  0.378264  0.286467  1
  H  H34  1  0.819705  0.808233  0.525329  1
  H  H35  1  0.819705  0.308233  0.974671  1
  H  H36  1  0.451392  0.538398  0.211641  1
  H  H37  1  0.994154  0.983872  0.358621  1
  H  H38  1  0.774667  0.100838  0.513769  1
  H  H39  1  0.451392  0.038398  0.288359  1
  H  H40  1  0.602374  0.706292  0.896486  1
  H  H41  1  0.951392  0.461602  0.288359  1
  H  H42  1  0.548608  0.461602  0.788359  1
  H  H43  1  0.487550  0.864159  0.531104  1
  H  H44  1  0.274667  0.399162  0.513769  1
  H  H45  1  0.774667  0.600838  0.986231  1
  H  H46  1  0.397626  0.293708  0.103514  1
  H  H47  1  0.951392  0.961602  0.211641  1
  H  H48  1  0.548608  0.961602  0.711641  1
  H  H49  1  0.180295  0.691767  0.025329  1
  H  H50  1  0.314437  0.878264  0.213533  1
  H  H51  1  0.580368  0.350348  0.270268  1
  H  H52  1  0.319705  0.191767  0.974671  1
  H  H53  1  0.080368  0.149652  0.270268  1
  H  H54  1  0.419632  0.149652  0.770268  1
  H  H55  1  0.419632  0.649652  0.729732  1
  H  H56  1  0.987550  0.135841  0.968896  1
  H  H57  1  0.180295  0.191767  0.474671  1
  H  H58  1  0.680295  0.308233  0.474671  1
  H  H59  1  0.005846  0.016128  0.641379  1
  H  H60  1  0.897626  0.706292  0.396486  1
  H  H61  1  0.048608  0.538398  0.711641  1
  H  H62  1  0.512450  0.135841  0.468896  1
  H  H63  1  0.580368  0.850348  0.229732  1
  H  H64  1  0.725333  0.600838  0.486231  1
  H  H65  1  0.814437  0.121736  0.286467  1
  H  H66  1  0.680295  0.808233  0.025329  1
  H  H67  1  0.102374  0.293708  0.603514  1
  H  H68  1  0.102374  0.793708  0.896486  1
  H  H69  1  0.602374  0.206292  0.603514  1
  H  H70  1  0.505846  0.483872  0.641379  1
  H  H71  1  0.487550  0.364159  0.968896  1
  H  H72  1  0.919632  0.850348  0.729732  1
  H  H73  1  0.494154  0.516128  0.358621  1
  H  H74  1  0.319705  0.691767  0.525329  1
  H  H75  1  0.012450  0.864159  0.031104  1
  H  H76  1  0.185563  0.878264  0.713533  1
  H  H77  1  0.685563  0.121736  0.786467  1
  H  H78  1  0.048608  0.038398  0.788359  1
  H  H79  1  0.012450  0.364159  0.468896  1
  H  H80  1  0.185563  0.378264  0.786467  1
  H  H81  1  0.397626  0.793708  0.396486  1
  H  H82  1  0.225333  0.899162  0.486231  1
  H  H83  1  0.814437  0.621736  0.213533  1
  H  H84  1  0.005846  0.516128  0.858621  1
  H  H85  1  0.225333  0.399162  0.013769  1
  H  H86  1  0.897626  0.206292  0.103514  1
  H  H87  1  0.685563  0.621736  0.713533  1
