# generated using pymatgen
data_Ba2Mn3(SeO3)6
_symmetry_space_group_name_H-M   'P 1'
_cell_length_a   5.56764133
_cell_length_b   9.24616610
_cell_length_c   18.18294632
_cell_angle_alpha   90.00000000
_cell_angle_beta   94.52090256
_cell_angle_gamma   90.00000000
_symmetry_Int_Tables_number   1
_chemical_formula_structural   Ba2Mn3(SeO3)6
_chemical_formula_sum   'Ba4 Mn6 Se12 O36'
_cell_volume   933.13364101
_cell_formula_units_Z   2
loop_
 _symmetry_equiv_pos_site_id
 _symmetry_equiv_pos_as_xyz
  1  'x, y, z'
loop_
 _atom_site_type_symbol
 _atom_site_label
 _atom_site_symmetry_multiplicity
 _atom_site_fract_x
 _atom_site_fract_y
 _atom_site_fract_z
 _atom_site_occupancy
  Ba  Ba0  1  0.980930  0.334987  0.204007  1
  Ba  Ba1  1  0.980930  0.165013  0.704007  1
  Ba  Ba2  1  0.019070  0.665013  0.795993  1
  Ba  Ba3  1  0.019070  0.834987  0.295993  1
  Mn  Mn4  1  0.515331  0.500785  0.664139  1
  Mn  Mn5  1  0.000000  0.000000  0.500000  1
  Mn  Mn6  1  0.484669  0.499215  0.335861  1
  Mn  Mn7  1  0.000000  0.500000  0.000000  1
  Mn  Mn8  1  0.515331  0.999215  0.164139  1
  Mn  Mn9  1  0.484669  0.000785  0.835861  1
  Se  Se10  1  0.010279  0.858876  0.068219  1
  Se  Se11  1  0.010279  0.641124  0.568219  1
  Se  Se12  1  0.498153  0.703581  0.952377  1
  Se  Se13  1  0.501847  0.296419  0.047623  1
  Se  Se14  1  0.501847  0.203581  0.547623  1
  Se  Se15  1  0.505438  0.146611  0.312290  1
  Se  Se16  1  0.989721  0.141124  0.931781  1
  Se  Se17  1  0.494562  0.853389  0.687710  1
  Se  Se18  1  0.498153  0.796419  0.452377  1
  Se  Se19  1  0.505438  0.353389  0.812290  1
  Se  Se20  1  0.989721  0.358876  0.431781  1
  Se  Se21  1  0.494562  0.646611  0.187710  1
  O  O22  1  0.282612  0.565960  0.240788  1
  O  O23  1  0.717427  0.042900  0.917930  1
  O  O24  1  0.905544  0.181844  0.422054  1
  O  O25  1  0.394752  0.683312  0.377723  1
  O  O26  1  0.558438  0.324560  0.281841  1
  O  O27  1  0.860454  0.610573  0.646231  1
  O  O28  1  0.441562  0.824560  0.218159  1
  O  O29  1  0.292289  0.568083  0.931170  1
  O  O30  1  0.139546  0.110573  0.853769  1
  O  O31  1  0.282612  0.934040  0.740788  1
  O  O32  1  0.762510  0.636524  0.923505  1
  O  O33  1  0.717427  0.457100  0.417930  1
  O  O34  1  0.237490  0.363476  0.076495  1
  O  O35  1  0.707711  0.068083  0.568830  1
  O  O36  1  0.717388  0.065960  0.259212  1
  O  O37  1  0.739121  0.599340  0.246588  1
  O  O38  1  0.441562  0.675440  0.718159  1
  O  O39  1  0.717388  0.434040  0.759212  1
  O  O40  1  0.260879  0.400660  0.753412  1
  O  O41  1  0.605248  0.183312  0.122277  1
  O  O42  1  0.739121  0.900660  0.746588  1
  O  O43  1  0.139546  0.389427  0.353769  1
  O  O44  1  0.762510  0.863476  0.423505  1
  O  O45  1  0.292289  0.931917  0.431170  1
  O  O46  1  0.394752  0.816688  0.877723  1
  O  O47  1  0.605248  0.316688  0.622277  1
  O  O48  1  0.905544  0.318156  0.922054  1
  O  O49  1  0.282573  0.542900  0.582070  1
  O  O50  1  0.558438  0.175440  0.781841  1
  O  O51  1  0.237490  0.136524  0.576495  1
  O  O52  1  0.860454  0.889427  0.146231  1
  O  O53  1  0.260879  0.099340  0.253412  1
  O  O54  1  0.094456  0.681844  0.077946  1
  O  O55  1  0.707711  0.431917  0.068830  1
  O  O56  1  0.094456  0.818156  0.577946  1
  O  O57  1  0.282573  0.957100  0.082070  1
