# generated using pymatgen
data_La4Al5Br2
_symmetry_space_group_name_H-M   'P 1'
_cell_length_a   11.87201446
_cell_length_b   11.87201446
_cell_length_c   4.36389285
_cell_angle_alpha   90.00000000
_cell_angle_beta   90.00000000
_cell_angle_gamma   93.68466755
_symmetry_Int_Tables_number   1
_chemical_formula_structural   La4Al5Br2
_chemical_formula_sum   'La8 Al10 Br4'
_cell_volume   613.79625207
_cell_formula_units_Z   2
loop_
 _symmetry_equiv_pos_site_id
 _symmetry_equiv_pos_as_xyz
  1  'x, y, z'
loop_
 _atom_site_type_symbol
 _atom_site_label
 _atom_site_symmetry_multiplicity
 _atom_site_fract_x
 _atom_site_fract_y
 _atom_site_fract_z
 _atom_site_occupancy
  La  La0  1  0.734949  0.734949  0.000000  1
  La  La1  1  0.040306  0.676892  0.500000  1
  La  La2  1  0.363712  0.636288  0.000000  1
  La  La3  1  0.959694  0.323108  0.500000  1
  La  La4  1  0.265051  0.265051  0.000000  1
  La  La5  1  0.636288  0.363712  0.000000  1
  La  La6  1  0.676892  0.040306  0.500000  1
  La  La7  1  0.323108  0.959694  0.500000  1
  Al  Al8  1  0.579158  0.579158  0.500000  1
  Al  Al9  1  0.420842  0.420842  0.500000  1
  Al  Al10  1  0.216094  0.479718  0.500000  1
  Al  Al11  1  0.783906  0.520282  0.500000  1
  Al  Al12  1  0.528561  0.897973  0.000000  1
  Al  Al13  1  0.520282  0.783906  0.500000  1
  Al  Al14  1  0.471439  0.102027  0.000000  1
  Al  Al15  1  0.102027  0.471439  0.000000  1
  Al  Al16  1  0.479718  0.216094  0.500000  1
  Al  Al17  1  0.897973  0.528561  0.000000  1
  Br  Br18  1  0.877366  0.877366  0.500000  1
  Br  Br19  1  0.172266  0.827734  0.000000  1
  Br  Br20  1  0.122634  0.122634  0.500000  1
  Br  Br21  1  0.827734  0.172266  0.000000  1
