# generated using pymatgen
data_ErCu(WO4)2
_symmetry_space_group_name_H-M   'P 1'
_cell_length_a   5.13962515
_cell_length_b   6.05972372
_cell_length_c   6.08419500
_cell_angle_alpha   108.90372983
_cell_angle_beta   91.43945958
_cell_angle_gamma   114.40109284
_symmetry_Int_Tables_number   1
_chemical_formula_structural   ErCu(WO4)2
_chemical_formula_sum   'Er1 Cu1 W2 O8'
_cell_volume   160.45407669
_cell_formula_units_Z   1
loop_
 _symmetry_equiv_pos_site_id
 _symmetry_equiv_pos_as_xyz
  1  'x, y, z'
loop_
 _atom_site_type_symbol
 _atom_site_label
 _atom_site_symmetry_multiplicity
 _atom_site_fract_x
 _atom_site_fract_y
 _atom_site_fract_z
 _atom_site_occupancy
  Er  Er0  1  0.000000  0.500000  0.000000  1
  Cu  Cu1  1  0.500000  0.500000  0.500000  1
  W  W2  1  0.748140  0.009841  0.328357  1
  W  W3  1  0.251860  0.990159  0.671643  1
  O  O4  1  0.478093  0.755681  0.070568  1
  O  O5  1  0.980052  0.243540  0.206206  1
  O  O6  1  0.459029  0.795579  0.524890  1
  O  O7  1  0.025762  0.192473  0.668204  1
  O  O8  1  0.019948  0.756460  0.793794  1
  O  O9  1  0.521907  0.244319  0.929432  1
  O  O10  1  0.540971  0.204421  0.475110  1
  O  O11  1  0.974238  0.807527  0.331796  1
