# generated using pymatgen
data_TmPO4
_symmetry_space_group_name_H-M   'P 1'
_cell_length_a   5.71330133
_cell_length_b   5.71330133
_cell_length_c   5.71330133
_cell_angle_alpha   105.97295624
_cell_angle_beta   105.97295624
_cell_angle_gamma   116.72012631
_symmetry_Int_Tables_number   1
_chemical_formula_structural   TmPO4
_chemical_formula_sum   'Tm2 P2 O8'
_cell_volume   141.81777644
_cell_formula_units_Z   2
loop_
 _symmetry_equiv_pos_site_id
 _symmetry_equiv_pos_as_xyz
  1  'x, y, z'
loop_
 _atom_site_type_symbol
 _atom_site_label
 _atom_site_symmetry_multiplicity
 _atom_site_fract_x
 _atom_site_fract_y
 _atom_site_fract_z
 _atom_site_occupancy
  Tm  Tm0  1  0.000000  0.000000  0.000000  1
  Tm  Tm1  1  0.250000  0.750000  0.500000  1
  P  P2  1  0.750000  0.250000  0.500000  1
  P  P3  1  0.500000  0.500000  0.000000  1
  O  O4  1  0.486788  0.662632  0.824155  1
  O  O5  1  0.912632  0.588477  0.675844  1
  O  O6  1  0.912632  0.236788  0.324156  1
  O  O7  1  0.838477  0.662632  0.175844  1
  O  O8  1  0.337368  0.161523  0.824156  1
  O  O9  1  0.763212  0.087368  0.675844  1
  O  O10  1  0.411523  0.087368  0.324156  1
  O  O11  1  0.337368  0.513212  0.175844  1
