# generated using pymatgen
data_CsK2BiCl6
_symmetry_space_group_name_H-M   'P 1'
_cell_length_a   13.61967840
_cell_length_b   13.61967840
_cell_length_c   13.25854250
_cell_angle_alpha   81.35997781
_cell_angle_beta   98.64002219
_cell_angle_gamma   146.25203345
_symmetry_Int_Tables_number   1
_chemical_formula_structural   CsK2BiCl6
_chemical_formula_sum   'Cs4 K8 Bi4 Cl24'
_cell_volume   1349.35714839
_cell_formula_units_Z   4
loop_
 _symmetry_equiv_pos_site_id
 _symmetry_equiv_pos_as_xyz
  1  'x, y, z'
loop_
 _atom_site_type_symbol
 _atom_site_label
 _atom_site_symmetry_multiplicity
 _atom_site_fract_x
 _atom_site_fract_y
 _atom_site_fract_z
 _atom_site_occupancy
  Cs  Cs0  1  0.788242  0.685387  0.430258  1
  Cs  Cs1  1  0.211758  0.314613  0.569742  1
  Cs  Cs2  1  0.314613  0.211758  0.930258  1
  Cs  Cs3  1  0.685387  0.788242  0.069742  1
  K  K4  1  0.469851  0.156546  0.631189  1
  K  K5  1  0.976692  0.652786  0.799457  1
  K  K6  1  0.652786  0.976692  0.700543  1
  K  K7  1  0.530149  0.843454  0.368811  1
  K  K8  1  0.156546  0.469851  0.868811  1
  K  K9  1  0.023308  0.347214  0.200543  1
  K  K10  1  0.843454  0.530149  0.131189  1
  K  K11  1  0.347214  0.023308  0.299457  1
  Bi  Bi12  1  1.000000  0.500000  0.500000  1
  Bi  Bi13  1  0.221885  0.221885  0.250000  1
  Bi  Bi14  1  0.778115  0.778115  0.750000  1
  Bi  Bi15  1  0.500000  0.000000  0.000000  1
  Cl  Cl16  1  0.138738  0.639146  0.307906  1
  Cl  Cl17  1  0.391958  0.522412  0.315054  1
  Cl  Cl18  1  0.140618  0.795465  0.526530  1
  Cl  Cl19  1  0.697813  0.349380  0.426000  1
  Cl  Cl20  1  0.650620  0.302187  0.926000  1
  Cl  Cl21  1  0.477588  0.608042  0.815054  1
  Cl  Cl22  1  0.795465  0.140618  0.973470  1
  Cl  Cl23  1  0.907066  0.035745  0.299490  1
  Cl  Cl24  1  0.861262  0.360854  0.692094  1
  Cl  Cl25  1  0.707791  0.823949  0.561745  1
  Cl  Cl26  1  0.204535  0.859382  0.026530  1
  Cl  Cl27  1  0.360854  0.861262  0.807906  1
  Cl  Cl28  1  0.292209  0.176051  0.438255  1
  Cl  Cl29  1  0.859382  0.204535  0.473470  1
  Cl  Cl30  1  0.092934  0.964255  0.700510  1
  Cl  Cl31  1  0.302187  0.650620  0.574000  1
  Cl  Cl32  1  0.639146  0.138738  0.192094  1
  Cl  Cl33  1  0.522412  0.391958  0.184946  1
  Cl  Cl34  1  0.035745  0.907066  0.200510  1
  Cl  Cl35  1  0.964255  0.092934  0.799490  1
  Cl  Cl36  1  0.608042  0.477588  0.684946  1
  Cl  Cl37  1  0.349380  0.697813  0.074000  1
  Cl  Cl38  1  0.823949  0.707791  0.938255  1
  Cl  Cl39  1  0.176051  0.292209  0.061745  1
