# generated using pymatgen
data_Li15Si4
_symmetry_space_group_name_H-M   'P 1'
_cell_length_a   9.15046624
_cell_length_b   9.15046624
_cell_length_c   9.15046624
_cell_angle_alpha   109.47122063
_cell_angle_beta   109.47122063
_cell_angle_gamma   109.47122063
_symmetry_Int_Tables_number   1
_chemical_formula_structural   Li15Si4
_chemical_formula_sum   'Li30 Si8'
_cell_volume   589.80408807
_cell_formula_units_Z   2
loop_
 _symmetry_equiv_pos_site_id
 _symmetry_equiv_pos_as_xyz
  1  'x, y, z'
loop_
 _atom_site_type_symbol
 _atom_site_label
 _atom_site_symmetry_multiplicity
 _atom_site_fract_x
 _atom_site_fract_y
 _atom_site_fract_z
 _atom_site_occupancy
  Li  Li0  1  0.723016  0.340370  0.809529  1
  Li  Li1  1  0.875000  0.125000  0.750000  1
  Li  Li2  1  0.809529  0.723016  0.340370  1
  Li  Li3  1  0.586513  0.617354  0.776984  1
  Li  Li4  1  0.690471  0.030841  0.913487  1
  Li  Li5  1  0.117354  0.086513  0.276984  1
  Li  Li6  1  0.030841  0.913487  0.690471  1
  Li  Li7  1  0.086513  0.276984  0.117354  1
  Li  Li8  1  0.530841  0.190471  0.413487  1
  Li  Li9  1  0.617354  0.776984  0.586513  1
  Li  Li10  1  0.913487  0.690471  0.030841  1
  Li  Li11  1  0.413487  0.530841  0.190471  1
  Li  Li12  1  0.250000  0.625000  0.375000  1
  Li  Li13  1  0.882646  0.469159  0.159630  1
  Li  Li14  1  0.750000  0.875000  0.125000  1
  Li  Li15  1  0.659630  0.969159  0.382646  1
  Li  Li16  1  0.190471  0.413487  0.530841  1
  Li  Li17  1  0.276984  0.117354  0.086513  1
  Li  Li18  1  0.223016  0.309529  0.840370  1
  Li  Li19  1  0.125000  0.750000  0.875000  1
  Li  Li20  1  0.159630  0.882646  0.469159  1
  Li  Li21  1  0.776984  0.586513  0.617354  1
  Li  Li22  1  0.969159  0.382646  0.659630  1
  Li  Li23  1  0.340370  0.809529  0.723016  1
  Li  Li24  1  0.382646  0.659630  0.969159  1
  Li  Li25  1  0.469159  0.159630  0.882646  1
  Li  Li26  1  0.840370  0.223016  0.309529  1
  Li  Li27  1  0.625000  0.375000  0.250000  1
  Li  Li28  1  0.309529  0.840370  0.223016  1
  Li  Li29  1  0.375000  0.250000  0.625000  1
  Si  Si30  1  0.584856  0.500000  0.000000  1
  Si  Si31  1  0.000000  0.584856  0.500000  1
  Si  Si32  1  0.084856  0.500000  1.000000  1
  Si  Si33  1  0.500000  1.000000  0.084856  1
  Si  Si34  1  0.500000  1.000000  0.584856  1
  Si  Si35  1  1.000000  0.084856  0.500000  1
  Si  Si36  1  0.415144  0.415144  0.415144  1
  Si  Si37  1  0.915144  0.915144  0.915144  1
