# generated using pymatgen
data_Li2Co3(P2O7)2
_symmetry_space_group_name_H-M   'P 1'
_cell_length_a   7.34172742
_cell_length_b   7.96182624
_cell_length_c   9.52788017
_cell_angle_alpha   90.00000000
_cell_angle_beta   109.91014690
_cell_angle_gamma   90.00000000
_symmetry_Int_Tables_number   1
_chemical_formula_structural   Li2Co3(P2O7)2
_chemical_formula_sum   'Li4 Co6 P8 O28'
_cell_volume   523.64907455
_cell_formula_units_Z   2
loop_
 _symmetry_equiv_pos_site_id
 _symmetry_equiv_pos_as_xyz
  1  'x, y, z'
loop_
 _atom_site_type_symbol
 _atom_site_label
 _atom_site_symmetry_multiplicity
 _atom_site_fract_x
 _atom_site_fract_y
 _atom_site_fract_z
 _atom_site_occupancy
  Li  Li0  1  0.707747  0.415110  0.138260  1
  Li  Li1  1  0.707747  0.084890  0.638260  1
  Li  Li2  1  0.292253  0.584890  0.861740  1
  Li  Li3  1  0.292253  0.915110  0.361740  1
  Co  Co4  1  0.189071  0.625758  0.518643  1
  Co  Co5  1  0.189071  0.874242  0.018643  1
  Co  Co6  1  0.810929  0.374242  0.481357  1
  Co  Co7  1  0.000000  0.000000  0.500000  1
  Co  Co8  1  0.810929  0.125758  0.981357  1
  Co  Co9  1  0.000000  0.500000  0.000000  1
  P  P10  1  0.886279  0.707075  0.694378  1
  P  P11  1  0.598552  0.454620  0.717994  1
  P  P12  1  0.598552  0.045380  0.217994  1
  P  P13  1  0.886279  0.792925  0.194378  1
  P  P14  1  0.401448  0.954620  0.782006  1
  P  P15  1  0.401448  0.545380  0.282006  1
  P  P16  1  0.113721  0.292925  0.305622  1
  P  P17  1  0.113721  0.207075  0.805622  1
  O  O18  1  0.280972  0.895434  0.622210  1
  O  O19  1  0.611016  0.999402  0.800154  1
  O  O20  1  0.388984  0.499402  0.699846  1
  O  O21  1  0.719028  0.104566  0.377790  1
  O  O22  1  0.318608  0.137477  0.808895  1
  O  O23  1  0.851871  0.879170  0.621986  1
  O  O24  1  0.388984  0.000598  0.199846  1
  O  O25  1  0.318608  0.362523  0.308895  1
  O  O26  1  0.148129  0.120830  0.378014  1
  O  O27  1  0.031784  0.083517  0.893480  1
  O  O28  1  0.681392  0.637477  0.691105  1
  O  O29  1  0.280972  0.604566  0.122210  1
  O  O30  1  0.681392  0.862523  0.191105  1
  O  O31  1  0.014107  0.794610  0.361632  1
  O  O32  1  0.624062  0.165444  0.100452  1
  O  O33  1  0.148129  0.379170  0.878014  1
  O  O34  1  0.031784  0.416483  0.393480  1
  O  O35  1  0.985893  0.294610  0.138368  1
  O  O36  1  0.985893  0.205390  0.638368  1
  O  O37  1  0.968216  0.583517  0.606520  1
  O  O38  1  0.624062  0.334556  0.600452  1
  O  O39  1  0.014107  0.705390  0.861632  1
  O  O40  1  0.968216  0.916483  0.106520  1
  O  O41  1  0.375938  0.834556  0.899548  1
  O  O42  1  0.375938  0.665444  0.399548  1
  O  O43  1  0.611016  0.500598  0.300154  1
  O  O44  1  0.719028  0.395434  0.877790  1
  O  O45  1  0.851871  0.620830  0.121986  1
