# generated using pymatgen
data_Ba4Br6O
_symmetry_space_group_name_H-M   'P 1'
_cell_length_a   10.51720159
_cell_length_b   10.51720159
_cell_length_c   8.03876704
_cell_angle_alpha   90.00000000
_cell_angle_beta   90.00000000
_cell_angle_gamma   120.00000000
_symmetry_Int_Tables_number   1
_chemical_formula_structural   Ba4Br6O
_chemical_formula_sum   'Ba8 Br12 O2'
_cell_volume   770.05274143
_cell_formula_units_Z   2
loop_
 _symmetry_equiv_pos_site_id
 _symmetry_equiv_pos_as_xyz
  1  'x, y, z'
loop_
 _atom_site_type_symbol
 _atom_site_label
 _atom_site_symmetry_multiplicity
 _atom_site_fract_x
 _atom_site_fract_y
 _atom_site_fract_z
 _atom_site_occupancy
  Ba  Ba0  1  0.199145  0.800855  0.000722  1
  Ba  Ba1  1  0.333333  0.666667  0.418966  1
  Ba  Ba2  1  0.601710  0.800855  0.000722  1
  Ba  Ba3  1  0.800855  0.199145  0.500722  1
  Ba  Ba4  1  0.398290  0.199145  0.500722  1
  Ba  Ba5  1  0.800855  0.601710  0.500722  1
  Ba  Ba6  1  0.666667  0.333333  0.918966  1
  Ba  Ba7  1  0.199145  0.398290  0.000722  1
  Br  Br8  1  0.715183  0.857592  0.392948  1
  Br  Br9  1  0.530814  0.469186  0.208453  1
  Br  Br10  1  0.142408  0.284817  0.392948  1
  Br  Br11  1  0.284817  0.142408  0.892948  1
  Br  Br12  1  0.857592  0.715183  0.892948  1
  Br  Br13  1  0.857592  0.142408  0.892948  1
  Br  Br14  1  0.061627  0.530814  0.708453  1
  Br  Br15  1  0.469186  0.938373  0.708453  1
  Br  Br16  1  0.142408  0.857592  0.392948  1
  Br  Br17  1  0.530814  0.061627  0.208453  1
  Br  Br18  1  0.469186  0.530814  0.708453  1
  Br  Br19  1  0.938373  0.469186  0.208453  1
  O  O20  1  0.333333  0.666667  0.100234  1
  O  O21  1  0.666667  0.333333  0.600234  1
