# generated using pymatgen
data_La2MnVO6
_symmetry_space_group_name_H-M   'P 1'
_cell_length_a   5.63277746
_cell_length_b   5.68904247
_cell_length_c   9.80292274
_cell_angle_alpha   90.00000000
_cell_angle_beta   124.86916875
_cell_angle_gamma   90.00000000
_symmetry_Int_Tables_number   1
_chemical_formula_structural   La2MnVO6
_chemical_formula_sum   'La4 Mn2 V2 O12'
_cell_volume   257.73569342
_cell_formula_units_Z   2
loop_
 _symmetry_equiv_pos_site_id
 _symmetry_equiv_pos_as_xyz
  1  'x, y, z'
loop_
 _atom_site_type_symbol
 _atom_site_label
 _atom_site_symmetry_multiplicity
 _atom_site_fract_x
 _atom_site_fract_y
 _atom_site_fract_z
 _atom_site_occupancy
  La  La0  1  0.242438  0.454093  0.750876  1
  La  La1  1  0.757562  0.545907  0.249124  1
  La  La2  1  0.757562  0.954093  0.749124  1
  La  La3  1  0.242438  0.045907  0.250876  1
  Mn  Mn4  1  0.500000  0.000000  0.000000  1
  Mn  Mn5  1  0.500000  0.500000  0.500000  1
  V  V6  1  0.000000  0.000000  0.500000  1
  V  V7  1  0.000000  0.500000  0.000000  1
  O  O8  1  0.667836  0.974728  0.260400  1
  O  O9  1  0.763312  0.307729  0.046182  1
  O  O10  1  0.667836  0.525272  0.760400  1
  O  O11  1  0.332164  0.025272  0.739600  1
  O  O12  1  0.859307  0.720565  0.551571  1
  O  O13  1  0.859307  0.779435  0.051571  1
  O  O14  1  0.332164  0.474728  0.239600  1
  O  O15  1  0.140693  0.220565  0.948429  1
  O  O16  1  0.236688  0.807729  0.453818  1
  O  O17  1  0.140693  0.279435  0.448429  1
  O  O18  1  0.236688  0.692271  0.953818  1
  O  O19  1  0.763312  0.192271  0.546182  1
