# generated using pymatgen
data_ZnGaNO
_symmetry_space_group_name_H-M   'P 1'
_cell_length_a   6.53757137
_cell_length_b   6.53757137
_cell_length_c   10.55413889
_cell_angle_alpha   90.00000000
_cell_angle_beta   90.00000000
_cell_angle_gamma   120.00000000
_symmetry_Int_Tables_number   1
_chemical_formula_structural   ZnGaNO
_chemical_formula_sum   'Zn8 Ga8 N8 O8'
_cell_volume   390.64864509
_cell_formula_units_Z   8
loop_
 _symmetry_equiv_pos_site_id
 _symmetry_equiv_pos_as_xyz
  1  'x, y, z'
loop_
 _atom_site_type_symbol
 _atom_site_label
 _atom_site_symmetry_multiplicity
 _atom_site_fract_x
 _atom_site_fract_y
 _atom_site_fract_z
 _atom_site_occupancy
  Zn  Zn0  1  0.000000  0.000000  0.996511  1
  Zn  Zn1  1  0.160698  0.321397  0.737637  1
  Zn  Zn2  1  0.160698  0.839302  0.737637  1
  Zn  Zn3  1  0.008240  0.504120  0.490176  1
  Zn  Zn4  1  0.678603  0.839302  0.737637  1
  Zn  Zn5  1  0.495880  0.991760  0.490176  1
  Zn  Zn6  1  0.666667  0.333333  0.255131  1
  Zn  Zn7  1  0.495880  0.504120  0.490176  1
  Ga  Ga8  1  0.666667  0.333333  0.749213  1
  Ga  Ga9  1  0.502449  0.004898  0.007338  1
  Ga  Ga10  1  0.995102  0.497551  0.007338  1
  Ga  Ga11  1  0.172750  0.345500  0.256185  1
  Ga  Ga12  1  0.000000  0.000000  0.495791  1
  Ga  Ga13  1  0.654500  0.827250  0.256185  1
  Ga  Ga14  1  0.172750  0.827250  0.256185  1
  Ga  Ga15  1  0.502449  0.497551  0.007338  1
  N  N16  1  0.000000  0.000000  0.681994  1
  N  N17  1  0.161343  0.838657  0.435167  1
  N  N18  1  0.161343  0.322685  0.435167  1
  N  N19  1  0.496294  0.503706  0.186460  1
  N  N20  1  0.677315  0.838657  0.435167  1
  N  N21  1  0.666667  0.333333  0.937475  1
  N  N22  1  0.007412  0.503706  0.186460  1
  N  N23  1  0.496294  0.992588  0.186460  1
  O  O24  1  0.506730  0.493270  0.698222  1
  O  O25  1  0.174217  0.825783  0.943893  1
  O  O26  1  0.666667  0.333333  0.446379  1
  O  O27  1  0.000000  0.000000  0.188254  1
  O  O28  1  0.506730  0.013460  0.698222  1
  O  O29  1  0.651566  0.825783  0.943893  1
  O  O30  1  0.174217  0.348434  0.943893  1
  O  O31  1  0.986540  0.493270  0.698222  1
