# generated using pymatgen
data_K2NaAl3F12
_symmetry_space_group_name_H-M   'P 1'
_cell_length_a   7.04790109
_cell_length_b   7.08574604
_cell_length_c   9.81030681
_cell_angle_alpha   90.00000000
_cell_angle_beta   90.17365484
_cell_angle_gamma   90.00000000
_symmetry_Int_Tables_number   1
_chemical_formula_structural   K2NaAl3F12
_chemical_formula_sum   'K4 Na2 Al6 F24'
_cell_volume   489.92091295
_cell_formula_units_Z   2
loop_
 _symmetry_equiv_pos_site_id
 _symmetry_equiv_pos_as_xyz
  1  'x, y, z'
loop_
 _atom_site_type_symbol
 _atom_site_label
 _atom_site_symmetry_multiplicity
 _atom_site_fract_x
 _atom_site_fract_y
 _atom_site_fract_z
 _atom_site_occupancy
  K  K0  1  0.535432  0.250000  0.641659  1
  K  K1  1  0.985610  0.250000  0.894596  1
  K  K2  1  0.464568  0.750000  0.358341  1
  K  K3  1  0.014390  0.750000  0.105404  1
  Na  Na4  1  0.790960  0.750000  0.759185  1
  Na  Na5  1  0.209040  0.250000  0.240815  1
  Al  Al6  1  0.500000  0.000000  0.000000  1
  Al  Al7  1  0.692161  0.250000  0.281164  1
  Al  Al8  1  0.307839  0.750000  0.718836  1
  Al  Al9  1  0.000000  0.500000  0.500000  1
  Al  Al10  1  0.500000  0.500000  0.000000  1
  Al  Al11  1  0.000000  0.000000  0.500000  1
  F  F12  1  0.787781  0.438071  0.394562  1
  F  F13  1  0.866244  0.040138  0.650907  1
  F  F14  1  0.262044  0.456529  0.050839  1
  F  F15  1  0.133756  0.959862  0.349093  1
  F  F16  1  0.212219  0.938071  0.605438  1
  F  F17  1  0.526148  0.250000  0.941863  1
  F  F18  1  0.581775  0.439646  0.174267  1
  F  F19  1  0.079397  0.250000  0.498277  1
  F  F20  1  0.737956  0.956529  0.949161  1
  F  F21  1  0.480201  0.250000  0.378956  1
  F  F22  1  0.262044  0.043471  0.050839  1
  F  F23  1  0.418225  0.560354  0.825733  1
  F  F24  1  0.418225  0.939646  0.825733  1
  F  F25  1  0.473852  0.750000  0.058137  1
  F  F26  1  0.787781  0.061929  0.394562  1
  F  F27  1  0.895875  0.250000  0.178235  1
  F  F28  1  0.104125  0.750000  0.821765  1
  F  F29  1  0.866244  0.459862  0.650907  1
  F  F30  1  0.519799  0.750000  0.621044  1
  F  F31  1  0.133756  0.540138  0.349093  1
  F  F32  1  0.212219  0.561929  0.605438  1
  F  F33  1  0.581775  0.060354  0.174267  1
  F  F34  1  0.920603  0.750000  0.501723  1
  F  F35  1  0.737956  0.543471  0.949161  1
