# generated using pymatgen
data_Cs3Ta5O14
_symmetry_space_group_name_H-M   'P 1'
_cell_length_a   7.49224028
_cell_length_b   7.53350066
_cell_length_c   26.61273171
_cell_angle_alpha   90.00000000
_cell_angle_beta   90.00000000
_cell_angle_gamma   90.00000000
_symmetry_Int_Tables_number   1
_chemical_formula_structural   Cs3Ta5O14
_chemical_formula_sum   'Cs12 Ta20 O56'
_cell_volume   1502.09701603
_cell_formula_units_Z   4
loop_
 _symmetry_equiv_pos_site_id
 _symmetry_equiv_pos_as_xyz
  1  'x, y, z'
loop_
 _atom_site_type_symbol
 _atom_site_label
 _atom_site_symmetry_multiplicity
 _atom_site_fract_x
 _atom_site_fract_y
 _atom_site_fract_z
 _atom_site_occupancy
  Cs  Cs0  1  0.000000  0.339512  0.791132  1
  Cs  Cs1  1  0.000000  0.660488  0.208868  1
  Cs  Cs2  1  0.500000  0.840024  0.620511  1
  Cs  Cs3  1  0.000000  0.160488  0.291132  1
  Cs  Cs4  1  0.500000  0.257891  0.523712  1
  Cs  Cs5  1  0.000000  0.839512  0.708868  1
  Cs  Cs6  1  0.500000  0.159976  0.379489  1
  Cs  Cs7  1  0.500000  0.242109  0.023712  1
  Cs  Cs8  1  0.500000  0.742109  0.476288  1
  Cs  Cs9  1  0.500000  0.340024  0.879489  1
  Cs  Cs10  1  0.500000  0.757891  0.976288  1
  Cs  Cs11  1  0.500000  0.659976  0.120511  1
  Ta  Ta12  1  0.745467  0.837975  0.848175  1
  Ta  Ta13  1  0.000000  0.428587  0.054430  1
  Ta  Ta14  1  0.500000  0.598824  0.746026  1
  Ta  Ta15  1  0.254533  0.162025  0.151825  1
  Ta  Ta16  1  0.000000  0.071413  0.554430  1
  Ta  Ta17  1  0.000000  0.413478  0.443204  1
  Ta  Ta18  1  0.745467  0.162025  0.151825  1
  Ta  Ta19  1  0.500000  0.901176  0.246026  1
  Ta  Ta20  1  0.500000  0.401176  0.253974  1
  Ta  Ta21  1  0.000000  0.571413  0.945570  1
  Ta  Ta22  1  0.000000  0.913478  0.056796  1
  Ta  Ta23  1  0.254533  0.662025  0.348175  1
  Ta  Ta24  1  0.000000  0.086522  0.943204  1
  Ta  Ta25  1  0.745467  0.662025  0.348175  1
  Ta  Ta26  1  0.000000  0.586522  0.556796  1
  Ta  Ta27  1  0.500000  0.098824  0.753974  1
  Ta  Ta28  1  0.000000  0.928587  0.445570  1
  Ta  Ta29  1  0.254533  0.837975  0.848175  1
  Ta  Ta30  1  0.745467  0.337975  0.651825  1
  Ta  Ta31  1  0.254533  0.337975  0.651825  1
  O  O32  1  0.189162  0.340250  0.097719  1
  O  O33  1  0.000000  0.160182  0.015795  1
  O  O34  1  0.500000  0.854474  0.727865  1
  O  O35  1  0.500000  0.657914  0.374164  1
  O  O36  1  0.000000  0.331019  0.919562  1
  O  O37  1  0.000000  0.866801  0.831988  1
  O  O38  1  0.500000  0.645526  0.227865  1
  O  O39  1  0.810838  0.659750  0.902281  1
  O  O40  1  0.000000  0.339818  0.515795  1
  O  O41  1  0.314759  0.458056  0.303672  1
  O  O42  1  0.500000  0.145526  0.272135  1
  O  O43  1  0.691869  0.336627  0.201126  1
  O  O44  1  0.825406  0.000000  0.500000  1
  O  O45  1  0.691869  0.836627  0.298874  1
  O  O46  1  0.000000  0.366801  0.668012  1
  O  O47  1  0.209350  0.974979  0.089541  1
  O  O48  1  0.825406  0.500000  0.000000  1
  O  O49  1  0.685241  0.458056  0.303672  1
  O  O50  1  0.308131  0.836627  0.298874  1
  O  O51  1  0.308131  0.163373  0.701126  1
  O  O52  1  0.810838  0.340250  0.097719  1
  O  O53  1  0.691869  0.663373  0.798874  1
  O  O54  1  0.308131  0.336627  0.201126  1
  O  O55  1  0.000000  0.839818  0.984205  1
  O  O56  1  0.209350  0.025021  0.910459  1
  O  O57  1  0.314759  0.958056  0.196328  1
  O  O58  1  0.500000  0.354474  0.772135  1
  O  O59  1  0.000000  0.133199  0.168012  1
  O  O60  1  0.189162  0.659750  0.902281  1
  O  O61  1  0.810838  0.159750  0.597719  1
  O  O62  1  0.000000  0.831019  0.580438  1
  O  O63  1  0.308131  0.663373  0.798874  1
  O  O64  1  0.500000  0.842086  0.874164  1
  O  O65  1  0.685241  0.041944  0.803672  1
  O  O66  1  0.314759  0.541944  0.696328  1
  O  O67  1  0.790650  0.474979  0.410459  1
  O  O68  1  0.790650  0.525021  0.589541  1
  O  O69  1  0.000000  0.668981  0.080438  1
  O  O70  1  0.000000  0.660182  0.484205  1
  O  O71  1  0.691869  0.163373  0.701126  1
  O  O72  1  0.685241  0.958056  0.196328  1
  O  O73  1  0.000000  0.633199  0.331988  1
  O  O74  1  0.500000  0.157914  0.125836  1
  O  O75  1  0.685241  0.541944  0.696328  1
  O  O76  1  0.174594  0.000000  0.500000  1
  O  O77  1  0.790650  0.974979  0.089541  1
  O  O78  1  0.810838  0.840250  0.402281  1
  O  O79  1  0.500000  0.342086  0.625836  1
  O  O80  1  0.790650  0.025021  0.910459  1
  O  O81  1  0.189162  0.840250  0.402281  1
  O  O82  1  0.209350  0.525021  0.589541  1
  O  O83  1  0.189162  0.159750  0.597719  1
  O  O84  1  0.000000  0.168981  0.419562  1
  O  O85  1  0.209350  0.474979  0.410459  1
  O  O86  1  0.314759  0.041944  0.803672  1
  O  O87  1  0.174594  0.500000  0.000000  1
