# generated using pymatgen
data_SiO2
_symmetry_space_group_name_H-M   'P 1'
_cell_length_a   5.28304600
_cell_length_b   11.41033000
_cell_length_c   22.08025700
_cell_angle_alpha   90.00000000
_cell_angle_beta   90.00000000
_cell_angle_gamma   90.00000000
_symmetry_Int_Tables_number   1
_chemical_formula_structural   SiO2
_chemical_formula_sum   'Si24 O48'
_cell_volume   1331.02655799
_cell_formula_units_Z   24
loop_
 _symmetry_equiv_pos_site_id
 _symmetry_equiv_pos_as_xyz
  1  'x, y, z'
loop_
 _atom_site_type_symbol
 _atom_site_label
 _atom_site_symmetry_multiplicity
 _atom_site_fract_x
 _atom_site_fract_y
 _atom_site_fract_z
 _atom_site_occupancy
  Si  Si0  1  0.000000  0.273999  0.827635  1
  Si  Si1  1  0.000000  0.600700  0.371875  1
  Si  Si2  1  0.500000  0.991287  0.292074  1
  Si  Si3  1  0.000000  0.273999  0.172365  1
  Si  Si4  1  0.500000  0.229262  0.633042  1
  Si  Si5  1  0.500000  0.726001  0.327635  1
  Si  Si6  1  0.000000  0.353776  0.312789  1
  Si  Si7  1  0.500000  0.531750  0.000000  1
  Si  Si8  1  0.000000  0.008713  0.207926  1
  Si  Si9  1  0.500000  0.646224  0.812789  1
  Si  Si10  1  0.000000  0.770738  0.866958  1
  Si  Si11  1  0.500000  0.399300  0.871875  1
  Si  Si12  1  0.000000  0.468250  0.500000  1
  Si  Si13  1  0.000000  0.353776  0.687211  1
  Si  Si14  1  0.500000  0.726001  0.672365  1
  Si  Si15  1  0.000000  0.770738  0.133042  1
  Si  Si16  1  0.500000  0.229262  0.366958  1
  Si  Si17  1  0.500000  0.304837  0.500000  1
  Si  Si18  1  0.500000  0.399300  0.128125  1
  Si  Si19  1  0.500000  0.991287  0.707926  1
  Si  Si20  1  0.500000  0.646224  0.187211  1
  Si  Si21  1  0.000000  0.600700  0.628125  1
  Si  Si22  1  0.000000  0.695163  0.000000  1
  Si  Si23  1  0.000000  0.008713  0.792074  1
  O  O24  1  0.750370  0.613124  0.000000  1
  O  O25  1  0.249731  0.681081  0.362940  1
  O  O26  1  0.250269  0.318919  0.137060  1
  O  O27  1  0.250000  0.000000  0.750000  1
  O  O28  1  0.500000  0.504613  0.821704  1
  O  O29  1  0.250533  0.299527  0.655557  1
  O  O30  1  0.750269  0.681081  0.362940  1
  O  O31  1  0.500000  0.676203  0.741264  1
  O  O32  1  0.000000  0.323797  0.758736  1
  O  O33  1  0.749731  0.318919  0.137060  1
  O  O34  1  0.000000  0.778878  0.940447  1
  O  O35  1  0.000000  0.550136  0.559727  1
  O  O36  1  0.000000  0.323797  0.241264  1
  O  O37  1  0.000000  0.495387  0.678296  1
  O  O38  1  0.249467  0.700473  0.155557  1
  O  O39  1  0.500000  0.868186  0.671410  1
  O  O40  1  0.749630  0.386876  0.500000  1
  O  O41  1  0.500000  0.449864  0.940273  1
  O  O42  1  0.249467  0.700473  0.844443  1
  O  O43  1  0.500000  0.221122  0.559553  1
  O  O44  1  0.749467  0.299527  0.344443  1
  O  O45  1  0.249731  0.681081  0.637060  1
  O  O46  1  0.749467  0.299527  0.655557  1
  O  O47  1  0.500000  0.504613  0.178296  1
  O  O48  1  0.500000  0.221122  0.440447  1
  O  O49  1  0.500000  0.096803  0.341010  1
  O  O50  1  0.500000  0.449864  0.059727  1
  O  O51  1  0.000000  0.550136  0.440273  1
  O  O52  1  0.500000  0.096803  0.658990  1
  O  O53  1  0.500000  0.868186  0.328590  1
  O  O54  1  0.250370  0.386876  0.500000  1
  O  O55  1  0.000000  0.131814  0.828590  1
  O  O56  1  0.000000  0.495387  0.321704  1
  O  O57  1  0.250269  0.318919  0.862940  1
  O  O58  1  0.500000  0.676203  0.258736  1
  O  O59  1  0.000000  0.903197  0.841010  1
  O  O60  1  0.000000  0.131814  0.171410  1
  O  O61  1  0.750269  0.681081  0.637060  1
  O  O62  1  0.250533  0.299527  0.344443  1
  O  O63  1  0.249630  0.613124  0.000000  1
  O  O64  1  0.000000  0.778878  0.059553  1
  O  O65  1  0.749731  0.318919  0.862940  1
  O  O66  1  0.250000  0.000000  0.250000  1
  O  O67  1  0.000000  0.903197  0.158990  1
  O  O68  1  0.750533  0.700473  0.155557  1
  O  O69  1  0.750533  0.700473  0.844443  1
  O  O70  1  0.750000  0.000000  0.750000  1
  O  O71  1  0.750000  0.000000  0.250000  1
