# generated using pymatgen
data_Tl2Cr3O12
_symmetry_space_group_name_H-M   'P 1'
_cell_length_a   8.98157376
_cell_length_b   8.99359942
_cell_length_c   13.17270323
_cell_angle_alpha   90.00000000
_cell_angle_beta   90.00000000
_cell_angle_gamma   90.00000000
_symmetry_Int_Tables_number   1
_chemical_formula_structural   Tl2Cr3O12
_chemical_formula_sum   'Tl8 Cr12 O48'
_cell_volume   1064.04718821
_cell_formula_units_Z   4
loop_
 _symmetry_equiv_pos_site_id
 _symmetry_equiv_pos_as_xyz
  1  'x, y, z'
loop_
 _atom_site_type_symbol
 _atom_site_label
 _atom_site_symmetry_multiplicity
 _atom_site_fract_x
 _atom_site_fract_y
 _atom_site_fract_z
 _atom_site_occupancy
  Tl  Tl0  1  0.602739  0.746252  0.407377  1
  Tl  Tl1  1  0.102739  0.753748  0.092623  1
  Tl  Tl2  1  0.897261  0.746252  0.592623  1
  Tl  Tl3  1  0.397261  0.753748  0.907377  1
  Tl  Tl4  1  0.397261  0.253748  0.592623  1
  Tl  Tl5  1  0.897261  0.246252  0.907377  1
  Tl  Tl6  1  0.102739  0.253748  0.407377  1
  Tl  Tl7  1  0.602739  0.246252  0.092623  1
  Cr  Cr8  1  0.750000  0.102326  0.500000  1
  Cr  Cr9  1  0.250000  0.397674  0.000000  1
  Cr  Cr10  1  0.250000  0.897674  0.500000  1
  Cr  Cr11  1  0.750000  0.602326  0.000000  1
  Cr  Cr12  1  0.966342  0.114400  0.168641  1
  Cr  Cr13  1  0.466342  0.385600  0.331359  1
  Cr  Cr14  1  0.533658  0.114400  0.831359  1
  Cr  Cr15  1  0.033658  0.385600  0.668641  1
  Cr  Cr16  1  0.033658  0.885600  0.831359  1
  Cr  Cr17  1  0.533658  0.614400  0.668641  1
  Cr  Cr18  1  0.466342  0.885600  0.168641  1
  Cr  Cr19  1  0.966342  0.614400  0.331359  1
  O  O20  1  0.647920  0.495468  0.075404  1
  O  O21  1  0.147920  0.004532  0.424596  1
  O  O22  1  0.852080  0.495468  0.924596  1
  O  O23  1  0.352080  0.004532  0.575404  1
  O  O24  1  0.352080  0.504532  0.924596  1
  O  O25  1  0.852080  0.995468  0.575404  1
  O  O26  1  0.147920  0.504532  0.075404  1
  O  O27  1  0.647920  0.995468  0.424596  1
  O  O28  1  0.421305  0.002471  0.897804  1
  O  O29  1  0.921305  0.497529  0.602196  1
  O  O30  1  0.078695  0.002471  0.102196  1
  O  O31  1  0.578695  0.497529  0.397804  1
  O  O32  1  0.578695  0.997529  0.102196  1
  O  O33  1  0.078695  0.502471  0.397804  1
  O  O34  1  0.921305  0.997529  0.897804  1
  O  O35  1  0.421305  0.502471  0.602196  1
  O  O36  1  0.639456  0.712652  0.930547  1
  O  O37  1  0.360544  0.287348  0.069453  1
  O  O38  1  0.139456  0.287348  0.930547  1
  O  O39  1  0.639456  0.212652  0.569453  1
  O  O40  1  0.644243  0.717381  0.583505  1
  O  O41  1  0.144243  0.782619  0.916495  1
  O  O42  1  0.855757  0.717381  0.416495  1
  O  O43  1  0.355757  0.782619  0.083505  1
  O  O44  1  0.355757  0.282619  0.416495  1
  O  O45  1  0.855757  0.217381  0.083505  1
  O  O46  1  0.144243  0.282619  0.583505  1
  O  O47  1  0.644243  0.217381  0.916495  1
  O  O48  1  0.639039  0.017937  0.760207  1
  O  O49  1  0.139039  0.482063  0.739793  1
  O  O50  1  0.860961  0.017937  0.239793  1
  O  O51  1  0.360961  0.482063  0.260207  1
  O  O52  1  0.360961  0.982063  0.239793  1
  O  O53  1  0.860961  0.517937  0.260207  1
  O  O54  1  0.139039  0.982063  0.760207  1
  O  O55  1  0.639039  0.517937  0.739793  1
  O  O56  1  0.428274  0.728574  0.739610  1
  O  O57  1  0.928274  0.771426  0.760390  1
  O  O58  1  0.071726  0.728574  0.260390  1
  O  O59  1  0.571726  0.771426  0.239610  1
  O  O60  1  0.571726  0.271426  0.260390  1
  O  O61  1  0.071726  0.228574  0.239610  1
  O  O62  1  0.928274  0.271426  0.739610  1
  O  O63  1  0.428274  0.228574  0.760390  1
  O  O64  1  0.360544  0.787348  0.430547  1
  O  O65  1  0.860544  0.712652  0.069453  1
  O  O66  1  0.139456  0.787348  0.569453  1
  O  O67  1  0.860544  0.212652  0.430547  1
