# generated using pymatgen
data_Pr3Sb5Pd6
_symmetry_space_group_name_H-M   'P 1'
_cell_length_a   4.50966373
_cell_length_b   10.15906759
_cell_length_c   13.63635943
_cell_angle_alpha   90.00000000
_cell_angle_beta   90.00000000
_cell_angle_gamma   90.00000000
_symmetry_Int_Tables_number   1
_chemical_formula_structural   Pr3Sb5Pd6
_chemical_formula_sum   'Pr6 Sb10 Pd12'
_cell_volume   624.73587967
_cell_formula_units_Z   2
loop_
 _symmetry_equiv_pos_site_id
 _symmetry_equiv_pos_as_xyz
  1  'x, y, z'
loop_
 _atom_site_type_symbol
 _atom_site_label
 _atom_site_symmetry_multiplicity
 _atom_site_fract_x
 _atom_site_fract_y
 _atom_site_fract_z
 _atom_site_occupancy
  Pr  Pr0  1  0.000000  0.243331  0.000000  1
  Pr  Pr1  1  0.500000  0.756669  0.500000  1
  Pr  Pr2  1  0.000000  0.245656  0.324103  1
  Pr  Pr3  1  0.500000  0.754344  0.175897  1
  Pr  Pr4  1  0.000000  0.245656  0.675897  1
  Pr  Pr5  1  0.500000  0.754344  0.824103  1
  Sb  Sb6  1  0.000000  0.522979  0.126694  1
  Sb  Sb7  1  0.500000  0.477021  0.373306  1
  Sb  Sb8  1  0.000000  0.522979  0.873306  1
  Sb  Sb9  1  0.500000  0.477021  0.626694  1
  Sb  Sb10  1  0.000000  0.863276  0.336937  1
  Sb  Sb11  1  0.500000  0.136724  0.163063  1
  Sb  Sb12  1  0.000000  0.863276  0.663063  1
  Sb  Sb13  1  0.500000  0.136724  0.836937  1
  Sb  Sb14  1  0.000000  0.829622  0.000000  1
  Sb  Sb15  1  0.500000  0.170378  0.500000  1
  Pd  Pd16  1  0.000000  0.990963  0.160337  1
  Pd  Pd17  1  0.500000  0.009037  0.339663  1
  Pd  Pd18  1  0.000000  0.990963  0.839663  1
  Pd  Pd19  1  0.500000  0.009037  0.660337  1
  Pd  Pd20  1  0.500000  0.982499  0.000000  1
  Pd  Pd21  1  0.000000  0.017501  0.500000  1
  Pd  Pd22  1  0.000000  0.603183  0.317920  1
  Pd  Pd23  1  0.500000  0.396817  0.182080  1
  Pd  Pd24  1  0.000000  0.603183  0.682080  1
  Pd  Pd25  1  0.500000  0.396817  0.817920  1
  Pd  Pd26  1  0.500000  0.525105  0.000000  1
  Pd  Pd27  1  0.000000  0.474895  0.500000  1
