# generated using pymatgen
data_K3Ho(SiO3)3
_symmetry_space_group_name_H-M   'P 1'
_cell_length_a   5.88572002
_cell_length_b   12.98806768
_cell_length_c   14.07468476
_cell_angle_alpha   90.00000000
_cell_angle_beta   90.00000000
_cell_angle_gamma   90.00000000
_symmetry_Int_Tables_number   1
_chemical_formula_structural   K3Ho(SiO3)3
_chemical_formula_sum   'K12 Ho4 Si12 O36'
_cell_volume   1075.92703101
_cell_formula_units_Z   4
loop_
 _symmetry_equiv_pos_site_id
 _symmetry_equiv_pos_as_xyz
  1  'x, y, z'
loop_
 _atom_site_type_symbol
 _atom_site_label
 _atom_site_symmetry_multiplicity
 _atom_site_fract_x
 _atom_site_fract_y
 _atom_site_fract_z
 _atom_site_occupancy
  K  K0  1  0.185540  0.064067  0.000000  1
  K  K1  1  0.177672  0.811861  0.000000  1
  K  K2  1  0.169247  0.849588  0.500000  1
  K  K3  1  0.658372  0.124101  0.780664  1
  K  K4  1  0.341628  0.624101  0.280664  1
  K  K5  1  0.830753  0.349588  0.000000  1
  K  K6  1  0.822328  0.311861  0.500000  1
  K  K7  1  0.341628  0.624101  0.719336  1
  K  K8  1  0.814460  0.564067  0.500000  1
  K  K9  1  0.658372  0.124101  0.219336  1
  K  K10  1  0.752144  0.605386  0.000000  1
  K  K11  1  0.247856  0.105386  0.500000  1
  Ho  Ho12  1  0.835736  0.460250  0.260273  1
  Ho  Ho13  1  0.164264  0.960250  0.760274  1
  Ho  Ho14  1  0.835736  0.460250  0.739726  1
  Ho  Ho15  1  0.164264  0.960250  0.239727  1
  Si  Si16  1  0.321719  0.370385  0.609888  1
  Si  Si17  1  0.678281  0.870385  0.109888  1
  Si  Si18  1  0.678281  0.870385  0.890112  1
  Si  Si19  1  0.331222  0.437946  0.116299  1
  Si  Si20  1  0.668778  0.937946  0.383701  1
  Si  Si21  1  0.163089  0.247138  0.780590  1
  Si  Si22  1  0.668778  0.937946  0.616299  1
  Si  Si23  1  0.163089  0.247138  0.219410  1
  Si  Si24  1  0.331222  0.437946  0.883701  1
  Si  Si25  1  0.836911  0.747138  0.719410  1
  Si  Si26  1  0.836911  0.747138  0.280590  1
  Si  Si27  1  0.321719  0.370385  0.390112  1
  O  O28  1  0.323854  0.312156  0.141733  1
  O  O29  1  0.091253  0.795380  0.281020  1
  O  O30  1  0.177848  0.126696  0.191090  1
  O  O31  1  0.573798  0.486312  0.852037  1
  O  O32  1  0.710951  0.762763  0.825662  1
  O  O33  1  0.323413  0.317639  0.500000  1
  O  O34  1  0.676146  0.812156  0.358267  1
  O  O35  1  0.676146  0.812156  0.641733  1
  O  O36  1  0.566156  0.424395  0.628160  1
  O  O37  1  0.426202  0.986312  0.352037  1
  O  O38  1  0.573798  0.486312  0.147963  1
  O  O39  1  0.108887  0.498846  0.154228  1
  O  O40  1  0.177848  0.126696  0.808910  1
  O  O41  1  0.101213  0.443856  0.378218  1
  O  O42  1  0.091253  0.795380  0.718980  1
  O  O43  1  0.323854  0.312156  0.858267  1
  O  O44  1  0.566156  0.424395  0.371840  1
  O  O45  1  0.898787  0.943856  0.121782  1
  O  O46  1  0.822152  0.626696  0.691090  1
  O  O47  1  0.676587  0.817639  0.000000  1
  O  O48  1  0.101213  0.443856  0.621782  1
  O  O49  1  0.674560  0.938915  0.500000  1
  O  O50  1  0.433844  0.924395  0.128160  1
  O  O51  1  0.108887  0.498846  0.845772  1
  O  O52  1  0.891113  0.998846  0.345772  1
  O  O53  1  0.710951  0.762763  0.174338  1
  O  O54  1  0.898787  0.943856  0.878218  1
  O  O55  1  0.822152  0.626696  0.308910  1
  O  O56  1  0.433844  0.924395  0.871840  1
  O  O57  1  0.289049  0.262763  0.674338  1
  O  O58  1  0.891113  0.998846  0.654228  1
  O  O59  1  0.289049  0.262763  0.325662  1
  O  O60  1  0.325440  0.438915  0.000000  1
  O  O61  1  0.426202  0.986312  0.647963  1
  O  O62  1  0.908747  0.295380  0.781020  1
  O  O63  1  0.908747  0.295380  0.218980  1
