# generated using pymatgen
data_Fe5(PO4)4
_symmetry_space_group_name_H-M   'P 1'
_cell_length_a   5.17883782
_cell_length_b   8.04848956
_cell_length_c   8.39167340
_cell_angle_alpha   112.00605656
_cell_angle_beta   91.57499399
_cell_angle_gamma   100.85235969
_symmetry_Int_Tables_number   1
_chemical_formula_structural   Fe5(PO4)4
_chemical_formula_sum   'Fe5 P4 O16'
_cell_volume   316.64558942
_cell_formula_units_Z   1
loop_
 _symmetry_equiv_pos_site_id
 _symmetry_equiv_pos_as_xyz
  1  'x, y, z'
loop_
 _atom_site_type_symbol
 _atom_site_label
 _atom_site_symmetry_multiplicity
 _atom_site_fract_x
 _atom_site_fract_y
 _atom_site_fract_z
 _atom_site_occupancy
  Fe  Fe0  1  0.353981  0.583385  0.333375  1
  Fe  Fe1  1  0.646019  0.416615  0.666625  1
  Fe  Fe2  1  0.103639  0.243739  0.770568  1
  Fe  Fe3  1  0.000000  0.000000  0.000000  1
  Fe  Fe4  1  0.896361  0.756261  0.229432  1
  P  P5  1  0.363014  0.694175  0.978781  1
  P  P6  1  0.636986  0.305825  0.021219  1
  P  P7  1  0.864628  0.796214  0.567343  1
  P  P8  1  0.135372  0.203786  0.432657  1
  O  O9  1  0.334584  0.182750  0.566916  1
  O  O10  1  0.739306  0.642427  0.622116  1
  O  O11  1  0.781292  0.336490  0.867798  1
  O  O12  1  0.239731  0.822960  0.922963  1
  O  O13  1  0.904296  0.245912  0.545820  1
  O  O14  1  0.095704  0.754088  0.454180  1
  O  O15  1  0.945655  0.978626  0.728232  1
  O  O16  1  0.672861  0.497453  0.172892  1
  O  O17  1  0.260694  0.357573  0.377884  1
  O  O18  1  0.054345  0.021374  0.271768  1
  O  O19  1  0.665416  0.817250  0.433084  1
  O  O20  1  0.218708  0.663510  0.132202  1
  O  O21  1  0.760269  0.177040  0.077037  1
  O  O22  1  0.327139  0.502547  0.827108  1
  O  O23  1  0.666896  0.768951  0.036882  1
  O  O24  1  0.333104  0.231049  0.963118  1
