# generated using pymatgen
data_Dy3Se4O12F
_symmetry_space_group_name_H-M   'P 1'
_cell_length_a   10.46302523
_cell_length_b   10.46302523
_cell_length_c   6.88621050
_cell_angle_alpha   90.00000000
_cell_angle_beta   90.00000000
_cell_angle_gamma   120.00000000
_symmetry_Int_Tables_number   1
_chemical_formula_structural   Dy3Se4O12F
_chemical_formula_sum   'Dy6 Se8 O24 F2'
_cell_volume   652.86813342
_cell_formula_units_Z   2
loop_
 _symmetry_equiv_pos_site_id
 _symmetry_equiv_pos_as_xyz
  1  'x, y, z'
loop_
 _atom_site_type_symbol
 _atom_site_label
 _atom_site_symmetry_multiplicity
 _atom_site_fract_x
 _atom_site_fract_y
 _atom_site_fract_z
 _atom_site_occupancy
  Dy  Dy0  1  0.462179  0.924358  0.317365  1
  Dy  Dy1  1  0.075642  0.537821  0.317365  1
  Dy  Dy2  1  0.537821  0.462179  0.817365  1
  Dy  Dy3  1  0.462179  0.537821  0.317365  1
  Dy  Dy4  1  0.537821  0.075642  0.817365  1
  Dy  Dy5  1  0.924358  0.462179  0.817365  1
  Se  Se6  1  0.690042  0.845021  0.084309  1
  Se  Se7  1  0.154979  0.845021  0.084309  1
  Se  Se8  1  0.845021  0.690042  0.584309  1
  Se  Se9  1  0.845021  0.154979  0.584309  1
  Se  Se10  1  0.333333  0.666667  0.751346  1
  Se  Se11  1  0.309958  0.154979  0.584309  1
  Se  Se12  1  0.666667  0.333333  0.251346  1
  Se  Se13  1  0.154979  0.309958  0.084309  1
  O  O14  1  0.416864  0.080572  0.514363  1
  O  O15  1  0.182249  0.364499  0.323950  1
  O  O16  1  0.817751  0.182249  0.823950  1
  O  O17  1  0.663707  0.080572  0.514363  1
  O  O18  1  0.583136  0.919428  0.014363  1
  O  O19  1  0.663707  0.583136  0.514363  1
  O  O20  1  0.817751  0.635501  0.823950  1
  O  O21  1  0.080572  0.416864  0.014363  1
  O  O22  1  0.419198  0.580802  0.638650  1
  O  O23  1  0.416864  0.336293  0.514363  1
  O  O24  1  0.580802  0.161604  0.138650  1
  O  O25  1  0.419198  0.838396  0.638650  1
  O  O26  1  0.336293  0.416864  0.014363  1
  O  O27  1  0.580802  0.419198  0.138650  1
  O  O28  1  0.838396  0.419198  0.138650  1
  O  O29  1  0.583136  0.663707  0.014363  1
  O  O30  1  0.635501  0.817751  0.323950  1
  O  O31  1  0.919428  0.583136  0.514363  1
  O  O32  1  0.182249  0.817751  0.323950  1
  O  O33  1  0.336293  0.919428  0.014363  1
  O  O34  1  0.919428  0.336293  0.514363  1
  O  O35  1  0.364499  0.182249  0.823950  1
  O  O36  1  0.080572  0.663707  0.014363  1
  O  O37  1  0.161604  0.580802  0.638650  1
  F  F38  1  0.666667  0.333333  0.771942  1
  F  F39  1  0.333333  0.666667  0.271942  1
