# generated using pymatgen
data_Rb4Nb2S10O
_symmetry_space_group_name_H-M   'P 1'
_cell_length_a   7.96500413
_cell_length_b   13.23490532
_cell_length_c   18.47804931
_cell_angle_alpha   90.00000000
_cell_angle_beta   90.00000000
_cell_angle_gamma   90.00000000
_symmetry_Int_Tables_number   1
_chemical_formula_structural   Rb4Nb2S10O
_chemical_formula_sum   'Rb16 Nb8 S40 O4'
_cell_volume   1947.88344178
_cell_formula_units_Z   4
loop_
 _symmetry_equiv_pos_site_id
 _symmetry_equiv_pos_as_xyz
  1  'x, y, z'
loop_
 _atom_site_type_symbol
 _atom_site_label
 _atom_site_symmetry_multiplicity
 _atom_site_fract_x
 _atom_site_fract_y
 _atom_site_fract_z
 _atom_site_occupancy
  Rb  Rb0  1  0.290811  0.062858  0.516928  1
  Rb  Rb1  1  0.709189  0.562858  0.516928  1
  Rb  Rb2  1  0.833682  0.266070  0.384627  1
  Rb  Rb3  1  0.352877  0.093748  0.812462  1
  Rb  Rb4  1  0.315803  0.739014  0.651188  1
  Rb  Rb5  1  0.315803  0.760986  0.151188  1
  Rb  Rb6  1  0.833682  0.233930  0.884627  1
  Rb  Rb7  1  0.684197  0.239014  0.651188  1
  Rb  Rb8  1  0.166318  0.733930  0.884627  1
  Rb  Rb9  1  0.647123  0.906252  0.312462  1
  Rb  Rb10  1  0.352877  0.406252  0.312462  1
  Rb  Rb11  1  0.290811  0.437142  0.016928  1
  Rb  Rb12  1  0.709189  0.937142  0.016928  1
  Rb  Rb13  1  0.684197  0.260986  0.151188  1
  Rb  Rb14  1  0.647123  0.593748  0.812462  1
  Rb  Rb15  1  0.166318  0.766070  0.384627  1
  Nb  Nb16  1  0.242054  0.459114  0.744350  1
  Nb  Nb17  1  0.718906  0.897169  0.556608  1
  Nb  Nb18  1  0.757946  0.959114  0.744350  1
  Nb  Nb19  1  0.281094  0.102831  0.056608  1
  Nb  Nb20  1  0.757946  0.540886  0.244350  1
  Nb  Nb21  1  0.242054  0.040886  0.244350  1
  Nb  Nb22  1  0.281094  0.397169  0.556608  1
  Nb  Nb23  1  0.718906  0.602831  0.056608  1
  S  S24  1  0.461400  0.347898  0.800227  1
  S  S25  1  0.070979  0.263133  0.573080  1
  S  S26  1  0.747184  0.433317  0.001879  1
  S  S27  1  0.094404  0.459685  0.455653  1
  S  S28  1  0.094404  0.040315  0.955653  1
  S  S29  1  0.756477  0.728054  0.157147  1
  S  S30  1  0.536668  0.986517  0.648427  1
  S  S31  1  0.227916  0.339793  0.850379  1
  S  S32  1  0.463332  0.486517  0.648427  1
  S  S33  1  0.243523  0.228054  0.157147  1
  S  S34  1  0.934206  0.064168  0.231665  1
  S  S35  1  0.491111  0.325396  0.491075  1
  S  S36  1  0.538600  0.847898  0.800227  1
  S  S37  1  0.065794  0.564168  0.231665  1
  S  S38  1  0.756477  0.771946  0.657147  1
  S  S39  1  0.252816  0.566683  0.501879  1
  S  S40  1  0.772084  0.660207  0.350379  1
  S  S41  1  0.065794  0.935832  0.731665  1
  S  S42  1  0.491111  0.174604  0.991075  1
  S  S43  1  0.929021  0.763133  0.573080  1
  S  S44  1  0.772084  0.839793  0.850379  1
  S  S45  1  0.953536  0.009320  0.644369  1
  S  S46  1  0.508889  0.825396  0.491075  1
  S  S47  1  0.461400  0.152102  0.300227  1
  S  S48  1  0.252816  0.933317  0.001879  1
  S  S49  1  0.070979  0.236867  0.073080  1
  S  S50  1  0.046464  0.990680  0.144369  1
  S  S51  1  0.243523  0.271946  0.657147  1
  S  S52  1  0.536668  0.513483  0.148427  1
  S  S53  1  0.929021  0.736867  0.073080  1
  S  S54  1  0.905596  0.540315  0.955653  1
  S  S55  1  0.538600  0.652102  0.300227  1
  S  S56  1  0.508889  0.674604  0.991075  1
  S  S57  1  0.747184  0.066683  0.501879  1
  S  S58  1  0.463332  0.013483  0.148427  1
  S  S59  1  0.046464  0.509320  0.644369  1
  S  S60  1  0.934206  0.435832  0.731665  1
  S  S61  1  0.953536  0.490680  0.144369  1
  S  S62  1  0.905596  0.959685  0.455653  1
  S  S63  1  0.227916  0.160207  0.350379  1
  O  O64  1  0.728614  0.076978  0.790755  1
  O  O65  1  0.271386  0.576978  0.790755  1
  O  O66  1  0.271386  0.923022  0.290755  1
  O  O67  1  0.728614  0.423022  0.290755  1
