# generated using pymatgen
data_Cs2Cr(NO3)5
_symmetry_space_group_name_H-M   'P 1'
_cell_length_a   11.39015200
_cell_length_b   11.39015200
_cell_length_c   10.28252250
_cell_angle_alpha   90.00000000
_cell_angle_beta   90.00000000
_cell_angle_gamma   120.00000000
_symmetry_Int_Tables_number   1
_chemical_formula_structural   Cs2Cr(NO3)5
_chemical_formula_sum   'Cs6 Cr3 N15 O45'
_cell_volume   1155.28554601
_cell_formula_units_Z   3
loop_
 _symmetry_equiv_pos_site_id
 _symmetry_equiv_pos_as_xyz
  1  'x, y, z'
loop_
 _atom_site_type_symbol
 _atom_site_label
 _atom_site_symmetry_multiplicity
 _atom_site_fract_x
 _atom_site_fract_y
 _atom_site_fract_z
 _atom_site_occupancy
  Cs  Cs0  1  0.000000  0.703299  0.333333  1
  Cs  Cs1  1  0.540112  0.000000  0.166667  1
  Cs  Cs2  1  0.703299  0.000000  0.666667  1
  Cs  Cs3  1  0.459888  0.459888  0.500000  1
  Cs  Cs4  1  0.000000  0.540112  0.833333  1
  Cs  Cs5  1  0.296701  0.296701  0.000000  1
  Cr  Cr6  1  0.691940  0.691940  0.000000  1
  Cr  Cr7  1  0.308060  0.000000  0.666667  1
  Cr  Cr8  1  0.000000  0.308060  0.333333  1
  N  N9  1  0.316740  0.757359  0.579202  1
  N  N10  1  0.250132  0.906348  0.942925  1
  N  N11  1  0.093652  0.343783  0.609591  1
  N  N12  1  0.749868  0.656217  0.723742  1
  N  N13  1  0.000000  0.088954  0.333333  1
  N  N14  1  0.906348  0.250132  0.057075  1
  N  N15  1  0.656217  0.749868  0.276258  1
  N  N16  1  0.757359  0.316740  0.420798  1
  N  N17  1  0.559381  0.242641  0.754131  1
  N  N18  1  0.440619  0.683260  0.912535  1
  N  N19  1  0.911046  0.911046  0.000000  1
  N  N20  1  0.683260  0.440619  0.087465  1
  N  N21  1  0.242641  0.559381  0.245869  1
  N  N22  1  0.343783  0.093652  0.390409  1
  N  N23  1  0.088954  0.000000  0.666667  1
  O  O24  1  0.228803  0.869805  0.818495  1
  O  O25  1  0.374622  0.185406  0.309765  1
  O  O26  1  0.698775  0.671286  0.304384  1
  O  O27  1  0.809424  0.511497  0.089350  1
  O  O28  1  0.107519  0.911522  0.604031  1
  O  O29  1  0.328714  0.027489  0.971051  1
  O  O30  1  0.892481  0.804003  0.062636  1
  O  O31  1  0.381534  0.698153  0.562507  1
  O  O32  1  0.683381  0.301847  0.770826  1
  O  O33  1  0.618466  0.316619  0.104159  1
  O  O34  1  0.698153  0.381534  0.437493  1
  O  O35  1  0.982110  0.000000  0.666667  1
  O  O36  1  0.389509  0.890182  0.600079  1
  O  O37  1  0.625378  0.810784  0.356901  1
  O  O38  1  0.869805  0.228803  0.181505  1
  O  O39  1  0.890182  0.389509  0.399921  1
  O  O40  1  0.500673  0.610491  0.933412  1
  O  O41  1  0.499327  0.109818  0.733254  1
  O  O42  1  0.189216  0.814594  0.023568  1
  O  O43  1  0.109818  0.499327  0.266746  1
  O  O44  1  0.027489  0.328714  0.028949  1
  O  O45  1  0.702073  0.190576  0.422684  1
  O  O46  1  0.297927  0.488503  0.243983  1
  O  O47  1  0.641002  0.771197  0.151829  1
  O  O48  1  0.358998  0.130195  0.514838  1
  O  O49  1  0.911522  0.107519  0.395969  1
  O  O50  1  0.972511  0.301225  0.637717  1
  O  O51  1  0.804003  0.892481  0.937364  1
  O  O52  1  0.185406  0.374622  0.690235  1
  O  O53  1  0.511497  0.809424  0.910650  1
  O  O54  1  0.195997  0.088478  0.729302  1
  O  O55  1  0.771197  0.641002  0.848171  1
  O  O56  1  0.610491  0.500673  0.066588  1
  O  O57  1  0.301847  0.683381  0.229174  1
  O  O58  1  0.088478  0.195997  0.270698  1
  O  O59  1  0.130195  0.358998  0.485162  1
  O  O60  1  0.671286  0.698775  0.695616  1
  O  O61  1  0.814594  0.189216  0.976432  1
  O  O62  1  0.488503  0.297927  0.756017  1
  O  O63  1  0.017890  0.017890  0.000000  1
  O  O64  1  0.301225  0.972511  0.362283  1
  O  O65  1  0.810784  0.625378  0.643099  1
  O  O66  1  0.000000  0.982110  0.333333  1
  O  O67  1  0.190576  0.702073  0.577316  1
  O  O68  1  0.316619  0.618466  0.895841  1
