# generated using pymatgen
data_Na3Li4Th6F31
_symmetry_space_group_name_H-M   'P 1'
_cell_length_a   9.96199681
_cell_length_b   9.96199681
_cell_length_c   13.46531388
_cell_angle_alpha   90.00000000
_cell_angle_beta   90.00000000
_cell_angle_gamma   120.00000000
_symmetry_Int_Tables_number   1
_chemical_formula_structural   Na3Li4Th6F31
_chemical_formula_sum   'Na6 Li8 Th12 F62'
_cell_volume   1157.28389670
_cell_formula_units_Z   2
loop_
 _symmetry_equiv_pos_site_id
 _symmetry_equiv_pos_as_xyz
  1  'x, y, z'
loop_
 _atom_site_type_symbol
 _atom_site_label
 _atom_site_symmetry_multiplicity
 _atom_site_fract_x
 _atom_site_fract_y
 _atom_site_fract_z
 _atom_site_occupancy
  Na  Na0  1  0.333333  0.666667  0.757277  1
  Na  Na1  1  0.000000  0.000000  0.123509  1
  Na  Na2  1  0.333333  0.666667  0.257277  1
  Na  Na3  1  0.666667  0.333333  0.953475  1
  Na  Na4  1  0.666667  0.333333  0.453475  1
  Na  Na5  1  0.000000  0.000000  0.623509  1
  Li  Li6  1  0.238297  0.951194  0.311740  1
  Li  Li7  1  0.712897  0.951194  0.811740  1
  Li  Li8  1  0.000000  0.000000  0.361032  1
  Li  Li9  1  0.000000  0.000000  0.861032  1
  Li  Li10  1  0.048806  0.287103  0.311740  1
  Li  Li11  1  0.048806  0.761703  0.811740  1
  Li  Li12  1  0.712897  0.761703  0.311740  1
  Li  Li13  1  0.238297  0.287103  0.811740  1
  Th  Th14  1  0.913861  0.325301  0.706669  1
  Th  Th15  1  0.603973  0.920924  0.500909  1
  Th  Th16  1  0.411439  0.086139  0.706669  1
  Th  Th17  1  0.674699  0.086139  0.206669  1
  Th  Th18  1  0.079076  0.683049  0.500909  1
  Th  Th19  1  0.913861  0.588561  0.206669  1
  Th  Th20  1  0.316951  0.920924  0.000909  1
  Th  Th21  1  0.674699  0.588561  0.706669  1
  Th  Th22  1  0.079076  0.396027  0.000909  1
  Th  Th23  1  0.316951  0.396027  0.500909  1
  Th  Th24  1  0.411439  0.325301  0.206669  1
  Th  Th25  1  0.603973  0.683049  0.000909  1
  F  F26  1  0.810848  0.689784  0.083717  1
  F  F27  1  0.165656  0.654645  0.954790  1
  F  F28  1  0.443164  0.129776  0.884769  1
  F  F29  1  0.285037  0.425169  0.310964  1
  F  F30  1  0.893410  0.080852  0.264225  1
  F  F31  1  0.488990  0.834344  0.954790  1
  F  F32  1  0.443164  0.313388  0.384769  1
  F  F33  1  0.140132  0.425169  0.810964  1
  F  F34  1  0.188544  0.883212  0.624304  1
  F  F35  1  0.415602  0.546020  0.646908  1
  F  F36  1  0.285037  0.859868  0.810964  1
  F  F37  1  0.130418  0.584398  0.646908  1
  F  F38  1  0.686612  0.556836  0.884769  1
  F  F39  1  0.694668  0.811456  0.624304  1
  F  F40  1  0.116788  0.811456  0.124304  1
  F  F41  1  0.800503  0.906211  0.933118  1
  F  F42  1  0.893410  0.812558  0.764225  1
  F  F43  1  0.310216  0.121064  0.083717  1
  F  F44  1  0.884097  0.464768  0.051871  1
  F  F45  1  0.580671  0.115903  0.051871  1
  F  F46  1  0.415602  0.869582  0.146908  1
  F  F47  1  0.648133  0.554138  0.262648  1
  F  F48  1  0.116788  0.305332  0.624304  1
  F  F49  1  0.580671  0.464768  0.551871  1
  F  F50  1  0.453980  0.584398  0.146908  1
  F  F51  1  0.800503  0.894292  0.433118  1
  F  F52  1  0.574831  0.859868  0.310964  1
  F  F53  1  0.906005  0.351867  0.262648  1
  F  F54  1  0.105708  0.906211  0.433118  1
  F  F55  1  0.093789  0.199497  0.433118  1
  F  F56  1  0.188544  0.305332  0.124304  1
  F  F57  1  0.310216  0.189152  0.583717  1
  F  F58  1  0.686612  0.129776  0.384769  1
  F  F59  1  0.878936  0.689784  0.583717  1
  F  F60  1  0.093789  0.894292  0.933118  1
  F  F61  1  0.870224  0.313388  0.884769  1
  F  F62  1  0.345355  0.511010  0.954790  1
  F  F63  1  0.648133  0.093995  0.762648  1
  F  F64  1  0.445862  0.093995  0.262648  1
  F  F65  1  0.878936  0.189152  0.083717  1
  F  F66  1  0.810848  0.121064  0.583717  1
  F  F67  1  0.535232  0.419329  0.051871  1
  F  F68  1  0.345355  0.834344  0.454790  1
  F  F69  1  0.140132  0.714963  0.310964  1
  F  F70  1  0.453980  0.869582  0.646908  1
  F  F71  1  0.535232  0.115903  0.551871  1
  F  F72  1  0.105708  0.199497  0.933118  1
  F  F73  1  0.445862  0.351867  0.762648  1
  F  F74  1  0.666667  0.333333  0.694011  1
  F  F75  1  0.884097  0.419329  0.551871  1
  F  F76  1  0.130418  0.546020  0.146908  1
  F  F77  1  0.906005  0.554138  0.762648  1
  F  F78  1  0.574831  0.714963  0.810964  1
  F  F79  1  0.187442  0.080852  0.764225  1
  F  F80  1  0.919148  0.106590  0.764225  1
  F  F81  1  0.919148  0.812558  0.264225  1
  F  F82  1  0.870224  0.556836  0.384769  1
  F  F83  1  0.187442  0.106590  0.264225  1
  F  F84  1  0.666667  0.333333  0.194011  1
  F  F85  1  0.165656  0.511010  0.454790  1
  F  F86  1  0.694668  0.883212  0.124304  1
  F  F87  1  0.488990  0.654645  0.454790  1
