# generated using pymatgen
data_Hf2NiP
_symmetry_space_group_name_H-M   'P 1'
_cell_length_a   5.17762997
_cell_length_b   3.59291084
_cell_length_c   7.42691298
_cell_angle_alpha   90.00000000
_cell_angle_beta   109.61252508
_cell_angle_gamma   90.00000000
_symmetry_Int_Tables_number   1
_chemical_formula_structural   Hf2NiP
_chemical_formula_sum   'Hf4 Ni2 P2'
_cell_volume   130.14556008
_cell_formula_units_Z   2
loop_
 _symmetry_equiv_pos_site_id
 _symmetry_equiv_pos_as_xyz
  1  'x, y, z'
loop_
 _atom_site_type_symbol
 _atom_site_label
 _atom_site_symmetry_multiplicity
 _atom_site_fract_x
 _atom_site_fract_y
 _atom_site_fract_z
 _atom_site_occupancy
  Hf  Hf0  1  0.221112  0.250000  0.428389  1
  Hf  Hf1  1  0.778888  0.750000  0.571611  1
  Hf  Hf2  1  0.284052  0.750000  0.074444  1
  Hf  Hf3  1  0.715948  0.250000  0.925556  1
  Ni  Ni4  1  0.643875  0.250000  0.291774  1
  Ni  Ni5  1  0.356125  0.750000  0.708226  1
  P  P6  1  0.860428  0.750000  0.209694  1
  P  P7  1  0.139572  0.250000  0.790306  1
