# generated using pymatgen
data_Si2Pd9
_symmetry_space_group_name_H-M   'P 1'
_cell_length_a   7.53468363
_cell_length_b   9.17728422
_cell_length_c   9.55579418
_cell_angle_alpha   90.00000000
_cell_angle_beta   90.00000000
_cell_angle_gamma   90.00000000
_symmetry_Int_Tables_number   1
_chemical_formula_structural   Si2Pd9
_chemical_formula_sum   'Si8 Pd36'
_cell_volume   660.76341744
_cell_formula_units_Z   4
loop_
 _symmetry_equiv_pos_site_id
 _symmetry_equiv_pos_as_xyz
  1  'x, y, z'
loop_
 _atom_site_type_symbol
 _atom_site_label
 _atom_site_symmetry_multiplicity
 _atom_site_fract_x
 _atom_site_fract_y
 _atom_site_fract_z
 _atom_site_occupancy
  Si  Si0  1  0.750000  0.632127  0.211687  1
  Si  Si1  1  0.250000  0.367873  0.788313  1
  Si  Si2  1  0.750000  0.132127  0.288313  1
  Si  Si3  1  0.250000  0.867873  0.711687  1
  Si  Si4  1  0.750000  0.772641  0.821944  1
  Si  Si5  1  0.250000  0.227359  0.178056  1
  Si  Si6  1  0.750000  0.272641  0.678056  1
  Si  Si7  1  0.250000  0.727359  0.321944  1
  Pd  Pd8  1  0.933969  0.898010  0.318934  1
  Pd  Pd9  1  0.433969  0.101990  0.681066  1
  Pd  Pd10  1  0.566031  0.398010  0.181066  1
  Pd  Pd11  1  0.066031  0.601990  0.818934  1
  Pd  Pd12  1  0.066031  0.101990  0.681066  1
  Pd  Pd13  1  0.566031  0.898010  0.318934  1
  Pd  Pd14  1  0.433969  0.601990  0.818934  1
  Pd  Pd15  1  0.933969  0.398010  0.181066  1
  Pd  Pd16  1  0.942426  0.612116  0.406371  1
  Pd  Pd17  1  0.442426  0.387884  0.593629  1
  Pd  Pd18  1  0.557574  0.112116  0.093629  1
  Pd  Pd19  1  0.057574  0.887884  0.906371  1
  Pd  Pd20  1  0.057574  0.387884  0.593629  1
  Pd  Pd21  1  0.557574  0.612116  0.406371  1
  Pd  Pd22  1  0.442426  0.887884  0.906371  1
  Pd  Pd23  1  0.942426  0.112116  0.093629  1
  Pd  Pd24  1  0.941028  0.817807  0.622617  1
  Pd  Pd25  1  0.441028  0.182193  0.377383  1
  Pd  Pd26  1  0.558972  0.317807  0.877383  1
  Pd  Pd27  1  0.058972  0.682193  0.122617  1
  Pd  Pd28  1  0.058972  0.182193  0.377383  1
  Pd  Pd29  1  0.558972  0.817807  0.622617  1
  Pd  Pd30  1  0.441028  0.682193  0.122617  1
  Pd  Pd31  1  0.941028  0.317807  0.877383  1
  Pd  Pd32  1  0.750000  0.851117  0.067323  1
  Pd  Pd33  1  0.250000  0.148883  0.932677  1
  Pd  Pd34  1  0.750000  0.351117  0.432677  1
  Pd  Pd35  1  0.250000  0.648883  0.567323  1
  Pd  Pd36  1  0.750000  0.550205  0.665128  1
  Pd  Pd37  1  0.250000  0.449795  0.334872  1
  Pd  Pd38  1  0.750000  0.050205  0.834872  1
  Pd  Pd39  1  0.250000  0.949795  0.165128  1
  Pd  Pd40  1  0.750000  0.559350  0.970377  1
  Pd  Pd41  1  0.250000  0.440650  0.029623  1
  Pd  Pd42  1  0.750000  0.059350  0.529623  1
  Pd  Pd43  1  0.250000  0.940650  0.470377  1
