# generated using pymatgen
data_Zr2Al3C4
_symmetry_space_group_name_H-M   'P 1'
_cell_length_a   3.36286486
_cell_length_b   3.36286486
_cell_length_c   22.32051665
_cell_angle_alpha   90.00000000
_cell_angle_beta   90.00000000
_cell_angle_gamma   120.00000000
_symmetry_Int_Tables_number   1
_chemical_formula_structural   Zr2Al3C4
_chemical_formula_sum   'Zr4 Al6 C8'
_cell_volume   218.60178541
_cell_formula_units_Z   2
loop_
 _symmetry_equiv_pos_site_id
 _symmetry_equiv_pos_as_xyz
  1  'x, y, z'
loop_
 _atom_site_type_symbol
 _atom_site_label
 _atom_site_symmetry_multiplicity
 _atom_site_fract_x
 _atom_site_fract_y
 _atom_site_fract_z
 _atom_site_occupancy
  Zr  Zr0  1  0.333333  0.666667  0.058703  1
  Zr  Zr1  1  0.666667  0.333333  0.941297  1
  Zr  Zr2  1  0.333333  0.666667  0.441297  1
  Zr  Zr3  1  0.666667  0.333333  0.558703  1
  Al  Al4  1  0.000000  0.000000  0.340360  1
  Al  Al5  1  0.000000  0.000000  0.840360  1
  Al  Al6  1  0.000000  0.000000  0.659640  1
  Al  Al7  1  0.666667  0.333333  0.250000  1
  Al  Al8  1  0.000000  0.000000  0.159640  1
  Al  Al9  1  0.333333  0.666667  0.750000  1
  C  C10  1  0.666667  0.333333  0.370909  1
  C  C11  1  0.333333  0.666667  0.629091  1
  C  C12  1  0.333333  0.666667  0.870909  1
  C  C13  1  0.000000  0.000000  0.000000  1
  C  C14  1  0.666667  0.333333  0.129091  1
  C  C15  1  0.000000  0.000000  0.250000  1
  C  C16  1  0.000000  0.000000  0.500000  1
  C  C17  1  0.000000  0.000000  0.750000  1
