# generated using pymatgen
data_KH5S2O9
_symmetry_space_group_name_H-M   'P 1'
_cell_length_a   7.49136829
_cell_length_b   13.70490176
_cell_length_c   8.59882600
_cell_angle_alpha   90.00000000
_cell_angle_beta   107.30374382
_cell_angle_gamma   90.00000000
_symmetry_Int_Tables_number   1
_chemical_formula_structural   KH5S2O9
_chemical_formula_sum   'K4 H20 S8 O36'
_cell_volume   842.87267783
_cell_formula_units_Z   4
loop_
 _symmetry_equiv_pos_site_id
 _symmetry_equiv_pos_as_xyz
  1  'x, y, z'
loop_
 _atom_site_type_symbol
 _atom_site_label
 _atom_site_symmetry_multiplicity
 _atom_site_fract_x
 _atom_site_fract_y
 _atom_site_fract_z
 _atom_site_occupancy
  K  K0  1  0.404656  0.468293  0.224641  1
  K  K1  1  0.595344  0.968293  0.275359  1
  K  K2  1  0.595344  0.531707  0.775359  1
  K  K3  1  0.404656  0.031707  0.724641  1
  H  H4  1  0.878234  0.432699  0.485565  1
  H  H5  1  0.121766  0.932699  0.014435  1
  H  H6  1  0.121766  0.567301  0.514435  1
  H  H7  1  0.878234  0.067301  0.985565  1
  H  H8  1  0.352763  0.725557  0.032051  1
  H  H9  1  0.647237  0.225557  0.467949  1
  H  H10  1  0.647237  0.274443  0.967949  1
  H  H11  1  0.352763  0.774443  0.532051  1
  H  H12  1  0.950895  0.793755  0.203027  1
  H  H13  1  0.049105  0.293755  0.296973  1
  H  H14  1  0.049105  0.206245  0.796973  1
  H  H15  1  0.950895  0.706245  0.703027  1
  H  H16  1  0.957415  0.669301  0.215807  1
  H  H17  1  0.042585  0.169301  0.284193  1
  H  H18  1  0.042585  0.330699  0.784193  1
  H  H19  1  0.957415  0.830699  0.715807  1
  H  H20  1  0.806318  0.725506  0.049864  1
  H  H21  1  0.193682  0.225506  0.450136  1
  H  H22  1  0.193682  0.274494  0.950136  1
  H  H23  1  0.806318  0.774494  0.549864  1
  S  S24  1  0.903384  0.475222  0.245873  1
  S  S25  1  0.096616  0.975222  0.254127  1
  S  S26  1  0.096616  0.524778  0.754127  1
  S  S27  1  0.903384  0.024778  0.745873  1
  S  S28  1  0.491009  0.798253  0.877823  1
  S  S29  1  0.508991  0.298253  0.622177  1
  S  S30  1  0.508991  0.201747  0.122177  1
  S  S31  1  0.491009  0.701747  0.377823  1
  O  O32  1  0.754936  0.495590  0.098097  1
  O  O33  1  0.245064  0.995590  0.401903  1
  O  O34  1  0.245064  0.504410  0.901903  1
  O  O35  1  0.754936  0.004410  0.598097  1
  O  O36  1  0.003313  0.566112  0.322284  1
  O  O37  1  0.996687  0.066112  0.177716  1
  O  O38  1  0.996687  0.433888  0.677716  1
  O  O39  1  0.003313  0.933888  0.822284  1
  O  O40  1  0.039824  0.401147  0.230700  1
  O  O41  1  0.960176  0.901147  0.269300  1
  O  O42  1  0.960176  0.598853  0.769300  1
  O  O43  1  0.039824  0.098853  0.730700  1
  O  O44  1  0.798509  0.433683  0.366867  1
  O  O45  1  0.201491  0.933683  0.133133  1
  O  O46  1  0.201491  0.566317  0.633133  1
  O  O47  1  0.798509  0.066317  0.866867  1
  O  O48  1  0.418050  0.825725  0.705555  1
  O  O49  1  0.581950  0.325725  0.794445  1
  O  O50  1  0.581950  0.174275  0.294445  1
  O  O51  1  0.418050  0.674275  0.205555  1
  O  O52  1  0.556202  0.882663  0.982221  1
  O  O53  1  0.443798  0.382663  0.517779  1
  O  O54  1  0.443798  0.117337  0.017779  1
  O  O55  1  0.556202  0.617337  0.482221  1
  O  O56  1  0.635628  0.720429  0.905465  1
  O  O57  1  0.364372  0.220429  0.594535  1
  O  O58  1  0.364372  0.279571  0.094535  1
  O  O59  1  0.635628  0.779571  0.405465  1
  O  O60  1  0.315717  0.752506  0.916611  1
  O  O61  1  0.684283  0.252506  0.583389  1
  O  O62  1  0.684283  0.247494  0.083389  1
  O  O63  1  0.315717  0.747494  0.416611  1
  O  O64  1  0.933532  0.728536  0.142216  1
  O  O65  1  0.066468  0.228536  0.357784  1
  O  O66  1  0.066468  0.271464  0.857784  1
  O  O67  1  0.933532  0.771464  0.642216  1
