# generated using pymatgen
data_SbS2NCl6
_symmetry_space_group_name_H-M   'P 1'
_cell_length_a   7.35138823
_cell_length_b   7.35138823
_cell_length_c   7.35138823
_cell_angle_alpha   120.68492958
_cell_angle_beta   112.29658733
_cell_angle_gamma   96.33158423
_symmetry_Int_Tables_number   1
_chemical_formula_structural   SbS2NCl6
_chemical_formula_sum   'Sb1 S2 N1 Cl6'
_cell_volume   292.15435135
_cell_formula_units_Z   1
loop_
 _symmetry_equiv_pos_site_id
 _symmetry_equiv_pos_as_xyz
  1  'x, y, z'
loop_
 _atom_site_type_symbol
 _atom_site_label
 _atom_site_symmetry_multiplicity
 _atom_site_fract_x
 _atom_site_fract_y
 _atom_site_fract_z
 _atom_site_occupancy
  Sb  Sb0  1  0.000000  0.000000  0.000000  1
  S  S1  1  0.317276  0.500000  0.817276  1
  S  S2  1  0.682724  0.500000  0.182724  1
  N  N3  1  0.500000  0.500000  0.000000  1
  Cl  Cl4  1  0.173159  0.936256  0.763098  1
  Cl  Cl5  1  0.293560  1.000000  0.293560  1
  Cl  Cl6  1  0.826841  0.589939  0.763098  1
  Cl  Cl7  1  0.706440  1.000000  0.706440  1
  Cl  Cl8  1  0.826841  0.063744  0.236902  1
  Cl  Cl9  1  0.173159  0.410061  0.236902  1
