# generated using pymatgen
data_Gd3(AlNi3)2
_symmetry_space_group_name_H-M   'P 1'
_cell_length_a   7.76419880
_cell_length_b   7.76419880
_cell_length_c   7.76419880
_cell_angle_alpha   109.47122063
_cell_angle_beta   109.47122063
_cell_angle_gamma   109.47122063
_symmetry_Int_Tables_number   1
_chemical_formula_structural   Gd3(AlNi3)2
_chemical_formula_sum   'Gd6 Al4 Ni12'
_cell_volume   360.30314187
_cell_formula_units_Z   2
loop_
 _symmetry_equiv_pos_site_id
 _symmetry_equiv_pos_as_xyz
  1  'x, y, z'
loop_
 _atom_site_type_symbol
 _atom_site_label
 _atom_site_symmetry_multiplicity
 _atom_site_fract_x
 _atom_site_fract_y
 _atom_site_fract_z
 _atom_site_occupancy
  Gd  Gd0  1  0.000000  0.292420  0.292420  1
  Gd  Gd1  1  0.292420  1.000000  0.292420  1
  Gd  Gd2  1  0.707580  1.000000  0.707580  1
  Gd  Gd3  1  0.707580  0.707580  0.000000  1
  Gd  Gd4  1  1.000000  0.707580  0.707580  1
  Gd  Gd5  1  0.292420  0.292420  0.000000  1
  Al  Al6  1  0.500000  1.000000  0.000000  1
  Al  Al7  1  0.000000  0.500000  0.000000  1
  Al  Al8  1  0.000000  1.000000  0.500000  1
  Al  Al9  1  0.500000  0.500000  0.500000  1
  Ni  Ni10  1  1.000000  0.333570  0.666430  1
  Ni  Ni11  1  0.333570  0.000000  0.666430  1
  Ni  Ni12  1  0.666430  0.333570  0.000000  1
  Ni  Ni13  1  0.333570  0.666430  0.000000  1
  Ni  Ni14  1  0.666430  0.666430  0.332861  1
  Ni  Ni15  1  1.000000  0.666430  0.333570  1
  Ni  Ni16  1  0.333570  0.333570  0.667139  1
  Ni  Ni17  1  0.666430  1.000000  0.333570  1
  Ni  Ni18  1  0.667139  0.333570  0.333570  1
  Ni  Ni19  1  0.333570  0.667139  0.333570  1
  Ni  Ni20  1  0.332861  0.666430  0.666430  1
  Ni  Ni21  1  0.666430  0.332861  0.666430  1
