# generated using pymatgen
data_Al2Si2Pb2O9
_symmetry_space_group_name_H-M   'P 1'
_cell_length_a   6.97168600
_cell_length_b   9.86720200
_cell_length_c   10.84560400
_cell_angle_alpha   90.00000000
_cell_angle_beta   90.00000000
_cell_angle_gamma   90.00000000
_symmetry_Int_Tables_number   1
_chemical_formula_structural   Al2Si2Pb2O9
_chemical_formula_sum   'Al8 Si8 Pb8 O36'
_cell_volume   746.08031398
_cell_formula_units_Z   4
loop_
 _symmetry_equiv_pos_site_id
 _symmetry_equiv_pos_as_xyz
  1  'x, y, z'
loop_
 _atom_site_type_symbol
 _atom_site_label
 _atom_site_symmetry_multiplicity
 _atom_site_fract_x
 _atom_site_fract_y
 _atom_site_fract_z
 _atom_site_occupancy
  Al  Al0  1  0.500000  0.000000  0.000000  1
  Al  Al1  1  0.500000  0.750000  0.853576  1
  Al  Al2  1  0.000000  0.750000  0.353576  1
  Al  Al3  1  0.500000  0.250000  0.146424  1
  Al  Al4  1  0.000000  0.000000  0.500000  1
  Al  Al5  1  0.000000  0.250000  0.646424  1
  Al  Al6  1  0.500000  0.500000  0.000000  1
  Al  Al7  1  0.000000  0.500000  0.500000  1
  Si  Si8  1  0.716995  0.751315  0.588256  1
  Si  Si9  1  0.216995  0.748685  0.088256  1
  Si  Si10  1  0.283005  0.248685  0.411744  1
  Si  Si11  1  0.216995  0.248685  0.911744  1
  Si  Si12  1  0.716995  0.251315  0.411744  1
  Si  Si13  1  0.283005  0.748685  0.588256  1
  Si  Si14  1  0.783005  0.251315  0.911744  1
  Si  Si15  1  0.783005  0.751315  0.088256  1
  Pb  Pb16  1  0.049739  0.048970  0.196164  1
  Pb  Pb17  1  0.049739  0.548970  0.803836  1
  Pb  Pb18  1  0.450261  0.548970  0.303836  1
  Pb  Pb19  1  0.549739  0.451030  0.696164  1
  Pb  Pb20  1  0.950261  0.451030  0.196164  1
  Pb  Pb21  1  0.549739  0.951030  0.303836  1
  Pb  Pb22  1  0.950261  0.951030  0.803836  1
  Pb  Pb23  1  0.450261  0.048970  0.696164  1
  O  O24  1  0.692464  0.403716  0.894285  1
  O  O25  1  0.390862  0.077846  0.140747  1
  O  O26  1  0.307536  0.096284  0.894285  1
  O  O27  1  0.609138  0.922154  0.859253  1
  O  O28  1  0.500000  0.250000  0.477391  1
  O  O29  1  0.890862  0.922154  0.359253  1
  O  O30  1  0.347473  0.336837  0.007230  1
  O  O31  1  0.307536  0.596284  0.105715  1
  O  O32  1  0.684780  0.683822  0.725954  1
  O  O33  1  0.184780  0.316178  0.774046  1
  O  O34  1  0.347473  0.836837  0.992770  1
  O  O35  1  0.152527  0.336837  0.507230  1
  O  O36  1  0.109138  0.577846  0.359253  1
  O  O37  1  0.847473  0.163163  0.507230  1
  O  O38  1  0.684780  0.183822  0.274046  1
  O  O39  1  0.315220  0.816178  0.725954  1
  O  O40  1  0.192464  0.596284  0.605715  1
  O  O41  1  0.315220  0.316178  0.274046  1
  O  O42  1  0.184780  0.816178  0.225954  1
  O  O43  1  0.390862  0.577846  0.859253  1
  O  O44  1  0.000000  0.250000  0.977391  1
  O  O45  1  0.890862  0.422154  0.640747  1
  O  O46  1  0.847473  0.663163  0.492770  1
  O  O47  1  0.109138  0.077846  0.640747  1
  O  O48  1  0.807536  0.903716  0.605715  1
  O  O49  1  0.152527  0.836837  0.492770  1
  O  O50  1  0.609138  0.422154  0.140747  1
  O  O51  1  0.192464  0.096284  0.394285  1
  O  O52  1  0.692464  0.903716  0.105715  1
  O  O53  1  0.815220  0.183822  0.774046  1
  O  O54  1  0.807536  0.403716  0.394285  1
  O  O55  1  0.652527  0.663163  0.992770  1
  O  O56  1  0.652527  0.163163  0.007230  1
  O  O57  1  0.000000  0.750000  0.022609  1
  O  O58  1  0.815220  0.683822  0.225954  1
  O  O59  1  0.500000  0.750000  0.522609  1
