# generated using pymatgen
data_DyC2
_symmetry_space_group_name_H-M   'P 1'
_cell_length_a   4.04872915
_cell_length_b   4.04872915
_cell_length_c   4.04872915
_cell_angle_alpha   126.08811100
_cell_angle_beta   126.08811100
_cell_angle_gamma   79.74337249
_symmetry_Int_Tables_number   1
_chemical_formula_structural   DyC2
_chemical_formula_sum   'Dy1 C2'
_cell_volume   41.86642725
_cell_formula_units_Z   1
loop_
 _symmetry_equiv_pos_site_id
 _symmetry_equiv_pos_as_xyz
  1  'x, y, z'
loop_
 _atom_site_type_symbol
 _atom_site_label
 _atom_site_symmetry_multiplicity
 _atom_site_fract_x
 _atom_site_fract_y
 _atom_site_fract_z
 _atom_site_occupancy
  Dy  Dy0  1  0.000000  0.000000  0.000000  1
  C  C1  1  0.395141  0.395141  0.000000  1
  C  C2  1  0.604859  0.604859  0.000000  1
