# generated using pymatgen
data_AlHg2SbCl4
_symmetry_space_group_name_H-M   'P 1'
_cell_length_a   8.98027482
_cell_length_b   12.47018334
_cell_length_c   18.04540446
_cell_angle_alpha   90.00000000
_cell_angle_beta   90.00000000
_cell_angle_gamma   90.00000000
_symmetry_Int_Tables_number   1
_chemical_formula_structural   AlHg2SbCl4
_chemical_formula_sum   'Al8 Hg16 Sb8 Cl32'
_cell_volume   2020.82677111
_cell_formula_units_Z   8
loop_
 _symmetry_equiv_pos_site_id
 _symmetry_equiv_pos_as_xyz
  1  'x, y, z'
loop_
 _atom_site_type_symbol
 _atom_site_label
 _atom_site_symmetry_multiplicity
 _atom_site_fract_x
 _atom_site_fract_y
 _atom_site_fract_z
 _atom_site_occupancy
  Al  Al0  1  0.167254  0.989199  0.122053  1
  Al  Al1  1  0.838378  0.709130  0.633980  1
  Al  Al2  1  0.332746  0.989199  0.622053  1
  Al  Al3  1  0.667254  0.489199  0.377947  1
  Al  Al4  1  0.338378  0.209130  0.866020  1
  Al  Al5  1  0.661622  0.709130  0.133980  1
  Al  Al6  1  0.161622  0.209130  0.366020  1
  Al  Al7  1  0.832746  0.489199  0.877947  1
  Hg  Hg8  1  0.420306  0.333883  0.124197  1
  Hg  Hg9  1  0.755035  0.100286  0.493138  1
  Hg  Hg10  1  0.920788  0.361893  0.121151  1
  Hg  Hg11  1  0.255035  0.600286  0.006862  1
  Hg  Hg12  1  0.579694  0.833883  0.875803  1
  Hg  Hg13  1  0.079694  0.333883  0.624197  1
  Hg  Hg14  1  0.796346  0.096335  0.743939  1
  Hg  Hg15  1  0.244965  0.600286  0.506862  1
  Hg  Hg16  1  0.579212  0.361893  0.621151  1
  Hg  Hg17  1  0.296346  0.596335  0.756061  1
  Hg  Hg18  1  0.703654  0.096335  0.243939  1
  Hg  Hg19  1  0.920306  0.833883  0.375803  1
  Hg  Hg20  1  0.203654  0.596335  0.256061  1
  Hg  Hg21  1  0.744965  0.100286  0.993138  1
  Hg  Hg22  1  0.420788  0.861893  0.378849  1
  Hg  Hg23  1  0.079212  0.861893  0.878849  1
  Sb  Sb24  1  0.815909  0.221202  0.618297  1
  Sb  Sb25  1  0.684091  0.221202  0.118297  1
  Sb  Sb26  1  0.184091  0.721202  0.381703  1
  Sb  Sb27  1  0.314554  0.475244  0.628660  1
  Sb  Sb28  1  0.685446  0.975244  0.371340  1
  Sb  Sb29  1  0.315909  0.721202  0.881703  1
  Sb  Sb30  1  0.185446  0.475244  0.128660  1
  Sb  Sb31  1  0.814554  0.975244  0.871340  1
  Cl  Cl32  1  0.310460  0.337357  0.945561  1
  Cl  Cl33  1  0.125970  0.847284  0.055862  1
  Cl  Cl34  1  0.141178  0.192474  0.799671  1
  Cl  Cl35  1  0.573332  0.627368  0.434687  1
  Cl  Cl36  1  0.073332  0.127368  0.065313  1
  Cl  Cl37  1  0.474033  0.748504  0.204632  1
  Cl  Cl38  1  0.942710  0.468640  0.772812  1
  Cl  Cl39  1  0.598937  0.516629  0.864936  1
  Cl  Cl40  1  0.885867  0.562522  0.574027  1
  Cl  Cl41  1  0.189540  0.337357  0.445561  1
  Cl  Cl42  1  0.442710  0.968640  0.727188  1
  Cl  Cl43  1  0.426668  0.127368  0.565313  1
  Cl  Cl44  1  0.625970  0.347284  0.444138  1
  Cl  Cl45  1  0.098937  0.016629  0.635064  1
  Cl  Cl46  1  0.641178  0.692474  0.700329  1
  Cl  Cl47  1  0.858822  0.692474  0.200329  1
  Cl  Cl48  1  0.874030  0.347284  0.944138  1
  Cl  Cl49  1  0.614133  0.562522  0.074027  1
  Cl  Cl50  1  0.401063  0.016629  0.135064  1
  Cl  Cl51  1  0.374030  0.847284  0.555862  1
  Cl  Cl52  1  0.901063  0.516629  0.364936  1
  Cl  Cl53  1  0.557290  0.468640  0.272812  1
  Cl  Cl54  1  0.057290  0.968640  0.227188  1
  Cl  Cl55  1  0.358822  0.192474  0.299671  1
  Cl  Cl56  1  0.525967  0.248504  0.795368  1
  Cl  Cl57  1  0.926668  0.627368  0.934687  1
  Cl  Cl58  1  0.810460  0.837357  0.554439  1
  Cl  Cl59  1  0.114133  0.062522  0.425973  1
  Cl  Cl60  1  0.385867  0.062522  0.925973  1
  Cl  Cl61  1  0.689540  0.837357  0.054439  1
  Cl  Cl62  1  0.974033  0.248504  0.295368  1
  Cl  Cl63  1  0.025967  0.748504  0.704632  1
