# generated using pymatgen
data_Ba3SrNb2O9
_symmetry_space_group_name_H-M   'P 1'
_cell_length_a   6.15082161
_cell_length_b   6.15082161
_cell_length_c   15.71980613
_cell_angle_alpha   90.00000000
_cell_angle_beta   90.00000000
_cell_angle_gamma   120.00000000
_symmetry_Int_Tables_number   1
_chemical_formula_structural   Ba3SrNb2O9
_chemical_formula_sum   'Ba6 Sr2 Nb4 O18'
_cell_volume   515.04370054
_cell_formula_units_Z   2
loop_
 _symmetry_equiv_pos_site_id
 _symmetry_equiv_pos_as_xyz
  1  'x, y, z'
loop_
 _atom_site_type_symbol
 _atom_site_label
 _atom_site_symmetry_multiplicity
 _atom_site_fract_x
 _atom_site_fract_y
 _atom_site_fract_z
 _atom_site_occupancy
  Ba  Ba0  1  0.000000  0.000000  0.250000  1
  Ba  Ba1  1  0.000000  0.000000  0.750000  1
  Ba  Ba2  1  0.333333  0.666667  0.122978  1
  Ba  Ba3  1  0.666667  0.333333  0.622978  1
  Ba  Ba4  1  0.666667  0.333333  0.877022  1
  Ba  Ba5  1  0.333333  0.666667  0.377022  1
  Sr  Sr6  1  0.000000  0.000000  0.000000  1
  Sr  Sr7  1  0.000000  0.000000  0.500000  1
  Nb  Nb8  1  0.333333  0.666667  0.846031  1
  Nb  Nb9  1  0.666667  0.333333  0.346031  1
  Nb  Nb10  1  0.666667  0.333333  0.153969  1
  Nb  Nb11  1  0.333333  0.666667  0.653969  1
  O  O12  1  0.567019  0.040914  0.250000  1
  O  O13  1  0.526104  0.567019  0.750000  1
  O  O14  1  0.040914  0.473896  0.750000  1
  O  O15  1  0.959086  0.526104  0.250000  1
  O  O16  1  0.473896  0.432981  0.250000  1
  O  O17  1  0.432981  0.959086  0.750000  1
  O  O18  1  0.760968  0.646600  0.098878  1
  O  O19  1  0.114368  0.760968  0.598878  1
  O  O20  1  0.646600  0.885632  0.598878  1
  O  O21  1  0.353400  0.114368  0.098878  1
  O  O22  1  0.885632  0.239032  0.098878  1
  O  O23  1  0.239032  0.353400  0.598878  1
  O  O24  1  0.239032  0.353400  0.901122  1
  O  O25  1  0.885632  0.239032  0.401122  1
  O  O26  1  0.353400  0.114368  0.401122  1
  O  O27  1  0.646600  0.885632  0.901122  1
  O  O28  1  0.114368  0.760968  0.901122  1
  O  O29  1  0.760968  0.646600  0.401122  1
