# generated using pymatgen
data_CaU(MoO4)4
_symmetry_space_group_name_H-M   'P 1'
_cell_length_a   8.36170084
_cell_length_b   6.74832310
_cell_length_c   14.29053936
_cell_angle_alpha   90.00000000
_cell_angle_beta   125.42028669
_cell_angle_gamma   90.00000000
_symmetry_Int_Tables_number   1
_chemical_formula_structural   CaU(MoO4)4
_chemical_formula_sum   'Ca2 U2 Mo8 O32'
_cell_volume   657.13635753
_cell_formula_units_Z   2
loop_
 _symmetry_equiv_pos_site_id
 _symmetry_equiv_pos_as_xyz
  1  'x, y, z'
loop_
 _atom_site_type_symbol
 _atom_site_label
 _atom_site_symmetry_multiplicity
 _atom_site_fract_x
 _atom_site_fract_y
 _atom_site_fract_z
 _atom_site_occupancy
  Ca  Ca0  1  0.500000  0.300179  0.750000  1
  Ca  Ca1  1  0.500000  0.699821  0.250000  1
  U  U2  1  0.000000  0.698735  0.250000  1
  U  U3  1  0.000000  0.301265  0.750000  1
  Mo  Mo4  1  0.798864  0.832740  0.593084  1
  Mo  Mo5  1  0.201136  0.167260  0.406916  1
  Mo  Mo6  1  0.301458  0.830619  0.595961  1
  Mo  Mo7  1  0.201136  0.832740  0.906916  1
  Mo  Mo8  1  0.798864  0.167260  0.093084  1
  Mo  Mo9  1  0.698542  0.169381  0.404039  1
  Mo  Mo10  1  0.698542  0.830619  0.904039  1
  Mo  Mo11  1  0.301458  0.169381  0.095961  1
  O  O12  1  0.184725  0.150552  0.932063  1
  O  O13  1  0.093329  0.152926  0.096553  1
  O  O14  1  0.815275  0.150552  0.567937  1
  O  O15  1  0.635131  0.419995  0.375617  1
  O  O16  1  0.364869  0.580005  0.624383  1
  O  O17  1  0.314346  0.148325  0.562838  1
  O  O18  1  0.594802  0.843761  0.597483  1
  O  O19  1  0.184725  0.849448  0.432063  1
  O  O20  1  0.500000  0.934172  0.750000  1
  O  O21  1  0.906671  0.847074  0.903447  1
  O  O22  1  0.364869  0.419995  0.124383  1
  O  O23  1  0.000000  0.942480  0.750000  1
  O  O24  1  0.906671  0.152926  0.403447  1
  O  O25  1  0.872416  0.422268  0.129210  1
  O  O26  1  0.000000  0.057520  0.250000  1
  O  O27  1  0.405198  0.156239  0.402517  1
  O  O28  1  0.500000  0.065828  0.250000  1
  O  O29  1  0.685654  0.851675  0.437162  1
  O  O30  1  0.783425  0.698948  0.252742  1
  O  O31  1  0.783425  0.301052  0.752742  1
  O  O32  1  0.685654  0.148325  0.937162  1
  O  O33  1  0.314346  0.851675  0.062838  1
  O  O34  1  0.093329  0.847074  0.596553  1
  O  O35  1  0.127584  0.577732  0.870790  1
  O  O36  1  0.815275  0.849448  0.067937  1
  O  O37  1  0.216575  0.698948  0.247258  1
  O  O38  1  0.405198  0.843761  0.902517  1
  O  O39  1  0.872416  0.577732  0.629210  1
  O  O40  1  0.127584  0.422268  0.370790  1
  O  O41  1  0.594802  0.156239  0.097483  1
  O  O42  1  0.216575  0.301052  0.747258  1
  O  O43  1  0.635131  0.580005  0.875617  1
