# generated using pymatgen
data_CsIn3O5
_symmetry_space_group_name_H-M   'P 1'
_cell_length_a   3.40073823
_cell_length_b   10.29737974
_cell_length_c   16.79365997
_cell_angle_alpha   90.00000000
_cell_angle_beta   90.00000000
_cell_angle_gamma   90.00000000
_symmetry_Int_Tables_number   1
_chemical_formula_structural   CsIn3O5
_chemical_formula_sum   'Cs4 In12 O20'
_cell_volume   588.09202201
_cell_formula_units_Z   4
loop_
 _symmetry_equiv_pos_site_id
 _symmetry_equiv_pos_as_xyz
  1  'x, y, z'
loop_
 _atom_site_type_symbol
 _atom_site_label
 _atom_site_symmetry_multiplicity
 _atom_site_fract_x
 _atom_site_fract_y
 _atom_site_fract_z
 _atom_site_occupancy
  Cs  Cs0  1  0.750000  0.030365  0.379024  1
  Cs  Cs1  1  0.250000  0.469635  0.879024  1
  Cs  Cs2  1  0.750000  0.530365  0.120976  1
  Cs  Cs3  1  0.250000  0.969635  0.620976  1
  In  In4  1  0.750000  0.680360  0.318926  1
  In  In5  1  0.750000  0.180360  0.181074  1
  In  In6  1  0.250000  0.144186  0.011142  1
  In  In7  1  0.250000  0.644186  0.488858  1
  In  In8  1  0.250000  0.390133  0.336172  1
  In  In9  1  0.750000  0.855814  0.988858  1
  In  In10  1  0.250000  0.819640  0.818926  1
  In  In11  1  0.250000  0.319640  0.681074  1
  In  In12  1  0.750000  0.109867  0.836172  1
  In  In13  1  0.750000  0.609867  0.663828  1
  In  In14  1  0.750000  0.355814  0.511142  1
  In  In15  1  0.250000  0.890133  0.163828  1
  O  O16  1  0.250000  0.195399  0.783069  1
  O  O17  1  0.250000  0.768542  0.386938  1
  O  O18  1  0.250000  0.278927  0.444619  1
  O  O19  1  0.750000  0.731458  0.886938  1
  O  O20  1  0.250000  0.477096  0.576243  1
  O  O21  1  0.750000  0.721073  0.555381  1
  O  O22  1  0.750000  0.804601  0.216931  1
  O  O23  1  0.250000  0.065720  0.228608  1
  O  O24  1  0.750000  0.304601  0.283069  1
  O  O25  1  0.750000  0.934280  0.771392  1
  O  O26  1  0.250000  0.268542  0.113062  1
  O  O27  1  0.750000  0.434281  0.728608  1
  O  O28  1  0.250000  0.977096  0.923757  1
  O  O29  1  0.250000  0.695399  0.716931  1
  O  O30  1  0.750000  0.231458  0.613062  1
  O  O31  1  0.750000  0.522904  0.423757  1
  O  O32  1  0.250000  0.778927  0.055381  1
  O  O33  1  0.750000  0.022904  0.076243  1
  O  O34  1  0.750000  0.221073  0.944619  1
  O  O35  1  0.250000  0.565720  0.271392  1
