# generated using pymatgen
data_SnH58C16S4(N11O9)2
_symmetry_space_group_name_H-M   'P 1'
_cell_length_a   7.45973895
_cell_length_b   10.77129204
_cell_length_c   16.27149817
_cell_angle_alpha   104.81355639
_cell_angle_beta   91.76679923
_cell_angle_gamma   104.79809996
_symmetry_Int_Tables_number   1
_chemical_formula_structural   SnH58C16S4(N11O9)2
_chemical_formula_sum   'Sn1 H58 C16 S4 N22 O18'
_cell_volume   1215.57183742
_cell_formula_units_Z   1
loop_
 _symmetry_equiv_pos_site_id
 _symmetry_equiv_pos_as_xyz
  1  'x, y, z'
loop_
 _atom_site_type_symbol
 _atom_site_label
 _atom_site_symmetry_multiplicity
 _atom_site_fract_x
 _atom_site_fract_y
 _atom_site_fract_z
 _atom_site_occupancy
  Sn  Sn0  1  0.000000  0.500000  0.000000  1
  H  H1  1  0.292636  0.276166  0.483202  1
  H  H2  1  0.200585  0.754701  0.026576  1
  H  H3  1  0.007731  0.252358  0.337625  1
  H  H4  1  0.707364  0.723834  0.516798  1
  H  H5  1  0.154931  0.896771  0.531387  1
  H  H6  1  0.675776  0.488111  0.748966  1
  H  H7  1  0.384251  0.955843  0.831748  1
  H  H8  1  0.136457  0.392045  0.714550  1
  H  H9  1  0.403492  0.743135  0.509720  1
  H  H10  1  0.887865  0.946465  0.417384  1
  H  H11  1  0.224661  0.389114  0.566480  1
  H  H12  1  0.645884  0.410025  0.330964  1
  H  H13  1  0.354116  0.589975  0.669036  1
  H  H14  1  0.863543  0.607955  0.285450  1
  H  H15  1  0.519347  0.991451  0.928368  1
  H  H16  1  0.810742  0.599900  0.642055  1
  H  H17  1  0.259394  0.845717  0.227804  1
  H  H18  1  0.596508  0.256865  0.490280  1
  H  H19  1  0.963733  0.975172  0.922323  1
  H  H20  1  0.799415  0.245299  0.973424  1
  H  H21  1  0.690316  0.690034  0.275365  1
  H  H22  1  0.392277  0.308143  0.194548  1
  H  H23  1  0.189258  0.400100  0.357945  1
  H  H24  1  0.678739  0.780497  0.911070  1
  H  H25  1  0.740606  0.154283  0.772196  1
  H  H26  1  0.251730  0.305393  0.938063  1
  H  H27  1  0.480653  0.008549  0.071632  1
  H  H28  1  0.324224  0.511889  0.251034  1
  H  H29  1  0.321261  0.219503  0.088930  1
  H  H30  1  0.372079  0.258029  0.848831  1
  H  H31  1  0.303814  0.648513  0.950285  1
  H  H32  1  0.296600  0.742687  0.691557  1
  H  H33  1  0.313016  0.050159  0.523327  1
  H  H34  1  0.686984  0.949841  0.476673  1
  H  H35  1  0.703400  0.257313  0.308443  1
  H  H36  1  0.607723  0.691857  0.805452  1
  H  H37  1  0.992269  0.747642  0.662375  1
  H  H38  1  0.112135  0.053535  0.582616  1
  H  H39  1  0.036267  0.024828  0.077677  1
  H  H40  1  0.845069  0.103229  0.468613  1
  H  H41  1  0.696186  0.351487  0.049715  1
  H  H42  1  0.833345  0.444199  0.811926  1
  H  H43  1  0.615749  0.044157  0.168252  1
  H  H44  1  0.658592  0.338537  0.937945  1
  H  H45  1  0.775339  0.610886  0.433520  1
  H  H46  1  0.148746  0.846479  0.324259  1
  H  H47  1  0.166655  0.555801  0.188074  1
  H  H48  1  0.851254  0.153521  0.675741  1
  H  H49  1  0.945169  0.094159  0.757106  1
  H  H50  1  0.765857  0.369086  0.572457  1
  H  H51  1  0.074184  0.944039  0.827516  1
  H  H52  1  0.309684  0.309966  0.724635  1
  H  H53  1  0.341408  0.661463  0.062055  1
  H  H54  1  0.925816  0.055961  0.172484  1
  H  H55  1  0.234143  0.630914  0.427543  1
  H  H56  1  0.054831  0.905841  0.242894  1
  H  H57  1  0.748270  0.694607  0.061937  1
  H  H58  1  0.627921  0.741971  0.151169  1
  C  C59  1  0.821018  0.642766  0.168117  1
  C  C60  1  0.752297  0.999376  0.061008  1
  C  C61  1  0.502405  0.394880  0.579133  1
  C  C62  1  0.242295  0.661660  0.011123  1
  C  C63  1  0.926639  0.425356  0.347648  1
  C  C64  1  0.780291  0.997713  0.436350  1
  C  C65  1  0.818178  0.102243  0.725709  1
  C  C66  1  0.497595  0.605120  0.420867  1
  C  C67  1  0.757705  0.338340  0.988877  1
  C  C68  1  0.745473  0.602753  0.874301  1
  C  C69  1  0.219709  0.002287  0.563650  1
  C  C70  1  0.178982  0.357234  0.831883  1
  C  C71  1  0.247703  0.000624  0.938992  1
  C  C72  1  0.254527  0.397247  0.125699  1
  C  C73  1  0.181822  0.897757  0.274291  1
  C  C74  1  0.073361  0.574644  0.652352  1
  S  S75  1  0.648632  0.987596  0.341057  1
  S  S76  1  0.678106  0.936457  0.677992  1
  S  S77  1  0.351368  0.012404  0.658943  1
  S  S78  1  0.321894  0.063543  0.322008  1
  N  N79  1  0.261919  0.503728  0.191850  1
  N  N80  1  0.917211  0.024584  0.107819  1
  N  N81  1  0.347399  0.308748  0.135115  1
  N  N82  1  0.254705  0.641422  0.676626  1
  N  N83  1  0.368966  0.665761  0.455697  1
  N  N84  1  0.508598  0.945256  0.618431  1
  N  N85  1  0.716363  0.691177  0.122000  1
  N  N86  1  0.082789  0.975416  0.892181  1
  N  N87  1  0.950263  0.646554  0.649187  1
  N  N88  1  0.049737  0.353446  0.350813  1
  N  N89  1  0.652601  0.691252  0.864885  1
  N  N90  1  0.326356  0.348627  0.540006  1
  N  N91  1  0.745295  0.358578  0.323374  1
  N  N92  1  0.673644  0.651373  0.459994  1
  N  N93  1  0.283637  0.308823  0.878000  1
  N  N94  1  0.399553  0.993319  0.896355  1
  N  N95  1  0.786922  0.644870  0.248508  1
  N  N96  1  0.631034  0.334239  0.544303  1
  N  N97  1  0.738081  0.496272  0.808150  1
  N  N98  1  0.600447  0.006681  0.103645  1
  N  N99  1  0.213078  0.355130  0.751492  1
  N  N100  1  0.491402  0.054744  0.381569  1
  O  O101  1  0.739479  0.966243  0.979543  1
  O  O102  1  0.020292  0.447132  0.633249  1
  O  O103  1  0.953301  0.595398  0.135856  1
  O  O104  1  0.229346  0.932231  0.707148  1
  O  O105  1  0.166086  0.379376  0.052416  1
  O  O106  1  0.046699  0.404602  0.864144  1
  O  O107  1  0.382633  0.122179  0.252467  1
  O  O108  1  0.425421  0.153468  0.706372  1
  O  O109  1  0.209616  0.130359  0.380668  1
  O  O110  1  0.833914  0.620624  0.947584  1
  O  O111  1  0.770654  0.067769  0.292852  1
  O  O112  1  0.574579  0.846532  0.293628  1
  O  O113  1  0.545976  0.491841  0.646995  1
  O  O114  1  0.979708  0.552868  0.366751  1
  O  O115  1  0.790384  0.869641  0.619332  1
  O  O116  1  0.454024  0.508159  0.353005  1
  O  O117  1  0.260521  0.033757  0.020457  1
  O  O118  1  0.617367  0.877821  0.747533  1
