# generated using pymatgen
data_K3NbP2O9
_symmetry_space_group_name_H-M   'P 1'
_cell_length_a   5.29444328
_cell_length_b   17.93559066
_cell_length_c   9.94017711
_cell_angle_alpha   90.00000000
_cell_angle_beta   90.07613847
_cell_angle_gamma   90.00000000
_symmetry_Int_Tables_number   1
_chemical_formula_structural   K3NbP2O9
_chemical_formula_sum   'K12 Nb4 P8 O36'
_cell_volume   943.90812043
_cell_formula_units_Z   4
loop_
 _symmetry_equiv_pos_site_id
 _symmetry_equiv_pos_as_xyz
  1  'x, y, z'
loop_
 _atom_site_type_symbol
 _atom_site_label
 _atom_site_symmetry_multiplicity
 _atom_site_fract_x
 _atom_site_fract_y
 _atom_site_fract_z
 _atom_site_occupancy
  K  K0  1  0.756224  0.863038  0.923479  1
  K  K1  1  0.756224  0.636962  0.423479  1
  K  K2  1  0.249744  0.426479  0.958075  1
  K  K3  1  0.243776  0.363038  0.576521  1
  K  K4  1  0.243776  0.136962  0.076521  1
  K  K5  1  0.250938  0.704905  0.042433  1
  K  K6  1  0.749062  0.204905  0.457567  1
  K  K7  1  0.749062  0.295095  0.957567  1
  K  K8  1  0.250938  0.795095  0.542433  1
  K  K9  1  0.249744  0.073521  0.458075  1
  K  K10  1  0.750256  0.573521  0.041925  1
  K  K11  1  0.750256  0.926479  0.541925  1
  Nb  Nb12  1  0.764151  0.410763  0.314225  1
  Nb  Nb13  1  0.235849  0.589237  0.685775  1
  Nb  Nb14  1  0.235849  0.910763  0.185775  1
  Nb  Nb15  1  0.764151  0.089237  0.814225  1
  P  P16  1  0.744640  0.710933  0.736101  1
  P  P17  1  0.255360  0.210933  0.763899  1
  P  P18  1  0.263141  0.961097  0.829142  1
  P  P19  1  0.736859  0.461097  0.670858  1
  P  P20  1  0.744640  0.789067  0.236101  1
  P  P21  1  0.736859  0.038903  0.170858  1
  P  P22  1  0.255360  0.289067  0.263899  1
  P  P23  1  0.263141  0.538903  0.329142  1
  O  O24  1  0.774315  0.419556  0.135727  1
  O  O25  1  0.749016  0.403115  0.555892  1
  O  O26  1  0.747698  0.698978  0.887222  1
  O  O27  1  0.252302  0.301022  0.112778  1
  O  O28  1  0.773409  0.070985  0.310976  1
  O  O29  1  0.939964  0.976892  0.141551  1
  O  O30  1  0.250984  0.596885  0.444108  1
  O  O31  1  0.774315  0.080444  0.635727  1
  O  O32  1  0.523236  0.662939  0.667994  1
  O  O33  1  0.282400  0.291365  0.809730  1
  O  O34  1  0.717600  0.708635  0.190270  1
  O  O35  1  0.939964  0.523108  0.641551  1
  O  O36  1  0.523236  0.837061  0.167994  1
  O  O37  1  0.749016  0.096885  0.055892  1
  O  O38  1  0.060036  0.023108  0.858449  1
  O  O39  1  0.527849  0.499062  0.340288  1
  O  O40  1  0.225685  0.919556  0.364273  1
  O  O41  1  0.993629  0.677634  0.667798  1
  O  O42  1  0.250984  0.903115  0.944108  1
  O  O43  1  0.282400  0.208635  0.309730  1
  O  O44  1  0.773409  0.429015  0.810976  1
  O  O45  1  0.006371  0.322366  0.332202  1
  O  O46  1  0.717600  0.791365  0.690270  1
  O  O47  1  0.993629  0.822366  0.167798  1
  O  O48  1  0.476764  0.162939  0.832006  1
  O  O49  1  0.747698  0.801022  0.387222  1
  O  O50  1  0.226591  0.929015  0.689024  1
  O  O51  1  0.252302  0.198978  0.612778  1
  O  O52  1  0.006371  0.177634  0.832202  1
  O  O53  1  0.472151  0.999062  0.159712  1
  O  O54  1  0.472151  0.500938  0.659712  1
  O  O55  1  0.060036  0.476892  0.358449  1
  O  O56  1  0.225685  0.580444  0.864273  1
  O  O57  1  0.527849  0.000938  0.840288  1
  O  O58  1  0.226591  0.570985  0.189024  1
  O  O59  1  0.476764  0.337061  0.332006  1
