# generated using pymatgen
data_Bi3Ru3O11
_symmetry_space_group_name_H-M   'P 1'
_cell_length_a   9.40169410
_cell_length_b   9.40169410
_cell_length_c   9.40169410
_cell_angle_alpha   90.00000000
_cell_angle_beta   90.00000000
_cell_angle_gamma   90.00000000
_symmetry_Int_Tables_number   1
_chemical_formula_structural   Bi3Ru3O11
_chemical_formula_sum   'Bi12 Ru12 O44'
_cell_volume   831.03315297
_cell_formula_units_Z   4
loop_
 _symmetry_equiv_pos_site_id
 _symmetry_equiv_pos_as_xyz
  1  'x, y, z'
loop_
 _atom_site_type_symbol
 _atom_site_label
 _atom_site_symmetry_multiplicity
 _atom_site_fract_x
 _atom_site_fract_y
 _atom_site_fract_z
 _atom_site_occupancy
  Bi  Bi0  1  0.750000  0.750000  0.750000  1
  Bi  Bi1  1  0.250000  0.250000  0.750000  1
  Bi  Bi2  1  0.750000  0.250000  0.250000  1
  Bi  Bi3  1  0.250000  0.750000  0.250000  1
  Bi  Bi4  1  0.133785  0.133785  0.133785  1
  Bi  Bi5  1  0.866215  0.866215  0.133785  1
  Bi  Bi6  1  0.133785  0.866215  0.866215  1
  Bi  Bi7  1  0.866215  0.133785  0.866215  1
  Bi  Bi8  1  0.366215  0.366215  0.366215  1
  Bi  Bi9  1  0.633785  0.633785  0.366215  1
  Bi  Bi10  1  0.366215  0.633785  0.633785  1
  Bi  Bi11  1  0.633785  0.366215  0.633785  1
  Ru  Ru12  1  0.136335  0.500000  0.000000  1
  Ru  Ru13  1  0.000000  0.136335  0.500000  1
  Ru  Ru14  1  0.500000  0.000000  0.136335  1
  Ru  Ru15  1  0.000000  0.863665  0.500000  1
  Ru  Ru16  1  0.500000  0.000000  0.863665  1
  Ru  Ru17  1  0.863665  0.500000  0.000000  1
  Ru  Ru18  1  0.363665  0.000000  0.500000  1
  Ru  Ru19  1  0.500000  0.363665  0.000000  1
  Ru  Ru20  1  0.000000  0.500000  0.363665  1
  Ru  Ru21  1  0.500000  0.636335  0.000000  1
  Ru  Ru22  1  0.000000  0.500000  0.636335  1
  Ru  Ru23  1  0.636335  0.000000  0.500000  1
  O  O24  1  0.338982  0.000000  0.000000  1
  O  O25  1  0.000000  0.338982  0.000000  1
  O  O26  1  0.000000  0.000000  0.338982  1
  O  O27  1  0.000000  0.661018  0.000000  1
  O  O28  1  0.000000  0.000000  0.661018  1
  O  O29  1  0.661018  0.000000  0.000000  1
  O  O30  1  0.161018  0.500000  0.500000  1
  O  O31  1  0.500000  0.161018  0.500000  1
  O  O32  1  0.500000  0.500000  0.161018  1
  O  O33  1  0.500000  0.838982  0.500000  1
  O  O34  1  0.500000  0.500000  0.838982  1
  O  O35  1  0.838982  0.500000  0.500000  1
  O  O36  1  0.896807  0.896807  0.896807  1
  O  O37  1  0.103193  0.103193  0.896807  1
  O  O38  1  0.896807  0.103193  0.103193  1
  O  O39  1  0.103193  0.896807  0.103193  1
  O  O40  1  0.603193  0.603193  0.603193  1
  O  O41  1  0.396807  0.396807  0.603193  1
  O  O42  1  0.603193  0.396807  0.396807  1
  O  O43  1  0.396807  0.603193  0.396807  1
  O  O44  1  0.349351  0.993392  0.285838  1
  O  O45  1  0.285838  0.349351  0.993392  1
  O  O46  1  0.993392  0.285838  0.349351  1
  O  O47  1  0.006608  0.714162  0.349351  1
  O  O48  1  0.285838  0.650649  0.006608  1
  O  O49  1  0.006608  0.285838  0.650649  1
  O  O50  1  0.714162  0.650649  0.993392  1
  O  O51  1  0.714162  0.349351  0.006608  1
  O  O52  1  0.993392  0.714162  0.650649  1
  O  O53  1  0.349351  0.006608  0.714162  1
  O  O54  1  0.650649  0.993392  0.714162  1
  O  O55  1  0.650649  0.006608  0.285838  1
  O  O56  1  0.150649  0.506608  0.214162  1
  O  O57  1  0.214162  0.150649  0.506608  1
  O  O58  1  0.506608  0.214162  0.150649  1
  O  O59  1  0.493392  0.785838  0.150649  1
  O  O60  1  0.214162  0.849351  0.493392  1
  O  O61  1  0.493392  0.214162  0.849351  1
  O  O62  1  0.785838  0.849351  0.506608  1
  O  O63  1  0.785838  0.150649  0.493392  1
  O  O64  1  0.506608  0.785838  0.849351  1
  O  O65  1  0.150649  0.493392  0.785838  1
  O  O66  1  0.849351  0.506608  0.785838  1
  O  O67  1  0.849351  0.493392  0.214162  1
