# generated using pymatgen
data_Na3AlF6
_symmetry_space_group_name_H-M   'P 1'
_cell_length_a   5.69065166
_cell_length_b   5.69065166
_cell_length_c   5.69065166
_cell_angle_alpha   121.69408312
_cell_angle_beta   118.46548093
_cell_angle_gamma   89.88466368
_symmetry_Int_Tables_number   1
_chemical_formula_structural   Na3AlF6
_chemical_formula_sum   'Na3 Al1 F6'
_cell_volume   130.02106107
_cell_formula_units_Z   1
loop_
 _symmetry_equiv_pos_site_id
 _symmetry_equiv_pos_as_xyz
  1  'x, y, z'
loop_
 _atom_site_type_symbol
 _atom_site_label
 _atom_site_symmetry_multiplicity
 _atom_site_fract_x
 _atom_site_fract_y
 _atom_site_fract_z
 _atom_site_occupancy
  Na  Na0  1  0.781404  0.281404  0.500000  1
  Na  Na1  1  0.218596  0.718596  0.500000  1
  Na  Na2  1  0.500000  0.500000  0.000000  1
  Al  Al3  1  0.000000  0.000000  0.000000  1
  F  F4  1  0.782070  0.235710  0.017781  1
  F  F5  1  0.782070  0.764290  0.546360  1
  F  F6  1  0.217930  0.235710  0.453640  1
  F  F7  1  0.217930  0.764290  0.982219  1
  F  F8  1  0.773778  0.773778  0.000000  1
  F  F9  1  0.226222  0.226222  0.000000  1
