# generated using pymatgen
data_KGd(PO3)4
_symmetry_space_group_name_H-M   'P 1'
_cell_length_a   7.35857758
_cell_length_b   8.52620017
_cell_length_c   7.99774755
_cell_angle_alpha   90.00000000
_cell_angle_beta   91.55080359
_cell_angle_gamma   90.00000000
_symmetry_Int_Tables_number   1
_chemical_formula_structural   KGd(PO3)4
_chemical_formula_sum   'K2 Gd2 P8 O24'
_cell_volume   501.60053057
_cell_formula_units_Z   2
loop_
 _symmetry_equiv_pos_site_id
 _symmetry_equiv_pos_as_xyz
  1  'x, y, z'
loop_
 _atom_site_type_symbol
 _atom_site_label
 _atom_site_symmetry_multiplicity
 _atom_site_fract_x
 _atom_site_fract_y
 _atom_site_fract_z
 _atom_site_occupancy
  K  K0  1  0.268023  0.438304  0.720765  1
  K  K1  1  0.731977  0.938304  0.279235  1
  Gd  Gd2  1  0.237167  0.750473  0.241273  1
  Gd  Gd3  1  0.762833  0.250473  0.758727  1
  P  P4  1  0.564421  0.876338  0.901744  1
  P  P5  1  0.435579  0.376338  0.098256  1
  P  P6  1  0.615031  0.501308  0.402657  1
  P  P7  1  0.902378  0.674054  0.897077  1
  P  P8  1  0.097622  0.174054  0.102923  1
  P  P9  1  0.003982  0.903373  0.616284  1
  P  P10  1  0.384969  0.001308  0.597343  1
  P  P11  1  0.996018  0.403373  0.383716  1
  O  O12  1  0.026568  0.205839  0.928028  1
  O  O13  1  0.823001  0.514754  0.346268  1
  O  O14  1  0.692095  0.724509  0.880169  1
  O  O15  1  0.307905  0.224509  0.119831  1
  O  O16  1  0.837897  0.005705  0.614986  1
  O  O17  1  0.176999  0.014754  0.653732  1
  O  O18  1  0.539243  0.364533  0.278276  1
  O  O19  1  0.973432  0.705839  0.071972  1
  O  O20  1  0.032721  0.805571  0.462890  1
  O  O21  1  0.913942  0.512335  0.825863  1
  O  O22  1  0.608556  0.441484  0.578548  1
  O  O23  1  0.967279  0.305571  0.537110  1
  O  O24  1  0.432141  0.842709  0.037048  1
  O  O25  1  0.162103  0.505705  0.385014  1
  O  O26  1  0.986780  0.294066  0.220216  1
  O  O27  1  0.474623  0.154074  0.641040  1
  O  O28  1  0.676083  0.022171  0.925206  1
  O  O29  1  0.086058  0.012335  0.174137  1
  O  O30  1  0.567859  0.342709  0.962952  1
  O  O31  1  0.525377  0.654074  0.358960  1
  O  O32  1  0.391444  0.941484  0.421452  1
  O  O33  1  0.460757  0.864533  0.721724  1
  O  O34  1  0.013220  0.794066  0.779784  1
  O  O35  1  0.323917  0.522171  0.074794  1
