# generated using pymatgen
data_VCu3O4
_symmetry_space_group_name_H-M   'P 1'
_cell_length_a   5.56407863
_cell_length_b   5.56407863
_cell_length_c   5.56407863
_cell_angle_alpha   131.26645011
_cell_angle_beta   131.26645011
_cell_angle_gamma   71.39008621
_symmetry_Int_Tables_number   1
_chemical_formula_structural   VCu3O4
_chemical_formula_sum   'V1 Cu3 O4'
_cell_volume   95.25240496
_cell_formula_units_Z   1
loop_
 _symmetry_equiv_pos_site_id
 _symmetry_equiv_pos_as_xyz
  1  'x, y, z'
loop_
 _atom_site_type_symbol
 _atom_site_label
 _atom_site_symmetry_multiplicity
 _atom_site_fract_x
 _atom_site_fract_y
 _atom_site_fract_z
 _atom_site_occupancy
  V  V0  1  0.000000  0.000000  0.000000  1
  Cu  Cu1  1  0.250000  0.750000  0.500000  1
  Cu  Cu2  1  0.500000  0.500000  0.000000  1
  Cu  Cu3  1  0.750000  0.250000  0.500000  1
  O  O4  1  0.111599  0.659470  1.000000  1
  O  O5  1  0.340530  0.340530  0.452128  1
  O  O6  1  0.888401  0.888401  0.547872  1
  O  O7  1  0.659470  0.111599  0.000000  1
