# generated using pymatgen
data_Fe2PO4F
_symmetry_space_group_name_H-M   'P 1'
_cell_length_a   7.37009007
_cell_length_b   7.37009007
_cell_length_c   9.98176789
_cell_angle_alpha   64.99955980
_cell_angle_beta   115.00044020
_cell_angle_gamma   126.76250235
_symmetry_Int_Tables_number   1
_chemical_formula_structural   Fe2PO4F
_chemical_formula_sum   'Fe8 P4 O16 F4'
_cell_volume   382.76321422
_cell_formula_units_Z   4
loop_
 _symmetry_equiv_pos_site_id
 _symmetry_equiv_pos_as_xyz
  1  'x, y, z'
loop_
 _atom_site_type_symbol
 _atom_site_label
 _atom_site_symmetry_multiplicity
 _atom_site_fract_x
 _atom_site_fract_y
 _atom_site_fract_z
 _atom_site_occupancy
  Fe  Fe0  1  0.261018  0.944983  0.358507  1
  Fe  Fe1  1  0.055017  0.738982  0.858507  1
  Fe  Fe2  1  0.738982  0.055017  0.641493  1
  Fe  Fe3  1  0.944983  0.261018  0.141493  1
  Fe  Fe4  1  0.660791  0.782512  0.993428  1
  Fe  Fe5  1  0.782512  0.660791  0.506572  1
  Fe  Fe6  1  0.339209  0.217488  0.006572  1
  Fe  Fe7  1  0.217488  0.339209  0.493428  1
  P  P8  1  0.234221  0.580577  0.693716  1
  P  P9  1  0.580577  0.234221  0.806284  1
  P  P10  1  0.765779  0.419423  0.306284  1
  P  P11  1  0.419423  0.765779  0.193716  1
  O  O12  1  0.356197  0.929888  0.197831  1
  O  O13  1  0.643803  0.070112  0.802169  1
  O  O14  1  0.929888  0.356197  0.302169  1
  O  O15  1  0.070112  0.643803  0.697831  1
  O  O16  1  0.088140  0.353188  0.636027  1
  O  O17  1  0.353188  0.088140  0.863973  1
  O  O18  1  0.911860  0.646812  0.363973  1
  O  O19  1  0.646812  0.911860  0.136027  1
  O  O20  1  0.384686  0.541629  0.855821  1
  O  O21  1  0.390581  0.777847  0.581091  1
  O  O22  1  0.615314  0.458371  0.144179  1
  O  O23  1  0.458371  0.615314  0.355821  1
  O  O24  1  0.222153  0.609419  0.081091  1
  O  O25  1  0.609419  0.222153  0.418909  1
  O  O26  1  0.777847  0.390581  0.918909  1
  O  O27  1  0.541629  0.384686  0.644179  1
  F  F28  1  0.126644  0.092025  0.394495  1
  F  F29  1  0.092025  0.126644  0.105505  1
  F  F30  1  0.873356  0.907975  0.605505  1
  F  F31  1  0.907975  0.873356  0.894495  1
