# generated using pymatgen
data_Ni(PO3)3
_symmetry_space_group_name_H-M   'P 1'
_cell_length_a   8.42885300
_cell_length_b   8.56714521
_cell_length_c   8.74765942
_cell_angle_alpha   90.00000000
_cell_angle_beta   90.00000000
_cell_angle_gamma   90.00000000
_symmetry_Int_Tables_number   1
_chemical_formula_structural   Ni(PO3)3
_chemical_formula_sum   'Ni4 P12 O36'
_cell_volume   631.67905043
_cell_formula_units_Z   4
loop_
 _symmetry_equiv_pos_site_id
 _symmetry_equiv_pos_as_xyz
  1  'x, y, z'
loop_
 _atom_site_type_symbol
 _atom_site_label
 _atom_site_symmetry_multiplicity
 _atom_site_fract_x
 _atom_site_fract_y
 _atom_site_fract_z
 _atom_site_occupancy
  Ni  Ni0  1  0.364015  0.640090  0.851729  1
  Ni  Ni1  1  0.135985  0.359910  0.351729  1
  Ni  Ni2  1  0.864015  0.859910  0.148271  1
  Ni  Ni3  1  0.635985  0.140090  0.648271  1
  P  P4  1  0.177977  0.989970  0.303990  1
  P  P5  1  0.207417  0.305374  0.944398  1
  P  P6  1  0.292583  0.694626  0.444398  1
  P  P7  1  0.322023  0.010030  0.803990  1
  P  P8  1  0.532128  0.678974  0.191660  1
  P  P9  1  0.677977  0.510030  0.696010  1
  P  P10  1  0.707417  0.194626  0.055602  1
  P  P11  1  0.792583  0.805374  0.555602  1
  P  P12  1  0.822023  0.489970  0.196010  1
  P  P13  1  0.967872  0.321026  0.691660  1
  P  P14  1  0.032128  0.821026  0.808340  1
  P  P15  1  0.467872  0.178974  0.308340  1
  O  O16  1  0.131687  0.687945  0.868994  1
  O  O17  1  0.456822  0.725419  0.352999  1
  O  O18  1  0.406772  0.872147  0.872246  1
  O  O19  1  0.403577  0.624954  0.085507  1
  O  O20  1  0.543178  0.225419  0.147001  1
  O  O21  1  0.593228  0.372147  0.627754  1
  O  O22  1  0.596423  0.124954  0.414493  1
  O  O23  1  0.600486  0.592288  0.828189  1
  O  O24  1  0.631687  0.812055  0.131006  1
  O  O25  1  0.644381  0.537072  0.246700  1
  O  O26  1  0.667141  0.160433  0.893163  1
  O  O27  1  0.686115  0.912677  0.645662  1
  O  O28  1  0.713310  0.633889  0.561750  1
  O  O29  1  0.786690  0.366111  0.061750  1
  O  O30  1  0.813885  0.087323  0.145662  1
  O  O31  1  0.832859  0.839567  0.393163  1
  O  O32  1  0.855619  0.462928  0.746700  1
  O  O33  1  0.868313  0.187945  0.631006  1
  O  O34  1  0.899514  0.407712  0.328189  1
  O  O35  1  0.903577  0.875046  0.914493  1
  O  O36  1  0.906772  0.627853  0.127754  1
  O  O37  1  0.956822  0.774581  0.647001  1
  O  O38  1  0.043178  0.274581  0.852999  1
  O  O39  1  0.368313  0.312055  0.368994  1
  O  O40  1  0.096423  0.375046  0.585507  1
  O  O41  1  0.100486  0.907712  0.171811  1
  O  O42  1  0.399514  0.092288  0.671811  1
  O  O43  1  0.144381  0.962928  0.753300  1
  O  O44  1  0.167141  0.339567  0.106837  1
  O  O45  1  0.186115  0.587323  0.354338  1
  O  O46  1  0.213310  0.866111  0.438250  1
  O  O47  1  0.286690  0.133889  0.938250  1
  O  O48  1  0.313885  0.412677  0.854338  1
  O  O49  1  0.332859  0.660433  0.606837  1
  O  O50  1  0.355619  0.037072  0.253300  1
  O  O51  1  0.093228  0.127853  0.372246  1
