# generated using pymatgen
data_C
_symmetry_space_group_name_H-M   'P 1'
_cell_length_a   19.14118098
_cell_length_b   19.14118098
_cell_length_c   19.14118098
_cell_angle_alpha   7.39611855
_cell_angle_beta   7.39611855
_cell_angle_gamma   7.39611855
_symmetry_Int_Tables_number   1
_chemical_formula_structural   C
_chemical_formula_sum   C8
_cell_volume   100.78324078
_cell_formula_units_Z   8
loop_
 _symmetry_equiv_pos_site_id
 _symmetry_equiv_pos_as_xyz
  1  'x, y, z'
loop_
 _atom_site_type_symbol
 _atom_site_label
 _atom_site_symmetry_multiplicity
 _atom_site_fract_x
 _atom_site_fract_y
 _atom_site_fract_z
 _atom_site_occupancy
  C  C0  1  0.968391  0.968391  0.968391  1
  C  C1  1  0.094587  0.094587  0.094587  1
  C  C2  1  0.238729  0.238729  0.238729  1
  C  C3  1  0.905413  0.905413  0.905413  1
  C  C4  1  0.031609  0.031609  0.031609  1
  C  C5  1  0.635087  0.635087  0.635087  1
  C  C6  1  0.761271  0.761271  0.761271  1
  C  C7  1  0.364913  0.364913  0.364913  1
