# generated using pymatgen
data_Li2Ni12P7
_symmetry_space_group_name_H-M   'P 1'
_cell_length_a   8.99837688
_cell_length_b   8.99837688
_cell_length_c   3.53217975
_cell_angle_alpha   90.00000000
_cell_angle_beta   90.00000000
_cell_angle_gamma   120.00000000
_symmetry_Int_Tables_number   1
_chemical_formula_structural   Li2Ni12P7
_chemical_formula_sum   'Li2 Ni12 P7'
_cell_volume   247.68618601
_cell_formula_units_Z   1
loop_
 _symmetry_equiv_pos_site_id
 _symmetry_equiv_pos_as_xyz
  1  'x, y, z'
loop_
 _atom_site_type_symbol
 _atom_site_label
 _atom_site_symmetry_multiplicity
 _atom_site_fract_x
 _atom_site_fract_y
 _atom_site_fract_z
 _atom_site_occupancy
  Li  Li0  1  0.666667  0.333333  0.000000  1
  Li  Li1  1  0.000000  0.000000  0.500000  1
  Ni  Ni2  1  0.767652  0.727810  0.000000  1
  Ni  Ni3  1  0.960157  0.232348  0.000000  1
  Ni  Ni4  1  0.272190  0.039843  0.000000  1
  Ni  Ni5  1  0.492516  0.944162  0.000000  1
  Ni  Ni6  1  0.451645  0.507484  0.000000  1
  Ni  Ni7  1  0.055838  0.548355  0.000000  1
  Ni  Ni8  1  0.717714  0.101955  0.500000  1
  Ni  Ni9  1  0.384241  0.282286  0.500000  1
  Ni  Ni10  1  0.898045  0.615759  0.500000  1
  Ni  Ni11  1  0.552928  0.760293  0.500000  1
  Ni  Ni12  1  0.207364  0.447072  0.500000  1
  Ni  Ni13  1  0.239707  0.792636  0.500000  1
  P  P14  1  0.333333  0.666667  0.000000  1
  P  P15  1  0.751399  0.961669  0.000000  1
  P  P16  1  0.210271  0.248601  0.000000  1
  P  P17  1  0.038331  0.789729  0.000000  1
  P  P18  1  0.453452  0.079457  0.500000  1
  P  P19  1  0.626006  0.546548  0.500000  1
  P  P20  1  0.920543  0.373994  0.500000  1
