# generated using pymatgen
data_CoPO4
_symmetry_space_group_name_H-M   'P 1'
_cell_length_a   5.33620632
_cell_length_b   10.35453530
_cell_length_c   8.73036361
_cell_angle_alpha   90.00000000
_cell_angle_beta   125.63847650
_cell_angle_gamma   90.00000000
_symmetry_Int_Tables_number   1
_chemical_formula_structural   CoPO4
_chemical_formula_sum   'Co4 P4 O16'
_cell_volume   392.04053961
_cell_formula_units_Z   4
loop_
 _symmetry_equiv_pos_site_id
 _symmetry_equiv_pos_as_xyz
  1  'x, y, z'
loop_
 _atom_site_type_symbol
 _atom_site_label
 _atom_site_symmetry_multiplicity
 _atom_site_fract_x
 _atom_site_fract_y
 _atom_site_fract_z
 _atom_site_occupancy
  Co  Co0  1  0.826537  0.329420  0.026352  1
  Co  Co1  1  0.826537  0.170580  0.526352  1
  Co  Co2  1  0.173463  0.829420  0.473648  1
  Co  Co3  1  0.173463  0.670580  0.973648  1
  P  P4  1  0.896292  0.598152  0.202512  1
  P  P5  1  0.103708  0.098152  0.297488  1
  P  P6  1  0.103708  0.401848  0.797488  1
  P  P7  1  0.896292  0.901848  0.702512  1
  O  O8  1  0.900907  0.848150  0.537687  1
  O  O9  1  0.946958  0.450064  0.218573  1
  O  O10  1  0.149904  0.659730  0.393814  1
  O  O11  1  0.579030  0.630129  0.162098  1
  O  O12  1  0.946958  0.049936  0.718573  1
  O  O13  1  0.420970  0.130129  0.337902  1
  O  O14  1  0.420970  0.369871  0.837902  1
  O  O15  1  0.149904  0.840270  0.893814  1
  O  O16  1  0.900907  0.651850  0.037687  1
  O  O17  1  0.850096  0.340270  0.606186  1
  O  O18  1  0.099093  0.151850  0.462313  1
  O  O19  1  0.053042  0.549936  0.781427  1
  O  O20  1  0.579030  0.869871  0.662098  1
  O  O21  1  0.099093  0.348150  0.962313  1
  O  O22  1  0.053042  0.950064  0.281427  1
  O  O23  1  0.850096  0.159730  0.106186  1
