# generated using pymatgen
data_BaLaCuSe3
_symmetry_space_group_name_H-M   'P 1'
_cell_length_a   4.30995905
_cell_length_b   11.24739430
_cell_length_c   14.03239311
_cell_angle_alpha   90.00000000
_cell_angle_beta   90.00000000
_cell_angle_gamma   90.00000000
_symmetry_Int_Tables_number   1
_chemical_formula_structural   BaLaCuSe3
_chemical_formula_sum   'Ba4 La4 Cu4 Se12'
_cell_volume   680.23160614
_cell_formula_units_Z   4
loop_
 _symmetry_equiv_pos_site_id
 _symmetry_equiv_pos_as_xyz
  1  'x, y, z'
loop_
 _atom_site_type_symbol
 _atom_site_label
 _atom_site_symmetry_multiplicity
 _atom_site_fract_x
 _atom_site_fract_y
 _atom_site_fract_z
 _atom_site_occupancy
  Ba  Ba0  1  0.750000  0.728307  0.504110  1
  Ba  Ba1  1  0.250000  0.271693  0.495890  1
  Ba  Ba2  1  0.750000  0.228307  0.995890  1
  Ba  Ba3  1  0.250000  0.771693  0.004110  1
  La  La4  1  0.750000  0.990313  0.259760  1
  La  La5  1  0.250000  0.009687  0.740240  1
  La  La6  1  0.750000  0.490313  0.240240  1
  La  La7  1  0.250000  0.509687  0.759760  1
  Cu  Cu8  1  0.750000  0.758616  0.783478  1
  Cu  Cu9  1  0.250000  0.241384  0.216522  1
  Cu  Cu10  1  0.750000  0.258616  0.716522  1
  Cu  Cu11  1  0.250000  0.741384  0.283478  1
  Se  Se12  1  0.750000  0.942144  0.882183  1
  Se  Se13  1  0.250000  0.057856  0.117817  1
  Se  Se14  1  0.750000  0.442144  0.617817  1
  Se  Se15  1  0.250000  0.557856  0.382183  1
  Se  Se16  1  0.750000  0.744538  0.181704  1
  Se  Se17  1  0.250000  0.255462  0.818296  1
  Se  Se18  1  0.750000  0.244538  0.318296  1
  Se  Se19  1  0.250000  0.755462  0.681704  1
  Se  Se20  1  0.750000  0.587958  0.894483  1
  Se  Se21  1  0.250000  0.412042  0.105517  1
  Se  Se22  1  0.750000  0.087958  0.605517  1
  Se  Se23  1  0.250000  0.912042  0.394483  1
