# generated using pymatgen
data_U6Mn
_symmetry_space_group_name_H-M   'P 1'
_cell_length_a   7.63661627
_cell_length_b   7.63661627
_cell_length_c   7.63661627
_cell_angle_alpha   96.91852439
_cell_angle_beta   96.91852439
_cell_angle_gamma   139.38354651
_symmetry_Int_Tables_number   1
_chemical_formula_structural   U6Mn
_chemical_formula_sum   'U12 Mn2'
_cell_volume   271.89864921
_cell_formula_units_Z   2
loop_
 _symmetry_equiv_pos_site_id
 _symmetry_equiv_pos_as_xyz
  1  'x, y, z'
loop_
 _atom_site_type_symbol
 _atom_site_label
 _atom_site_symmetry_multiplicity
 _atom_site_fract_x
 _atom_site_fract_y
 _atom_site_fract_z
 _atom_site_occupancy
  U  U0  1  0.093123  0.406877  0.500000  1
  U  U1  1  0.906877  0.593123  0.500000  1
  U  U2  1  0.593123  0.093123  0.686247  1
  U  U3  1  0.406877  0.906877  0.313753  1
  U  U4  1  0.281272  0.597853  0.879126  1
  U  U5  1  0.718728  0.402147  0.120874  1
  U  U6  1  0.781272  0.902147  0.683419  1
  U  U7  1  0.218728  0.097853  0.316581  1
  U  U8  1  0.597853  0.718728  0.316581  1
  U  U9  1  0.402147  0.281272  0.683419  1
  U  U10  1  0.902147  0.218728  0.120874  1
  U  U11  1  0.097853  0.781272  0.879126  1
  Mn  Mn12  1  0.250000  0.250000  0.000000  1
  Mn  Mn13  1  0.750000  0.750000  0.000000  1
