# generated using pymatgen
data_Cs2Xe(BrF7)4
_symmetry_space_group_name_H-M   'P 1'
_cell_length_a   12.63639615
_cell_length_b   12.89126188
_cell_length_c   16.06277242
_cell_angle_alpha   90.00000000
_cell_angle_beta   90.00000000
_cell_angle_gamma   90.00000000
_symmetry_Int_Tables_number   1
_chemical_formula_structural   Cs2Xe(BrF7)4
_chemical_formula_sum   'Cs8 Xe4 Br16 F112'
_cell_volume   2616.61104205
_cell_formula_units_Z   4
loop_
 _symmetry_equiv_pos_site_id
 _symmetry_equiv_pos_as_xyz
  1  'x, y, z'
loop_
 _atom_site_type_symbol
 _atom_site_label
 _atom_site_symmetry_multiplicity
 _atom_site_fract_x
 _atom_site_fract_y
 _atom_site_fract_z
 _atom_site_occupancy
  Cs  Cs0  1  0.044958  0.985275  0.172090  1
  Cs  Cs1  1  0.455042  0.014725  0.672090  1
  Cs  Cs2  1  0.955042  0.485275  0.827910  1
  Cs  Cs3  1  0.544958  0.985275  0.327910  1
  Cs  Cs4  1  0.044958  0.514725  0.172090  1
  Cs  Cs5  1  0.455042  0.485275  0.672090  1
  Cs  Cs6  1  0.955042  0.014725  0.827910  1
  Cs  Cs7  1  0.544958  0.514725  0.327910  1
  Xe  Xe8  1  0.905581  0.250000  0.022190  1
  Xe  Xe9  1  0.405581  0.250000  0.477810  1
  Xe  Xe10  1  0.594419  0.750000  0.522190  1
  Xe  Xe11  1  0.094419  0.750000  0.977810  1
  Br  Br12  1  0.673808  0.750000  0.771026  1
  Br  Br13  1  0.826192  0.250000  0.271026  1
  Br  Br14  1  0.794021  0.011996  0.547156  1
  Br  Br15  1  0.173808  0.750000  0.728974  1
  Br  Br16  1  0.705979  0.988004  0.047156  1
  Br  Br17  1  0.819880  0.750000  0.321444  1
  Br  Br18  1  0.705979  0.511996  0.047156  1
  Br  Br19  1  0.294021  0.011996  0.952844  1
  Br  Br20  1  0.294021  0.488004  0.952844  1
  Br  Br21  1  0.794021  0.488004  0.547156  1
  Br  Br22  1  0.205979  0.511996  0.452844  1
  Br  Br23  1  0.319880  0.750000  0.178556  1
  Br  Br24  1  0.205979  0.988004  0.452844  1
  Br  Br25  1  0.180120  0.250000  0.678556  1
  Br  Br26  1  0.326192  0.250000  0.228974  1
  Br  Br27  1  0.680120  0.250000  0.821444  1
  F  F28  1  0.483330  0.750000  0.617728  1
  F  F29  1  0.794170  0.347913  0.956230  1
  F  F30  1  0.012569  0.609883  0.990239  1
  F  F31  1  0.297780  0.574203  0.378611  1
  F  F32  1  0.516670  0.250000  0.382272  1
  F  F33  1  0.221010  0.427593  0.038640  1
  F  F34  1  0.830975  0.348585  0.113877  1
  F  F35  1  0.705830  0.652087  0.456230  1
  F  F36  1  0.968284  0.250000  0.901480  1
  F  F37  1  0.395597  0.969671  0.025221  1
  F  F38  1  0.604403  0.469671  0.974779  1
  F  F39  1  0.427663  0.149479  0.213959  1
  F  F40  1  0.878642  0.971554  0.634816  1
  F  F41  1  0.072337  0.649479  0.713959  1
  F  F42  1  0.878974  0.750000  0.221584  1
  F  F43  1  0.121358  0.028446  0.365184  1
  F  F44  1  0.202220  0.425797  0.878611  1
  F  F45  1  0.692595  0.750000  0.265883  1
  F  F46  1  0.669025  0.651415  0.613877  1
  F  F47  1  0.682942  0.750000  0.879897  1
  F  F48  1  0.621026  0.250000  0.721584  1
  F  F49  1  0.778990  0.927593  0.961360  1
  F  F50  1  0.330975  0.151415  0.386123  1
  F  F51  1  0.294170  0.152087  0.543770  1
  F  F52  1  0.222905  0.349994  0.225854  1
  F  F53  1  0.512569  0.609883  0.509761  1
  F  F54  1  0.307405  0.250000  0.734117  1
  F  F55  1  0.825619  0.891489  0.310425  1
  F  F56  1  0.104403  0.030329  0.525221  1
  F  F57  1  0.192595  0.750000  0.234117  1
  F  F58  1  0.674381  0.108511  0.810425  1
  F  F59  1  0.016670  0.250000  0.117728  1
  F  F60  1  0.955212  0.750000  0.361182  1
  F  F61  1  0.012569  0.890117  0.990239  1
  F  F62  1  0.722905  0.150006  0.274146  1
  F  F63  1  0.169025  0.651415  0.886123  1
  F  F64  1  0.927663  0.149479  0.286041  1
  F  F65  1  0.378974  0.750000  0.278416  1
  F  F66  1  0.621358  0.028446  0.134816  1
  F  F67  1  0.182942  0.750000  0.620103  1
  F  F68  1  0.277095  0.650006  0.725854  1
  F  F69  1  0.777095  0.849994  0.774146  1
  F  F70  1  0.278990  0.927593  0.538640  1
  F  F71  1  0.330975  0.348585  0.386123  1
  F  F72  1  0.604403  0.030329  0.974779  1
  F  F73  1  0.278990  0.572407  0.538640  1
  F  F74  1  0.722905  0.349994  0.274146  1
  F  F75  1  0.031716  0.750000  0.098520  1
  F  F76  1  0.512569  0.890117  0.509761  1
  F  F77  1  0.364309  0.370187  0.948044  1
  F  F78  1  0.205830  0.652087  0.043770  1
  F  F79  1  0.378642  0.528446  0.865184  1
  F  F80  1  0.621358  0.471554  0.134816  1
  F  F81  1  0.174381  0.108511  0.689575  1
  F  F82  1  0.135691  0.629813  0.448044  1
  F  F83  1  0.864309  0.370187  0.551956  1
  F  F84  1  0.927663  0.350521  0.286041  1
  F  F85  1  0.825619  0.608511  0.310425  1
  F  F86  1  0.983330  0.750000  0.882272  1
  F  F87  1  0.468284  0.250000  0.598520  1
  F  F88  1  0.104403  0.469671  0.525221  1
  F  F89  1  0.531716  0.750000  0.401480  1
  F  F90  1  0.487431  0.109883  0.490239  1
  F  F91  1  0.544788  0.250000  0.861182  1
  F  F92  1  0.721010  0.427593  0.461360  1
  F  F93  1  0.705830  0.847913  0.456230  1
  F  F94  1  0.572337  0.649479  0.786041  1
  F  F95  1  0.222905  0.150006  0.225854  1
  F  F96  1  0.174381  0.391489  0.689575  1
  F  F97  1  0.487431  0.390117  0.490239  1
  F  F98  1  0.778990  0.572407  0.961360  1
  F  F99  1  0.395597  0.530329  0.025221  1
  F  F100  1  0.878642  0.528446  0.634816  1
  F  F101  1  0.297780  0.925797  0.378611  1
  F  F102  1  0.572337  0.850521  0.786041  1
  F  F103  1  0.987431  0.390117  0.009761  1
  F  F104  1  0.202220  0.074203  0.878611  1
  F  F105  1  0.987431  0.109883  0.009761  1
  F  F106  1  0.455213  0.750000  0.138818  1
  F  F107  1  0.635691  0.629813  0.051956  1
  F  F108  1  0.635691  0.870187  0.051956  1
  F  F109  1  0.325619  0.608511  0.189575  1
  F  F110  1  0.121358  0.471554  0.365184  1
  F  F111  1  0.669025  0.848585  0.613877  1
  F  F112  1  0.721010  0.072407  0.461360  1
  F  F113  1  0.072337  0.850521  0.713959  1
  F  F114  1  0.221010  0.072407  0.038640  1
  F  F115  1  0.864309  0.129813  0.551956  1
  F  F116  1  0.378642  0.971554  0.865184  1
  F  F117  1  0.169025  0.848585  0.886123  1
  F  F118  1  0.895597  0.969671  0.474779  1
  F  F119  1  0.830975  0.151415  0.113877  1
  F  F120  1  0.702220  0.425797  0.621389  1
  F  F121  1  0.777095  0.650006  0.774146  1
  F  F122  1  0.205830  0.847913  0.043770  1
  F  F123  1  0.121026  0.250000  0.778416  1
  F  F124  1  0.807405  0.250000  0.765883  1
  F  F125  1  0.895597  0.530329  0.474779  1
  F  F126  1  0.794170  0.152087  0.956230  1
  F  F127  1  0.294170  0.347913  0.543770  1
  F  F128  1  0.364309  0.129813  0.948044  1
  F  F129  1  0.817058  0.250000  0.379897  1
  F  F130  1  0.277095  0.849994  0.725854  1
  F  F131  1  0.797780  0.925797  0.121389  1
  F  F132  1  0.797780  0.574203  0.121389  1
  F  F133  1  0.044788  0.250000  0.638818  1
  F  F134  1  0.317058  0.250000  0.120103  1
  F  F135  1  0.674381  0.391489  0.810425  1
  F  F136  1  0.325619  0.891489  0.189575  1
  F  F137  1  0.702220  0.074203  0.621389  1
  F  F138  1  0.135691  0.870187  0.448044  1
  F  F139  1  0.427663  0.350521  0.213959  1
