# generated using pymatgen
data_V2CuS4
_symmetry_space_group_name_H-M   'P 1'
_cell_length_a   6.98089442
_cell_length_b   6.98089442
_cell_length_c   6.98089442
_cell_angle_alpha   60.00000000
_cell_angle_beta   60.00000000
_cell_angle_gamma   60.00000000
_symmetry_Int_Tables_number   1
_chemical_formula_structural   V2CuS4
_chemical_formula_sum   'V4 Cu2 S8'
_cell_volume   240.55711742
_cell_formula_units_Z   2
loop_
 _symmetry_equiv_pos_site_id
 _symmetry_equiv_pos_as_xyz
  1  'x, y, z'
loop_
 _atom_site_type_symbol
 _atom_site_label
 _atom_site_symmetry_multiplicity
 _atom_site_fract_x
 _atom_site_fract_y
 _atom_site_fract_z
 _atom_site_occupancy
  V  V0  1  0.125000  0.125000  0.125000  1
  V  V1  1  0.125000  0.125000  0.625000  1
  V  V2  1  0.125000  0.625000  0.125000  1
  V  V3  1  0.625000  0.125000  0.125000  1
  Cu  Cu4  1  0.500000  0.500000  0.500000  1
  Cu  Cu5  1  0.750000  0.750000  0.750000  1
  S  S6  1  0.893221  0.368926  0.368926  1
  S  S7  1  0.881074  0.356779  0.881074  1
  S  S8  1  0.368926  0.893221  0.368926  1
  S  S9  1  0.881074  0.881074  0.881074  1
  S  S10  1  0.881074  0.881074  0.356779  1
  S  S11  1  0.368926  0.368926  0.368926  1
  S  S12  1  0.368926  0.368926  0.893221  1
  S  S13  1  0.356779  0.881074  0.881074  1
