# generated using pymatgen
data_GdScO3
_symmetry_space_group_name_H-M   'P 1'
_cell_length_a   5.51888427
_cell_length_b   5.78558983
_cell_length_c   8.02615821
_cell_angle_alpha   90.00000000
_cell_angle_beta   90.00000000
_cell_angle_gamma   90.00000000
_symmetry_Int_Tables_number   1
_chemical_formula_structural   GdScO3
_chemical_formula_sum   'Gd4 Sc4 O12'
_cell_volume   256.27523731
_cell_formula_units_Z   4
loop_
 _symmetry_equiv_pos_site_id
 _symmetry_equiv_pos_as_xyz
  1  'x, y, z'
loop_
 _atom_site_type_symbol
 _atom_site_label
 _atom_site_symmetry_multiplicity
 _atom_site_fract_x
 _atom_site_fract_y
 _atom_site_fract_z
 _atom_site_occupancy
  Gd  Gd0  1  0.981373  0.059677  0.750000  1
  Gd  Gd1  1  0.481373  0.440323  0.250000  1
  Gd  Gd2  1  0.518627  0.559677  0.750000  1
  Gd  Gd3  1  0.018627  0.940323  0.250000  1
  Sc  Sc4  1  0.000000  0.500000  0.500000  1
  Sc  Sc5  1  0.500000  0.000000  0.500000  1
  Sc  Sc6  1  0.500000  0.000000  0.000000  1
  Sc  Sc7  1  0.000000  0.500000  0.000000  1
  O  O8  1  0.693759  0.304170  0.565105  1
  O  O9  1  0.193759  0.195830  0.434895  1
  O  O10  1  0.806241  0.804170  0.934895  1
  O  O11  1  0.306241  0.695830  0.065105  1
  O  O12  1  0.306241  0.695830  0.434895  1
  O  O13  1  0.806241  0.804170  0.565105  1
  O  O14  1  0.193759  0.195830  0.065105  1
  O  O15  1  0.693759  0.304170  0.934895  1
  O  O16  1  0.876081  0.551825  0.250000  1
  O  O17  1  0.376081  0.948175  0.750000  1
  O  O18  1  0.623919  0.051825  0.250000  1
  O  O19  1  0.123919  0.448175  0.750000  1
