# generated using pymatgen
data_BiSeClO3
_symmetry_space_group_name_H-M   'P 1'
_cell_length_a   5.42971461
_cell_length_b   6.95272371
_cell_length_c   12.18242608
_cell_angle_alpha   90.00000000
_cell_angle_beta   90.00000000
_cell_angle_gamma   90.00000000
_symmetry_Int_Tables_number   1
_chemical_formula_structural   BiSeClO3
_chemical_formula_sum   'Bi4 Se4 Cl4 O12'
_cell_volume   459.90248877
_cell_formula_units_Z   4
loop_
 _symmetry_equiv_pos_site_id
 _symmetry_equiv_pos_as_xyz
  1  'x, y, z'
loop_
 _atom_site_type_symbol
 _atom_site_label
 _atom_site_symmetry_multiplicity
 _atom_site_fract_x
 _atom_site_fract_y
 _atom_site_fract_z
 _atom_site_occupancy
  Bi  Bi0  1  0.250000  0.706250  0.546649  1
  Bi  Bi1  1  0.750000  0.293750  0.453351  1
  Bi  Bi2  1  0.250000  0.793750  0.046649  1
  Bi  Bi3  1  0.750000  0.206250  0.953351  1
  Se  Se4  1  0.750000  0.981801  0.208471  1
  Se  Se5  1  0.250000  0.481801  0.291529  1
  Se  Se6  1  0.250000  0.018199  0.791529  1
  Se  Se7  1  0.750000  0.518199  0.708471  1
  Cl  Cl8  1  0.250000  0.392310  0.946047  1
  Cl  Cl9  1  0.250000  0.107690  0.446047  1
  Cl  Cl10  1  0.750000  0.892310  0.553953  1
  Cl  Cl11  1  0.750000  0.607690  0.053953  1
  O  O12  1  0.750000  0.298702  0.773225  1
  O  O13  1  0.015787  0.972164  0.886513  1
  O  O14  1  0.750000  0.201298  0.273225  1
  O  O15  1  0.984213  0.027836  0.113487  1
  O  O16  1  0.984213  0.472164  0.613487  1
  O  O17  1  0.515787  0.027836  0.113487  1
  O  O18  1  0.484213  0.527836  0.386513  1
  O  O19  1  0.484213  0.972164  0.886513  1
  O  O20  1  0.250000  0.701298  0.226775  1
  O  O21  1  0.515787  0.472164  0.613487  1
  O  O22  1  0.015787  0.527836  0.386513  1
  O  O23  1  0.250000  0.798702  0.726775  1
