# generated using pymatgen
data_V2O5
_symmetry_space_group_name_H-M   'P 1'
_cell_length_a   5.70962796
_cell_length_b   5.70962796
_cell_length_c   11.53549462
_cell_angle_alpha   90.00000000
_cell_angle_beta   90.00000000
_cell_angle_gamma   143.15094708
_symmetry_Int_Tables_number   1
_chemical_formula_structural   V2O5
_chemical_formula_sum   'V4 O10'
_cell_volume   225.52378165
_cell_formula_units_Z   2
loop_
 _symmetry_equiv_pos_site_id
 _symmetry_equiv_pos_as_xyz
  1  'x, y, z'
loop_
 _atom_site_type_symbol
 _atom_site_label
 _atom_site_symmetry_multiplicity
 _atom_site_fract_x
 _atom_site_fract_y
 _atom_site_fract_z
 _atom_site_occupancy
  V  V0  1  0.704968  0.295032  0.602814  1
  V  V1  1  0.295032  0.704968  0.397186  1
  V  V2  1  0.295032  0.704968  0.102814  1
  V  V3  1  0.704968  0.295032  0.897186  1
  O  O4  1  0.763371  0.236629  0.750000  1
  O  O5  1  0.557470  0.442530  0.614851  1
  O  O6  1  0.249380  0.750620  0.568465  1
  O  O7  1  0.750620  0.249380  0.431535  1
  O  O8  1  0.442530  0.557470  0.385149  1
  O  O9  1  0.236629  0.763371  0.250000  1
  O  O10  1  0.442530  0.557470  0.114851  1
  O  O11  1  0.557470  0.442530  0.885149  1
  O  O12  1  0.750620  0.249380  0.068465  1
  O  O13  1  0.249380  0.750620  0.931535  1
