# generated using pymatgen
data_PH9C(NO)4
_symmetry_space_group_name_H-M   'P 1'
_cell_length_a   6.90614093
_cell_length_b   7.24909860
_cell_length_c   7.46517418
_cell_angle_alpha   86.87736714
_cell_angle_beta   81.05247449
_cell_angle_gamma   78.69700881
_symmetry_Int_Tables_number   1
_chemical_formula_structural   PH9C(NO)4
_chemical_formula_sum   'P2 H18 C2 N8 O8'
_cell_volume   361.91180588
_cell_formula_units_Z   2
loop_
 _symmetry_equiv_pos_site_id
 _symmetry_equiv_pos_as_xyz
  1  'x, y, z'
loop_
 _atom_site_type_symbol
 _atom_site_label
 _atom_site_symmetry_multiplicity
 _atom_site_fract_x
 _atom_site_fract_y
 _atom_site_fract_z
 _atom_site_occupancy
  P  P0  1  0.302145  0.758292  0.991870  1
  P  P1  1  0.697855  0.241708  0.008130  1
  H  H2  1  0.943326  0.775538  0.266221  1
  H  H3  1  0.230107  0.689271  0.624037  1
  H  H4  1  0.500000  0.000000  0.000000  1
  H  H5  1  0.699789  0.784762  0.719411  1
  H  H6  1  0.544360  0.503371  0.157224  1
  H  H7  1  0.607341  0.929945  0.351667  1
  H  H8  1  0.392414  0.295869  0.648642  1
  H  H9  1  0.607586  0.704131  0.351358  1
  H  H10  1  0.300211  0.215238  0.280589  1
  H  H11  1  0.392659  0.070055  0.648333  1
  H  H12  1  0.056674  0.224462  0.733779  1
  H  H13  1  0.079475  0.246163  0.182246  1
  H  H14  1  0.769893  0.310729  0.375963  1
  H  H15  1  0.455640  0.496629  0.842776  1
  H  H16  1  0.233900  0.707168  0.386113  1
  H  H17  1  0.920525  0.753837  0.817754  1
  H  H18  1  0.766100  0.292832  0.613887  1
  H  H19  1  0.000000  0.000000  0.000000  1
  C  C20  1  0.956977  0.749783  0.540284  1
  C  C21  1  0.043023  0.250217  0.459716  1
  N  N22  1  0.843934  0.271133  0.484626  1
  N  N23  1  0.148405  0.246049  0.293524  1
  N  N24  1  0.653374  0.804382  0.416979  1
  N  N25  1  0.137059  0.233635  0.606384  1
  N  N26  1  0.346626  0.195618  0.583021  1
  N  N27  1  0.851595  0.753951  0.706476  1
  N  N28  1  0.862941  0.766365  0.393616  1
  N  N29  1  0.156066  0.728867  0.515374  1
  O  O30  1  0.418864  0.912852  0.909975  1
  O  O31  1  0.330928  0.604332  0.840579  1
  O  O32  1  0.581136  0.087148  0.090025  1
  O  O33  1  0.626927  0.335389  0.835284  1
  O  O34  1  0.072436  0.835915  0.022226  1
  O  O35  1  0.927564  0.164085  0.977774  1
  O  O36  1  0.373073  0.664611  0.164716  1
  O  O37  1  0.669072  0.395668  0.159421  1
