# generated using pymatgen
data_Ba2SnTe5
_symmetry_space_group_name_H-M   'P 1'
_cell_length_a   6.98901457
_cell_length_b   7.08230044
_cell_length_c   24.56861257
_cell_angle_alpha   90.00000000
_cell_angle_beta   90.00000000
_cell_angle_gamma   90.00000000
_symmetry_Int_Tables_number   1
_chemical_formula_structural   Ba2SnTe5
_chemical_formula_sum   'Ba8 Sn4 Te20'
_cell_volume   1216.10457926
_cell_formula_units_Z   4
loop_
 _symmetry_equiv_pos_site_id
 _symmetry_equiv_pos_as_xyz
  1  'x, y, z'
loop_
 _atom_site_type_symbol
 _atom_site_label
 _atom_site_symmetry_multiplicity
 _atom_site_fract_x
 _atom_site_fract_y
 _atom_site_fract_z
 _atom_site_occupancy
  Ba  Ba0  1  0.994047  0.489511  0.900237  1
  Ba  Ba1  1  0.994047  0.489511  0.599763  1
  Ba  Ba2  1  0.005953  0.510489  0.400237  1
  Ba  Ba3  1  0.494047  0.010489  0.900237  1
  Ba  Ba4  1  0.494047  0.010489  0.599763  1
  Ba  Ba5  1  0.505953  0.989511  0.400237  1
  Ba  Ba6  1  0.505953  0.989511  0.099763  1
  Ba  Ba7  1  0.005953  0.510489  0.099763  1
  Sn  Sn8  1  0.898639  0.914413  0.250000  1
  Sn  Sn9  1  0.601361  0.414413  0.750000  1
  Sn  Sn10  1  0.398639  0.585587  0.250000  1
  Sn  Sn11  1  0.101361  0.085587  0.750000  1
  Te  Te12  1  0.508139  0.021975  0.750000  1
  Te  Te13  1  0.991861  0.521975  0.250000  1
  Te  Te14  1  0.991886  0.983463  0.855347  1
  Te  Te15  1  0.356049  0.642289  0.996409  1
  Te  Te16  1  0.491886  0.516537  0.644653  1
  Te  Te17  1  0.856049  0.857711  0.996409  1
  Te  Te18  1  0.008114  0.016537  0.355347  1
  Te  Te19  1  0.008139  0.478025  0.750000  1
  Te  Te20  1  0.491886  0.516537  0.855347  1
  Te  Te21  1  0.643951  0.357711  0.003591  1
  Te  Te22  1  0.143951  0.142289  0.496409  1
  Te  Te23  1  0.508114  0.483463  0.144653  1
  Te  Te24  1  0.643951  0.357711  0.496409  1
  Te  Te25  1  0.008114  0.016537  0.144653  1
  Te  Te26  1  0.356049  0.642289  0.503591  1
  Te  Te27  1  0.491861  0.978025  0.250000  1
  Te  Te28  1  0.508114  0.483463  0.355347  1
  Te  Te29  1  0.856049  0.857711  0.503591  1
  Te  Te30  1  0.991886  0.983463  0.644653  1
  Te  Te31  1  0.143951  0.142289  0.003591  1
