# generated using pymatgen
data_YGe2Ir
_symmetry_space_group_name_H-M   'P 1'
_cell_length_a   9.47194229
_cell_length_b   9.47194229
_cell_length_c   9.47194229
_cell_angle_alpha   153.79235776
_cell_angle_beta   123.85413302
_cell_angle_gamma   62.98138527
_symmetry_Int_Tables_number   1
_chemical_formula_structural   YGe2Ir
_chemical_formula_sum   'Y4 Ge8 Ir4'
_cell_volume   309.25463536
_cell_formula_units_Z   4
loop_
 _symmetry_equiv_pos_site_id
 _symmetry_equiv_pos_as_xyz
  1  'x, y, z'
loop_
 _atom_site_type_symbol
 _atom_site_label
 _atom_site_symmetry_multiplicity
 _atom_site_fract_x
 _atom_site_fract_y
 _atom_site_fract_z
 _atom_site_occupancy
  Y  Y0  1  0.294558  0.794558  0.500000  1
  Y  Y1  1  0.261262  1.000000  0.261262  1
  Y  Y2  1  0.738738  1.000000  0.738738  1
  Y  Y3  1  0.705442  0.205442  0.500000  1
  Ge  Ge4  1  0.577023  0.577023  0.000000  1
  Ge  Ge5  1  0.952452  0.799560  0.152891  1
  Ge  Ge6  1  0.646669  0.799560  0.847109  1
  Ge  Ge7  1  0.047548  0.200440  0.847109  1
  Ge  Ge8  1  0.921805  0.421805  0.500000  1
  Ge  Ge9  1  0.422977  0.422977  0.000000  1
  Ge  Ge10  1  0.078195  0.578195  0.500000  1
  Ge  Ge11  1  0.353331  0.200440  0.152891  1
  Ir  Ir12  1  0.896170  0.645616  0.250554  1
  Ir  Ir13  1  0.103830  0.354384  0.749446  1
  Ir  Ir14  1  0.604937  0.354384  0.250554  1
  Ir  Ir15  1  0.395063  0.645616  0.749446  1
