# generated using pymatgen
data_K2CoS2
_symmetry_space_group_name_H-M   'P 1'
_cell_length_a   7.79604351
_cell_length_b   7.79604351
_cell_length_c   7.79604351
_cell_angle_alpha   135.20691155
_cell_angle_beta   128.15112433
_cell_angle_gamma   70.88935031
_symmetry_Int_Tables_number   1
_chemical_formula_structural   K2CoS2
_chemical_formula_sum   'K4 Co2 S4'
_cell_volume   257.20234006
_cell_formula_units_Z   2
loop_
 _symmetry_equiv_pos_site_id
 _symmetry_equiv_pos_as_xyz
  1  'x, y, z'
loop_
 _atom_site_type_symbol
 _atom_site_label
 _atom_site_symmetry_multiplicity
 _atom_site_fract_x
 _atom_site_fract_y
 _atom_site_fract_z
 _atom_site_occupancy
  K  K0  1  0.186968  0.353721  0.833247  1
  K  K1  1  0.813032  0.646279  0.166753  1
  K  K2  1  0.520474  0.853721  0.666753  1
  K  K3  1  0.479526  0.146279  0.333247  1
  Co  Co4  1  0.000000  0.750000  0.750000  1
  Co  Co5  1  0.000000  0.250000  0.250000  1
  S  S6  1  0.719716  0.401081  0.318635  1
  S  S7  1  0.280284  0.598919  0.681365  1
  S  S8  1  0.917554  0.098919  0.818635  1
  S  S9  1  0.082446  0.901081  0.181365  1
