# generated using pymatgen
data_Mn(PO3)2
_symmetry_space_group_name_H-M   'P 1'
_cell_length_a   7.48095132
_cell_length_b   7.48095132
_cell_length_c   10.32427374
_cell_angle_alpha   66.45614793
_cell_angle_beta   113.54385207
_cell_angle_gamma   109.95922265
_symmetry_Int_Tables_number   1
_chemical_formula_structural   Mn(PO3)2
_chemical_formula_sum   'Mn4 P8 O24'
_cell_volume   474.10470497
_cell_formula_units_Z   4
loop_
 _symmetry_equiv_pos_site_id
 _symmetry_equiv_pos_as_xyz
  1  'x, y, z'
loop_
 _atom_site_type_symbol
 _atom_site_label
 _atom_site_symmetry_multiplicity
 _atom_site_fract_x
 _atom_site_fract_y
 _atom_site_fract_z
 _atom_site_occupancy
  Mn  Mn0  1  0.000000  0.500000  0.500000  1
  Mn  Mn1  1  0.500000  1.000000  0.000000  1
  Mn  Mn2  1  0.542500  0.542500  0.250000  1
  Mn  Mn3  1  0.457500  0.457500  0.750000  1
  P  P4  1  0.801232  0.186889  0.306349  1
  P  P5  1  0.186889  0.801232  0.193651  1
  P  P6  1  0.198768  0.813111  0.693651  1
  P  P7  1  0.813111  0.198768  0.806349  1
  P  P8  1  0.758235  0.775444  0.522920  1
  P  P9  1  0.775444  0.758235  0.977080  1
  P  P10  1  0.241765  0.224556  0.477080  1
  P  P11  1  0.224556  0.241765  0.022920  1
  O  O12  1  0.035152  0.198299  0.344319  1
  O  O13  1  0.198299  0.035152  0.155681  1
  O  O14  1  0.964848  0.801701  0.655681  1
  O  O15  1  0.801701  0.964848  0.844319  1
  O  O16  1  0.734853  0.003397  0.439948  1
  O  O17  1  0.003397  0.734853  0.060052  1
  O  O18  1  0.265147  0.996603  0.560052  1
  O  O19  1  0.996603  0.265147  0.939948  1
  O  O20  1  0.695461  0.148119  0.161361  1
  O  O21  1  0.148119  0.695461  0.338639  1
  O  O22  1  0.304539  0.851881  0.838639  1
  O  O23  1  0.851881  0.304539  0.661361  1
  O  O24  1  0.780632  0.370546  0.323897  1
  O  O25  1  0.370546  0.780632  0.176103  1
  O  O26  1  0.219368  0.629454  0.676103  1
  O  O27  1  0.629454  0.219368  0.823897  1
  O  O28  1  0.786826  0.694928  0.420085  1
  O  O29  1  0.694928  0.786826  0.079915  1
  O  O30  1  0.213174  0.305072  0.579915  1
  O  O31  1  0.305072  0.213174  0.920085  1
  O  O32  1  0.407002  0.332326  0.411176  1
  O  O33  1  0.332326  0.407002  0.088824  1
  O  O34  1  0.592998  0.667674  0.588824  1
  O  O35  1  0.667674  0.592998  0.911176  1
