# generated using pymatgen
data_Dy5Si4
_symmetry_space_group_name_H-M   'P 1'
_cell_length_a   7.43154134
_cell_length_b   7.70121205
_cell_length_c   14.57446834
_cell_angle_alpha   90.00000000
_cell_angle_beta   90.00000000
_cell_angle_gamma   90.00000000
_symmetry_Int_Tables_number   1
_chemical_formula_structural   Dy5Si4
_chemical_formula_sum   'Dy20 Si16'
_cell_volume   834.12416069
_cell_formula_units_Z   4
loop_
 _symmetry_equiv_pos_site_id
 _symmetry_equiv_pos_as_xyz
  1  'x, y, z'
loop_
 _atom_site_type_symbol
 _atom_site_label
 _atom_site_symmetry_multiplicity
 _atom_site_fract_x
 _atom_site_fract_y
 _atom_site_fract_z
 _atom_site_occupancy
  Dy  Dy0  1  0.650402  0.987258  0.250000  1
  Dy  Dy1  1  0.150402  0.512742  0.250000  1
  Dy  Dy2  1  0.849598  0.487258  0.750000  1
  Dy  Dy3  1  0.349598  0.012742  0.750000  1
  Dy  Dy4  1  0.972776  0.816800  0.098300  1
  Dy  Dy5  1  0.472776  0.683200  0.401700  1
  Dy  Dy6  1  0.527224  0.316800  0.901700  1
  Dy  Dy7  1  0.027224  0.183200  0.598300  1
  Dy  Dy8  1  0.027224  0.183200  0.901700  1
  Dy  Dy9  1  0.527224  0.316800  0.598300  1
  Dy  Dy10  1  0.472776  0.683200  0.098300  1
  Dy  Dy11  1  0.972776  0.816800  0.401700  1
  Dy  Dy12  1  0.681045  0.820069  0.876944  1
  Dy  Dy13  1  0.181045  0.679931  0.623056  1
  Dy  Dy14  1  0.818955  0.320069  0.123056  1
  Dy  Dy15  1  0.318955  0.179931  0.376944  1
  Dy  Dy16  1  0.318955  0.179931  0.123056  1
  Dy  Dy17  1  0.818955  0.320069  0.376944  1
  Dy  Dy18  1  0.181045  0.679931  0.876944  1
  Dy  Dy19  1  0.681045  0.820069  0.623056  1
  Si  Si20  1  0.767791  0.627180  0.250000  1
  Si  Si21  1  0.267791  0.872820  0.250000  1
  Si  Si22  1  0.732209  0.127180  0.750000  1
  Si  Si23  1  0.232209  0.372820  0.750000  1
  Si  Si24  1  0.023021  0.102560  0.250000  1
  Si  Si25  1  0.523021  0.397440  0.250000  1
  Si  Si26  1  0.476979  0.602560  0.750000  1
  Si  Si27  1  0.976979  0.897440  0.750000  1
  Si  Si28  1  0.853341  0.528469  0.960178  1
  Si  Si29  1  0.353341  0.971531  0.539822  1
  Si  Si30  1  0.646659  0.028469  0.039822  1
  Si  Si31  1  0.146659  0.471531  0.460178  1
  Si  Si32  1  0.146659  0.471531  0.039822  1
  Si  Si33  1  0.646659  0.028469  0.460178  1
  Si  Si34  1  0.353341  0.971531  0.960178  1
  Si  Si35  1  0.853341  0.528469  0.539822  1
