# generated using pymatgen
data_Ca5Au4
_symmetry_space_group_name_H-M   'P 1'
_cell_length_a   7.80527687
_cell_length_b   8.13152620
_cell_length_c   8.09910973
_cell_angle_alpha   90.00000000
_cell_angle_beta   109.24494861
_cell_angle_gamma   90.00000000
_symmetry_Int_Tables_number   1
_chemical_formula_structural   Ca5Au4
_chemical_formula_sum   'Ca10 Au8'
_cell_volume   485.31529369
_cell_formula_units_Z   2
loop_
 _symmetry_equiv_pos_site_id
 _symmetry_equiv_pos_as_xyz
  1  'x, y, z'
loop_
 _atom_site_type_symbol
 _atom_site_label
 _atom_site_symmetry_multiplicity
 _atom_site_fract_x
 _atom_site_fract_y
 _atom_site_fract_z
 _atom_site_occupancy
  Ca  Ca0  1  0.568949  0.321186  0.692213  1
  Ca  Ca1  1  0.068949  0.178814  0.692213  1
  Ca  Ca2  1  0.931051  0.821186  0.307787  1
  Ca  Ca3  1  0.752408  0.330347  0.255802  1
  Ca  Ca4  1  0.500000  0.000000  0.000000  1
  Ca  Ca5  1  0.431051  0.678814  0.307787  1
  Ca  Ca6  1  0.747592  0.830347  0.744198  1
  Ca  Ca7  1  0.252408  0.169653  0.255802  1
  Ca  Ca8  1  0.247592  0.669653  0.744198  1
  Ca  Ca9  1  0.000000  0.500000  0.000000  1
  Au  Au10  1  0.129960  0.868031  0.012334  1
  Au  Au11  1  0.355540  0.967106  0.582531  1
  Au  Au12  1  0.870040  0.131969  0.987666  1
  Au  Au13  1  0.855540  0.532894  0.582531  1
  Au  Au14  1  0.370040  0.368031  0.987666  1
  Au  Au15  1  0.144460  0.467106  0.417469  1
  Au  Au16  1  0.644460  0.032894  0.417469  1
  Au  Au17  1  0.629960  0.631969  0.012334  1
