# generated using pymatgen
data_Ni(PO3)4
_symmetry_space_group_name_H-M   'P 1'
_cell_length_a   9.18334061
_cell_length_b   9.52138283
_cell_length_c   10.71790322
_cell_angle_alpha   90.00000000
_cell_angle_beta   90.00000000
_cell_angle_gamma   90.00000000
_symmetry_Int_Tables_number   1
_chemical_formula_structural   Ni(PO3)4
_chemical_formula_sum   'Ni4 P16 O48'
_cell_volume   937.15311075
_cell_formula_units_Z   4
loop_
 _symmetry_equiv_pos_site_id
 _symmetry_equiv_pos_as_xyz
  1  'x, y, z'
loop_
 _atom_site_type_symbol
 _atom_site_label
 _atom_site_symmetry_multiplicity
 _atom_site_fract_x
 _atom_site_fract_y
 _atom_site_fract_z
 _atom_site_occupancy
  Ni  Ni0  1  0.250000  0.010806  0.783999  1
  Ni  Ni1  1  0.750000  0.489194  0.283999  1
  Ni  Ni2  1  0.250000  0.510806  0.716001  1
  Ni  Ni3  1  0.750000  0.989194  0.216001  1
  P  P4  1  0.750000  0.204298  0.605567  1
  P  P5  1  0.547140  0.214748  0.389729  1
  P  P6  1  0.952860  0.214748  0.389729  1
  P  P7  1  0.250000  0.233812  0.517166  1
  P  P8  1  0.750000  0.266188  0.017166  1
  P  P9  1  0.047140  0.285252  0.889729  1
  P  P10  1  0.452860  0.285252  0.889729  1
  P  P11  1  0.250000  0.295702  0.105567  1
  P  P12  1  0.750000  0.704298  0.894433  1
  P  P13  1  0.547140  0.714748  0.110271  1
  P  P14  1  0.952860  0.714748  0.110271  1
  P  P15  1  0.250000  0.733812  0.982834  1
  P  P16  1  0.750000  0.766188  0.482834  1
  P  P17  1  0.047140  0.785252  0.610271  1
  P  P18  1  0.452860  0.785252  0.610271  1
  P  P19  1  0.250000  0.795702  0.394433  1
  O  O20  1  0.583349  0.108041  0.291289  1
  O  O21  1  0.916651  0.108041  0.291289  1
  O  O22  1  0.750000  0.117676  0.723278  1
  O  O23  1  0.750000  0.116165  0.058647  1
  O  O24  1  0.250000  0.123190  0.616159  1
  O  O25  1  0.092312  0.137395  0.862421  1
  O  O26  1  0.407688  0.137395  0.862421  1
  O  O27  1  0.612570  0.162342  0.522601  1
  O  O28  1  0.887430  0.162342  0.522601  1
  O  O29  1  0.250000  0.143280  0.144870  1
  O  O30  1  0.121230  0.203276  0.418936  1
  O  O31  1  0.378770  0.203276  0.418936  1
  O  O32  1  0.621230  0.296724  0.918936  1
  O  O33  1  0.878770  0.296724  0.918936  1
  O  O34  1  0.750000  0.356720  0.644870  1
  O  O35  1  0.112570  0.337658  0.022601  1
  O  O36  1  0.387430  0.337658  0.022601  1
  O  O37  1  0.592312  0.362605  0.362421  1
  O  O38  1  0.907688  0.362605  0.362421  1
  O  O39  1  0.750000  0.376810  0.116159  1
  O  O40  1  0.250000  0.383835  0.558647  1
  O  O41  1  0.250000  0.382324  0.223278  1
  O  O42  1  0.083349  0.391959  0.791289  1
  O  O43  1  0.416651  0.391959  0.791289  1
  O  O44  1  0.583349  0.608041  0.208711  1
  O  O45  1  0.916651  0.608041  0.208711  1
  O  O46  1  0.750000  0.617676  0.776722  1
  O  O47  1  0.750000  0.616165  0.441353  1
  O  O48  1  0.250000  0.623190  0.883841  1
  O  O49  1  0.092312  0.637395  0.637579  1
  O  O50  1  0.407688  0.637395  0.637579  1
  O  O51  1  0.612570  0.662342  0.977399  1
  O  O52  1  0.887430  0.662342  0.977399  1
  O  O53  1  0.250000  0.643280  0.355130  1
  O  O54  1  0.121230  0.703276  0.081064  1
  O  O55  1  0.378770  0.703276  0.081064  1
  O  O56  1  0.621230  0.796724  0.581064  1
  O  O57  1  0.878770  0.796724  0.581064  1
  O  O58  1  0.750000  0.856720  0.855130  1
  O  O59  1  0.112570  0.837658  0.477399  1
  O  O60  1  0.387430  0.837658  0.477399  1
  O  O61  1  0.592312  0.862605  0.137579  1
  O  O62  1  0.907688  0.862605  0.137579  1
  O  O63  1  0.750000  0.876810  0.383841  1
  O  O64  1  0.250000  0.883835  0.941353  1
  O  O65  1  0.250000  0.882324  0.276722  1
  O  O66  1  0.083349  0.891959  0.708711  1
  O  O67  1  0.416651  0.891959  0.708711  1
