# generated using pymatgen
data_Yb(NiGe)2
_symmetry_space_group_name_H-M   'P 1'
_cell_length_a   5.72639928
_cell_length_b   5.72639928
_cell_length_c   5.72639928
_cell_angle_alpha   138.68668281
_cell_angle_beta   138.68668281
_cell_angle_gamma   59.85292291
_symmetry_Int_Tables_number   1
_chemical_formula_structural   Yb(NiGe)2
_chemical_formula_sum   'Yb1 Ni2 Ge2'
_cell_volume   81.00896097
_cell_formula_units_Z   1
loop_
 _symmetry_equiv_pos_site_id
 _symmetry_equiv_pos_as_xyz
  1  'x, y, z'
loop_
 _atom_site_type_symbol
 _atom_site_label
 _atom_site_symmetry_multiplicity
 _atom_site_fract_x
 _atom_site_fract_y
 _atom_site_fract_z
 _atom_site_occupancy
  Yb  Yb0  1  0.000000  0.000000  0.000000  1
  Ni  Ni1  1  0.250000  0.750000  0.500000  1
  Ni  Ni2  1  0.750000  0.250000  0.500000  1
  Ge  Ge3  1  0.371269  0.371269  0.000000  1
  Ge  Ge4  1  0.628731  0.628731  0.000000  1
