# generated using pymatgen
data_NaCuAsO4
_symmetry_space_group_name_H-M   'P 1'
_cell_length_a   6.13959712
_cell_length_b   10.90796261
_cell_length_c   10.58280962
_cell_angle_alpha   90.00000000
_cell_angle_beta   91.48489007
_cell_angle_gamma   90.00000000
_symmetry_Int_Tables_number   1
_chemical_formula_structural   NaCuAsO4
_chemical_formula_sum   'Na8 Cu8 As8 O32'
_cell_volume   708.49800940
_cell_formula_units_Z   8
loop_
 _symmetry_equiv_pos_site_id
 _symmetry_equiv_pos_as_xyz
  1  'x, y, z'
loop_
 _atom_site_type_symbol
 _atom_site_label
 _atom_site_symmetry_multiplicity
 _atom_site_fract_x
 _atom_site_fract_y
 _atom_site_fract_z
 _atom_site_occupancy
  Na  Na0  1  0.367917  0.630684  0.118571  1
  Na  Na1  1  0.128314  0.347402  0.882359  1
  Na  Na2  1  0.632083  0.369316  0.881429  1
  Na  Na3  1  0.871686  0.847402  0.617641  1
  Na  Na4  1  0.367917  0.869316  0.618571  1
  Na  Na5  1  0.871686  0.652598  0.117641  1
  Na  Na6  1  0.632083  0.130684  0.381429  1
  Na  Na7  1  0.128314  0.152598  0.382359  1
  Cu  Cu8  1  0.384332  0.099697  0.777058  1
  Cu  Cu9  1  0.831187  0.120354  0.989146  1
  Cu  Cu10  1  0.615668  0.599697  0.722942  1
  Cu  Cu11  1  0.384332  0.400303  0.277058  1
  Cu  Cu12  1  0.831187  0.379646  0.489146  1
  Cu  Cu13  1  0.615668  0.900303  0.222942  1
  Cu  Cu14  1  0.168813  0.879646  0.010854  1
  Cu  Cu15  1  0.168813  0.620354  0.510854  1
  As  As16  1  0.622271  0.635476  0.408816  1
  As  As17  1  0.622271  0.864524  0.908816  1
  As  As18  1  0.127118  0.620951  0.821374  1
  As  As19  1  0.377729  0.364524  0.591184  1
  As  As20  1  0.127118  0.879049  0.321374  1
  As  As21  1  0.872882  0.379049  0.178626  1
  As  As22  1  0.872882  0.120951  0.678626  1
  As  As23  1  0.377729  0.135476  0.091184  1
  O  O24  1  0.634891  0.035265  0.659752  1
  O  O25  1  0.402351  0.205290  0.947471  1
  O  O26  1  0.129274  0.704017  0.682927  1
  O  O27  1  0.154671  0.038371  0.088134  1
  O  O28  1  0.154671  0.461629  0.588134  1
  O  O29  1  0.120897  0.784431  0.453686  1
  O  O30  1  0.870726  0.204017  0.817073  1
  O  O31  1  0.900851  0.529141  0.834263  1
  O  O32  1  0.374246  0.553500  0.377708  1
  O  O33  1  0.374246  0.946500  0.877708  1
  O  O34  1  0.346600  0.268242  0.716494  1
  O  O35  1  0.099149  0.470859  0.165737  1
  O  O36  1  0.365109  0.535265  0.840248  1
  O  O37  1  0.900851  0.970859  0.334263  1
  O  O38  1  0.653400  0.768242  0.783506  1
  O  O39  1  0.597649  0.794710  0.052529  1
  O  O40  1  0.845329  0.961629  0.911866  1
  O  O41  1  0.597649  0.705290  0.552529  1
  O  O42  1  0.120897  0.715569  0.953686  1
  O  O43  1  0.634891  0.464735  0.159752  1
  O  O44  1  0.625754  0.053500  0.122292  1
  O  O45  1  0.625754  0.446500  0.622292  1
  O  O46  1  0.402351  0.294710  0.447471  1
  O  O47  1  0.653400  0.731758  0.283506  1
  O  O48  1  0.346600  0.231758  0.216494  1
  O  O49  1  0.845329  0.538371  0.411866  1
  O  O50  1  0.870726  0.295983  0.317073  1
  O  O51  1  0.879103  0.284431  0.046314  1
  O  O52  1  0.365109  0.964735  0.340248  1
  O  O53  1  0.129274  0.795983  0.182927  1
  O  O54  1  0.099149  0.029141  0.665737  1
  O  O55  1  0.879103  0.215569  0.546314  1
