# generated using pymatgen
data_TlW3Br7
_symmetry_space_group_name_H-M   'P 1'
_cell_length_a   14.12943717
_cell_length_b   14.41460532
_cell_length_c   14.45101151
_cell_angle_alpha   90.00000000
_cell_angle_beta   90.00000000
_cell_angle_gamma   90.00000000
_symmetry_Int_Tables_number   1
_chemical_formula_structural   TlW3Br7
_chemical_formula_sum   'Tl8 W24 Br56'
_cell_volume   2943.24127438
_cell_formula_units_Z   8
loop_
 _symmetry_equiv_pos_site_id
 _symmetry_equiv_pos_as_xyz
  1  'x, y, z'
loop_
 _atom_site_type_symbol
 _atom_site_label
 _atom_site_symmetry_multiplicity
 _atom_site_fract_x
 _atom_site_fract_y
 _atom_site_fract_z
 _atom_site_occupancy
  Tl  Tl0  1  0.000000  0.500000  0.500000  1
  Tl  Tl1  1  0.500000  0.000000  0.500000  1
  Tl  Tl2  1  0.250000  0.250000  0.250000  1
  Tl  Tl3  1  0.750000  0.750000  0.250000  1
  Tl  Tl4  1  0.000000  0.500000  0.000000  1
  Tl  Tl5  1  0.500000  0.000000  0.000000  1
  Tl  Tl6  1  0.250000  0.750000  0.750000  1
  Tl  Tl7  1  0.750000  0.250000  0.750000  1
  W  W8  1  0.127517  0.209590  0.720287  1
  W  W9  1  0.872483  0.790410  0.720287  1
  W  W10  1  0.219476  0.370129  0.708673  1
  W  W11  1  0.780524  0.629871  0.708673  1
  W  W12  1  0.291343  0.218381  0.630414  1
  W  W13  1  0.708657  0.781619  0.630414  1
  W  W14  1  0.291343  0.781619  0.369586  1
  W  W15  1  0.708657  0.218381  0.369586  1
  W  W16  1  0.780524  0.370129  0.291327  1
  W  W17  1  0.219476  0.629871  0.291327  1
  W  W18  1  0.872483  0.209590  0.279713  1
  W  W19  1  0.127517  0.790410  0.279713  1
  W  W20  1  0.372483  0.709590  0.220287  1
  W  W21  1  0.627517  0.290410  0.220287  1
  W  W22  1  0.280524  0.870129  0.208673  1
  W  W23  1  0.719476  0.129871  0.208673  1
  W  W24  1  0.791343  0.281619  0.130414  1
  W  W25  1  0.208657  0.718381  0.130414  1
  W  W26  1  0.791343  0.718381  0.869586  1
  W  W27  1  0.208657  0.281619  0.869586  1
  W  W28  1  0.280524  0.129871  0.791327  1
  W  W29  1  0.719476  0.870129  0.791327  1
  W  W30  1  0.627517  0.709590  0.779713  1
  W  W31  1  0.372483  0.290410  0.779713  1
  Br  Br32  1  0.444160  0.138169  0.702306  1
  Br  Br33  1  0.555840  0.861831  0.702306  1
  Br  Br34  1  0.956172  0.156199  0.678377  1
  Br  Br35  1  0.043828  0.843801  0.678377  1
  Br  Br36  1  0.174573  0.539814  0.652686  1
  Br  Br37  1  0.825427  0.460186  0.652686  1
  Br  Br38  1  0.199070  0.058790  0.642174  1
  Br  Br39  1  0.800930  0.941210  0.642174  1
  Br  Br40  1  0.382586  0.379197  0.618670  1
  Br  Br41  1  0.617414  0.620803  0.618670  1
  Br  Br42  1  0.861526  0.702945  0.558828  1
  Br  Br43  1  0.138474  0.297055  0.558828  1
  Br  Br44  1  0.652966  0.173513  0.539045  1
  Br  Br45  1  0.347034  0.826487  0.539045  1
  Br  Br46  1  0.347034  0.173513  0.460955  1
  Br  Br47  1  0.652966  0.826487  0.460955  1
  Br  Br48  1  0.138474  0.702945  0.441172  1
  Br  Br49  1  0.861526  0.297055  0.441172  1
  Br  Br50  1  0.382586  0.620803  0.381330  1
  Br  Br51  1  0.617414  0.379197  0.381330  1
  Br  Br52  1  0.800930  0.058790  0.357826  1
  Br  Br53  1  0.199070  0.941210  0.357826  1
  Br  Br54  1  0.825427  0.539814  0.347314  1
  Br  Br55  1  0.174573  0.460186  0.347314  1
  Br  Br56  1  0.043828  0.156199  0.321623  1
  Br  Br57  1  0.956172  0.843801  0.321623  1
  Br  Br58  1  0.555840  0.138169  0.297694  1
  Br  Br59  1  0.444160  0.861831  0.297694  1
  Br  Br60  1  0.055840  0.638169  0.202306  1
  Br  Br61  1  0.944160  0.361831  0.202306  1
  Br  Br62  1  0.543828  0.656199  0.178377  1
  Br  Br63  1  0.456172  0.343801  0.178377  1
  Br  Br64  1  0.325427  0.039814  0.152686  1
  Br  Br65  1  0.674573  0.960186  0.152686  1
  Br  Br66  1  0.300930  0.558790  0.142174  1
  Br  Br67  1  0.699070  0.441210  0.142174  1
  Br  Br68  1  0.882586  0.120803  0.118670  1
  Br  Br69  1  0.117414  0.879197  0.118670  1
  Br  Br70  1  0.638474  0.202945  0.058828  1
  Br  Br71  1  0.361526  0.797055  0.058828  1
  Br  Br72  1  0.847034  0.673513  0.039045  1
  Br  Br73  1  0.152966  0.326487  0.039045  1
  Br  Br74  1  0.152966  0.673513  0.960955  1
  Br  Br75  1  0.847034  0.326487  0.960955  1
  Br  Br76  1  0.361526  0.202945  0.941172  1
  Br  Br77  1  0.638474  0.797055  0.941172  1
  Br  Br78  1  0.882586  0.879197  0.881330  1
  Br  Br79  1  0.117414  0.120803  0.881330  1
  Br  Br80  1  0.699070  0.558790  0.857826  1
  Br  Br81  1  0.300930  0.441210  0.857826  1
  Br  Br82  1  0.674573  0.039814  0.847314  1
  Br  Br83  1  0.325427  0.960186  0.847314  1
  Br  Br84  1  0.456172  0.656199  0.821623  1
  Br  Br85  1  0.543828  0.343801  0.821623  1
  Br  Br86  1  0.944160  0.638169  0.797694  1
  Br  Br87  1  0.055840  0.361831  0.797694  1
