# generated using pymatgen
data_KZrP2HO8
_symmetry_space_group_name_H-M   'P 1'
_cell_length_a   9.35397341
_cell_length_b   5.41966742
_cell_length_c   16.84846822
_cell_angle_alpha   90.00000000
_cell_angle_beta   114.31563410
_cell_angle_gamma   90.00000000
_symmetry_Int_Tables_number   1
_chemical_formula_structural   KZrP2HO8
_chemical_formula_sum   'K4 Zr4 P8 H4 O32'
_cell_volume   778.37028908
_cell_formula_units_Z   4
loop_
 _symmetry_equiv_pos_site_id
 _symmetry_equiv_pos_as_xyz
  1  'x, y, z'
loop_
 _atom_site_type_symbol
 _atom_site_label
 _atom_site_symmetry_multiplicity
 _atom_site_fract_x
 _atom_site_fract_y
 _atom_site_fract_z
 _atom_site_occupancy
  K  K0  1  0.500000  0.943426  0.250000  1
  K  K1  1  0.500000  0.056574  0.750000  1
  K  K2  1  0.000000  0.038586  0.250000  1
  K  K3  1  0.000000  0.961414  0.750000  1
  Zr  Zr4  1  0.747628  0.222265  0.001059  1
  Zr  Zr5  1  0.252372  0.222265  0.498941  1
  Zr  Zr6  1  0.252372  0.777735  0.998941  1
  Zr  Zr7  1  0.747628  0.777735  0.501059  1
  P  P8  1  0.164307  0.275510  0.111369  1
  P  P9  1  0.835693  0.275510  0.388631  1
  P  P10  1  0.835693  0.724490  0.888631  1
  P  P11  1  0.164307  0.724490  0.611369  1
  P  P12  1  0.666722  0.721283  0.114727  1
  P  P13  1  0.333278  0.721283  0.385273  1
  P  P14  1  0.333278  0.278717  0.885273  1
  P  P15  1  0.666722  0.278717  0.614727  1
  H  H16  1  0.250928  0.477275  0.242843  1
  H  H17  1  0.749072  0.477275  0.257157  1
  H  H18  1  0.749072  0.522725  0.757157  1
  H  H19  1  0.250928  0.522725  0.742843  1
  O  O20  1  0.988546  0.237132  0.088525  1
  O  O21  1  0.011454  0.237132  0.411475  1
  O  O22  1  0.011454  0.762868  0.911475  1
  O  O23  1  0.988546  0.762868  0.588525  1
  O  O24  1  0.194803  0.507562  0.069083  1
  O  O25  1  0.805197  0.507562  0.430917  1
  O  O26  1  0.805197  0.492438  0.930917  1
  O  O27  1  0.194803  0.492438  0.569083  1
  O  O28  1  0.232147  0.043634  0.087216  1
  O  O29  1  0.767853  0.043634  0.412784  1
  O  O30  1  0.767853  0.956366  0.912784  1
  O  O31  1  0.232147  0.956366  0.587216  1
  O  O32  1  0.691022  0.479549  0.073305  1
  O  O33  1  0.308978  0.479549  0.426695  1
  O  O34  1  0.308978  0.520451  0.926695  1
  O  O35  1  0.691022  0.520451  0.573305  1
  O  O36  1  0.511356  0.228001  0.914426  1
  O  O37  1  0.488644  0.228001  0.585574  1
  O  O38  1  0.488644  0.771999  0.085574  1
  O  O39  1  0.511356  0.771999  0.414426  1
  O  O40  1  0.736892  0.939270  0.082677  1
  O  O41  1  0.263108  0.939270  0.417323  1
  O  O42  1  0.263108  0.060730  0.917323  1
  O  O43  1  0.736892  0.060730  0.582677  1
  O  O44  1  0.252522  0.301203  0.213541  1
  O  O45  1  0.747478  0.301203  0.286459  1
  O  O46  1  0.747478  0.698797  0.786459  1
  O  O47  1  0.252522  0.698797  0.713541  1
  O  O48  1  0.252962  0.705111  0.285624  1
  O  O49  1  0.747038  0.705111  0.214376  1
  O  O50  1  0.747038  0.294889  0.714376  1
  O  O51  1  0.252962  0.294889  0.785624  1
