# generated using pymatgen
data_Te2Ir
_symmetry_space_group_name_H-M   'P 1'
_cell_length_a   4.07482699
_cell_length_b   6.46899806
_cell_length_c   22.91682355
_cell_angle_alpha   90.00000000
_cell_angle_beta   90.00000000
_cell_angle_gamma   90.00000000
_symmetry_Int_Tables_number   1
_chemical_formula_structural   Te2Ir
_chemical_formula_sum   'Te16 Ir8'
_cell_volume   604.08856634
_cell_formula_units_Z   8
loop_
 _symmetry_equiv_pos_site_id
 _symmetry_equiv_pos_as_xyz
  1  'x, y, z'
loop_
 _atom_site_type_symbol
 _atom_site_label
 _atom_site_symmetry_multiplicity
 _atom_site_fract_x
 _atom_site_fract_y
 _atom_site_fract_z
 _atom_site_occupancy
  Te  Te0  1  0.750000  0.689119  0.240719  1
  Te  Te1  1  0.250000  0.221026  0.490967  1
  Te  Te2  1  0.750000  0.422896  0.136492  1
  Te  Te3  1  0.250000  0.310881  0.759281  1
  Te  Te4  1  0.750000  0.077104  0.636492  1
  Te  Te5  1  0.250000  0.189119  0.259281  1
  Te  Te6  1  0.250000  0.922896  0.363508  1
  Te  Te7  1  0.250000  0.948903  0.121868  1
  Te  Te8  1  0.250000  0.551097  0.621868  1
  Te  Te9  1  0.750000  0.810881  0.740719  1
  Te  Te10  1  0.750000  0.721026  0.009033  1
  Te  Te11  1  0.250000  0.278974  0.990967  1
  Te  Te12  1  0.750000  0.778974  0.509033  1
  Te  Te13  1  0.250000  0.577104  0.863508  1
  Te  Te14  1  0.750000  0.051097  0.878132  1
  Te  Te15  1  0.750000  0.448903  0.378132  1
  Ir  Ir16  1  0.250000  0.932309  0.575939  1
  Ir  Ir17  1  0.250000  0.567691  0.075939  1
  Ir  Ir18  1  0.250000  0.560599  0.305585  1
  Ir  Ir19  1  0.750000  0.439401  0.694415  1
  Ir  Ir20  1  0.250000  0.939401  0.805585  1
  Ir  Ir21  1  0.750000  0.432309  0.924061  1
  Ir  Ir22  1  0.750000  0.067691  0.424061  1
  Ir  Ir23  1  0.750000  0.060599  0.194415  1
