# generated using pymatgen
data_Dy3Se3N
_symmetry_space_group_name_H-M   'P 1'
_cell_length_a   3.95016637
_cell_length_b   12.57249987
_cell_length_c   13.22139462
_cell_angle_alpha   90.00000000
_cell_angle_beta   90.00000000
_cell_angle_gamma   90.00000000
_symmetry_Int_Tables_number   1
_chemical_formula_structural   Dy3Se3N
_chemical_formula_sum   'Dy12 Se12 N4'
_cell_volume   656.62028447
_cell_formula_units_Z   4
loop_
 _symmetry_equiv_pos_site_id
 _symmetry_equiv_pos_as_xyz
  1  'x, y, z'
loop_
 _atom_site_type_symbol
 _atom_site_label
 _atom_site_symmetry_multiplicity
 _atom_site_fract_x
 _atom_site_fract_y
 _atom_site_fract_z
 _atom_site_occupancy
  Dy  Dy0  1  0.750000  0.797364  0.357417  1
  Dy  Dy1  1  0.750000  0.957847  0.649985  1
  Dy  Dy2  1  0.750000  0.437607  0.365892  1
  Dy  Dy3  1  0.750000  0.297364  0.142583  1
  Dy  Dy4  1  0.750000  0.457847  0.850015  1
  Dy  Dy5  1  0.250000  0.062393  0.865892  1
  Dy  Dy6  1  0.250000  0.562393  0.634108  1
  Dy  Dy7  1  0.250000  0.202636  0.642583  1
  Dy  Dy8  1  0.250000  0.702636  0.857417  1
  Dy  Dy9  1  0.250000  0.042153  0.350015  1
  Dy  Dy10  1  0.250000  0.542153  0.149985  1
  Dy  Dy11  1  0.750000  0.937607  0.134108  1
  Se  Se12  1  0.750000  0.403347  0.601916  1
  Se  Se13  1  0.250000  0.369801  0.005833  1
  Se  Se14  1  0.750000  0.130199  0.505833  1
  Se  Se15  1  0.250000  0.869801  0.494167  1
  Se  Se16  1  0.250000  0.275370  0.312125  1
  Se  Se17  1  0.750000  0.630199  0.994167  1
  Se  Se18  1  0.750000  0.903347  0.898084  1
  Se  Se19  1  0.250000  0.096653  0.101916  1
  Se  Se20  1  0.750000  0.724630  0.687875  1
  Se  Se21  1  0.750000  0.224630  0.812125  1
  Se  Se22  1  0.250000  0.596653  0.398084  1
  Se  Se23  1  0.250000  0.775370  0.187875  1
  N  N24  1  0.750000  0.463854  0.202993  1
  N  N25  1  0.750000  0.963854  0.297007  1
  N  N26  1  0.250000  0.036146  0.702993  1
  N  N27  1  0.250000  0.536146  0.797007  1
