# generated using pymatgen
data_Eu(NiSb)2
_symmetry_space_group_name_H-M   'P 1'
_cell_length_a   6.22142280
_cell_length_b   6.22142280
_cell_length_c   6.22142280
_cell_angle_alpha   138.63442635
_cell_angle_beta   138.63442635
_cell_angle_gamma   59.93272138
_symmetry_Int_Tables_number   1
_chemical_formula_structural   Eu(NiSb)2
_chemical_formula_sum   'Eu1 Ni2 Sb2'
_cell_volume   104.09575465
_cell_formula_units_Z   1
loop_
 _symmetry_equiv_pos_site_id
 _symmetry_equiv_pos_as_xyz
  1  'x, y, z'
loop_
 _atom_site_type_symbol
 _atom_site_label
 _atom_site_symmetry_multiplicity
 _atom_site_fract_x
 _atom_site_fract_y
 _atom_site_fract_z
 _atom_site_occupancy
  Eu  Eu0  1  0.000000  0.000000  0.000000  1
  Ni  Ni1  1  0.250000  0.750000  0.500000  1
  Ni  Ni2  1  0.750000  0.250000  0.500000  1
  Sb  Sb3  1  0.362971  0.362971  0.000000  1
  Sb  Sb4  1  0.637029  0.637029  0.000000  1
