# generated using pymatgen
data_Sr2B5ClO9
_symmetry_space_group_name_H-M   'P 1'
_cell_length_a   6.56679279
_cell_length_b   11.45429034
_cell_length_c   11.54026309
_cell_angle_alpha   90.00000000
_cell_angle_beta   90.00000000
_cell_angle_gamma   90.00000000
_symmetry_Int_Tables_number   1
_chemical_formula_structural   Sr2B5ClO9
_chemical_formula_sum   'Sr8 B20 Cl4 O36'
_cell_volume   868.03494616
_cell_formula_units_Z   4
loop_
 _symmetry_equiv_pos_site_id
 _symmetry_equiv_pos_as_xyz
  1  'x, y, z'
loop_
 _atom_site_type_symbol
 _atom_site_label
 _atom_site_symmetry_multiplicity
 _atom_site_fract_x
 _atom_site_fract_y
 _atom_site_fract_z
 _atom_site_occupancy
  Sr  Sr0  1  0.841636  0.241509  0.473466  1
  Sr  Sr1  1  0.006001  0.455942  0.747540  1
  Sr  Sr2  1  0.506001  0.955942  0.752460  1
  Sr  Sr3  1  0.506001  0.044058  0.247540  1
  Sr  Sr4  1  0.341636  0.258491  0.973466  1
  Sr  Sr5  1  0.006001  0.544058  0.252460  1
  Sr  Sr6  1  0.341636  0.741509  0.026534  1
  Sr  Sr7  1  0.841636  0.758491  0.526534  1
  B  B8  1  0.474221  0.493466  0.249402  1
  B  B9  1  0.474221  0.506534  0.750598  1
  B  B10  1  0.808504  0.234851  0.035808  1
  B  B11  1  0.030091  0.215130  0.206647  1
  B  B12  1  0.808504  0.765149  0.964192  1
  B  B13  1  0.308504  0.265149  0.535808  1
  B  B14  1  0.308504  0.734851  0.464192  1
  B  B15  1  0.848175  0.794294  0.188047  1
  B  B16  1  0.848175  0.205706  0.811953  1
  B  B17  1  0.974221  0.993466  0.250598  1
  B  B18  1  0.200337  0.821562  0.273617  1
  B  B19  1  0.974221  0.006534  0.749402  1
  B  B20  1  0.030091  0.784870  0.793353  1
  B  B21  1  0.700337  0.678438  0.773617  1
  B  B22  1  0.348175  0.705706  0.688047  1
  B  B23  1  0.348175  0.294294  0.311953  1
  B  B24  1  0.700337  0.321562  0.226383  1
  B  B25  1  0.530091  0.284870  0.706647  1
  B  B26  1  0.530091  0.715130  0.293353  1
  B  B27  1  0.200337  0.178438  0.726383  1
  Cl  Cl28  1  0.403658  0.000000  0.000000  1
  Cl  Cl29  1  0.648806  0.000000  0.500000  1
  Cl  Cl30  1  0.148806  0.500000  0.000000  1
  Cl  Cl31  1  0.903658  0.500000  0.500000  1
  O  O32  1  0.748284  0.766040  0.077252  1
  O  O33  1  0.153621  0.766128  0.387644  1
  O  O34  1  0.568709  0.733922  0.684815  1
  O  O35  1  0.568709  0.266078  0.315185  1
  O  O36  1  0.320230  0.421754  0.287716  1
  O  O37  1  0.153621  0.233872  0.612356  1
  O  O38  1  0.248284  0.733960  0.577252  1
  O  O39  1  0.916901  0.314328  0.255696  1
  O  O40  1  0.929385  0.110241  0.263096  1
  O  O41  1  0.820230  0.078246  0.787716  1
  O  O42  1  0.750170  0.278008  0.721263  1
  O  O43  1  0.416901  0.185672  0.755696  1
  O  O44  1  0.416901  0.814328  0.244304  1
  O  O45  1  0.998665  0.208209  0.076834  1
  O  O46  1  0.820230  0.921754  0.212284  1
  O  O47  1  0.160489  0.050253  0.718623  1
  O  O48  1  0.498665  0.291791  0.576834  1
  O  O49  1  0.429385  0.610241  0.236904  1
  O  O50  1  0.250170  0.778008  0.778737  1
  O  O51  1  0.929385  0.889759  0.736904  1
  O  O52  1  0.750170  0.721992  0.278737  1
  O  O53  1  0.248284  0.266040  0.422748  1
  O  O54  1  0.068709  0.233922  0.815185  1
  O  O55  1  0.748284  0.233960  0.922748  1
  O  O56  1  0.653621  0.266128  0.112356  1
  O  O57  1  0.160489  0.949747  0.281377  1
  O  O58  1  0.998665  0.791791  0.923166  1
  O  O59  1  0.068709  0.766078  0.184815  1
  O  O60  1  0.498665  0.708209  0.423166  1
  O  O61  1  0.429385  0.389759  0.763096  1
  O  O62  1  0.653621  0.733872  0.887644  1
  O  O63  1  0.660489  0.550253  0.781377  1
  O  O64  1  0.916901  0.685672  0.744304  1
  O  O65  1  0.320230  0.578246  0.712284  1
  O  O66  1  0.250170  0.221992  0.221263  1
  O  O67  1  0.660489  0.449747  0.218623  1
