# generated using pymatgen
data_Nd5Cu5O13
_symmetry_space_group_name_H-M   'P 1'
_cell_length_a   8.47641907
_cell_length_b   8.47641907
_cell_length_c   3.83474508
_cell_angle_alpha   90.00000000
_cell_angle_beta   90.00000000
_cell_angle_gamma   90.00000000
_symmetry_Int_Tables_number   1
_chemical_formula_structural   Nd5Cu5O13
_chemical_formula_sum   'Nd5 Cu5 O13'
_cell_volume   275.52520773
_cell_formula_units_Z   1
loop_
 _symmetry_equiv_pos_site_id
 _symmetry_equiv_pos_as_xyz
  1  'x, y, z'
loop_
 _atom_site_type_symbol
 _atom_site_label
 _atom_site_symmetry_multiplicity
 _atom_site_fract_x
 _atom_site_fract_y
 _atom_site_fract_z
 _atom_site_occupancy
  Nd  Nd0  1  0.847400  0.736757  0.500000  1
  Nd  Nd1  1  0.263243  0.847400  0.500000  1
  Nd  Nd2  1  0.500000  0.500000  0.500000  1
  Nd  Nd3  1  0.152600  0.263243  0.500000  1
  Nd  Nd4  1  0.736757  0.152600  0.500000  1
  Cu  Cu5  1  0.434090  0.160059  0.000000  1
  Cu  Cu6  1  0.565910  0.839941  0.000000  1
  Cu  Cu7  1  0.160059  0.565910  0.000000  1
  Cu  Cu8  1  0.839941  0.434090  0.000000  1
  Cu  Cu9  1  0.000000  0.000000  0.000000  1
  O  O10  1  0.700800  0.612389  0.000000  1
  O  O11  1  0.241031  0.042024  0.000000  1
  O  O12  1  0.434274  0.179799  0.500000  1
  O  O13  1  0.299200  0.387611  0.000000  1
  O  O14  1  0.820201  0.434274  0.500000  1
  O  O15  1  0.758969  0.957976  0.000000  1
  O  O16  1  0.957976  0.241031  0.000000  1
  O  O17  1  0.612389  0.299200  0.000000  1
  O  O18  1  0.387611  0.700800  0.000000  1
  O  O19  1  0.179799  0.565726  0.500000  1
  O  O20  1  0.042024  0.758969  0.000000  1
  O  O21  1  0.000000  0.000000  0.500000  1
  O  O22  1  0.565726  0.820201  0.500000  1
