# generated using pymatgen
data_KLiMnO2
_symmetry_space_group_name_H-M   'P 1'
_cell_length_a   5.86564074
_cell_length_b   5.86564074
_cell_length_c   8.53986784
_cell_angle_alpha   61.14518518
_cell_angle_beta   118.85481482
_cell_angle_gamma   145.38851523
_symmetry_Int_Tables_number   1
_chemical_formula_structural   KLiMnO2
_chemical_formula_sum   'K2 Li2 Mn2 O4'
_cell_volume   144.00190463
_cell_formula_units_Z   2
loop_
 _symmetry_equiv_pos_site_id
 _symmetry_equiv_pos_as_xyz
  1  'x, y, z'
loop_
 _atom_site_type_symbol
 _atom_site_label
 _atom_site_symmetry_multiplicity
 _atom_site_fract_x
 _atom_site_fract_y
 _atom_site_fract_z
 _atom_site_occupancy
  K  K0  1  0.838424  0.161576  0.366698  1
  K  K1  1  0.161576  0.838424  0.633302  1
  Li  Li2  1  0.661127  0.338873  0.946830  1
  Li  Li3  1  0.338873  0.661127  0.053170  1
  Mn  Mn4  1  0.044867  0.955133  0.187163  1
  Mn  Mn5  1  0.955133  0.044867  0.812837  1
  O  O6  1  0.466101  0.533899  0.692991  1
  O  O7  1  0.838545  0.161455  0.943310  1
  O  O8  1  0.161455  0.838545  0.056690  1
  O  O9  1  0.533899  0.466101  0.307009  1
