# generated using pymatgen
data_Ca5(CoN2)2
_symmetry_space_group_name_H-M   'P 1'
_cell_length_a   8.09742409
_cell_length_b   8.09742409
_cell_length_c   12.03781929
_cell_angle_alpha   90.00000000
_cell_angle_beta   90.00000000
_cell_angle_gamma   90.00000000
_symmetry_Int_Tables_number   1
_chemical_formula_structural   Ca5(CoN2)2
_chemical_formula_sum   'Ca20 Co8 N16'
_cell_volume   789.29906840
_cell_formula_units_Z   4
loop_
 _symmetry_equiv_pos_site_id
 _symmetry_equiv_pos_as_xyz
  1  'x, y, z'
loop_
 _atom_site_type_symbol
 _atom_site_label
 _atom_site_symmetry_multiplicity
 _atom_site_fract_x
 _atom_site_fract_y
 _atom_site_fract_z
 _atom_site_occupancy
  Ca  Ca0  1  0.500000  0.000000  0.651480  1
  Ca  Ca1  1  0.000000  0.500000  0.348520  1
  Ca  Ca2  1  0.500000  0.000000  0.151480  1
  Ca  Ca3  1  0.673066  0.382105  0.596491  1
  Ca  Ca4  1  0.117895  0.826934  0.096491  1
  Ca  Ca5  1  0.382105  0.673066  0.903509  1
  Ca  Ca6  1  0.326934  0.382105  0.096491  1
  Ca  Ca7  1  0.826934  0.882105  0.903509  1
  Ca  Ca8  1  0.882105  0.826934  0.596491  1
  Ca  Ca9  1  0.617895  0.326934  0.903509  1
  Ca  Ca10  1  0.326934  0.617895  0.596491  1
  Ca  Ca11  1  0.173066  0.117895  0.903509  1
  Ca  Ca12  1  0.000000  0.500000  0.848520  1
  Ca  Ca13  1  0.826934  0.117895  0.403509  1
  Ca  Ca14  1  0.173066  0.882105  0.403509  1
  Ca  Ca15  1  0.882105  0.173066  0.096491  1
  Ca  Ca16  1  0.673066  0.617895  0.096491  1
  Ca  Ca17  1  0.382105  0.326934  0.403509  1
  Ca  Ca18  1  0.117895  0.173066  0.596491  1
  Ca  Ca19  1  0.617895  0.673066  0.403509  1
  Co  Co20  1  0.657981  0.342019  0.250000  1
  Co  Co21  1  0.842019  0.157981  0.750000  1
  Co  Co22  1  0.157981  0.157981  0.250000  1
  Co  Co23  1  0.657981  0.657981  0.750000  1
  Co  Co24  1  0.342019  0.657981  0.250000  1
  Co  Co25  1  0.342019  0.342019  0.750000  1
  Co  Co26  1  0.157981  0.842019  0.750000  1
  Co  Co27  1  0.842019  0.842019  0.250000  1
  N  N28  1  0.389932  0.299297  0.607214  1
  N  N29  1  0.700703  0.389932  0.392786  1
  N  N30  1  0.700703  0.610068  0.892786  1
  N  N31  1  0.799297  0.889932  0.107214  1
  N  N32  1  0.299297  0.389932  0.892786  1
  N  N33  1  0.200703  0.110068  0.107214  1
  N  N34  1  0.889932  0.799297  0.392786  1
  N  N35  1  0.889932  0.200703  0.892786  1
  N  N36  1  0.389932  0.700703  0.107214  1
  N  N37  1  0.610068  0.700703  0.607214  1
  N  N38  1  0.299297  0.610068  0.392786  1
  N  N39  1  0.110068  0.799297  0.892786  1
  N  N40  1  0.200703  0.889932  0.607214  1
  N  N41  1  0.110068  0.200703  0.392786  1
  N  N42  1  0.799297  0.110068  0.607214  1
  N  N43  1  0.610068  0.299297  0.107214  1
