# generated using pymatgen
data_K5Li2NdF10
_symmetry_space_group_name_H-M   'P 1'
_cell_length_a   7.01387921
_cell_length_b   7.86770344
_cell_length_c   20.96485510
_cell_angle_alpha   90.00000000
_cell_angle_beta   90.00000000
_cell_angle_gamma   90.00000000
_symmetry_Int_Tables_number   1
_chemical_formula_structural   K5Li2NdF10
_chemical_formula_sum   'K20 Li8 Nd4 F40'
_cell_volume   1156.90614806
_cell_formula_units_Z   4
loop_
 _symmetry_equiv_pos_site_id
 _symmetry_equiv_pos_as_xyz
  1  'x, y, z'
loop_
 _atom_site_type_symbol
 _atom_site_label
 _atom_site_symmetry_multiplicity
 _atom_site_fract_x
 _atom_site_fract_y
 _atom_site_fract_z
 _atom_site_occupancy
  K  K0  1  0.249847  0.521948  0.043017  1
  K  K1  1  0.923433  0.526832  0.283040  1
  K  K2  1  0.566965  0.250000  0.640154  1
  K  K3  1  0.433035  0.750000  0.359846  1
  K  K4  1  0.076567  0.473168  0.716960  1
  K  K5  1  0.423433  0.473168  0.216960  1
  K  K6  1  0.933035  0.250000  0.140154  1
  K  K7  1  0.249847  0.978052  0.043017  1
  K  K8  1  0.076567  0.026832  0.716960  1
  K  K9  1  0.066965  0.750000  0.859846  1
  K  K10  1  0.749847  0.478052  0.456983  1
  K  K11  1  0.576567  0.526832  0.783040  1
  K  K12  1  0.750153  0.021948  0.956983  1
  K  K13  1  0.923433  0.973168  0.283040  1
  K  K14  1  0.750153  0.478052  0.956983  1
  K  K15  1  0.749847  0.021948  0.456983  1
  K  K16  1  0.250153  0.521948  0.543017  1
  K  K17  1  0.576567  0.973168  0.783040  1
  K  K18  1  0.250153  0.978052  0.543017  1
  K  K19  1  0.423433  0.026832  0.216960  1
  Li  Li20  1  0.973589  0.250000  0.577758  1
  Li  Li21  1  0.345951  0.750000  0.673048  1
  Li  Li22  1  0.845951  0.250000  0.826952  1
  Li  Li23  1  0.654049  0.250000  0.326952  1
  Li  Li24  1  0.473589  0.750000  0.922242  1
  Li  Li25  1  0.154049  0.750000  0.173048  1
  Li  Li26  1  0.526411  0.250000  0.077758  1
  Li  Li27  1  0.026411  0.750000  0.422242  1
  Nd  Nd28  1  0.735105  0.750000  0.107108  1
  Nd  Nd29  1  0.764895  0.750000  0.607108  1
  Nd  Nd30  1  0.264895  0.250000  0.892892  1
  Nd  Nd31  1  0.235105  0.250000  0.392892  1
  F  F32  1  0.044811  0.250000  0.490856  1
  F  F33  1  0.703351  0.250000  0.240450  1
  F  F34  1  0.997794  0.925459  0.146627  1
  F  F35  1  0.391101  0.750000  0.131484  1
  F  F36  1  0.497794  0.074541  0.353373  1
  F  F37  1  0.608899  0.250000  0.868516  1
  F  F38  1  0.955189  0.750000  0.509144  1
  F  F39  1  0.002206  0.074541  0.853373  1
  F  F40  1  0.296649  0.750000  0.759550  1
  F  F41  1  0.809637  0.750000  0.718386  1
  F  F42  1  0.497794  0.425459  0.353373  1
  F  F43  1  0.891101  0.250000  0.368516  1
  F  F44  1  0.152705  0.959835  0.409273  1
  F  F45  1  0.502206  0.574541  0.646627  1
  F  F46  1  0.152705  0.540165  0.409273  1
  F  F47  1  0.192768  0.250000  0.626194  1
  F  F48  1  0.455189  0.250000  0.990856  1
  F  F49  1  0.203351  0.750000  0.259550  1
  F  F50  1  0.546924  0.750000  0.519757  1
  F  F51  1  0.307232  0.250000  0.126194  1
  F  F52  1  0.652705  0.040165  0.090727  1
  F  F53  1  0.347295  0.540165  0.909273  1
  F  F54  1  0.453076  0.250000  0.480243  1
  F  F55  1  0.847295  0.459835  0.590727  1
  F  F56  1  0.190363  0.250000  0.281614  1
  F  F57  1  0.544811  0.750000  0.009144  1
  F  F58  1  0.002206  0.425459  0.853373  1
  F  F59  1  0.046924  0.250000  0.980243  1
  F  F60  1  0.953076  0.750000  0.019757  1
  F  F61  1  0.997794  0.574541  0.146627  1
  F  F62  1  0.108899  0.750000  0.631484  1
  F  F63  1  0.690363  0.750000  0.218386  1
  F  F64  1  0.807232  0.750000  0.373806  1
  F  F65  1  0.796649  0.250000  0.740450  1
  F  F66  1  0.652705  0.459835  0.090727  1
  F  F67  1  0.692768  0.750000  0.873806  1
  F  F68  1  0.347295  0.959835  0.909273  1
  F  F69  1  0.847295  0.040165  0.590727  1
  F  F70  1  0.502206  0.925459  0.646627  1
  F  F71  1  0.309637  0.250000  0.781614  1
