# generated using pymatgen
data_Ba3Er2(PS4)4
_symmetry_space_group_name_H-M   'P 1'
_cell_length_a   10.39632441
_cell_length_b   12.72353592
_cell_length_c   19.42011799
_cell_angle_alpha   90.00000000
_cell_angle_beta   90.00000000
_cell_angle_gamma   90.00000000
_symmetry_Int_Tables_number   1
_chemical_formula_structural   Ba3Er2(PS4)4
_chemical_formula_sum   'Ba12 Er8 P16 S64'
_cell_volume   2568.85450472
_cell_formula_units_Z   4
loop_
 _symmetry_equiv_pos_site_id
 _symmetry_equiv_pos_as_xyz
  1  'x, y, z'
loop_
 _atom_site_type_symbol
 _atom_site_label
 _atom_site_symmetry_multiplicity
 _atom_site_fract_x
 _atom_site_fract_y
 _atom_site_fract_z
 _atom_site_occupancy
  Ba  Ba0  1  0.882654  0.750000  0.500000  1
  Ba  Ba1  1  0.382654  0.750000  0.000000  1
  Ba  Ba2  1  0.289372  0.390756  0.772889  1
  Ba  Ba3  1  0.117346  0.250000  0.500000  1
  Ba  Ba4  1  0.289372  0.109244  0.227111  1
  Ba  Ba5  1  0.210628  0.609244  0.272889  1
  Ba  Ba6  1  0.710628  0.609244  0.227111  1
  Ba  Ba7  1  0.710628  0.890756  0.772889  1
  Ba  Ba8  1  0.789372  0.109244  0.272889  1
  Ba  Ba9  1  0.789372  0.390756  0.727111  1
  Ba  Ba10  1  0.210628  0.890756  0.727111  1
  Ba  Ba11  1  0.617346  0.250000  0.000000  1
  Er  Er12  1  0.871354  0.612536  0.926651  1
  Er  Er13  1  0.128646  0.112536  0.926651  1
  Er  Er14  1  0.371354  0.887464  0.426651  1
  Er  Er15  1  0.628646  0.112536  0.573349  1
  Er  Er16  1  0.628646  0.387464  0.426651  1
  Er  Er17  1  0.871354  0.887464  0.073349  1
  Er  Er18  1  0.371354  0.612536  0.573349  1
  Er  Er19  1  0.128646  0.387464  0.073349  1
  P  P20  1  0.504619  0.860005  0.601738  1
  P  P21  1  0.936499  0.451594  0.369098  1
  P  P22  1  0.436499  0.048406  0.869098  1
  P  P23  1  0.495381  0.139995  0.398262  1
  P  P24  1  0.063501  0.548406  0.630902  1
  P  P25  1  0.936499  0.048406  0.630902  1
  P  P26  1  0.563501  0.951594  0.130902  1
  P  P27  1  0.995381  0.139995  0.101738  1
  P  P28  1  0.436499  0.451594  0.130902  1
  P  P29  1  0.495381  0.360005  0.601738  1
  P  P30  1  0.563501  0.548406  0.869098  1
  P  P31  1  0.004619  0.639995  0.101738  1
  P  P32  1  0.063501  0.951594  0.369098  1
  P  P33  1  0.004619  0.860005  0.898262  1
  P  P34  1  0.504619  0.639995  0.398262  1
  P  P35  1  0.995381  0.360005  0.898262  1
  S  S36  1  0.564578  0.729379  0.650604  1
  S  S37  1  0.569772  0.387427  0.852847  1
  S  S38  1  0.430228  0.612573  0.147153  1
  S  S39  1  0.503658  0.014012  0.333602  1
  S  S40  1  0.069772  0.112573  0.352847  1
  S  S41  1  0.888526  0.402033  0.983804  1
  S  S42  1  0.290019  0.113771  0.809246  1
  S  S43  1  0.679258  0.170545  0.432328  1
  S  S44  1  0.064578  0.729379  0.849396  1
  S  S45  1  0.996342  0.985988  0.833602  1
  S  S46  1  0.388526  0.402033  0.516196  1
  S  S47  1  0.885502  0.605644  0.649601  1
  S  S48  1  0.935422  0.270621  0.150604  1
  S  S49  1  0.179258  0.329455  0.932328  1
  S  S50  1  0.378572  0.085182  0.967558  1
  S  S51  1  0.111474  0.597967  0.016196  1
  S  S52  1  0.209981  0.613771  0.690754  1
  S  S53  1  0.878572  0.414818  0.467558  1
  S  S54  1  0.996342  0.514012  0.166398  1
  S  S55  1  0.930228  0.887427  0.647153  1
  S  S56  1  0.388526  0.097967  0.483804  1
  S  S57  1  0.430228  0.887427  0.852847  1
  S  S58  1  0.790019  0.113771  0.690754  1
  S  S59  1  0.614498  0.394356  0.149601  1
  S  S60  1  0.121428  0.914818  0.467558  1
  S  S61  1  0.878572  0.085182  0.532442  1
  S  S62  1  0.888526  0.097967  0.016196  1
  S  S63  1  0.790019  0.386229  0.309246  1
  S  S64  1  0.378572  0.414818  0.032442  1
  S  S65  1  0.820742  0.670545  0.067672  1
  S  S66  1  0.885502  0.894356  0.350399  1
  S  S67  1  0.621428  0.914818  0.032442  1
  S  S68  1  0.569772  0.112573  0.147153  1
  S  S69  1  0.114498  0.394356  0.350399  1
  S  S70  1  0.621428  0.585182  0.967558  1
  S  S71  1  0.496342  0.985988  0.666398  1
  S  S72  1  0.385502  0.605644  0.850399  1
  S  S73  1  0.385502  0.894356  0.149601  1
  S  S74  1  0.320742  0.670545  0.432328  1
  S  S75  1  0.064578  0.770621  0.150604  1
  S  S76  1  0.820742  0.829455  0.932328  1
  S  S77  1  0.930228  0.612573  0.352847  1
  S  S78  1  0.111474  0.902033  0.983804  1
  S  S79  1  0.179258  0.170545  0.067672  1
  S  S80  1  0.320742  0.829455  0.567672  1
  S  S81  1  0.611474  0.902033  0.516196  1
  S  S82  1  0.709981  0.886229  0.190754  1
  S  S83  1  0.003658  0.485988  0.833602  1
  S  S84  1  0.435422  0.229379  0.650604  1
  S  S85  1  0.290019  0.386229  0.190754  1
  S  S86  1  0.564578  0.770621  0.349396  1
  S  S87  1  0.679258  0.329455  0.567672  1
  S  S88  1  0.503658  0.485988  0.666398  1
  S  S89  1  0.614498  0.105644  0.850399  1
  S  S90  1  0.611474  0.597967  0.483804  1
  S  S91  1  0.209981  0.886229  0.309246  1
  S  S92  1  0.496342  0.514012  0.333602  1
  S  S93  1  0.435422  0.270621  0.349396  1
  S  S94  1  0.069772  0.387427  0.647153  1
  S  S95  1  0.114498  0.105644  0.649601  1
  S  S96  1  0.935422  0.229379  0.849396  1
  S  S97  1  0.003658  0.014012  0.166398  1
  S  S98  1  0.709981  0.613771  0.809246  1
  S  S99  1  0.121428  0.585182  0.532442  1
