# generated using pymatgen
data_Hf5CoAs3
_symmetry_space_group_name_H-M   'P 1'
_cell_length_a   3.68050093
_cell_length_b   10.45516878
_cell_length_c   17.41793968
_cell_angle_alpha   90.00000000
_cell_angle_beta   90.00000000
_cell_angle_gamma   90.00000000
_symmetry_Int_Tables_number   1
_chemical_formula_structural   Hf5CoAs3
_chemical_formula_sum   'Hf20 Co4 As12'
_cell_volume   670.24682000
_cell_formula_units_Z   4
loop_
 _symmetry_equiv_pos_site_id
 _symmetry_equiv_pos_as_xyz
  1  'x, y, z'
loop_
 _atom_site_type_symbol
 _atom_site_label
 _atom_site_symmetry_multiplicity
 _atom_site_fract_x
 _atom_site_fract_y
 _atom_site_fract_z
 _atom_site_occupancy
  Hf  Hf0  1  0.250000  0.184700  0.868033  1
  Hf  Hf1  1  0.750000  0.815300  0.131967  1
  Hf  Hf2  1  0.750000  0.684700  0.631967  1
  Hf  Hf3  1  0.250000  0.315300  0.368033  1
  Hf  Hf4  1  0.250000  0.879594  0.978144  1
  Hf  Hf5  1  0.750000  0.120406  0.021856  1
  Hf  Hf6  1  0.750000  0.379594  0.521856  1
  Hf  Hf7  1  0.250000  0.620406  0.478144  1
  Hf  Hf8  1  0.250000  0.943232  0.577314  1
  Hf  Hf9  1  0.750000  0.056768  0.422686  1
  Hf  Hf10  1  0.750000  0.443232  0.922686  1
  Hf  Hf11  1  0.250000  0.556768  0.077314  1
  Hf  Hf12  1  0.250000  0.241921  0.666938  1
  Hf  Hf13  1  0.750000  0.758079  0.333062  1
  Hf  Hf14  1  0.750000  0.741921  0.833062  1
  Hf  Hf15  1  0.250000  0.258079  0.166938  1
  Hf  Hf16  1  0.250000  0.515973  0.776192  1
  Hf  Hf17  1  0.750000  0.484027  0.223808  1
  Hf  Hf18  1  0.750000  0.015973  0.723808  1
  Hf  Hf19  1  0.250000  0.984027  0.276192  1
  Co  Co20  1  0.250000  0.631326  0.908377  1
  Co  Co21  1  0.750000  0.368674  0.091623  1
  Co  Co22  1  0.750000  0.131326  0.591623  1
  Co  Co23  1  0.250000  0.868674  0.408377  1
  As  As24  1  0.250000  0.491198  0.618844  1
  As  As25  1  0.750000  0.508802  0.381156  1
  As  As26  1  0.750000  0.991198  0.881156  1
  As  As27  1  0.250000  0.008802  0.118844  1
  As  As28  1  0.250000  0.814714  0.719309  1
  As  As29  1  0.750000  0.185286  0.280691  1
  As  As30  1  0.750000  0.314714  0.780691  1
  As  As31  1  0.250000  0.685286  0.219309  1
  As  As32  1  0.250000  0.188723  0.507301  1
  As  As33  1  0.750000  0.811277  0.492699  1
  As  As34  1  0.750000  0.688723  0.992699  1
  As  As35  1  0.250000  0.311277  0.007301  1
