# generated using pymatgen
data_Ca3N2
_symmetry_space_group_name_H-M   'P 1'
_cell_length_a   7.77081510
_cell_length_b   7.77081510
_cell_length_c   9.36308270
_cell_angle_alpha   79.79068586
_cell_angle_beta   100.20931414
_cell_angle_gamma   151.77641234
_symmetry_Int_Tables_number   1
_chemical_formula_structural   Ca3N2
_chemical_formula_sum   'Ca9 N6'
_cell_volume   262.87959376
_cell_formula_units_Z   3
loop_
 _symmetry_equiv_pos_site_id
 _symmetry_equiv_pos_as_xyz
  1  'x, y, z'
loop_
 _atom_site_type_symbol
 _atom_site_label
 _atom_site_symmetry_multiplicity
 _atom_site_fract_x
 _atom_site_fract_y
 _atom_site_fract_z
 _atom_site_occupancy
  Ca  Ca0  1  0.874311  0.125689  0.722228  1
  Ca  Ca1  1  0.210281  0.789719  0.620557  1
  Ca  Ca2  1  0.172021  0.827979  0.964816  1
  Ca  Ca3  1  0.789719  0.210281  0.379443  1
  Ca  Ca4  1  0.827979  0.172021  0.035184  1
  Ca  Ca5  1  0.125689  0.874311  0.277772  1
  Ca  Ca6  1  0.531762  0.468238  0.660541  1
  Ca  Ca7  1  0.500000  0.500000  0.000000  1
  Ca  Ca8  1  0.468238  0.531762  0.339459  1
  N  N9  1  0.641043  0.358957  0.488242  1
  N  N10  1  0.969347  0.030653  0.187707  1
  N  N11  1  0.030653  0.969347  0.812293  1
  N  N12  1  0.682555  0.317445  0.130245  1
  N  N13  1  0.358957  0.641043  0.511758  1
  N  N14  1  0.317445  0.682555  0.869755  1
