# generated using pymatgen
data_Ca2Fe9O13
_symmetry_space_group_name_H-M   'P 1'
_cell_length_a   5.38573983
_cell_length_b   5.38573983
_cell_length_c   17.03359960
_cell_angle_alpha   81.57473642
_cell_angle_beta   98.42526358
_cell_angle_gamma   146.98157290
_symmetry_Int_Tables_number   1
_chemical_formula_structural   Ca2Fe9O13
_chemical_formula_sum   'Ca2 Fe9 O13'
_cell_volume   266.06612614
_cell_formula_units_Z   1
loop_
 _symmetry_equiv_pos_site_id
 _symmetry_equiv_pos_as_xyz
  1  'x, y, z'
loop_
 _atom_site_type_symbol
 _atom_site_label
 _atom_site_symmetry_multiplicity
 _atom_site_fract_x
 _atom_site_fract_y
 _atom_site_fract_z
 _atom_site_occupancy
  Ca  Ca0  1  0.786528  0.213472  0.771775  1
  Ca  Ca1  1  0.213472  0.786528  0.228225  1
  Fe  Fe2  1  0.500000  0.500000  0.500000  1
  Fe  Fe3  1  0.354713  0.645287  0.959580  1
  Fe  Fe4  1  0.645287  0.354713  0.040420  1
  Fe  Fe5  1  0.248159  0.751841  0.582001  1
  Fe  Fe6  1  0.751841  0.248159  0.417999  1
  Fe  Fe7  1  0.065349  0.934651  0.877933  1
  Fe  Fe8  1  0.934651  0.065349  0.122067  1
  Fe  Fe9  1  0.007257  0.992743  0.668030  1
  Fe  Fe10  1  0.992743  0.007257  0.331970  1
  O  O11  1  0.000000  0.000000  0.000000  1
  O  O12  1  0.119609  0.880391  0.772209  1
  O  O13  1  0.880391  0.119609  0.227791  1
  O  O14  1  0.694663  0.305337  0.923171  1
  O  O15  1  0.305337  0.694663  0.076829  1
  O  O16  1  0.429712  0.570288  0.855101  1
  O  O17  1  0.570288  0.429712  0.144899  1
  O  O18  1  0.374761  0.625239  0.683048  1
  O  O19  1  0.625239  0.374761  0.316952  1
  O  O20  1  0.607257  0.392743  0.610468  1
  O  O21  1  0.392743  0.607257  0.389532  1
  O  O22  1  0.880241  0.119759  0.531378  1
  O  O23  1  0.119759  0.880241  0.468622  1
