# generated using pymatgen
data_Sb2OsC4(OF3)4
_symmetry_space_group_name_H-M   'P 1'
_cell_length_a   9.00271453
_cell_length_b   10.67607865
_cell_length_c   16.34168797
_cell_angle_alpha   90.00000000
_cell_angle_beta   90.00000000
_cell_angle_gamma   90.00000000
_symmetry_Int_Tables_number   1
_chemical_formula_structural   Sb2OsC4(OF3)4
_chemical_formula_sum   'Sb8 Os4 C16 O16 F48'
_cell_volume   1570.65990525
_cell_formula_units_Z   4
loop_
 _symmetry_equiv_pos_site_id
 _symmetry_equiv_pos_as_xyz
  1  'x, y, z'
loop_
 _atom_site_type_symbol
 _atom_site_label
 _atom_site_symmetry_multiplicity
 _atom_site_fract_x
 _atom_site_fract_y
 _atom_site_fract_z
 _atom_site_occupancy
  Sb  Sb0  1  0.295978  0.588804  0.113326  1
  Sb  Sb1  1  0.517689  0.116790  0.106588  1
  Sb  Sb2  1  0.795978  0.411196  0.886674  1
  Sb  Sb3  1  0.295978  0.911196  0.613326  1
  Sb  Sb4  1  0.017689  0.883210  0.893412  1
  Sb  Sb5  1  0.017689  0.616790  0.393412  1
  Sb  Sb6  1  0.517689  0.383210  0.606588  1
  Sb  Sb7  1  0.795978  0.088804  0.386674  1
  Os  Os8  1  0.433400  0.815596  0.833556  1
  Os  Os9  1  0.933400  0.315596  0.666444  1
  Os  Os10  1  0.433400  0.684404  0.333556  1
  Os  Os11  1  0.933400  0.184404  0.166444  1
  C  C12  1  0.098388  0.224795  0.233874  1
  C  C13  1  0.505338  0.992983  0.843244  1
  C  C14  1  0.005338  0.007017  0.156756  1
  C  C15  1  0.098388  0.275205  0.733874  1
  C  C16  1  0.005338  0.492983  0.656756  1
  C  C17  1  0.598388  0.775205  0.766126  1
  C  C18  1  0.541883  0.736048  0.427674  1
  C  C19  1  0.350294  0.856657  0.319643  1
  C  C20  1  0.850294  0.143343  0.680357  1
  C  C21  1  0.541883  0.763952  0.927674  1
  C  C22  1  0.350294  0.643343  0.819643  1
  C  C23  1  0.850294  0.356657  0.180357  1
  C  C24  1  0.041883  0.263952  0.572326  1
  C  C25  1  0.041883  0.236048  0.072326  1
  C  C26  1  0.505338  0.507017  0.343244  1
  C  C27  1  0.598388  0.724795  0.266126  1
  O  O28  1  0.697554  0.752968  0.724443  1
  O  O29  1  0.105077  0.232917  0.514867  1
  O  O30  1  0.541881  0.095190  0.844355  1
  O  O31  1  0.105077  0.267083  0.014867  1
  O  O32  1  0.041881  0.595190  0.655645  1
  O  O33  1  0.803888  0.455073  0.189660  1
  O  O34  1  0.697554  0.747032  0.224443  1
  O  O35  1  0.803888  0.044927  0.689660  1
  O  O36  1  0.041881  0.904810  0.155645  1
  O  O37  1  0.605077  0.732917  0.985133  1
  O  O38  1  0.303888  0.955073  0.310340  1
  O  O39  1  0.197554  0.247032  0.275557  1
  O  O40  1  0.541881  0.404810  0.344355  1
  O  O41  1  0.605077  0.767083  0.485133  1
  O  O42  1  0.197554  0.252968  0.775557  1
  O  O43  1  0.303888  0.544927  0.810340  1
  F  F44  1  0.004309  0.433858  0.870441  1
  F  F45  1  0.293986  0.882745  0.738315  1
  F  F46  1  0.267645  0.415497  0.137152  1
  F  F47  1  0.807814  0.600770  0.379309  1
  F  F48  1  0.526147  0.998298  0.019225  1
  F  F49  1  0.502397  0.253361  0.528188  1
  F  F50  1  0.244765  0.629266  0.405640  1
  F  F51  1  0.026147  0.498298  0.480775  1
  F  F52  1  0.806843  0.431791  0.002082  1
  F  F53  1  0.744765  0.129266  0.094360  1
  F  F54  1  0.293986  0.617255  0.238315  1
  F  F55  1  0.553583  0.515810  0.682072  1
  F  F56  1  0.026147  0.001702  0.980775  1
  F  F57  1  0.039447  0.762160  0.808560  1
  F  F58  1  0.002397  0.753361  0.971812  1
  F  F59  1  0.307814  0.399230  0.620691  1
  F  F60  1  0.553583  0.984190  0.182072  1
  F  F61  1  0.825415  0.265453  0.392910  1
  F  F62  1  0.244765  0.870734  0.905640  1
  F  F63  1  0.526147  0.501702  0.519225  1
  F  F64  1  0.807814  0.899230  0.879309  1
  F  F65  1  0.306843  0.568209  0.997918  1
  F  F66  1  0.793986  0.382745  0.761685  1
  F  F67  1  0.002397  0.746639  0.471812  1
  F  F68  1  0.053583  0.015810  0.817928  1
  F  F69  1  0.587059  0.108789  0.381428  1
  F  F70  1  0.825415  0.234547  0.892910  1
  F  F71  1  0.767645  0.584503  0.862848  1
  F  F72  1  0.267645  0.084503  0.637152  1
  F  F73  1  0.793986  0.117255  0.261685  1
  F  F74  1  0.325415  0.734547  0.607090  1
  F  F75  1  0.039447  0.737840  0.308560  1
  F  F76  1  0.307814  0.100770  0.120691  1
  F  F77  1  0.053583  0.484190  0.317928  1
  F  F78  1  0.502397  0.246639  0.028188  1
  F  F79  1  0.767645  0.915497  0.362848  1
  F  F80  1  0.306843  0.931791  0.497918  1
  F  F81  1  0.587059  0.391211  0.881428  1
  F  F82  1  0.087059  0.891211  0.618572  1
  F  F83  1  0.539447  0.237840  0.191440  1
  F  F84  1  0.504309  0.566142  0.129559  1
  F  F85  1  0.744765  0.370734  0.594360  1
  F  F86  1  0.004309  0.066142  0.370441  1
  F  F87  1  0.087059  0.608789  0.118572  1
  F  F88  1  0.504309  0.933858  0.629559  1
  F  F89  1  0.539447  0.262160  0.691440  1
  F  F90  1  0.325415  0.765453  0.107090  1
  F  F91  1  0.806843  0.068209  0.502082  1
