# generated using pymatgen
data_Ba2Ni2ClF7
_symmetry_space_group_name_H-M   'P 1'
_cell_length_a   7.74774076
_cell_length_b   5.84852714
_cell_length_c   8.94042851
_cell_angle_alpha   90.00000000
_cell_angle_beta   106.77614539
_cell_angle_gamma   90.00000000
_symmetry_Int_Tables_number   1
_chemical_formula_structural   Ba2Ni2ClF7
_chemical_formula_sum   'Ba4 Ni4 Cl2 F14'
_cell_volume   387.87463471
_cell_formula_units_Z   2
loop_
 _symmetry_equiv_pos_site_id
 _symmetry_equiv_pos_as_xyz
  1  'x, y, z'
loop_
 _atom_site_type_symbol
 _atom_site_label
 _atom_site_symmetry_multiplicity
 _atom_site_fract_x
 _atom_site_fract_y
 _atom_site_fract_z
 _atom_site_occupancy
  Ba  Ba0  1  0.669893  0.250000  0.912401  1
  Ba  Ba1  1  0.704451  0.250000  0.427964  1
  Ba  Ba2  1  0.330107  0.750000  0.087599  1
  Ba  Ba3  1  0.295549  0.750000  0.572036  1
  Ni  Ni4  1  0.175350  0.250000  0.766340  1
  Ni  Ni5  1  0.818409  0.750000  0.674680  1
  Ni  Ni6  1  0.824650  0.750000  0.233660  1
  Ni  Ni7  1  0.181591  0.250000  0.325320  1
  Cl  Cl8  1  0.882943  0.750000  0.970307  1
  Cl  Cl9  1  0.117057  0.250000  0.029693  1
  F  F10  1  0.631954  0.990297  0.660171  1
  F  F11  1  0.751134  0.750000  0.435466  1
  F  F12  1  0.997187  0.000787  0.673804  1
  F  F13  1  0.361356  0.494899  0.844897  1
  F  F14  1  0.248866  0.250000  0.564534  1
  F  F15  1  0.361356  0.005101  0.844897  1
  F  F16  1  0.631954  0.509703  0.660171  1
  F  F17  1  0.368046  0.009703  0.339829  1
  F  F18  1  0.002813  0.999213  0.326196  1
  F  F19  1  0.638644  0.505101  0.155103  1
  F  F20  1  0.368046  0.490297  0.339829  1
  F  F21  1  0.997187  0.499213  0.673804  1
  F  F22  1  0.638644  0.994899  0.155103  1
  F  F23  1  0.002813  0.500787  0.326196  1
