# generated using pymatgen
data_K4Re2Cl10O
_symmetry_space_group_name_H-M   'P 1'
_cell_length_a   10.29964056
_cell_length_b   10.29964056
_cell_length_c   10.29964056
_cell_angle_alpha   139.23548745
_cell_angle_beta   139.23548745
_cell_angle_gamma   59.01596296
_symmetry_Int_Tables_number   1
_chemical_formula_structural   K4Re2Cl10O
_chemical_formula_sum   'K4 Re2 Cl10 O1'
_cell_volume   461.37092081
_cell_formula_units_Z   1
loop_
 _symmetry_equiv_pos_site_id
 _symmetry_equiv_pos_as_xyz
  1  'x, y, z'
loop_
 _atom_site_type_symbol
 _atom_site_label
 _atom_site_symmetry_multiplicity
 _atom_site_fract_x
 _atom_site_fract_y
 _atom_site_fract_z
 _atom_site_occupancy
  K  K0  1  0.500000  0.000000  0.500000  1
  K  K1  1  0.250000  0.750000  0.500000  1
  K  K2  1  0.750000  0.250000  0.500000  1
  K  K3  1  0.000000  0.500000  0.500000  1
  Re  Re4  1  0.103550  0.103550  0.000000  1
  Re  Re5  1  0.896450  0.896450  0.000000  1
  Cl  Cl6  1  0.124688  0.651233  0.000000  1
  Cl  Cl7  1  0.238522  0.238522  0.000000  1
  Cl  Cl8  1  0.651233  0.124688  1.000000  1
  Cl  Cl9  1  0.875312  0.875312  0.526545  1
  Cl  Cl10  1  0.124688  0.124688  0.473455  1
  Cl  Cl11  1  0.875312  0.348767  0.000000  1
  Cl  Cl12  1  0.348767  0.348767  0.473455  1
  Cl  Cl13  1  0.761478  0.761478  0.000000  1
  Cl  Cl14  1  0.651233  0.651233  0.526545  1
  Cl  Cl15  1  0.348767  0.875312  1.000000  1
  O  O16  1  0.000000  0.000000  0.000000  1
