# generated using pymatgen
data_Ce2SiS5
_symmetry_space_group_name_H-M   'P 1'
_cell_length_a   7.52507243
_cell_length_b   12.56266020
_cell_length_c   7.83951347
_cell_angle_alpha   90.00000000
_cell_angle_beta   101.44532987
_cell_angle_gamma   90.00000000
_symmetry_Int_Tables_number   1
_chemical_formula_structural   Ce2SiS5
_chemical_formula_sum   'Ce8 Si4 S20'
_cell_volume   726.37053329
_cell_formula_units_Z   4
loop_
 _symmetry_equiv_pos_site_id
 _symmetry_equiv_pos_as_xyz
  1  'x, y, z'
loop_
 _atom_site_type_symbol
 _atom_site_label
 _atom_site_symmetry_multiplicity
 _atom_site_fract_x
 _atom_site_fract_y
 _atom_site_fract_z
 _atom_site_occupancy
  Ce  Ce0  1  0.837999  0.832233  0.363188  1
  Ce  Ce1  1  0.237134  0.905169  0.044163  1
  Ce  Ce2  1  0.162001  0.332233  0.136812  1
  Ce  Ce3  1  0.762866  0.405169  0.455837  1
  Ce  Ce4  1  0.762866  0.094831  0.955837  1
  Ce  Ce5  1  0.237134  0.594831  0.544163  1
  Ce  Ce6  1  0.162001  0.167767  0.636812  1
  Ce  Ce7  1  0.837999  0.667767  0.863188  1
  Si  Si8  1  0.670103  0.117507  0.404389  1
  Si  Si9  1  0.329897  0.617507  0.095611  1
  Si  Si10  1  0.670103  0.382493  0.904389  1
  Si  Si11  1  0.329897  0.882493  0.595611  1
  S  S12  1  0.124359  0.704395  0.195143  1
  S  S13  1  0.174005  0.970587  0.385623  1
  S  S14  1  0.825995  0.470587  0.114377  1
  S  S15  1  0.419597  0.497648  0.283119  1
  S  S16  1  0.825995  0.029413  0.614377  1
  S  S17  1  0.138258  0.381219  0.500497  1
  S  S18  1  0.419597  0.002352  0.783119  1
  S  S19  1  0.138258  0.118781  0.000497  1
  S  S20  1  0.580403  0.997648  0.216881  1
  S  S21  1  0.875641  0.295605  0.804857  1
  S  S22  1  0.861742  0.881219  0.999503  1
  S  S23  1  0.526655  0.729421  0.051583  1
  S  S24  1  0.861742  0.618781  0.499503  1
  S  S25  1  0.473345  0.270579  0.948417  1
  S  S26  1  0.124359  0.795605  0.695143  1
  S  S27  1  0.526655  0.770579  0.551583  1
  S  S28  1  0.580403  0.502352  0.716881  1
  S  S29  1  0.473345  0.229421  0.448417  1
  S  S30  1  0.174005  0.529413  0.885623  1
  S  S31  1  0.875641  0.204395  0.304857  1
