# generated using pymatgen
data_CaBi6(PO5)4
_symmetry_space_group_name_H-M   'P 1'
_cell_length_a   6.98859061
_cell_length_b   7.70336267
_cell_length_c   9.31900522
_cell_angle_alpha   107.07992649
_cell_angle_beta   93.51508035
_cell_angle_gamma   112.48383702
_symmetry_Int_Tables_number   1
_chemical_formula_structural   CaBi6(PO5)4
_chemical_formula_sum   'Ca1 Bi6 P4 O20'
_cell_volume   434.46815737
_cell_formula_units_Z   1
loop_
 _symmetry_equiv_pos_site_id
 _symmetry_equiv_pos_as_xyz
  1  'x, y, z'
loop_
 _atom_site_type_symbol
 _atom_site_label
 _atom_site_symmetry_multiplicity
 _atom_site_fract_x
 _atom_site_fract_y
 _atom_site_fract_z
 _atom_site_occupancy
  Ca  Ca0  1  0.000000  0.500000  0.000000  1
  Bi  Bi1  1  0.809249  0.803535  0.322556  1
  Bi  Bi2  1  0.336013  0.631670  0.513413  1
  Bi  Bi3  1  0.433157  0.290429  0.084680  1
  Bi  Bi4  1  0.566843  0.709571  0.915320  1
  Bi  Bi5  1  0.663987  0.368330  0.486587  1
  Bi  Bi6  1  0.190751  0.196465  0.677444  1
  P  P7  1  0.340840  0.889432  0.251771  1
  P  P8  1  0.659160  0.110568  0.748229  1
  P  P9  1  0.948651  0.233743  0.238921  1
  P  P10  1  0.051349  0.766257  0.761079  1
  O  O11  1  0.447978  0.472286  0.637478  1
  O  O12  1  0.148741  0.999087  0.832498  1
  O  O13  1  0.345860  0.812133  0.079348  1
  O  O14  1  0.225113  0.685454  0.759571  1
  O  O15  1  0.517321  0.875305  0.351957  1
  O  O16  1  0.890904  0.671367  0.854279  1
  O  O17  1  0.482679  0.124695  0.648043  1
  O  O18  1  0.053662  0.297557  0.410175  1
  O  O19  1  0.635281  0.891221  0.694130  1
  O  O20  1  0.851259  0.000913  0.167502  1
  O  O21  1  0.774887  0.314546  0.240429  1
  O  O22  1  0.946338  0.702443  0.589825  1
  O  O23  1  0.552022  0.527714  0.362522  1
  O  O24  1  0.879401  0.252161  0.729940  1
  O  O25  1  0.317581  0.408916  0.904696  1
  O  O26  1  0.654140  0.187867  0.920652  1
  O  O27  1  0.682419  0.591084  0.095304  1
  O  O28  1  0.109096  0.328633  0.145721  1
  O  O29  1  0.364719  0.108779  0.305870  1
  O  O30  1  0.120599  0.747839  0.270060  1
