# generated using pymatgen
data_KSb2PO8
_symmetry_space_group_name_H-M   'P 1'
_cell_length_a   7.21905552
_cell_length_b   7.21905552
_cell_length_c   15.25878608
_cell_angle_alpha   84.80083526
_cell_angle_beta   95.19916474
_cell_angle_gamma   120.21943578
_symmetry_Int_Tables_number   1
_chemical_formula_structural   KSb2PO8
_chemical_formula_sum   'K4 Sb8 P4 O32'
_cell_volume   683.37879504
_cell_formula_units_Z   4
loop_
 _symmetry_equiv_pos_site_id
 _symmetry_equiv_pos_as_xyz
  1  'x, y, z'
loop_
 _atom_site_type_symbol
 _atom_site_label
 _atom_site_symmetry_multiplicity
 _atom_site_fract_x
 _atom_site_fract_y
 _atom_site_fract_z
 _atom_site_occupancy
  K  K0  1  0.150356  0.092748  0.884453  1
  K  K1  1  0.907252  0.849644  0.384453  1
  K  K2  1  0.849644  0.907252  0.115547  1
  K  K3  1  0.092748  0.150356  0.615547  1
  Sb  Sb4  1  0.621572  0.124278  0.753319  1
  Sb  Sb5  1  0.191382  0.545155  0.063349  1
  Sb  Sb6  1  0.454845  0.808618  0.563349  1
  Sb  Sb7  1  0.378428  0.875722  0.246681  1
  Sb  Sb8  1  0.808618  0.454845  0.936651  1
  Sb  Sb9  1  0.875722  0.378428  0.253319  1
  Sb  Sb10  1  0.124278  0.621572  0.746681  1
  Sb  Sb11  1  0.545155  0.191382  0.436651  1
  P  P12  1  0.713605  0.511504  0.605897  1
  P  P13  1  0.511504  0.713605  0.894103  1
  P  P14  1  0.488496  0.286395  0.105897  1
  P  P15  1  0.286395  0.488496  0.394103  1
  O  O16  1  0.404818  0.754465  0.968026  1
  O  O17  1  0.254585  0.586231  0.645063  1
  O  O18  1  0.673134  0.928612  0.847057  1
  O  O19  1  0.326866  0.071388  0.152943  1
  O  O20  1  0.979982  0.660280  0.841264  1
  O  O21  1  0.561099  0.338522  0.673356  1
  O  O22  1  0.000008  0.667156  0.027895  1
  O  O23  1  0.661478  0.438901  0.173356  1
  O  O24  1  0.438901  0.661478  0.326644  1
  O  O25  1  0.245535  0.595182  0.468026  1
  O  O26  1  0.928612  0.673134  0.652943  1
  O  O27  1  0.060658  0.695081  0.246543  1
  O  O28  1  0.020018  0.339720  0.158736  1
  O  O29  1  0.338522  0.561099  0.826644  1
  O  O30  1  0.999992  0.332844  0.972105  1
  O  O31  1  0.304919  0.939342  0.746543  1
  O  O32  1  0.382297  0.353126  0.437830  1
  O  O33  1  0.667156  0.000008  0.472105  1
  O  O34  1  0.332844  0.999992  0.527895  1
  O  O35  1  0.353126  0.382297  0.062170  1
  O  O36  1  0.695081  0.060658  0.253457  1
  O  O37  1  0.660280  0.979982  0.658736  1
  O  O38  1  0.745415  0.413769  0.354937  1
  O  O39  1  0.646874  0.617703  0.937830  1
  O  O40  1  0.595182  0.245535  0.031974  1
  O  O41  1  0.339720  0.020018  0.341264  1
  O  O42  1  0.754465  0.404818  0.531974  1
  O  O43  1  0.617703  0.646874  0.562170  1
  O  O44  1  0.586231  0.254585  0.854937  1
  O  O45  1  0.071388  0.326866  0.347057  1
  O  O46  1  0.939342  0.304919  0.753457  1
  O  O47  1  0.413769  0.745415  0.145063  1
