# generated using pymatgen
data_Na3ScSi2O7
_symmetry_space_group_name_H-M   'P 1'
_cell_length_a   5.40083768
_cell_length_b   9.45824752
_cell_length_c   13.23271731
_cell_angle_alpha   90.00000000
_cell_angle_beta   90.00000000
_cell_angle_gamma   90.00000000
_symmetry_Int_Tables_number   1
_chemical_formula_structural   Na3ScSi2O7
_chemical_formula_sum   'Na12 Sc4 Si8 O28'
_cell_volume   675.95974729
_cell_formula_units_Z   4
loop_
 _symmetry_equiv_pos_site_id
 _symmetry_equiv_pos_as_xyz
  1  'x, y, z'
loop_
 _atom_site_type_symbol
 _atom_site_label
 _atom_site_symmetry_multiplicity
 _atom_site_fract_x
 _atom_site_fract_y
 _atom_site_fract_z
 _atom_site_occupancy
  Na  Na0  1  0.016358  0.346340  0.407143  1
  Na  Na1  1  0.983642  0.653660  0.907143  1
  Na  Na2  1  0.516358  0.153660  0.592857  1
  Na  Na3  1  0.982726  0.980736  0.750000  1
  Na  Na4  1  0.483642  0.846340  0.092857  1
  Na  Na5  1  0.482726  0.519264  0.250000  1
  Na  Na6  1  0.016358  0.346340  0.092857  1
  Na  Na7  1  0.516358  0.153660  0.907143  1
  Na  Na8  1  0.483642  0.846340  0.407143  1
  Na  Na9  1  0.517274  0.480736  0.750000  1
  Na  Na10  1  0.983642  0.653660  0.592857  1
  Na  Na11  1  0.017274  0.019264  0.250000  1
  Sc  Sc12  1  0.500000  0.500000  0.000000  1
  Sc  Sc13  1  0.000000  0.000000  0.500000  1
  Sc  Sc14  1  0.000000  0.000000  0.000000  1
  Sc  Sc15  1  0.500000  0.500000  0.500000  1
  Si  Si16  1  0.513294  0.175538  0.131622  1
  Si  Si17  1  0.013294  0.324462  0.631622  1
  Si  Si18  1  0.513294  0.175538  0.368378  1
  Si  Si19  1  0.486706  0.824462  0.868378  1
  Si  Si20  1  0.486706  0.824462  0.631622  1
  Si  Si21  1  0.986706  0.675538  0.131622  1
  Si  Si22  1  0.013294  0.324462  0.868378  1
  Si  Si23  1  0.986706  0.675538  0.368378  1
  O  O24  1  0.474387  0.346005  0.119284  1
  O  O25  1  0.318901  0.089298  0.439977  1
  O  O26  1  0.681099  0.910702  0.560023  1
  O  O27  1  0.201164  0.871735  0.607224  1
  O  O28  1  0.318901  0.089298  0.060023  1
  O  O29  1  0.474387  0.346005  0.380716  1
  O  O30  1  0.298836  0.371735  0.607224  1
  O  O31  1  0.181099  0.589298  0.439977  1
  O  O32  1  0.974387  0.153995  0.619284  1
  O  O33  1  0.525613  0.653995  0.619284  1
  O  O34  1  0.025613  0.846005  0.380716  1
  O  O35  1  0.025613  0.846005  0.119284  1
  O  O36  1  0.181099  0.589298  0.060023  1
  O  O37  1  0.798836  0.128265  0.392776  1
  O  O38  1  0.798836  0.128265  0.107224  1
  O  O39  1  0.298836  0.371735  0.892776  1
  O  O40  1  0.558510  0.874956  0.750000  1
  O  O41  1  0.525613  0.653995  0.880716  1
  O  O42  1  0.441490  0.125044  0.250000  1
  O  O43  1  0.974387  0.153995  0.880716  1
  O  O44  1  0.201164  0.871735  0.892776  1
  O  O45  1  0.681099  0.910702  0.939977  1
  O  O46  1  0.701164  0.628265  0.107224  1
  O  O47  1  0.701164  0.628265  0.392776  1
  O  O48  1  0.818901  0.410702  0.939977  1
  O  O49  1  0.941490  0.374956  0.750000  1
  O  O50  1  0.058510  0.625044  0.250000  1
  O  O51  1  0.818901  0.410702  0.560023  1
