# generated using pymatgen
data_SrCuO2
_symmetry_space_group_name_H-M   'P 1'
_cell_length_a   8.32909299
_cell_length_b   8.32909299
_cell_length_c   3.97426336
_cell_angle_alpha   90.00000000
_cell_angle_beta   90.00000000
_cell_angle_gamma   154.72551339
_symmetry_Int_Tables_number   1
_chemical_formula_structural   SrCuO2
_chemical_formula_sum   'Sr2 Cu2 O4'
_cell_volume   117.71570613
_cell_formula_units_Z   2
loop_
 _symmetry_equiv_pos_site_id
 _symmetry_equiv_pos_as_xyz
  1  'x, y, z'
loop_
 _atom_site_type_symbol
 _atom_site_label
 _atom_site_symmetry_multiplicity
 _atom_site_fract_x
 _atom_site_fract_y
 _atom_site_fract_z
 _atom_site_occupancy
  Sr  Sr0  1  0.667410  0.332590  0.250000  1
  Sr  Sr1  1  0.332590  0.667410  0.750000  1
  Cu  Cu2  1  0.062165  0.937835  0.750000  1
  Cu  Cu3  1  0.937835  0.062165  0.250000  1
  O  O4  1  0.820381  0.179619  0.250000  1
  O  O5  1  0.179619  0.820381  0.750000  1
  O  O6  1  0.944842  0.055158  0.750000  1
  O  O7  1  0.055158  0.944842  0.250000  1
