# generated using pymatgen
data_Nd4MgIr
_symmetry_space_group_name_H-M   'P 1'
_cell_length_a   10.03609379
_cell_length_b   10.03609379
_cell_length_c   10.03609379
_cell_angle_alpha   60.00000000
_cell_angle_beta   60.00000000
_cell_angle_gamma   60.00000000
_symmetry_Int_Tables_number   1
_chemical_formula_structural   Nd4MgIr
_chemical_formula_sum   'Nd16 Mg4 Ir4'
_cell_volume   714.79109907
_cell_formula_units_Z   4
loop_
 _symmetry_equiv_pos_site_id
 _symmetry_equiv_pos_as_xyz
  1  'x, y, z'
loop_
 _atom_site_type_symbol
 _atom_site_label
 _atom_site_symmetry_multiplicity
 _atom_site_fract_x
 _atom_site_fract_y
 _atom_site_fract_z
 _atom_site_occupancy
  Nd  Nd0  1  0.653755  0.038735  0.653755  1
  Nd  Nd1  1  0.188461  0.188461  0.811539  1
  Nd  Nd2  1  0.188461  0.811539  0.188461  1
  Nd  Nd3  1  0.062067  0.437933  0.062067  1
  Nd  Nd4  1  0.437933  0.062067  0.062067  1
  Nd  Nd5  1  0.062067  0.062067  0.437933  1
  Nd  Nd6  1  0.811539  0.188461  0.811539  1
  Nd  Nd7  1  0.437933  0.062067  0.437933  1
  Nd  Nd8  1  0.811539  0.811539  0.188461  1
  Nd  Nd9  1  0.062067  0.437933  0.437933  1
  Nd  Nd10  1  0.188461  0.811539  0.811539  1
  Nd  Nd11  1  0.811539  0.188461  0.188461  1
  Nd  Nd12  1  0.653755  0.653755  0.038735  1
  Nd  Nd13  1  0.038735  0.653755  0.653755  1
  Nd  Nd14  1  0.437933  0.437933  0.062067  1
  Nd  Nd15  1  0.653755  0.653755  0.653755  1
  Mg  Mg16  1  0.421208  0.421208  0.421208  1
  Mg  Mg17  1  0.421208  0.421208  0.736377  1
  Mg  Mg18  1  0.421208  0.736377  0.421208  1
  Mg  Mg19  1  0.736377  0.421208  0.421208  1
  Ir  Ir20  1  0.424323  0.858559  0.858559  1
  Ir  Ir21  1  0.858559  0.424323  0.858559  1
  Ir  Ir22  1  0.858559  0.858559  0.858559  1
  Ir  Ir23  1  0.858559  0.858559  0.424323  1
