# generated using pymatgen
data_Li7VN4
_symmetry_space_group_name_H-M   'P 1'
_cell_length_a   6.77831310
_cell_length_b   6.77831310
_cell_length_c   4.89458720
_cell_angle_alpha   90.00000000
_cell_angle_beta   90.00000000
_cell_angle_gamma   90.00000000
_symmetry_Int_Tables_number   1
_chemical_formula_structural   Li7VN4
_chemical_formula_sum   'Li14 V2 N8'
_cell_volume   224.88439560
_cell_formula_units_Z   2
loop_
 _symmetry_equiv_pos_site_id
 _symmetry_equiv_pos_as_xyz
  1  'x, y, z'
loop_
 _atom_site_type_symbol
 _atom_site_label
 _atom_site_symmetry_multiplicity
 _atom_site_fract_x
 _atom_site_fract_y
 _atom_site_fract_z
 _atom_site_occupancy
  Li  Li0  1  0.500000  0.000000  0.587242  1
  Li  Li1  1  0.236594  0.763406  0.000000  1
  Li  Li2  1  0.000000  0.500000  0.912758  1
  Li  Li3  1  0.763406  0.236594  0.000000  1
  Li  Li4  1  0.263406  0.736594  0.500000  1
  Li  Li5  1  0.000000  0.000000  0.000000  1
  Li  Li6  1  0.500000  0.000000  0.087242  1
  Li  Li7  1  0.736594  0.736594  0.500000  1
  Li  Li8  1  0.263406  0.263406  0.500000  1
  Li  Li9  1  0.236594  0.236594  0.000000  1
  Li  Li10  1  0.763406  0.763406  0.000000  1
  Li  Li11  1  0.736594  0.263406  0.500000  1
  Li  Li12  1  0.000000  0.500000  0.412758  1
  Li  Li13  1  0.500000  0.500000  0.500000  1
  V  V14  1  0.000000  0.000000  0.500000  1
  V  V15  1  0.500000  0.500000  0.000000  1
  N  N16  1  0.000000  0.224960  0.711729  1
  N  N17  1  0.275040  0.500000  0.211729  1
  N  N18  1  0.500000  0.275040  0.788271  1
  N  N19  1  0.000000  0.775040  0.711729  1
  N  N20  1  0.500000  0.724960  0.788271  1
  N  N21  1  0.775040  0.000000  0.288271  1
  N  N22  1  0.724960  0.500000  0.211729  1
  N  N23  1  0.224960  0.000000  0.288271  1
