# generated using pymatgen
data_Cs3LaCl6
_symmetry_space_group_name_H-M   'P 1'
_cell_length_a   14.48316570
_cell_length_b   14.48316570
_cell_length_c   13.75087113
_cell_angle_alpha   80.51595199
_cell_angle_beta   99.48404801
_cell_angle_gamma   146.27769387
_symmetry_Int_Tables_number   1
_chemical_formula_structural   Cs3LaCl6
_chemical_formula_sum   'Cs12 La4 Cl24'
_cell_volume   1577.42010503
_cell_formula_units_Z   4
loop_
 _symmetry_equiv_pos_site_id
 _symmetry_equiv_pos_as_xyz
  1  'x, y, z'
loop_
 _atom_site_type_symbol
 _atom_site_label
 _atom_site_symmetry_multiplicity
 _atom_site_fract_x
 _atom_site_fract_y
 _atom_site_fract_z
 _atom_site_occupancy
  Cs  Cs0  1  0.975618  0.649442  0.303119  1
  Cs  Cs1  1  0.837785  0.533250  0.644830  1
  Cs  Cs2  1  0.162215  0.466750  0.355170  1
  Cs  Cs3  1  0.649442  0.975618  0.196881  1
  Cs  Cs4  1  0.212907  0.309219  0.070531  1
  Cs  Cs5  1  0.024382  0.350558  0.696881  1
  Cs  Cs6  1  0.533250  0.837785  0.855170  1
  Cs  Cs7  1  0.350558  0.024382  0.803119  1
  Cs  Cs8  1  0.787093  0.690781  0.929469  1
  Cs  Cs9  1  0.309219  0.212907  0.429469  1
  Cs  Cs10  1  0.690781  0.787093  0.570531  1
  Cs  Cs11  1  0.466750  0.162215  0.144830  1
  La  La12  1  0.207773  0.207773  0.750000  1
  La  La13  1  0.000000  0.500000  0.000000  1
  La  La14  1  0.792227  0.792227  0.250000  1
  La  La15  1  0.500000  0.000000  0.500000  1
  Cl  Cl16  1  0.612537  0.273231  0.420671  1
  Cl  Cl17  1  0.726769  0.387463  0.920671  1
  Cl  Cl18  1  0.900491  0.020865  0.797391  1
  Cl  Cl19  1  0.364646  0.861425  0.313701  1
  Cl  Cl20  1  0.273231  0.612537  0.079329  1
  Cl  Cl21  1  0.979135  0.099509  0.297391  1
  Cl  Cl22  1  0.793609  0.154371  0.469787  1
  Cl  Cl23  1  0.206391  0.845629  0.530213  1
  Cl  Cl24  1  0.848392  0.732845  0.435278  1
  Cl  Cl25  1  0.138575  0.635354  0.813701  1
  Cl  Cl26  1  0.732845  0.848392  0.064722  1
  Cl  Cl27  1  0.503399  0.615410  0.325078  1
  Cl  Cl28  1  0.496601  0.384590  0.674922  1
  Cl  Cl29  1  0.099509  0.979135  0.202609  1
  Cl  Cl30  1  0.154371  0.793609  0.030213  1
  Cl  Cl31  1  0.020865  0.900491  0.702609  1
  Cl  Cl32  1  0.384590  0.496601  0.825078  1
  Cl  Cl33  1  0.151608  0.267155  0.564722  1
  Cl  Cl34  1  0.387463  0.726769  0.579329  1
  Cl  Cl35  1  0.267155  0.151608  0.935278  1
  Cl  Cl36  1  0.615410  0.503399  0.174922  1
  Cl  Cl37  1  0.635354  0.138575  0.686299  1
  Cl  Cl38  1  0.861425  0.364646  0.186299  1
  Cl  Cl39  1  0.845629  0.206391  0.969787  1
