# generated using pymatgen
data_SbSNF5
_symmetry_space_group_name_H-M   'P 1'
_cell_length_a   8.58904832
_cell_length_b   16.50851141
_cell_length_c   15.97295403
_cell_angle_alpha   90.00000000
_cell_angle_beta   100.57924321
_cell_angle_gamma   90.00000000
_symmetry_Int_Tables_number   1
_chemical_formula_structural   SbSNF5
_chemical_formula_sum   'Sb16 S16 N16 F80'
_cell_volume   2226.34554300
_cell_formula_units_Z   16
loop_
 _symmetry_equiv_pos_site_id
 _symmetry_equiv_pos_as_xyz
  1  'x, y, z'
loop_
 _atom_site_type_symbol
 _atom_site_label
 _atom_site_symmetry_multiplicity
 _atom_site_fract_x
 _atom_site_fract_y
 _atom_site_fract_z
 _atom_site_occupancy
  Sb  Sb0  1  0.058661  0.755039  0.755573  1
  Sb  Sb1  1  0.058661  0.744961  0.255573  1
  Sb  Sb2  1  0.390166  0.022395  0.205026  1
  Sb  Sb3  1  0.941339  0.244961  0.244427  1
  Sb  Sb4  1  0.372608  0.168081  0.529880  1
  Sb  Sb5  1  0.475613  0.215235  0.820939  1
  Sb  Sb6  1  0.627392  0.831919  0.470120  1
  Sb  Sb7  1  0.475613  0.284765  0.320939  1
  Sb  Sb8  1  0.627392  0.668081  0.970120  1
  Sb  Sb9  1  0.372608  0.331919  0.029880  1
  Sb  Sb10  1  0.609834  0.977605  0.794974  1
  Sb  Sb11  1  0.390166  0.477605  0.705026  1
  Sb  Sb12  1  0.609834  0.522395  0.294974  1
  Sb  Sb13  1  0.941339  0.255039  0.744427  1
  Sb  Sb14  1  0.524387  0.784765  0.179061  1
  Sb  Sb15  1  0.524387  0.715235  0.679061  1
  S  S16  1  0.954756  0.993649  0.363647  1
  S  S17  1  0.136517  0.890785  0.506740  1
  S  S18  1  0.863483  0.109215  0.493260  1
  S  S19  1  0.136517  0.609215  0.006740  1
  S  S20  1  0.041939  0.871299  0.006577  1
  S  S21  1  0.958061  0.128701  0.993423  1
  S  S22  1  0.958061  0.371299  0.493423  1
  S  S23  1  0.190330  0.013984  0.931614  1
  S  S24  1  0.041939  0.628701  0.506577  1
  S  S25  1  0.809670  0.513984  0.568386  1
  S  S26  1  0.809670  0.986016  0.068386  1
  S  S27  1  0.954756  0.506351  0.863647  1
  S  S28  1  0.863483  0.390785  0.993260  1
  S  S29  1  0.045244  0.493649  0.136353  1
  S  S30  1  0.045244  0.006351  0.636353  1
  S  S31  1  0.190330  0.486016  0.431614  1
  N  N32  1  0.091021  0.412420  0.453684  1
  N  N33  1  0.883512  0.435235  0.909360  1
  N  N34  1  0.908979  0.587580  0.546316  1
  N  N35  1  0.853118  0.072476  0.039420  1
  N  N36  1  0.146882  0.572476  0.460580  1
  N  N37  1  0.943776  0.428987  0.079671  1
  N  N38  1  0.943776  0.071013  0.579671  1
  N  N39  1  0.883512  0.064765  0.409360  1
  N  N40  1  0.908979  0.912420  0.046316  1
  N  N41  1  0.056224  0.571013  0.920329  1
  N  N42  1  0.116488  0.935235  0.590640  1
  N  N43  1  0.056224  0.928987  0.420329  1
  N  N44  1  0.146882  0.927524  0.960580  1
  N  N45  1  0.116488  0.564765  0.090640  1
  N  N46  1  0.091021  0.087580  0.953684  1
  N  N47  1  0.853118  0.427524  0.539420  1
  F  F48  1  0.603572  0.478173  0.765629  1
  F  F49  1  0.639341  0.861658  0.355248  1
  F  F50  1  0.396428  0.521827  0.234371  1
  F  F51  1  0.603572  0.021827  0.265629  1
  F  F52  1  0.834397  0.754487  0.253565  1
  F  F53  1  0.491477  0.743358  0.434768  1
  F  F54  1  0.190620  0.235835  0.523548  1
  F  F55  1  0.360659  0.138342  0.644752  1
  F  F56  1  0.165603  0.254487  0.246435  1
  F  F57  1  0.622225  0.693112  0.092183  1
  F  F58  1  0.933485  0.139544  0.756481  1
  F  F59  1  0.508523  0.243358  0.065232  1
  F  F60  1  0.933485  0.360456  0.256481  1
  F  F61  1  0.179743  0.014515  0.137607  1
  F  F62  1  0.622225  0.806888  0.592183  1
  F  F63  1  0.535952  0.522718  0.401041  1
  F  F64  1  0.363526  0.361033  0.380381  1
  F  F65  1  0.190620  0.264165  0.023548  1
  F  F66  1  0.618042  0.637662  0.291875  1
  F  F67  1  0.834397  0.745513  0.753565  1
  F  F68  1  0.602451  0.401402  0.296152  1
  F  F69  1  0.979642  0.233390  0.365897  1
  F  F70  1  0.381958  0.362338  0.708125  1
  F  F71  1  0.305229  0.486406  0.806459  1
  F  F72  1  0.979642  0.266610  0.865897  1
  F  F73  1  0.694771  0.986406  0.693541  1
  F  F74  1  0.716386  0.237744  0.243537  1
  F  F75  1  0.344426  0.721011  0.585936  1
  F  F76  1  0.381958  0.137662  0.208125  1
  F  F77  1  0.535952  0.977282  0.901041  1
  F  F78  1  0.047357  0.629364  0.267278  1
  F  F79  1  0.636474  0.861033  0.119619  1
  F  F80  1  0.952643  0.370636  0.732722  1
  F  F81  1  0.952643  0.129364  0.232722  1
  F  F82  1  0.360659  0.361658  0.144752  1
  F  F83  1  0.900942  0.245720  0.622468  1
  F  F84  1  0.548625  0.097790  0.527983  1
  F  F85  1  0.397549  0.901402  0.203848  1
  F  F86  1  0.655574  0.221011  0.914064  1
  F  F87  1  0.305229  0.013594  0.306459  1
  F  F88  1  0.344426  0.778989  0.085936  1
  F  F89  1  0.047357  0.870636  0.767278  1
  F  F90  1  0.230781  0.080065  0.489530  1
  F  F91  1  0.820257  0.514515  0.362393  1
  F  F92  1  0.820257  0.985485  0.862393  1
  F  F93  1  0.230781  0.419935  0.989530  1
  F  F94  1  0.716386  0.262256  0.743537  1
  F  F95  1  0.809380  0.764165  0.476452  1
  F  F96  1  0.099058  0.754280  0.377532  1
  F  F97  1  0.066515  0.639544  0.743519  1
  F  F98  1  0.020358  0.766610  0.634103  1
  F  F99  1  0.618042  0.862338  0.791875  1
  F  F100  1  0.464048  0.022718  0.098959  1
  F  F101  1  0.377775  0.193112  0.407817  1
  F  F102  1  0.900942  0.254280  0.122468  1
  F  F103  1  0.508523  0.256642  0.565232  1
  F  F104  1  0.451375  0.597790  0.972017  1
  F  F105  1  0.769219  0.919935  0.510470  1
  F  F106  1  0.639341  0.638342  0.855248  1
  F  F107  1  0.451375  0.902210  0.472017  1
  F  F108  1  0.165603  0.245513  0.746435  1
  F  F109  1  0.655574  0.278989  0.414064  1
  F  F110  1  0.363526  0.138967  0.880381  1
  F  F111  1  0.548625  0.402210  0.027983  1
  F  F112  1  0.377775  0.306888  0.907817  1
  F  F113  1  0.179743  0.485485  0.637607  1
  F  F114  1  0.464048  0.477282  0.598959  1
  F  F115  1  0.283614  0.762256  0.756463  1
  F  F116  1  0.397549  0.598598  0.703848  1
  F  F117  1  0.636474  0.638967  0.619619  1
  F  F118  1  0.491477  0.756642  0.934768  1
  F  F119  1  0.283614  0.737744  0.256463  1
  F  F120  1  0.602451  0.098598  0.796152  1
  F  F121  1  0.694771  0.513594  0.193541  1
  F  F122  1  0.809380  0.735835  0.976452  1
  F  F123  1  0.396428  0.978173  0.734371  1
  F  F124  1  0.769219  0.580065  0.010470  1
  F  F125  1  0.020358  0.733390  0.134103  1
  F  F126  1  0.099058  0.745720  0.877532  1
  F  F127  1  0.066515  0.860456  0.243519  1
