# generated using pymatgen
data_BaAlSiH
_symmetry_space_group_name_H-M   'P 1'
_cell_length_a   4.33422716
_cell_length_b   4.33422716
_cell_length_c   5.26255206
_cell_angle_alpha   90.00000000
_cell_angle_beta   90.00000000
_cell_angle_gamma   120.00000000
_symmetry_Int_Tables_number   1
_chemical_formula_structural   BaAlSiH
_chemical_formula_sum   'Ba1 Al1 Si1 H1'
_cell_volume   85.61510130
_cell_formula_units_Z   1
loop_
 _symmetry_equiv_pos_site_id
 _symmetry_equiv_pos_as_xyz
  1  'x, y, z'
loop_
 _atom_site_type_symbol
 _atom_site_label
 _atom_site_symmetry_multiplicity
 _atom_site_fract_x
 _atom_site_fract_y
 _atom_site_fract_z
 _atom_site_occupancy
  Ba  Ba0  1  0.000000  0.000000  0.999564  1
  Al  Al1  1  0.666667  0.333333  0.534752  1
  Si  Si2  1  0.333333  0.666667  0.457693  1
  H  H3  1  0.666667  0.333333  0.865090  1
