# generated using pymatgen
data_Rb2GdGa(SiO3)4
_symmetry_space_group_name_H-M   'P 1'
_cell_length_a   14.14540405
_cell_length_b   14.14540405
_cell_length_c   15.08151047
_cell_angle_alpha   58.00523109
_cell_angle_beta   121.99476891
_cell_angle_gamma   149.63508546
_symmetry_Int_Tables_number   1
_chemical_formula_structural   Rb2GdGa(SiO3)4
_chemical_formula_sum   'Rb8 Gd4 Ga4 Si16 O48'
_cell_volume   1275.01150073
_cell_formula_units_Z   4
loop_
 _symmetry_equiv_pos_site_id
 _symmetry_equiv_pos_as_xyz
  1  'x, y, z'
loop_
 _atom_site_type_symbol
 _atom_site_label
 _atom_site_symmetry_multiplicity
 _atom_site_fract_x
 _atom_site_fract_y
 _atom_site_fract_z
 _atom_site_occupancy
  Rb  Rb0  1  0.688586  0.304933  0.966135  1
  Rb  Rb1  1  0.311414  0.695067  0.033865  1
  Rb  Rb2  1  0.304933  0.688586  0.533865  1
  Rb  Rb3  1  0.695067  0.311414  0.466135  1
  Rb  Rb4  1  0.227785  0.297345  0.047138  1
  Rb  Rb5  1  0.297345  0.227785  0.452862  1
  Rb  Rb6  1  0.772215  0.702655  0.952862  1
  Rb  Rb7  1  0.702655  0.772215  0.547138  1
  Gd  Gd8  1  0.486163  0.948484  0.249981  1
  Gd  Gd9  1  0.513837  0.051516  0.750019  1
  Gd  Gd10  1  0.948484  0.486163  0.250019  1
  Gd  Gd11  1  0.051516  0.513837  0.749981  1
  Ga  Ga12  1  0.628959  0.768805  0.273762  1
  Ga  Ga13  1  0.231195  0.371041  0.773762  1
  Ga  Ga14  1  0.371041  0.231195  0.726238  1
  Ga  Ga15  1  0.768805  0.628959  0.226238  1
  Si  Si16  1  0.760585  0.521689  0.660924  1
  Si  Si17  1  0.239415  0.478311  0.339076  1
  Si  Si18  1  0.195393  0.860415  0.508759  1
  Si  Si19  1  0.832589  0.708137  0.422663  1
  Si  Si20  1  0.708137  0.832589  0.077337  1
  Si  Si21  1  0.861556  0.185673  0.204663  1
  Si  Si22  1  0.167411  0.291863  0.577337  1
  Si  Si23  1  0.804607  0.139585  0.491241  1
  Si  Si24  1  0.478311  0.239415  0.160924  1
  Si  Si25  1  0.138444  0.814327  0.795337  1
  Si  Si26  1  0.521689  0.760585  0.839076  1
  Si  Si27  1  0.814327  0.138444  0.704663  1
  Si  Si28  1  0.860415  0.195393  0.991241  1
  Si  Si29  1  0.291863  0.167411  0.922663  1
  Si  Si30  1  0.185673  0.861556  0.295337  1
  Si  Si31  1  0.139585  0.804607  0.008759  1
  O  O32  1  0.652345  0.077061  0.925386  1
  O  O33  1  0.347655  0.922939  0.074614  1
  O  O34  1  0.562021  0.744220  0.967733  1
  O  O35  1  0.081357  0.730891  0.910154  1
  O  O36  1  0.269109  0.918643  0.410154  1
  O  O37  1  0.585425  0.439113  0.667247  1
  O  O38  1  0.610339  0.235935  0.225418  1
  O  O39  1  0.730838  0.956517  0.799371  1
  O  O40  1  0.918643  0.269109  0.089846  1
  O  O41  1  0.967334  0.621360  0.075771  1
  O  O42  1  0.429606  0.292948  0.842724  1
  O  O43  1  0.560887  0.414575  0.167247  1
  O  O44  1  0.058448  0.863612  0.444112  1
  O  O45  1  0.956517  0.730838  0.700629  1
  O  O46  1  0.744220  0.562021  0.532267  1
  O  O47  1  0.202505  0.757695  0.798391  1
  O  O48  1  0.621360  0.967334  0.424229  1
  O  O49  1  0.269162  0.043483  0.200629  1
  O  O50  1  0.764065  0.389661  0.725418  1
  O  O51  1  0.730891  0.081357  0.589846  1
  O  O52  1  0.047529  0.328553  0.729896  1
  O  O53  1  0.032666  0.378640  0.924229  1
  O  O54  1  0.169744  0.180901  0.878589  1
  O  O55  1  0.707052  0.570394  0.342724  1
  O  O56  1  0.414575  0.560887  0.332753  1
  O  O57  1  0.180901  0.169744  0.621411  1
  O  O58  1  0.671447  0.952471  0.229896  1
  O  O59  1  0.757695  0.202505  0.701609  1
  O  O60  1  0.830256  0.819099  0.121411  1
  O  O61  1  0.439113  0.585425  0.832753  1
  O  O62  1  0.077061  0.652345  0.574614  1
  O  O63  1  0.922939  0.347655  0.425386  1
  O  O64  1  0.235935  0.610339  0.274582  1
  O  O65  1  0.570394  0.707052  0.157276  1
  O  O66  1  0.389661  0.764065  0.774582  1
  O  O67  1  0.941552  0.136388  0.555888  1
  O  O68  1  0.255780  0.437979  0.467733  1
  O  O69  1  0.328553  0.047529  0.770104  1
  O  O70  1  0.378640  0.032666  0.575771  1
  O  O71  1  0.292948  0.429606  0.657276  1
  O  O72  1  0.819099  0.830256  0.378589  1
  O  O73  1  0.797495  0.242305  0.201609  1
  O  O74  1  0.136388  0.941552  0.944112  1
  O  O75  1  0.863612  0.058448  0.055888  1
  O  O76  1  0.437979  0.255780  0.032267  1
  O  O77  1  0.043483  0.269162  0.299371  1
  O  O78  1  0.952471  0.671447  0.270104  1
  O  O79  1  0.242305  0.797495  0.298391  1
