# generated using pymatgen
data_LiGaI4
_symmetry_space_group_name_H-M   'P 1'
_cell_length_a   8.19309777
_cell_length_b   7.74673214
_cell_length_c   15.20520423
_cell_angle_alpha   90.00000000
_cell_angle_beta   92.77173510
_cell_angle_gamma   90.00000000
_symmetry_Int_Tables_number   1
_chemical_formula_structural   LiGaI4
_chemical_formula_sum   'Li4 Ga4 I16'
_cell_volume   963.94124342
_cell_formula_units_Z   4
loop_
 _symmetry_equiv_pos_site_id
 _symmetry_equiv_pos_as_xyz
  1  'x, y, z'
loop_
 _atom_site_type_symbol
 _atom_site_label
 _atom_site_symmetry_multiplicity
 _atom_site_fract_x
 _atom_site_fract_y
 _atom_site_fract_z
 _atom_site_occupancy
  Li  Li0  1  0.154081  0.494130  0.380235  1
  Li  Li1  1  0.845919  0.994130  0.119765  1
  Li  Li2  1  0.154081  0.005870  0.880235  1
  Li  Li3  1  0.845919  0.505870  0.619765  1
  Ga  Ga4  1  0.293817  0.325641  0.599026  1
  Ga  Ga5  1  0.706183  0.825641  0.900974  1
  Ga  Ga6  1  0.293817  0.174359  0.099026  1
  Ga  Ga7  1  0.706183  0.674359  0.400974  1
  I  I8  1  0.936218  0.819351  0.313425  1
  I  I9  1  0.691535  0.681840  0.053342  1
  I  I10  1  0.186076  0.638767  0.568259  1
  I  I11  1  0.691535  0.818160  0.553342  1
  I  I12  1  0.308465  0.181840  0.446658  1
  I  I13  1  0.433866  0.814561  0.809166  1
  I  I14  1  0.566134  0.314561  0.690834  1
  I  I15  1  0.566134  0.185439  0.190834  1
  I  I16  1  0.813924  0.361233  0.431741  1
  I  I17  1  0.186076  0.861233  0.068259  1
  I  I18  1  0.433866  0.685439  0.309166  1
  I  I19  1  0.936218  0.680649  0.813425  1
  I  I20  1  0.063782  0.180649  0.686575  1
  I  I21  1  0.813924  0.138767  0.931741  1
  I  I22  1  0.308465  0.318160  0.946658  1
  I  I23  1  0.063782  0.319351  0.186575  1
