# generated using pymatgen
data_MnPO4
_symmetry_space_group_name_H-M   'P 1'
_cell_length_a   5.00653876
_cell_length_b   9.77519151
_cell_length_c   8.45232175
_cell_angle_alpha   90.00000000
_cell_angle_beta   123.90692466
_cell_angle_gamma   90.00000000
_symmetry_Int_Tables_number   1
_chemical_formula_structural   MnPO4
_chemical_formula_sum   'Mn4 P4 O16'
_cell_volume   343.31132003
_cell_formula_units_Z   4
loop_
 _symmetry_equiv_pos_site_id
 _symmetry_equiv_pos_as_xyz
  1  'x, y, z'
loop_
 _atom_site_type_symbol
 _atom_site_label
 _atom_site_symmetry_multiplicity
 _atom_site_fract_x
 _atom_site_fract_y
 _atom_site_fract_z
 _atom_site_occupancy
  Mn  Mn0  1  0.162564  0.877688  0.949972  1
  Mn  Mn1  1  0.837436  0.377688  0.550028  1
  Mn  Mn2  1  0.162564  0.622312  0.449972  1
  Mn  Mn3  1  0.837436  0.122312  0.050028  1
  P  P4  1  0.883320  0.594330  0.747854  1
  P  P5  1  0.116680  0.094330  0.752146  1
  P  P6  1  0.883320  0.905670  0.247854  1
  P  P7  1  0.116680  0.405670  0.252146  1
  O  O8  1  0.440931  0.360617  0.289736  1
  O  O9  1  0.972015  0.440708  0.804783  1
  O  O10  1  0.160683  0.085103  0.956104  1
  O  O11  1  0.843294  0.188139  0.608255  1
  O  O12  1  0.156706  0.688139  0.891745  1
  O  O13  1  0.839317  0.585103  0.543896  1
  O  O14  1  0.027985  0.940708  0.695217  1
  O  O15  1  0.559069  0.860617  0.210264  1
  O  O16  1  0.440931  0.139383  0.789736  1
  O  O17  1  0.972015  0.059292  0.304783  1
  O  O18  1  0.160683  0.414897  0.456104  1
  O  O19  1  0.843294  0.311861  0.108255  1
  O  O20  1  0.156706  0.811861  0.391745  1
  O  O21  1  0.839317  0.914897  0.043896  1
  O  O22  1  0.027985  0.559292  0.195217  1
  O  O23  1  0.559069  0.639383  0.710264  1
