# generated using pymatgen
data_LiMo2(PO4)3
_symmetry_space_group_name_H-M   'P 1'
_cell_length_a   8.80749451
_cell_length_b   8.80749451
_cell_length_c   8.81275605
_cell_angle_alpha   60.71464356
_cell_angle_beta   119.28535644
_cell_angle_gamma   119.51053098
_symmetry_Int_Tables_number   1
_chemical_formula_structural   LiMo2(PO4)3
_chemical_formula_sum   'Li2 Mo4 P6 O24'
_cell_volume   490.37019229
_cell_formula_units_Z   2
loop_
 _symmetry_equiv_pos_site_id
 _symmetry_equiv_pos_as_xyz
  1  'x, y, z'
loop_
 _atom_site_type_symbol
 _atom_site_label
 _atom_site_symmetry_multiplicity
 _atom_site_fract_x
 _atom_site_fract_y
 _atom_site_fract_z
 _atom_site_occupancy
  Li  Li0  1  0.585774  0.067858  0.762447  1
  Li  Li1  1  0.067858  0.585774  0.237553  1
  Mo  Mo2  1  0.857249  0.639475  0.824938  1
  Mo  Mo3  1  0.639475  0.857249  0.175062  1
  Mo  Mo4  1  0.358802  0.141588  0.326251  1
  Mo  Mo5  1  0.141588  0.358802  0.673749  1
  P  P6  1  0.540071  0.252206  0.995483  1
  P  P7  1  0.754040  0.459273  0.501609  1
  P  P8  1  0.038027  0.038027  0.500000  1
  P  P9  1  0.959940  0.959940  0.000000  1
  P  P10  1  0.252206  0.540071  0.004517  1
  P  P11  1  0.459273  0.754040  0.498391  1
  O  O12  1  0.875967  0.006193  0.324842  1
  O  O13  1  0.492848  0.811009  0.318025  1
  O  O14  1  0.723528  0.417268  0.996428  1
  O  O15  1  0.380376  0.306168  0.821675  1
  O  O16  1  0.061832  0.223099  0.502399  1
  O  O17  1  0.699507  0.614808  0.329678  1
  O  O18  1  0.811009  0.492848  0.681975  1
  O  O19  1  0.560477  0.093896  0.983727  1
  O  O20  1  0.921242  0.446462  0.496348  1
  O  O21  1  0.596432  0.270243  0.515370  1
  O  O22  1  0.006193  0.875967  0.675158  1
  O  O23  1  0.223099  0.061832  0.497601  1
  O  O24  1  0.771408  0.942284  0.993505  1
  O  O25  1  0.990471  0.114731  0.823622  1
  O  O26  1  0.093896  0.560477  0.016273  1
  O  O27  1  0.417268  0.723528  0.003572  1
  O  O28  1  0.446462  0.921242  0.503652  1
  O  O29  1  0.201629  0.507097  0.827279  1
  O  O30  1  0.306168  0.380376  0.178325  1
  O  O31  1  0.942284  0.771408  0.006495  1
  O  O32  1  0.614808  0.699507  0.670322  1
  O  O33  1  0.270243  0.596432  0.484630  1
  O  O34  1  0.507097  0.201629  0.172721  1
  O  O35  1  0.114731  0.990471  0.176378  1
