# generated using pymatgen
data_Ba3Al3Ga2
_symmetry_space_group_name_H-M   'P 1'
_cell_length_a   6.00322445
_cell_length_b   6.00322445
_cell_length_c   14.74353930
_cell_angle_alpha   90.00000000
_cell_angle_beta   90.00000000
_cell_angle_gamma   120.00000000
_symmetry_Int_Tables_number   1
_chemical_formula_structural   Ba3Al3Ga2
_chemical_formula_sum   'Ba6 Al6 Ga4'
_cell_volume   460.15224550
_cell_formula_units_Z   2
loop_
 _symmetry_equiv_pos_site_id
 _symmetry_equiv_pos_as_xyz
  1  'x, y, z'
loop_
 _atom_site_type_symbol
 _atom_site_label
 _atom_site_symmetry_multiplicity
 _atom_site_fract_x
 _atom_site_fract_y
 _atom_site_fract_z
 _atom_site_occupancy
  Ba  Ba0  1  0.333333  0.666667  0.876004  1
  Ba  Ba1  1  0.666667  0.333333  0.376004  1
  Ba  Ba2  1  0.666667  0.333333  0.123996  1
  Ba  Ba3  1  0.000000  0.000000  0.000000  1
  Ba  Ba4  1  0.333333  0.666667  0.623996  1
  Ba  Ba5  1  0.000000  0.000000  0.500000  1
  Al  Al6  1  0.842382  0.684764  0.750000  1
  Al  Al7  1  0.684764  0.842382  0.250000  1
  Al  Al8  1  0.842382  0.157618  0.750000  1
  Al  Al9  1  0.157618  0.842382  0.250000  1
  Al  Al10  1  0.315236  0.157618  0.750000  1
  Al  Al11  1  0.157618  0.315236  0.250000  1
  Ga  Ga12  1  0.666667  0.333333  0.886598  1
  Ga  Ga13  1  0.333333  0.666667  0.113402  1
  Ga  Ga14  1  0.333333  0.666667  0.386598  1
  Ga  Ga15  1  0.666667  0.333333  0.613402  1
