# generated using pymatgen
data_Na2SrAl4(SiO4)4
_symmetry_space_group_name_H-M   'P 1'
_cell_length_a   10.71293072
_cell_length_b   10.71293072
_cell_length_c   10.71293072
_cell_angle_alpha   132.92422651
_cell_angle_beta   124.54964195
_cell_angle_gamma   75.63189820
_symmetry_Int_Tables_number   1
_chemical_formula_structural   Na2SrAl4(SiO4)4
_chemical_formula_sum   'Na4 Sr2 Al8 Si8 O32'
_cell_volume   721.82456655
_cell_formula_units_Z   2
loop_
 _symmetry_equiv_pos_site_id
 _symmetry_equiv_pos_as_xyz
  1  'x, y, z'
loop_
 _atom_site_type_symbol
 _atom_site_label
 _atom_site_symmetry_multiplicity
 _atom_site_fract_x
 _atom_site_fract_y
 _atom_site_fract_z
 _atom_site_occupancy
  Na  Na0  1  0.580406  0.362772  0.133860  1
  Na  Na1  1  0.728912  0.862772  0.782366  1
  Na  Na2  1  0.080406  0.946546  0.217634  1
  Na  Na3  1  0.228912  0.446546  0.866140  1
  Sr  Sr4  1  0.654031  0.654031  0.000000  1
  Sr  Sr5  1  0.154031  0.154031  0.000000  1
  Al  Al6  1  0.372402  0.994090  0.239703  1
  Al  Al7  1  0.760459  0.088041  0.227240  1
  Al  Al8  1  0.254387  0.494090  0.621688  1
  Al  Al9  1  0.360801  0.588041  0.327582  1
  Al  Al10  1  0.260459  0.033219  0.672418  1
  Al  Al11  1  0.860801  0.533219  0.772760  1
  Al  Al12  1  0.754387  0.132699  0.760297  1
  Al  Al13  1  0.872402  0.632699  0.378312  1
  Si  Si14  1  0.553057  0.761854  0.318362  1
  Si  Si15  1  0.053057  0.734695  0.791203  1
  Si  Si16  1  0.943492  0.261854  0.208797  1
  Si  Si17  1  0.443492  0.234695  0.681638  1
  Si  Si18  1  0.444636  0.821562  0.774696  1
  Si  Si19  1  0.046866  0.669940  0.225304  1
  Si  Si20  1  0.546866  0.321562  0.376926  1
  Si  Si21  1  0.944636  0.169940  0.623074  1
  O  O22  1  0.418588  0.393479  0.268225  1
  O  O23  1  0.125254  0.150363  0.731775  1
  O  O24  1  0.416928  0.623467  0.224742  1
  O  O25  1  0.342157  0.972162  0.816641  1
  O  O26  1  0.625254  0.893479  0.974891  1
  O  O27  1  0.842157  0.025516  0.369995  1
  O  O28  1  0.458297  0.757933  0.594749  1
  O  O29  1  0.940842  0.655556  0.280298  1
  O  O30  1  0.875258  0.155556  0.714714  1
  O  O31  1  0.375258  0.660544  0.719702  1
  O  O32  1  0.163184  0.863548  0.405251  1
  O  O33  1  0.389018  0.416699  0.740505  1
  O  O34  1  0.898725  0.123467  0.206539  1
  O  O35  1  0.351946  0.074267  0.433559  1
  O  O36  1  0.633007  0.282766  0.801740  1
  O  O37  1  0.889018  0.148513  0.972319  1
  O  O38  1  0.655521  0.472162  0.630005  1
  O  O39  1  0.676194  0.648513  0.259495  1
  O  O40  1  0.981026  0.782766  0.649759  1
  O  O41  1  0.663184  0.257933  0.299636  1
  O  O42  1  0.958297  0.363548  0.700364  1
  O  O43  1  0.851946  0.418387  0.277679  1
  O  O44  1  0.140708  0.574267  0.722321  1
  O  O45  1  0.918588  0.650363  0.025109  1
  O  O46  1  0.440842  0.160544  0.285286  1
  O  O47  1  0.155521  0.525516  0.183359  1
  O  O48  1  0.176194  0.916699  0.027681  1
  O  O49  1  0.916928  0.692186  0.793461  1
  O  O50  1  0.398725  0.192186  0.775258  1
  O  O51  1  0.640708  0.918387  0.566441  1
  O  O52  1  0.133007  0.331267  0.350241  1
  O  O53  1  0.481026  0.831267  0.198260  1
