# generated using pymatgen
data_LiCr(PO3)4
_symmetry_space_group_name_H-M   'P 1'
_cell_length_a   7.29552841
_cell_length_b   7.29552841
_cell_length_c   9.85953572
_cell_angle_alpha   67.78851848
_cell_angle_beta   112.21148152
_cell_angle_gamma   109.96135559
_symmetry_Int_Tables_number   1
_chemical_formula_structural   LiCr(PO3)4
_chemical_formula_sum   'Li2 Cr2 P8 O24'
_cell_volume   437.55295942
_cell_formula_units_Z   2
loop_
 _symmetry_equiv_pos_site_id
 _symmetry_equiv_pos_as_xyz
  1  'x, y, z'
loop_
 _atom_site_type_symbol
 _atom_site_label
 _atom_site_symmetry_multiplicity
 _atom_site_fract_x
 _atom_site_fract_y
 _atom_site_fract_z
 _atom_site_occupancy
  Li  Li0  1  0.038728  0.038727  0.750000  1
  Li  Li1  1  0.961273  0.961273  0.250000  1
  Cr  Cr2  1  0.000000  0.500000  0.500000  1
  Cr  Cr3  1  0.500000  1.000000  0.000000  1
  P  P4  1  0.696125  0.317554  0.195793  1
  P  P5  1  0.740391  0.731455  0.971371  1
  P  P6  1  0.317554  0.696125  0.304207  1
  P  P7  1  0.268545  0.259609  0.471371  1
  P  P8  1  0.682446  0.303875  0.695793  1
  P  P9  1  0.259609  0.268545  0.028629  1
  P  P10  1  0.303875  0.682446  0.804207  1
  P  P11  1  0.731455  0.740391  0.528629  1
  O  O12  1  0.219501  0.492855  0.931708  1
  O  O13  1  0.659348  0.188703  0.851991  1
  O  O14  1  0.340652  0.811297  0.148009  1
  O  O15  1  0.193440  0.318990  0.571140  1
  O  O16  1  0.322937  0.465885  0.336486  1
  O  O17  1  0.149267  0.089531  0.406638  1
  O  O18  1  0.301285  0.872926  0.831951  1
  O  O19  1  0.681010  0.806560  0.071140  1
  O  O20  1  0.492855  0.219501  0.568292  1
  O  O21  1  0.089531  0.149267  0.093362  1
  O  O22  1  0.534115  0.677063  0.836486  1
  O  O23  1  0.465885  0.322937  0.163514  1
  O  O24  1  0.188703  0.659348  0.648009  1
  O  O25  1  0.872926  0.301285  0.668049  1
  O  O26  1  0.677063  0.534115  0.663514  1
  O  O27  1  0.811297  0.340652  0.351991  1
  O  O28  1  0.806560  0.681010  0.428860  1
  O  O29  1  0.780499  0.507145  0.068292  1
  O  O30  1  0.910469  0.850733  0.906638  1
  O  O31  1  0.507145  0.780499  0.431708  1
  O  O32  1  0.318990  0.193440  0.928860  1
  O  O33  1  0.698715  0.127074  0.168049  1
  O  O34  1  0.850733  0.910469  0.593362  1
  O  O35  1  0.127074  0.698715  0.331951  1
