# generated using pymatgen
data_HoCuS2
_symmetry_space_group_name_H-M   'P 1'
_cell_length_a   3.94566228
_cell_length_b   6.24767901
_cell_length_c   13.41769781
_cell_angle_alpha   90.00000000
_cell_angle_beta   90.00000000
_cell_angle_gamma   90.00000000
_symmetry_Int_Tables_number   1
_chemical_formula_structural   HoCuS2
_chemical_formula_sum   'Ho4 Cu4 S8'
_cell_volume   330.76277367
_cell_formula_units_Z   4
loop_
 _symmetry_equiv_pos_site_id
 _symmetry_equiv_pos_as_xyz
  1  'x, y, z'
loop_
 _atom_site_type_symbol
 _atom_site_label
 _atom_site_symmetry_multiplicity
 _atom_site_fract_x
 _atom_site_fract_y
 _atom_site_fract_z
 _atom_site_occupancy
  Ho  Ho0  1  0.257745  0.247650  0.133070  1
  Ho  Ho1  1  0.757745  0.252350  0.866930  1
  Ho  Ho2  1  0.242255  0.752350  0.633070  1
  Ho  Ho3  1  0.742255  0.747650  0.366930  1
  Cu  Cu4  1  0.732965  0.371239  0.549279  1
  Cu  Cu5  1  0.232965  0.128761  0.450721  1
  Cu  Cu6  1  0.267035  0.871239  0.950721  1
  Cu  Cu7  1  0.767035  0.628761  0.049279  1
  S  S8  1  0.241273  0.504124  0.461909  1
  S  S9  1  0.757071  0.484076  0.206346  1
  S  S10  1  0.257071  0.015924  0.793654  1
  S  S11  1  0.242929  0.984076  0.293654  1
  S  S12  1  0.258727  0.495876  0.961909  1
  S  S13  1  0.741273  0.995876  0.538091  1
  S  S14  1  0.742929  0.515924  0.706346  1
  S  S15  1  0.758727  0.004124  0.038091  1
