# generated using pymatgen
data_Ag4Mo2Se3O16
_symmetry_space_group_name_H-M   'P 1'
_cell_length_a   5.78497932
_cell_length_b   16.10779658
_cell_length_c   16.16141470
_cell_angle_alpha   90.00000000
_cell_angle_beta   90.00000000
_cell_angle_gamma   90.00000000
_symmetry_Int_Tables_number   1
_chemical_formula_structural   Ag4Mo2Se3O16
_chemical_formula_sum   'Ag16 Mo8 Se12 O64'
_cell_volume   1505.97347129
_cell_formula_units_Z   4
loop_
 _symmetry_equiv_pos_site_id
 _symmetry_equiv_pos_as_xyz
  1  'x, y, z'
loop_
 _atom_site_type_symbol
 _atom_site_label
 _atom_site_symmetry_multiplicity
 _atom_site_fract_x
 _atom_site_fract_y
 _atom_site_fract_z
 _atom_site_occupancy
  Ag  Ag0  1  0.821646  0.250000  0.160267  1
  Ag  Ag1  1  0.167930  0.076851  0.497322  1
  Ag  Ag2  1  0.832070  0.076851  0.997322  1
  Ag  Ag3  1  0.167930  0.423149  0.497322  1
  Ag  Ag4  1  0.694718  0.750000  0.000652  1
  Ag  Ag5  1  0.694718  0.250000  0.499348  1
  Ag  Ag6  1  0.832070  0.423149  0.997322  1
  Ag  Ag7  1  0.305282  0.750000  0.500652  1
  Ag  Ag8  1  0.821646  0.750000  0.339733  1
  Ag  Ag9  1  0.832070  0.576851  0.502678  1
  Ag  Ag10  1  0.305282  0.250000  0.999348  1
  Ag  Ag11  1  0.167930  0.576851  0.002678  1
  Ag  Ag12  1  0.178354  0.750000  0.839733  1
  Ag  Ag13  1  0.832070  0.923149  0.502678  1
  Ag  Ag14  1  0.167930  0.923149  0.002678  1
  Ag  Ag15  1  0.178354  0.250000  0.660267  1
  Mo  Mo16  1  0.359744  0.411638  0.827280  1
  Mo  Mo17  1  0.640256  0.911638  0.172720  1
  Mo  Mo18  1  0.359744  0.588362  0.672720  1
  Mo  Mo19  1  0.359744  0.911638  0.672720  1
  Mo  Mo20  1  0.640256  0.588362  0.172720  1
  Mo  Mo21  1  0.359744  0.088362  0.827280  1
  Mo  Mo22  1  0.640256  0.088362  0.327280  1
  Mo  Mo23  1  0.640256  0.411638  0.327280  1
  Se  Se24  1  0.245324  0.750000  0.135883  1
  Se  Se25  1  0.754676  0.250000  0.864117  1
  Se  Se26  1  0.245324  0.250000  0.364117  1
  Se  Se27  1  0.330396  0.601083  0.360519  1
  Se  Se28  1  0.669604  0.898917  0.860519  1
  Se  Se29  1  0.330396  0.101083  0.139481  1
  Se  Se30  1  0.669604  0.398917  0.639481  1
  Se  Se31  1  0.754676  0.750000  0.635883  1
  Se  Se32  1  0.669604  0.601083  0.860519  1
  Se  Se33  1  0.669604  0.101083  0.639481  1
  Se  Se34  1  0.330396  0.398917  0.139481  1
  Se  Se35  1  0.330396  0.898917  0.360519  1
  O  O36  1  0.178426  0.162189  0.783131  1
  O  O37  1  0.453067  0.850647  0.911093  1
  O  O38  1  0.560556  0.667339  0.604440  1
  O  O39  1  0.799064  0.554168  0.086188  1
  O  O40  1  0.560556  0.832661  0.604440  1
  O  O41  1  0.200936  0.445832  0.913812  1
  O  O42  1  0.799064  0.945832  0.086188  1
  O  O43  1  0.651853  0.121787  0.741861  1
  O  O44  1  0.348147  0.378213  0.241861  1
  O  O45  1  0.178426  0.662189  0.716869  1
  O  O46  1  0.310521  0.000000  0.750000  1
  O  O47  1  0.453067  0.649353  0.911093  1
  O  O48  1  0.921195  0.138005  0.604145  1
  O  O49  1  0.821574  0.162189  0.283131  1
  O  O50  1  0.078805  0.861995  0.395855  1
  O  O51  1  0.453067  0.350647  0.588907  1
  O  O52  1  0.658971  0.497173  0.876529  1
  O  O53  1  0.921195  0.861995  0.895855  1
  O  O54  1  0.921195  0.361995  0.604145  1
  O  O55  1  0.651853  0.878213  0.758139  1
  O  O56  1  0.439444  0.332661  0.395560  1
  O  O57  1  0.658971  0.997173  0.623471  1
  O  O58  1  0.439444  0.167339  0.395560  1
  O  O59  1  0.348147  0.878213  0.258139  1
  O  O60  1  0.651853  0.378213  0.741861  1
  O  O61  1  0.453067  0.149353  0.588907  1
  O  O62  1  0.200936  0.945832  0.586188  1
  O  O63  1  0.799064  0.054168  0.413812  1
  O  O64  1  0.178426  0.837811  0.716869  1
  O  O65  1  0.310521  0.500000  0.750000  1
  O  O66  1  0.200936  0.554168  0.586188  1
  O  O67  1  0.689479  0.500000  0.250000  1
  O  O68  1  0.546933  0.850647  0.411093  1
  O  O69  1  0.341029  0.997173  0.123471  1
  O  O70  1  0.439444  0.667339  0.104440  1
  O  O71  1  0.658971  0.502827  0.623471  1
  O  O72  1  0.920854  0.250000  0.948266  1
  O  O73  1  0.920854  0.750000  0.551734  1
  O  O74  1  0.821574  0.662189  0.216869  1
  O  O75  1  0.546933  0.350647  0.088907  1
  O  O76  1  0.560556  0.332661  0.895560  1
  O  O77  1  0.078805  0.138005  0.104145  1
  O  O78  1  0.200936  0.054168  0.913812  1
  O  O79  1  0.560556  0.167339  0.895560  1
  O  O80  1  0.079146  0.250000  0.448266  1
  O  O81  1  0.341029  0.002827  0.376529  1
  O  O82  1  0.799064  0.445832  0.413812  1
  O  O83  1  0.821574  0.837811  0.216869  1
  O  O84  1  0.078805  0.638005  0.395855  1
  O  O85  1  0.341029  0.497173  0.376529  1
  O  O86  1  0.078805  0.361995  0.104145  1
  O  O87  1  0.341029  0.502827  0.123471  1
  O  O88  1  0.921195  0.638005  0.895855  1
  O  O89  1  0.546933  0.649353  0.411093  1
  O  O90  1  0.689479  0.000000  0.250000  1
  O  O91  1  0.439444  0.832661  0.104440  1
  O  O92  1  0.348147  0.121787  0.241861  1
  O  O93  1  0.658971  0.002827  0.876529  1
  O  O94  1  0.651853  0.621787  0.758139  1
  O  O95  1  0.079146  0.750000  0.051734  1
  O  O96  1  0.348147  0.621787  0.258139  1
  O  O97  1  0.546933  0.149353  0.088907  1
  O  O98  1  0.821574  0.337811  0.283131  1
  O  O99  1  0.178426  0.337811  0.783131  1
