# generated using pymatgen
data_NaMnF3
_symmetry_space_group_name_H-M   'P 1'
_cell_length_a   5.61933127
_cell_length_b   5.83877243
_cell_length_c   8.12376692
_cell_angle_alpha   90.00000000
_cell_angle_beta   90.00000000
_cell_angle_gamma   90.00000000
_symmetry_Int_Tables_number   1
_chemical_formula_structural   NaMnF3
_chemical_formula_sum   'Na4 Mn4 F12'
_cell_volume   266.54076417
_cell_formula_units_Z   4
loop_
 _symmetry_equiv_pos_site_id
 _symmetry_equiv_pos_as_xyz
  1  'x, y, z'
loop_
 _atom_site_type_symbol
 _atom_site_label
 _atom_site_symmetry_multiplicity
 _atom_site_fract_x
 _atom_site_fract_y
 _atom_site_fract_z
 _atom_site_occupancy
  Na  Na0  1  0.484419  0.943131  0.250000  1
  Na  Na1  1  0.984419  0.556869  0.750000  1
  Na  Na2  1  0.015581  0.443131  0.250000  1
  Na  Na3  1  0.515581  0.056869  0.750000  1
  Mn  Mn4  1  0.500000  0.500000  0.000000  1
  Mn  Mn5  1  0.000000  0.000000  0.000000  1
  Mn  Mn6  1  0.000000  0.000000  0.500000  1
  Mn  Mn7  1  0.500000  0.500000  0.500000  1
  F  F8  1  0.618838  0.553684  0.250000  1
  F  F9  1  0.118838  0.946316  0.750000  1
  F  F10  1  0.881162  0.053684  0.250000  1
  F  F11  1  0.381162  0.446316  0.750000  1
  F  F12  1  0.808382  0.304145  0.937111  1
  F  F13  1  0.308382  0.195855  0.062889  1
  F  F14  1  0.691618  0.804145  0.562889  1
  F  F15  1  0.191618  0.695855  0.437111  1
  F  F16  1  0.808382  0.304145  0.562889  1
  F  F17  1  0.308382  0.195855  0.437111  1
  F  F18  1  0.691618  0.804145  0.937111  1
  F  F19  1  0.191618  0.695855  0.062889  1
