# generated using pymatgen
data_Yb2WO6
_symmetry_space_group_name_H-M   'P 1'
_cell_length_a   7.64407972
_cell_length_b   5.63634211
_cell_length_c   11.16999450
_cell_angle_alpha   90.00000000
_cell_angle_beta   100.55348815
_cell_angle_gamma   90.00000000
_symmetry_Int_Tables_number   1
_chemical_formula_structural   Yb2WO6
_chemical_formula_sum   'Yb8 W4 O24'
_cell_volume   473.11454204
_cell_formula_units_Z   4
loop_
 _symmetry_equiv_pos_site_id
 _symmetry_equiv_pos_as_xyz
  1  'x, y, z'
loop_
 _atom_site_type_symbol
 _atom_site_label
 _atom_site_symmetry_multiplicity
 _atom_site_fract_x
 _atom_site_fract_y
 _atom_site_fract_z
 _atom_site_occupancy
  Yb  Yb0  1  0.199025  0.187791  0.084249  1
  Yb  Yb1  1  0.800975  0.187791  0.415751  1
  Yb  Yb2  1  0.800975  0.812209  0.915751  1
  Yb  Yb3  1  0.199025  0.812209  0.584249  1
  Yb  Yb4  1  0.500000  0.668875  0.250000  1
  Yb  Yb5  1  0.500000  0.331125  0.750000  1
  Yb  Yb6  1  0.000000  0.736277  0.250000  1
  Yb  Yb7  1  0.000000  0.263723  0.750000  1
  W  W8  1  0.290463  0.250502  0.400266  1
  W  W9  1  0.709537  0.250502  0.099734  1
  W  W10  1  0.709537  0.749498  0.599734  1
  W  W11  1  0.290463  0.749498  0.900266  1
  O  O12  1  0.216594  0.457608  0.248663  1
  O  O13  1  0.783406  0.457608  0.251337  1
  O  O14  1  0.783406  0.542392  0.751337  1
  O  O15  1  0.216594  0.542392  0.748663  1
  O  O16  1  0.075503  0.029001  0.396509  1
  O  O17  1  0.924497  0.029001  0.103491  1
  O  O18  1  0.924497  0.970999  0.603491  1
  O  O19  1  0.075503  0.970999  0.896509  1
  O  O20  1  0.288632  0.983611  0.287856  1
  O  O21  1  0.711368  0.983611  0.212144  1
  O  O22  1  0.711368  0.016389  0.712144  1
  O  O23  1  0.288632  0.016389  0.787856  1
  O  O24  1  0.348432  0.835459  0.063217  1
  O  O25  1  0.651568  0.835459  0.436783  1
  O  O26  1  0.651568  0.164541  0.936783  1
  O  O27  1  0.348432  0.164541  0.563217  1
  O  O28  1  0.519707  0.659433  0.889523  1
  O  O29  1  0.480293  0.659433  0.610477  1
  O  O30  1  0.480293  0.340567  0.110477  1
  O  O31  1  0.519707  0.340567  0.389523  1
  O  O32  1  0.145190  0.483193  0.932157  1
  O  O33  1  0.854810  0.483193  0.567843  1
  O  O34  1  0.854810  0.516807  0.067843  1
  O  O35  1  0.145190  0.516807  0.432157  1
