# generated using pymatgen
data_KLa5(CCl5)2
_symmetry_space_group_name_H-M   'P 1'
_cell_length_a   8.61971137
_cell_length_b   15.27557989
_cell_length_c   17.24547497
_cell_angle_alpha   90.00000000
_cell_angle_beta   119.62246336
_cell_angle_gamma   90.00000000
_symmetry_Int_Tables_number   1
_chemical_formula_structural   KLa5(CCl5)2
_chemical_formula_sum   'K4 La20 C8 Cl40'
_cell_volume   1973.94875102
_cell_formula_units_Z   4
loop_
 _symmetry_equiv_pos_site_id
 _symmetry_equiv_pos_as_xyz
  1  'x, y, z'
loop_
 _atom_site_type_symbol
 _atom_site_label
 _atom_site_symmetry_multiplicity
 _atom_site_fract_x
 _atom_site_fract_y
 _atom_site_fract_z
 _atom_site_occupancy
  K  K0  1  0.985017  0.452482  0.737369  1
  K  K1  1  0.985017  0.047518  0.237369  1
  K  K2  1  0.014983  0.547518  0.262631  1
  K  K3  1  0.014983  0.952482  0.762631  1
  La  La4  1  0.619987  0.244677  0.269312  1
  La  La5  1  0.665995  0.463650  0.915251  1
  La  La6  1  0.334005  0.963650  0.584749  1
  La  La7  1  0.963536  0.264658  0.040997  1
  La  La8  1  0.334005  0.536350  0.084749  1
  La  La9  1  0.380013  0.744677  0.230688  1
  La  La10  1  0.327079  0.559621  0.578267  1
  La  La11  1  0.327079  0.940379  0.078267  1
  La  La12  1  0.416194  0.259654  0.940238  1
  La  La13  1  0.036464  0.735342  0.959003  1
  La  La14  1  0.583806  0.740346  0.059762  1
  La  La15  1  0.036464  0.764658  0.459003  1
  La  La16  1  0.416194  0.240346  0.440238  1
  La  La17  1  0.963536  0.235342  0.540997  1
  La  La18  1  0.672921  0.440379  0.421733  1
  La  La19  1  0.583806  0.759654  0.559762  1
  La  La20  1  0.619987  0.255323  0.769312  1
  La  La21  1  0.665995  0.036350  0.415251  1
  La  La22  1  0.672921  0.059621  0.921733  1
  La  La23  1  0.380013  0.755323  0.730688  1
  C  C24  1  0.668404  0.287429  0.417643  1
  C  C25  1  0.331596  0.787429  0.082357  1
  C  C26  1  0.665761  0.190684  0.417705  1
  C  C27  1  0.334239  0.809316  0.582295  1
  C  C28  1  0.334239  0.690684  0.082295  1
  C  C29  1  0.665761  0.309316  0.917705  1
  C  C30  1  0.668404  0.212571  0.917643  1
  C  C31  1  0.331596  0.712571  0.582357  1
  Cl  Cl32  1  0.612721  0.442607  0.734134  1
  Cl  Cl33  1  0.033434  0.080478  0.067967  1
  Cl  Cl34  1  0.257515  0.726763  0.372914  1
  Cl  Cl35  1  0.757051  0.738677  0.255851  1
  Cl  Cl36  1  0.005255  0.050956  0.586463  1
  Cl  Cl37  1  0.242949  0.238677  0.244149  1
  Cl  Cl38  1  0.387279  0.557393  0.265866  1
  Cl  Cl39  1  0.339647  0.428290  0.433854  1
  Cl  Cl40  1  0.340663  0.445172  0.918686  1
  Cl  Cl41  1  0.695297  0.427876  0.262083  1
  Cl  Cl42  1  0.695297  0.072124  0.762083  1
  Cl  Cl43  1  0.657750  0.813596  0.412344  1
  Cl  Cl44  1  0.242949  0.261323  0.744149  1
  Cl  Cl45  1  0.742485  0.273237  0.627086  1
  Cl  Cl46  1  0.011282  0.230346  0.377213  1
  Cl  Cl47  1  0.659337  0.554828  0.081314  1
  Cl  Cl48  1  0.257515  0.773237  0.872914  1
  Cl  Cl49  1  0.660353  0.928290  0.066146  1
  Cl  Cl50  1  0.342250  0.313596  0.087656  1
  Cl  Cl51  1  0.966566  0.580478  0.432033  1
  Cl  Cl52  1  0.994745  0.550956  0.913537  1
  Cl  Cl53  1  0.660353  0.571710  0.566146  1
  Cl  Cl54  1  0.304703  0.927876  0.237917  1
  Cl  Cl55  1  0.011282  0.269654  0.877213  1
  Cl  Cl56  1  0.342250  0.186404  0.587656  1
  Cl  Cl57  1  0.005255  0.449044  0.086463  1
  Cl  Cl58  1  0.966566  0.919522  0.932033  1
  Cl  Cl59  1  0.659337  0.945172  0.581314  1
  Cl  Cl60  1  0.612721  0.057393  0.234134  1
  Cl  Cl61  1  0.994745  0.949044  0.413537  1
  Cl  Cl62  1  0.304703  0.572124  0.737917  1
  Cl  Cl63  1  0.757051  0.761323  0.755851  1
  Cl  Cl64  1  0.387279  0.942607  0.765866  1
  Cl  Cl65  1  0.742485  0.226763  0.127086  1
  Cl  Cl66  1  0.033434  0.419522  0.567967  1
  Cl  Cl67  1  0.988718  0.769654  0.622787  1
  Cl  Cl68  1  0.657750  0.686404  0.912344  1
  Cl  Cl69  1  0.340663  0.054828  0.418686  1
  Cl  Cl70  1  0.988718  0.730346  0.122787  1
  Cl  Cl71  1  0.339647  0.071710  0.933854  1
