# generated using pymatgen
data_Al2(MoO4)3
_symmetry_space_group_name_H-M   'P 1'
_cell_length_a   15.69438978
_cell_length_b   9.20525917
_cell_length_c   15.72811112
_cell_angle_alpha   90.00000000
_cell_angle_beta   109.18143224
_cell_angle_gamma   90.00000000
_symmetry_Int_Tables_number   1
_chemical_formula_structural   Al2(MoO4)3
_chemical_formula_sum   'Al16 Mo24 O96'
_cell_volume   2146.10576423
_cell_formula_units_Z   8
loop_
 _symmetry_equiv_pos_site_id
 _symmetry_equiv_pos_as_xyz
  1  'x, y, z'
loop_
 _atom_site_type_symbol
 _atom_site_label
 _atom_site_symmetry_multiplicity
 _atom_site_fract_x
 _atom_site_fract_y
 _atom_site_fract_z
 _atom_site_occupancy
  Al  Al0  1  0.066494  0.528312  0.184562  1
  Al  Al1  1  0.821837  0.038325  0.946457  1
  Al  Al2  1  0.566494  0.971688  0.184562  1
  Al  Al3  1  0.564353  0.534161  0.682223  1
  Al  Al4  1  0.812689  0.476648  0.422656  1
  Al  Al5  1  0.312689  0.023352  0.422656  1
  Al  Al6  1  0.935647  0.034161  0.317777  1
  Al  Al7  1  0.687311  0.976648  0.577344  1
  Al  Al8  1  0.678163  0.538325  0.053543  1
  Al  Al9  1  0.435647  0.465839  0.317777  1
  Al  Al10  1  0.178163  0.961675  0.053543  1
  Al  Al11  1  0.187311  0.523352  0.577344  1
  Al  Al12  1  0.933506  0.471688  0.815438  1
  Al  Al13  1  0.321837  0.461675  0.946457  1
  Al  Al14  1  0.064353  0.965839  0.682223  1
  Al  Al15  1  0.433506  0.028312  0.815438  1
  Mo  Mo16  1  0.866212  0.377229  0.219744  1
  Mo  Mo17  1  0.733884  0.113600  0.382317  1
  Mo  Mo18  1  0.385589  0.388339  0.743692  1
  Mo  Mo19  1  0.015147  0.252975  0.017249  1
  Mo  Mo20  1  0.509130  0.247862  0.512811  1
  Mo  Mo21  1  0.009130  0.252138  0.512811  1
  Mo  Mo22  1  0.726940  0.378469  0.868342  1
  Mo  Mo23  1  0.114411  0.888339  0.256308  1
  Mo  Mo24  1  0.614411  0.611661  0.256308  1
  Mo  Mo25  1  0.766116  0.613600  0.617683  1
  Mo  Mo26  1  0.273060  0.621531  0.131658  1
  Mo  Mo27  1  0.226940  0.121531  0.868342  1
  Mo  Mo28  1  0.633788  0.877229  0.780256  1
  Mo  Mo29  1  0.984853  0.747025  0.982751  1
  Mo  Mo30  1  0.484853  0.752975  0.982751  1
  Mo  Mo31  1  0.366212  0.122771  0.219744  1
  Mo  Mo32  1  0.490870  0.752138  0.487189  1
  Mo  Mo33  1  0.885589  0.111661  0.743692  1
  Mo  Mo34  1  0.990870  0.747862  0.487189  1
  Mo  Mo35  1  0.133788  0.622771  0.780256  1
  Mo  Mo36  1  0.233884  0.386400  0.382317  1
  Mo  Mo37  1  0.266116  0.886400  0.617683  1
  Mo  Mo38  1  0.515147  0.247025  0.017249  1
  Mo  Mo39  1  0.773060  0.878469  0.131658  1
  O  O40  1  0.889247  0.186247  0.232558  1
  O  O41  1  0.425556  0.204794  0.749542  1
  O  O42  1  0.908188  0.179272  0.014822  1
  O  O43  1  0.909948  0.359208  0.498915  1
  O  O44  1  0.001224  0.626976  0.076352  1
  O  O45  1  0.108042  0.362350  0.548342  1
  O  O46  1  0.891958  0.637650  0.451658  1
  O  O47  1  0.263993  0.094766  0.127342  1
  O  O48  1  0.736711  0.192005  0.903929  1
  O  O49  1  0.869310  0.069029  0.848489  1
  O  O50  1  0.865019  0.569153  0.709418  1
  O  O51  1  0.219594  0.904751  0.345847  1
  O  O52  1  0.409183  0.610895  0.988678  1
  O  O53  1  0.534551  0.488067  0.275447  1
  O  O54  1  0.541998  0.975202  0.796966  1
  O  O55  1  0.034551  0.011933  0.275447  1
  O  O56  1  0.369310  0.430971  0.848489  1
  O  O57  1  0.761430  0.807308  0.603594  1
  O  O58  1  0.228972  0.476882  0.481328  1
  O  O59  1  0.280406  0.404751  0.654153  1
  O  O60  1  0.000363  0.173143  0.405989  1
  O  O61  1  0.499637  0.673143  0.594011  1
  O  O62  1  0.482605  0.614481  0.404439  1
  O  O63  1  0.719905  0.498068  0.955999  1
  O  O64  1  0.130690  0.930971  0.151511  1
  O  O65  1  0.629385  0.396264  0.769661  1
  O  O66  1  0.610753  0.686247  0.767442  1
  O  O67  1  0.763993  0.405234  0.127342  1
  O  O68  1  0.271028  0.976882  0.518672  1
  O  O69  1  0.833121  0.055611  0.359459  1
  O  O70  1  0.351021  0.062103  0.321536  1
  O  O71  1  0.074444  0.704794  0.250458  1
  O  O72  1  0.823570  0.422733  0.837747  1
  O  O73  1  0.370615  0.603736  0.230339  1
  O  O74  1  0.925556  0.295206  0.749542  1
  O  O75  1  0.728972  0.023118  0.481328  1
  O  O76  1  0.736007  0.905234  0.872658  1
  O  O77  1  0.500363  0.326857  0.405989  1
  O  O78  1  0.129385  0.103736  0.769661  1
  O  O79  1  0.458002  0.024798  0.203034  1
  O  O80  1  0.937834  0.646905  0.880885  1
  O  O81  1  0.091812  0.820728  0.985178  1
  O  O82  1  0.780406  0.095249  0.654153  1
  O  O83  1  0.176430  0.577267  0.162253  1
  O  O84  1  0.676430  0.922733  0.162253  1
  O  O85  1  0.965449  0.988067  0.724553  1
  O  O86  1  0.982605  0.885519  0.404439  1
  O  O87  1  0.517395  0.385519  0.595561  1
  O  O88  1  0.238570  0.192692  0.396406  1
  O  O89  1  0.437834  0.853095  0.880885  1
  O  O90  1  0.719594  0.595249  0.345847  1
  O  O91  1  0.958002  0.475202  0.203034  1
  O  O92  1  0.323570  0.077267  0.837747  1
  O  O93  1  0.389247  0.313753  0.232558  1
  O  O94  1  0.409948  0.140792  0.498915  1
  O  O95  1  0.648979  0.937897  0.678464  1
  O  O96  1  0.041998  0.524798  0.796966  1
  O  O97  1  0.391958  0.862350  0.451658  1
  O  O98  1  0.333121  0.444389  0.359459  1
  O  O99  1  0.498776  0.126976  0.923648  1
  O  O100  1  0.870615  0.896264  0.230339  1
  O  O101  1  0.148979  0.562103  0.678464  1
  O  O102  1  0.110753  0.813753  0.767442  1
  O  O103  1  0.608042  0.137650  0.548342  1
  O  O104  1  0.763289  0.692005  0.096071  1
  O  O105  1  0.666879  0.555611  0.640541  1
  O  O106  1  0.090817  0.110895  0.011322  1
  O  O107  1  0.591812  0.679272  0.985178  1
  O  O108  1  0.909183  0.889105  0.988678  1
  O  O109  1  0.998776  0.373024  0.923648  1
  O  O110  1  0.017395  0.114481  0.595561  1
  O  O111  1  0.999637  0.826857  0.594011  1
  O  O112  1  0.219905  0.001932  0.955999  1
  O  O113  1  0.574444  0.795206  0.250458  1
  O  O114  1  0.062166  0.353095  0.119115  1
  O  O115  1  0.501224  0.873024  0.076352  1
  O  O116  1  0.236007  0.594766  0.872658  1
  O  O117  1  0.261430  0.692692  0.603594  1
  O  O118  1  0.634981  0.069153  0.290582  1
  O  O119  1  0.590817  0.389105  0.011322  1
  O  O120  1  0.090052  0.640792  0.501085  1
  O  O121  1  0.236711  0.307995  0.903929  1
  O  O122  1  0.562166  0.146905  0.119115  1
  O  O123  1  0.738570  0.307308  0.396406  1
  O  O124  1  0.780095  0.998068  0.044001  1
  O  O125  1  0.134981  0.430847  0.290582  1
  O  O126  1  0.851021  0.437897  0.321536  1
  O  O127  1  0.280095  0.501932  0.044001  1
  O  O128  1  0.365019  0.930847  0.709418  1
  O  O129  1  0.166879  0.944389  0.640541  1
  O  O130  1  0.630690  0.569029  0.151511  1
  O  O131  1  0.408188  0.320728  0.014822  1
  O  O132  1  0.771028  0.523118  0.518672  1
  O  O133  1  0.465449  0.511933  0.724553  1
  O  O134  1  0.263289  0.807995  0.096071  1
  O  O135  1  0.590052  0.859208  0.501085  1
