# generated using pymatgen
data_SnHg7(As2I3)2
_symmetry_space_group_name_H-M   'P 1'
_cell_length_a   13.50471037
_cell_length_b   13.50471037
_cell_length_c   13.50471037
_cell_angle_alpha   90.00000000
_cell_angle_beta   90.00000000
_cell_angle_gamma   90.00000000
_symmetry_Int_Tables_number   1
_chemical_formula_structural   SnHg7(As2I3)2
_chemical_formula_sum   'Sn4 Hg28 As16 I24'
_cell_volume   2462.95129350
_cell_formula_units_Z   4
loop_
 _symmetry_equiv_pos_site_id
 _symmetry_equiv_pos_as_xyz
  1  'x, y, z'
loop_
 _atom_site_type_symbol
 _atom_site_label
 _atom_site_symmetry_multiplicity
 _atom_site_fract_x
 _atom_site_fract_y
 _atom_site_fract_z
 _atom_site_occupancy
  Sn  Sn0  1  0.764977  0.764977  0.764977  1
  Sn  Sn1  1  0.235023  0.264977  0.735023  1
  Sn  Sn2  1  0.264977  0.735023  0.235023  1
  Sn  Sn3  1  0.735023  0.235023  0.264977  1
  Hg  Hg4  1  0.318307  0.097976  0.076474  1
  Hg  Hg5  1  0.068806  0.499781  0.751055  1
  Hg  Hg6  1  0.431194  0.500219  0.251055  1
  Hg  Hg7  1  0.931194  0.999781  0.748945  1
  Hg  Hg8  1  0.535098  0.464902  0.964902  1
  Hg  Hg9  1  0.681693  0.597976  0.423526  1
  Hg  Hg10  1  0.576474  0.181693  0.902024  1
  Hg  Hg11  1  0.035098  0.035098  0.035098  1
  Hg  Hg12  1  0.181693  0.902024  0.576474  1
  Hg  Hg13  1  0.248945  0.568806  0.000219  1
  Hg  Hg14  1  0.902024  0.576474  0.181693  1
  Hg  Hg15  1  0.251055  0.431194  0.500219  1
  Hg  Hg16  1  0.748945  0.931194  0.999781  1
  Hg  Hg17  1  0.499781  0.751055  0.068806  1
  Hg  Hg18  1  0.597976  0.423526  0.681693  1
  Hg  Hg19  1  0.097976  0.076474  0.318307  1
  Hg  Hg20  1  0.818307  0.402024  0.923526  1
  Hg  Hg21  1  0.923526  0.818307  0.402024  1
  Hg  Hg22  1  0.500219  0.251055  0.431194  1
  Hg  Hg23  1  0.402024  0.923526  0.818307  1
  Hg  Hg24  1  0.464902  0.964902  0.535098  1
  Hg  Hg25  1  0.423526  0.681693  0.597976  1
  Hg  Hg26  1  0.076474  0.318307  0.097976  1
  Hg  Hg27  1  0.999781  0.748945  0.931194  1
  Hg  Hg28  1  0.568806  0.000219  0.248945  1
  Hg  Hg29  1  0.964902  0.535098  0.464902  1
  Hg  Hg30  1  0.751055  0.068806  0.499781  1
  Hg  Hg31  1  0.000219  0.248945  0.568806  1
  As  As32  1  0.963819  0.463819  0.036181  1
  As  As33  1  0.536181  0.536181  0.536181  1
  As  As34  1  0.073767  0.426233  0.573767  1
  As  As35  1  0.069162  0.569162  0.930838  1
  As  As36  1  0.856357  0.643643  0.356357  1
  As  As37  1  0.643643  0.356357  0.856357  1
  As  As38  1  0.036181  0.963819  0.463819  1
  As  As39  1  0.430838  0.430838  0.430838  1
  As  As40  1  0.143643  0.143643  0.143643  1
  As  As41  1  0.573767  0.073767  0.426233  1
  As  As42  1  0.569162  0.930838  0.069162  1
  As  As43  1  0.930838  0.069162  0.569162  1
  As  As44  1  0.426233  0.573767  0.073767  1
  As  As45  1  0.356357  0.856357  0.643643  1
  As  As46  1  0.926233  0.926233  0.926233  1
  As  As47  1  0.463819  0.036181  0.963819  1
  I  I48  1  0.526307  0.736275  0.314252  1
  I  I49  1  0.786849  0.187532  0.055428  1
  I  I50  1  0.713151  0.812468  0.555428  1
  I  I51  1  0.814252  0.973693  0.263725  1
  I  I52  1  0.687532  0.444572  0.213151  1
  I  I53  1  0.185748  0.473693  0.236275  1
  I  I54  1  0.555428  0.713151  0.812468  1
  I  I55  1  0.444572  0.213151  0.687532  1
  I  I56  1  0.763725  0.685748  0.026307  1
  I  I57  1  0.236275  0.185748  0.473693  1
  I  I58  1  0.473693  0.236275  0.185748  1
  I  I59  1  0.286849  0.312468  0.944572  1
  I  I60  1  0.312468  0.944572  0.286849  1
  I  I61  1  0.685748  0.026307  0.763725  1
  I  I62  1  0.055428  0.786849  0.187532  1
  I  I63  1  0.944572  0.286849  0.312468  1
  I  I64  1  0.026307  0.763725  0.685748  1
  I  I65  1  0.736275  0.314252  0.526307  1
  I  I66  1  0.187532  0.055428  0.786849  1
  I  I67  1  0.263725  0.814252  0.973693  1
  I  I68  1  0.213151  0.687532  0.444572  1
  I  I69  1  0.812468  0.555428  0.713151  1
  I  I70  1  0.314252  0.526307  0.736275  1
  I  I71  1  0.973693  0.263725  0.814252  1
