# generated using pymatgen
data_La16Al13
_symmetry_space_group_name_H-M   'P 1'
_cell_length_a   9.15293522
_cell_length_b   9.15293522
_cell_length_c   11.23199271
_cell_angle_alpha   90.00000000
_cell_angle_beta   90.00000000
_cell_angle_gamma   120.00000000
_symmetry_Int_Tables_number   1
_chemical_formula_structural   La16Al13
_chemical_formula_sum   'La16 Al13'
_cell_volume   814.90732588
_cell_formula_units_Z   1
loop_
 _symmetry_equiv_pos_site_id
 _symmetry_equiv_pos_as_xyz
  1  'x, y, z'
loop_
 _atom_site_type_symbol
 _atom_site_label
 _atom_site_symmetry_multiplicity
 _atom_site_fract_x
 _atom_site_fract_y
 _atom_site_fract_z
 _atom_site_occupancy
  La  La0  1  0.000000  0.261219  0.000000  1
  La  La1  1  0.613610  0.000000  0.163369  1
  La  La2  1  0.261219  0.000000  0.000000  1
  La  La3  1  0.000000  0.613610  0.836631  1
  La  La4  1  0.333333  0.666667  0.662798  1
  La  La5  1  0.333333  0.666667  0.337202  1
  La  La6  1  0.666667  0.333333  0.662798  1
  La  La7  1  0.000000  0.613610  0.163369  1
  La  La8  1  0.386390  0.386390  0.163369  1
  La  La9  1  0.770915  0.000000  0.500000  1
  La  La10  1  0.666667  0.333333  0.337202  1
  La  La11  1  0.738781  0.738781  0.000000  1
  La  La12  1  0.229085  0.229085  0.500000  1
  La  La13  1  0.000000  0.770915  0.500000  1
  La  La14  1  0.613610  0.000000  0.836631  1
  La  La15  1  0.386390  0.386390  0.836631  1
  Al  Al16  1  0.000000  0.000000  0.763874  1
  Al  Al17  1  0.000000  0.286075  0.710443  1
  Al  Al18  1  0.420793  0.000000  0.500000  1
  Al  Al19  1  0.286075  0.000000  0.289557  1
  Al  Al20  1  0.000000  0.286075  0.289557  1
  Al  Al21  1  0.713925  0.713925  0.289557  1
  Al  Al22  1  0.579207  0.579207  0.500000  1
  Al  Al23  1  0.000000  0.420793  0.500000  1
  Al  Al24  1  0.000000  0.000000  0.236126  1
  Al  Al25  1  0.713925  0.713925  0.710443  1
  Al  Al26  1  0.666667  0.333333  0.000000  1
  Al  Al27  1  0.333333  0.666667  0.000000  1
  Al  Al28  1  0.286075  0.000000  0.710443  1
