# generated using pymatgen
data_La2Mo4O15
_symmetry_space_group_name_H-M   'P 1'
_cell_length_a   9.28492791
_cell_length_b   12.96234108
_cell_length_c   14.18694951
_cell_angle_alpha   90.00000000
_cell_angle_beta   130.81447117
_cell_angle_gamma   90.00000000
_symmetry_Int_Tables_number   1
_chemical_formula_structural   La2Mo4O15
_chemical_formula_sum   'La8 Mo16 O60'
_cell_volume   1292.25833348
_cell_formula_units_Z   4
loop_
 _symmetry_equiv_pos_site_id
 _symmetry_equiv_pos_as_xyz
  1  'x, y, z'
loop_
 _atom_site_type_symbol
 _atom_site_label
 _atom_site_symmetry_multiplicity
 _atom_site_fract_x
 _atom_site_fract_y
 _atom_site_fract_z
 _atom_site_occupancy
  La  La0  1  0.309342  0.355178  0.227105  1
  La  La1  1  0.690658  0.855178  0.272895  1
  La  La2  1  0.690658  0.644822  0.772895  1
  La  La3  1  0.309342  0.144822  0.727105  1
  La  La4  1  0.896005  0.373336  0.243523  1
  La  La5  1  0.103995  0.873336  0.256477  1
  La  La6  1  0.103995  0.626664  0.756477  1
  La  La7  1  0.896005  0.126664  0.743523  1
  Mo  Mo8  1  0.770065  0.334156  0.907711  1
  Mo  Mo9  1  0.229935  0.834156  0.592289  1
  Mo  Mo10  1  0.229935  0.665844  0.092289  1
  Mo  Mo11  1  0.770065  0.165844  0.407711  1
  Mo  Mo12  1  0.313620  0.345942  0.941232  1
  Mo  Mo13  1  0.686380  0.845942  0.558768  1
  Mo  Mo14  1  0.686380  0.654058  0.058768  1
  Mo  Mo15  1  0.313620  0.154058  0.441232  1
  Mo  Mo16  1  0.324098  0.590276  0.398537  1
  Mo  Mo17  1  0.675902  0.090276  0.101463  1
  Mo  Mo18  1  0.675902  0.409724  0.601463  1
  Mo  Mo19  1  0.324098  0.909724  0.898537  1
  Mo  Mo20  1  0.682756  0.560532  0.379495  1
  Mo  Mo21  1  0.317244  0.060532  0.120505  1
  Mo  Mo22  1  0.317244  0.439468  0.620505  1
  Mo  Mo23  1  0.682756  0.939468  0.879495  1
  O  O24  1  0.219843  0.228360  0.844588  1
  O  O25  1  0.780157  0.728360  0.655412  1
  O  O26  1  0.780157  0.771640  0.155412  1
  O  O27  1  0.219843  0.271640  0.344588  1
  O  O28  1  0.178372  0.487683  0.290438  1
  O  O29  1  0.821628  0.987683  0.209562  1
  O  O30  1  0.821628  0.512317  0.709562  1
  O  O31  1  0.178372  0.012317  0.790438  1
  O  O32  1  0.443315  0.551159  0.560724  1
  O  O33  1  0.556685  0.051159  0.939276  1
  O  O34  1  0.556685  0.448841  0.439276  1
  O  O35  1  0.443315  0.948841  0.060724  1
  O  O36  1  0.644352  0.451355  0.816291  1
  O  O37  1  0.355648  0.951355  0.683709  1
  O  O38  1  0.355648  0.548645  0.183709  1
  O  O39  1  0.644352  0.048645  0.316291  1
  O  O40  1  0.502194  0.645416  0.393817  1
  O  O41  1  0.497806  0.145416  0.106183  1
  O  O42  1  0.497806  0.354584  0.606183  1
  O  O43  1  0.502194  0.854584  0.893817  1
  O  O44  1  0.950689  0.362558  0.074056  1
  O  O45  1  0.049311  0.862558  0.425944  1
  O  O46  1  0.049311  0.637442  0.925944  1
  O  O47  1  0.950689  0.137442  0.574056  1
  O  O48  1  0.168055  0.690717  0.358056  1
  O  O49  1  0.831945  0.190717  0.141944  1
  O  O50  1  0.831945  0.309283  0.641944  1
  O  O51  1  0.168055  0.809283  0.858056  1
  O  O52  1  0.729038  0.666210  0.324229  1
  O  O53  1  0.270962  0.166210  0.175771  1
  O  O54  1  0.270962  0.333790  0.675771  1
  O  O55  1  0.729038  0.833790  0.824229  1
  O  O56  1  0.889061  0.559335  0.540536  1
  O  O57  1  0.110939  0.059335  0.959464  1
  O  O58  1  0.110939  0.440665  0.459464  1
  O  O59  1  0.889061  0.940665  0.040536  1
  O  O60  1  0.566445  0.356486  0.042418  1
  O  O61  1  0.433555  0.856486  0.457582  1
  O  O62  1  0.433555  0.643514  0.957582  1
  O  O63  1  0.566445  0.143514  0.542418  1
  O  O64  1  0.696084  0.448954  0.312338  1
  O  O65  1  0.303916  0.948954  0.187662  1
  O  O66  1  0.303916  0.551046  0.687662  1
  O  O67  1  0.696084  0.051046  0.812338  1
  O  O68  1  0.211893  0.455831  0.841929  1
  O  O69  1  0.788107  0.955831  0.658071  1
  O  O70  1  0.788107  0.544169  0.158071  1
  O  O71  1  0.211893  0.044169  0.341929  1
  O  O72  1  0.253623  0.350599  0.037964  1
  O  O73  1  0.746377  0.850599  0.462036  1
  O  O74  1  0.746377  0.649401  0.962036  1
  O  O75  1  0.253623  0.149401  0.537964  1
  O  O76  1  0.596928  0.247806  0.876978  1
  O  O77  1  0.403072  0.747806  0.623022  1
  O  O78  1  0.403072  0.752194  0.123022  1
  O  O79  1  0.596928  0.252194  0.376978  1
  O  O80  1  0.872255  0.271464  0.852147  1
  O  O81  1  0.127745  0.771464  0.647853  1
  O  O82  1  0.127745  0.728536  0.147853  1
  O  O83  1  0.872255  0.228536  0.352147  1
