# generated using pymatgen
data_TiPCl7O
_symmetry_space_group_name_H-M   'P 1'
_cell_length_a   13.03422141
_cell_length_b   13.16202189
_cell_length_c   14.09186633
_cell_angle_alpha   90.00000000
_cell_angle_beta   90.00000000
_cell_angle_gamma   90.00000000
_symmetry_Int_Tables_number   1
_chemical_formula_structural   TiPCl7O
_chemical_formula_sum   'Ti8 P8 Cl56 O8'
_cell_volume   2417.55419035
_cell_formula_units_Z   8
loop_
 _symmetry_equiv_pos_site_id
 _symmetry_equiv_pos_as_xyz
  1  'x, y, z'
loop_
 _atom_site_type_symbol
 _atom_site_label
 _atom_site_symmetry_multiplicity
 _atom_site_fract_x
 _atom_site_fract_y
 _atom_site_fract_z
 _atom_site_occupancy
  Ti  Ti0  1  0.936858  0.865646  0.000775  1
  Ti  Ti1  1  0.063142  0.365646  0.499225  1
  Ti  Ti2  1  0.063142  0.134354  0.999225  1
  Ti  Ti3  1  0.563142  0.134354  0.500775  1
  Ti  Ti4  1  0.936858  0.634354  0.500775  1
  Ti  Ti5  1  0.563142  0.365646  0.000775  1
  Ti  Ti6  1  0.436858  0.865646  0.499225  1
  Ti  Ti7  1  0.436858  0.634354  0.999225  1
  P  P8  1  0.684789  0.066790  0.716469  1
  P  P9  1  0.184789  0.433210  0.283531  1
  P  P10  1  0.815211  0.566790  0.716469  1
  P  P11  1  0.815211  0.933210  0.216469  1
  P  P12  1  0.684789  0.433210  0.216469  1
  P  P13  1  0.315211  0.566790  0.783531  1
  P  P14  1  0.184789  0.066790  0.783531  1
  P  P15  1  0.315211  0.933210  0.283531  1
  Cl  Cl16  1  0.229020  0.170422  0.023570  1
  Cl  Cl17  1  0.772974  0.186293  0.743095  1
  Cl  Cl18  1  0.880084  0.970099  0.338978  1
  Cl  Cl19  1  0.399592  0.047927  0.541984  1
  Cl  Cl20  1  0.781292  0.954773  0.684967  1
  Cl  Cl21  1  0.770980  0.670422  0.476430  1
  Cl  Cl22  1  0.100408  0.547927  0.541984  1
  Cl  Cl23  1  0.119916  0.470099  0.161022  1
  Cl  Cl24  1  0.490229  0.720962  0.431592  1
  Cl  Cl25  1  0.509771  0.279038  0.568408  1
  Cl  Cl26  1  0.509659  0.169529  0.353916  1
  Cl  Cl27  1  0.490229  0.779038  0.931592  1
  Cl  Cl28  1  0.772974  0.313707  0.243095  1
  Cl  Cl29  1  0.009771  0.220962  0.431592  1
  Cl  Cl30  1  0.119916  0.029901  0.661022  1
  Cl  Cl31  1  0.270980  0.829578  0.523570  1
  Cl  Cl32  1  0.990341  0.830471  0.853916  1
  Cl  Cl33  1  0.218708  0.045227  0.315033  1
  Cl  Cl34  1  0.009659  0.330471  0.646084  1
  Cl  Cl35  1  0.729020  0.329578  0.976430  1
  Cl  Cl36  1  0.509659  0.330471  0.853916  1
  Cl  Cl37  1  0.600408  0.952073  0.458016  1
  Cl  Cl38  1  0.270980  0.670422  0.023570  1
  Cl  Cl39  1  0.227026  0.813707  0.256905  1
  Cl  Cl40  1  0.281292  0.954773  0.815033  1
  Cl  Cl41  1  0.990229  0.779038  0.568408  1
  Cl  Cl42  1  0.218708  0.454773  0.815033  1
  Cl  Cl43  1  0.229020  0.329578  0.523570  1
  Cl  Cl44  1  0.899592  0.047927  0.958016  1
  Cl  Cl45  1  0.227026  0.686293  0.756905  1
  Cl  Cl46  1  0.100408  0.952073  0.041984  1
  Cl  Cl47  1  0.770980  0.829578  0.976430  1
  Cl  Cl48  1  0.718708  0.454773  0.684967  1
  Cl  Cl49  1  0.781292  0.545227  0.184967  1
  Cl  Cl50  1  0.380084  0.529901  0.661022  1
  Cl  Cl51  1  0.490341  0.669529  0.146084  1
  Cl  Cl52  1  0.718708  0.045227  0.184967  1
  Cl  Cl53  1  0.880084  0.529901  0.838978  1
  Cl  Cl54  1  0.281292  0.545227  0.315033  1
  Cl  Cl55  1  0.729020  0.170422  0.476430  1
  Cl  Cl56  1  0.619916  0.470099  0.338978  1
  Cl  Cl57  1  0.990341  0.669529  0.353916  1
  Cl  Cl58  1  0.600408  0.547927  0.958016  1
  Cl  Cl59  1  0.380084  0.970099  0.161022  1
  Cl  Cl60  1  0.490341  0.830471  0.646084  1
  Cl  Cl61  1  0.009659  0.169529  0.146084  1
  Cl  Cl62  1  0.009771  0.279038  0.931592  1
  Cl  Cl63  1  0.727026  0.686293  0.743095  1
  Cl  Cl64  1  0.509771  0.220962  0.068408  1
  Cl  Cl65  1  0.990229  0.720962  0.068408  1
  Cl  Cl66  1  0.272974  0.313707  0.256905  1
  Cl  Cl67  1  0.899592  0.452073  0.458016  1
  Cl  Cl68  1  0.272974  0.186293  0.756905  1
  Cl  Cl69  1  0.727026  0.813707  0.243095  1
  Cl  Cl70  1  0.399592  0.452073  0.041984  1
  Cl  Cl71  1  0.619916  0.029901  0.838978  1
  O  O72  1  0.893819  0.915313  0.141919  1
  O  O73  1  0.606181  0.084687  0.641919  1
  O  O74  1  0.106181  0.084687  0.858081  1
  O  O75  1  0.893819  0.584687  0.641919  1
  O  O76  1  0.606181  0.415313  0.141919  1
  O  O77  1  0.393819  0.584687  0.858081  1
  O  O78  1  0.106181  0.415313  0.358081  1
  O  O79  1  0.393819  0.915313  0.358081  1
