# generated using pymatgen
data_Co(RhO2)2
_symmetry_space_group_name_H-M   'P 1'
_cell_length_a   6.10407125
_cell_length_b   6.10407125
_cell_length_c   6.10407125
_cell_angle_alpha   60.00000000
_cell_angle_beta   60.00000000
_cell_angle_gamma   60.00000000
_symmetry_Int_Tables_number   1
_chemical_formula_structural   Co(RhO2)2
_chemical_formula_sum   'Co2 Rh4 O8'
_cell_volume   160.82138059
_cell_formula_units_Z   2
loop_
 _symmetry_equiv_pos_site_id
 _symmetry_equiv_pos_as_xyz
  1  'x, y, z'
loop_
 _atom_site_type_symbol
 _atom_site_label
 _atom_site_symmetry_multiplicity
 _atom_site_fract_x
 _atom_site_fract_y
 _atom_site_fract_z
 _atom_site_occupancy
  Co  Co0  1  0.500000  0.500000  0.500000  1
  Co  Co1  1  0.750000  0.750000  0.750000  1
  Rh  Rh2  1  0.125000  0.125000  0.125000  1
  Rh  Rh3  1  0.625000  0.125000  0.125000  1
  Rh  Rh4  1  0.125000  0.625000  0.125000  1
  Rh  Rh5  1  0.125000  0.125000  0.625000  1
  O  O6  1  0.884793  0.345622  0.884793  1
  O  O7  1  0.345622  0.884793  0.884793  1
  O  O8  1  0.884793  0.884793  0.884793  1
  O  O9  1  0.365207  0.365207  0.365207  1
  O  O10  1  0.365207  0.904378  0.365207  1
  O  O11  1  0.884793  0.884793  0.345622  1
  O  O12  1  0.904378  0.365207  0.365207  1
  O  O13  1  0.365207  0.365207  0.904378  1
