# generated using pymatgen
data_SiO2
_symmetry_space_group_name_H-M   'P 1'
_cell_length_a   5.08375300
_cell_length_b   8.46679600
_cell_length_c   26.90803700
_cell_angle_alpha   90.00000000
_cell_angle_beta   90.00000000
_cell_angle_gamma   90.00000000
_symmetry_Int_Tables_number   1
_chemical_formula_structural   SiO2
_chemical_formula_sum   'Si24 O48'
_cell_volume   1158.20531570
_cell_formula_units_Z   24
loop_
 _symmetry_equiv_pos_site_id
 _symmetry_equiv_pos_as_xyz
  1  'x, y, z'
loop_
 _atom_site_type_symbol
 _atom_site_label
 _atom_site_symmetry_multiplicity
 _atom_site_fract_x
 _atom_site_fract_y
 _atom_site_fract_z
 _atom_site_occupancy
  Si  Si0  1  0.613458  0.677074  0.138842  1
  Si  Si1  1  0.113458  0.822926  0.861158  1
  Si  Si2  1  0.386542  0.177074  0.361158  1
  Si  Si3  1  0.886542  0.322926  0.638842  1
  Si  Si4  1  0.497271  0.302310  0.138716  1
  Si  Si5  1  0.997271  0.197690  0.861284  1
  Si  Si6  1  0.502729  0.802310  0.361284  1
  Si  Si7  1  0.002729  0.697690  0.638716  1
  Si  Si8  1  0.616631  0.810796  0.027875  1
  Si  Si9  1  0.116631  0.689204  0.972125  1
  Si  Si10  1  0.383369  0.310796  0.472125  1
  Si  Si11  1  0.883369  0.189204  0.527875  1
  Si  Si12  1  0.500534  0.186048  0.027868  1
  Si  Si13  1  0.000534  0.313952  0.972132  1
  Si  Si14  1  0.499466  0.686048  0.472132  1
  Si  Si15  1  0.999466  0.813952  0.527868  1
  Si  Si16  1  0.114259  0.799430  0.194672  1
  Si  Si17  1  0.614259  0.700570  0.805328  1
  Si  Si18  1  0.885741  0.299430  0.305328  1
  Si  Si19  1  0.385741  0.200570  0.694672  1
  Si  Si20  1  0.996466  0.173861  0.194257  1
  Si  Si21  1  0.496466  0.326139  0.805743  1
  Si  Si22  1  0.003534  0.673861  0.305743  1
  Si  Si23  1  0.503534  0.826139  0.694257  1
  O  O24  1  0.065459  0.987785  0.194902  1
  O  O25  1  0.565459  0.512215  0.805098  1
  O  O26  1  0.934541  0.487785  0.305098  1
  O  O27  1  0.434541  0.012215  0.694902  1
  O  O28  1  0.567028  0.488376  0.139672  1
  O  O29  1  0.067028  0.011624  0.860328  1
  O  O30  1  0.432972  0.988376  0.360328  1
  O  O31  1  0.932972  0.511624  0.639672  1
  O  O32  1  0.572829  0.000034  0.028526  1
  O  O33  1  0.072829  0.499966  0.971474  1
  O  O34  1  0.427171  0.500034  0.471474  1
  O  O35  1  0.927171  0.999966  0.528526  1
  O  O36  1  0.564156  0.741412  0.083014  1
  O  O37  1  0.064156  0.758588  0.916986  1
  O  O38  1  0.435844  0.241412  0.416986  1
  O  O39  1  0.935844  0.258588  0.583014  1
  O  O40  1  0.416143  0.245892  0.083040  1
  O  O41  1  0.916143  0.254108  0.916960  1
  O  O42  1  0.583857  0.745892  0.416960  1
  O  O43  1  0.083857  0.754108  0.583040  1
  O  O44  1  0.918956  0.231488  0.249569  1
  O  O45  1  0.418956  0.268512  0.750431  1
  O  O46  1  0.081044  0.731488  0.250431  1
  O  O47  1  0.581044  0.768512  0.749569  1
  O  O48  1  0.414170  0.765709  0.176853  1
  O  O49  1  0.914170  0.734291  0.823147  1
  O  O50  1  0.585830  0.265709  0.323147  1
  O  O51  1  0.085830  0.234291  0.676853  1
  O  O52  1  0.250452  0.274186  0.175883  1
  O  O53  1  0.750452  0.225814  0.824117  1
  O  O54  1  0.749548  0.774186  0.324117  1
  O  O55  1  0.249548  0.725814  0.675883  1
  O  O56  1  0.913610  0.712673  0.156357  1
  O  O57  1  0.413610  0.787327  0.843643  1
  O  O58  1  0.086390  0.212673  0.343643  1
  O  O59  1  0.586390  0.287327  0.656357  1
  O  O60  1  0.750940  0.200436  0.156560  1
  O  O61  1  0.250940  0.299564  0.843440  1
  O  O62  1  0.249060  0.700436  0.343440  1
  O  O63  1  0.749060  0.799564  0.656560  1
  O  O64  1  0.417815  0.726586  0.988646  1
  O  O65  1  0.917815  0.773414  0.011354  1
  O  O66  1  0.582185  0.226586  0.511354  1
  O  O67  1  0.082185  0.273414  0.488646  1
  O  O68  1  0.253458  0.212007  0.990470  1
  O  O69  1  0.753458  0.287993  0.009530  1
  O  O70  1  0.746542  0.712007  0.509530  1
  O  O71  1  0.246542  0.787993  0.490470  1
