# generated using pymatgen
data_BaTb2Mn2O7
_symmetry_space_group_name_H-M   'P 1'
_cell_length_a   10.35677799
_cell_length_b   10.35677799
_cell_length_c   5.60331770
_cell_angle_alpha   89.99828877
_cell_angle_beta   90.00171123
_cell_angle_gamma   31.76858614
_symmetry_Int_Tables_number   1
_chemical_formula_structural   BaTb2Mn2O7
_chemical_formula_sum   'Ba2 Tb4 Mn4 O14'
_cell_volume   316.43498405
_cell_formula_units_Z   2
loop_
 _symmetry_equiv_pos_site_id
 _symmetry_equiv_pos_as_xyz
  1  'x, y, z'
loop_
 _atom_site_type_symbol
 _atom_site_label
 _atom_site_symmetry_multiplicity
 _atom_site_fract_x
 _atom_site_fract_y
 _atom_site_fract_z
 _atom_site_occupancy
  Ba  Ba0  1  0.258771  0.741229  0.745899  1
  Ba  Ba1  1  0.741229  0.258771  0.254101  1
  Tb  Tb2  1  0.460545  0.905941  0.726908  1
  Tb  Tb3  1  0.539455  0.094059  0.273092  1
  Tb  Tb4  1  0.905941  0.460545  0.273092  1
  Tb  Tb5  1  0.094059  0.539455  0.726908  1
  Mn  Mn6  1  0.650808  0.140913  0.755347  1
  Mn  Mn7  1  0.140913  0.650808  0.244653  1
  Mn  Mn8  1  0.349192  0.859087  0.244653  1
  Mn  Mn9  1  0.859087  0.349192  0.755347  1
  O  O10  1  0.118250  0.118250  0.500000  1
  O  O11  1  0.400004  0.400004  0.500000  1
  O  O12  1  0.885561  0.535424  0.716491  1
  O  O13  1  0.114439  0.464576  0.283509  1
  O  O14  1  0.127546  0.127546  0.000000  1
  O  O15  1  0.872454  0.872454  0.000000  1
  O  O16  1  0.599996  0.599996  0.500000  1
  O  O17  1  0.535424  0.885561  0.283509  1
  O  O18  1  0.780025  0.219975  0.764427  1
  O  O19  1  0.464576  0.114439  0.716491  1
  O  O20  1  0.391464  0.391464  0.000000  1
  O  O21  1  0.608536  0.608536  0.000000  1
  O  O22  1  0.219975  0.780025  0.235573  1
  O  O23  1  0.881750  0.881750  0.500000  1
