# generated using pymatgen
data_BaLi(B3O5)3
_symmetry_space_group_name_H-M   'P 1'
_cell_length_a   8.63070762
_cell_length_b   8.63070762
_cell_length_c   8.63070762
_cell_angle_alpha   80.72285505
_cell_angle_beta   80.72285505
_cell_angle_gamma   80.72285505
_symmetry_Int_Tables_number   1
_chemical_formula_structural   BaLi(B3O5)3
_chemical_formula_sum   'Ba2 Li2 B18 O30'
_cell_volume   620.12199027
_cell_formula_units_Z   2
loop_
 _symmetry_equiv_pos_site_id
 _symmetry_equiv_pos_as_xyz
  1  'x, y, z'
loop_
 _atom_site_type_symbol
 _atom_site_label
 _atom_site_symmetry_multiplicity
 _atom_site_fract_x
 _atom_site_fract_y
 _atom_site_fract_z
 _atom_site_occupancy
  Ba  Ba0  1  0.500000  0.500000  0.500000  1
  Ba  Ba1  1  0.000000  0.000000  0.000000  1
  Li  Li2  1  0.750000  0.750000  0.750000  1
  Li  Li3  1  0.250000  0.250000  0.250000  1
  B  B4  1  0.319637  0.180363  0.750000  1
  B  B5  1  0.255607  0.393236  0.919254  1
  B  B6  1  0.680363  0.819637  0.250000  1
  B  B7  1  0.393236  0.919254  0.255607  1
  B  B8  1  0.080746  0.744393  0.606764  1
  B  B9  1  0.893236  0.755607  0.419254  1
  B  B10  1  0.250000  0.680363  0.819637  1
  B  B11  1  0.580746  0.106764  0.244393  1
  B  B12  1  0.106764  0.244393  0.580746  1
  B  B13  1  0.244393  0.580746  0.106764  1
  B  B14  1  0.180363  0.750000  0.319637  1
  B  B15  1  0.919254  0.255607  0.393236  1
  B  B16  1  0.819637  0.250000  0.680363  1
  B  B17  1  0.419254  0.893236  0.755607  1
  B  B18  1  0.606764  0.080746  0.744393  1
  B  B19  1  0.744393  0.606764  0.080746  1
  B  B20  1  0.750000  0.319637  0.180363  1
  B  B21  1  0.755607  0.419254  0.893236  1
  O  O22  1  0.723472  0.487903  0.203484  1
  O  O23  1  0.256613  0.257854  0.601792  1
  O  O24  1  0.242146  0.243387  0.898208  1
  O  O25  1  0.257854  0.601792  0.256613  1
  O  O26  1  0.223472  0.703484  0.987903  1
  O  O27  1  0.923608  0.750000  0.576392  1
  O  O28  1  0.076392  0.250000  0.423608  1
  O  O29  1  0.601792  0.256613  0.257854  1
  O  O30  1  0.703484  0.987903  0.223472  1
  O  O31  1  0.101792  0.757854  0.756613  1
  O  O32  1  0.756613  0.101792  0.757854  1
  O  O33  1  0.398208  0.743387  0.742146  1
  O  O34  1  0.750000  0.576392  0.923608  1
  O  O35  1  0.576392  0.923608  0.750000  1
  O  O36  1  0.796516  0.276528  0.512097  1
  O  O37  1  0.898208  0.242146  0.243387  1
  O  O38  1  0.296516  0.012097  0.776528  1
  O  O39  1  0.203484  0.723472  0.487903  1
  O  O40  1  0.742146  0.398208  0.743387  1
  O  O41  1  0.487903  0.203484  0.723472  1
  O  O42  1  0.423608  0.076392  0.250000  1
  O  O43  1  0.987903  0.223472  0.703484  1
  O  O44  1  0.012097  0.776528  0.296516  1
  O  O45  1  0.276528  0.512097  0.796516  1
  O  O46  1  0.250000  0.423608  0.076392  1
  O  O47  1  0.743387  0.742146  0.398208  1
  O  O48  1  0.243387  0.898208  0.242146  1
  O  O49  1  0.512097  0.796516  0.276528  1
  O  O50  1  0.757854  0.756613  0.101792  1
  O  O51  1  0.776528  0.296516  0.012097  1
