# generated using pymatgen
data_NaAs4BrO6
_symmetry_space_group_name_H-M   'P 1'
_cell_length_a   5.32698555
_cell_length_b   8.21356853
_cell_length_c   19.58551807
_cell_angle_alpha   90.00000000
_cell_angle_beta   90.00000000
_cell_angle_gamma   90.00000000
_symmetry_Int_Tables_number   1
_chemical_formula_structural   NaAs4BrO6
_chemical_formula_sum   'Na4 As16 Br4 O24'
_cell_volume   856.93615711
_cell_formula_units_Z   4
loop_
 _symmetry_equiv_pos_site_id
 _symmetry_equiv_pos_as_xyz
  1  'x, y, z'
loop_
 _atom_site_type_symbol
 _atom_site_label
 _atom_site_symmetry_multiplicity
 _atom_site_fract_x
 _atom_site_fract_y
 _atom_site_fract_z
 _atom_site_occupancy
  Na  Na0  1  0.750000  0.398885  0.556595  1
  Na  Na1  1  0.250000  0.898885  0.943405  1
  Na  Na2  1  0.750000  0.101115  0.056595  1
  Na  Na3  1  0.250000  0.601115  0.443405  1
  As  As4  1  0.750000  0.408076  0.177770  1
  As  As5  1  0.250000  0.663095  0.614555  1
  As  As6  1  0.750000  0.091924  0.677770  1
  As  As7  1  0.250000  0.836905  0.114555  1
  As  As8  1  0.250000  0.908076  0.322230  1
  As  As9  1  0.750000  0.709849  0.334013  1
  As  As10  1  0.250000  0.154389  0.451571  1
  As  As11  1  0.750000  0.790151  0.834013  1
  As  As12  1  0.750000  0.163095  0.885445  1
  As  As13  1  0.250000  0.591924  0.822230  1
  As  As14  1  0.750000  0.336905  0.385445  1
  As  As15  1  0.250000  0.290151  0.665987  1
  As  As16  1  0.250000  0.345611  0.951571  1
  As  As17  1  0.750000  0.654389  0.048429  1
  As  As18  1  0.250000  0.209849  0.165987  1
  As  As19  1  0.750000  0.845611  0.548429  1
  Br  Br20  1  0.750000  0.004078  0.217664  1
  Br  Br21  1  0.250000  0.995922  0.782336  1
  Br  Br22  1  0.250000  0.504078  0.282336  1
  Br  Br23  1  0.750000  0.495922  0.717664  1
  O  O24  1  0.998183  0.306914  0.450977  1
  O  O25  1  0.502076  0.176717  0.621915  1
  O  O26  1  0.498183  0.693086  0.549023  1
  O  O27  1  0.997924  0.176717  0.621915  1
  O  O28  1  0.750000  0.610687  0.139104  1
  O  O29  1  0.502076  0.323283  0.121915  1
  O  O30  1  0.250000  0.389313  0.860896  1
  O  O31  1  0.501817  0.306914  0.450977  1
  O  O32  1  0.750000  0.554246  0.403658  1
  O  O33  1  0.497924  0.823283  0.378085  1
  O  O34  1  0.002076  0.823283  0.378085  1
  O  O35  1  0.497924  0.676717  0.878085  1
  O  O36  1  0.750000  0.945754  0.903658  1
  O  O37  1  0.250000  0.110687  0.360896  1
  O  O38  1  0.250000  0.445754  0.596342  1
  O  O39  1  0.250000  0.054246  0.096342  1
  O  O40  1  0.001817  0.806914  0.049023  1
  O  O41  1  0.002076  0.676717  0.878085  1
  O  O42  1  0.001817  0.693086  0.549023  1
  O  O43  1  0.498183  0.806914  0.049023  1
  O  O44  1  0.501817  0.193086  0.950977  1
  O  O45  1  0.750000  0.889313  0.639104  1
  O  O46  1  0.998183  0.193086  0.950977  1
  O  O47  1  0.997924  0.323283  0.121915  1
