# generated using pymatgen
data_Li10Pb3
_symmetry_space_group_name_H-M   'P 1'
_cell_length_a   10.11005482
_cell_length_b   10.11005482
_cell_length_c   10.11005482
_cell_angle_alpha   90.00000000
_cell_angle_beta   90.00000000
_cell_angle_gamma   90.00000000
_symmetry_Int_Tables_number   1
_chemical_formula_structural   Li10Pb3
_chemical_formula_sum   'Li40 Pb12'
_cell_volume   1033.38114089
_cell_formula_units_Z   4
loop_
 _symmetry_equiv_pos_site_id
 _symmetry_equiv_pos_as_xyz
  1  'x, y, z'
loop_
 _atom_site_type_symbol
 _atom_site_label
 _atom_site_symmetry_multiplicity
 _atom_site_fract_x
 _atom_site_fract_y
 _atom_site_fract_z
 _atom_site_occupancy
  Li  Li0  1  0.111465  0.111465  0.111465  1
  Li  Li1  1  0.888535  0.111465  0.888535  1
  Li  Li2  1  0.888535  0.888535  0.111465  1
  Li  Li3  1  0.111465  0.888535  0.888535  1
  Li  Li4  1  0.605351  0.605351  0.605351  1
  Li  Li5  1  0.394649  0.605351  0.394649  1
  Li  Li6  1  0.394649  0.394649  0.605351  1
  Li  Li7  1  0.605351  0.394649  0.394649  1
  Li  Li8  1  0.818634  0.818634  0.818634  1
  Li  Li9  1  0.181366  0.818634  0.181366  1
  Li  Li10  1  0.181366  0.181366  0.818634  1
  Li  Li11  1  0.818634  0.181366  0.181366  1
  Li  Li12  1  0.318026  0.318026  0.318026  1
  Li  Li13  1  0.681974  0.318026  0.681974  1
  Li  Li14  1  0.681974  0.681974  0.318026  1
  Li  Li15  1  0.318026  0.681974  0.681974  1
  Li  Li16  1  0.349081  0.000000  0.000000  1
  Li  Li17  1  0.650919  0.000000  0.000000  1
  Li  Li18  1  0.000000  0.000000  0.349081  1
  Li  Li19  1  0.000000  0.000000  0.650919  1
  Li  Li20  1  0.000000  0.650919  0.000000  1
  Li  Li21  1  0.000000  0.349081  0.000000  1
  Li  Li22  1  0.858899  0.500000  0.500000  1
  Li  Li23  1  0.141101  0.500000  0.500000  1
  Li  Li24  1  0.500000  0.500000  0.858899  1
  Li  Li25  1  0.500000  0.500000  0.141101  1
  Li  Li26  1  0.500000  0.141101  0.500000  1
  Li  Li27  1  0.500000  0.858899  0.500000  1
  Li  Li28  1  0.810416  0.810416  0.531229  1
  Li  Li29  1  0.189584  0.531229  0.189584  1
  Li  Li30  1  0.189584  0.468771  0.810416  1
  Li  Li31  1  0.468771  0.189584  0.810416  1
  Li  Li32  1  0.531229  0.189584  0.189584  1
  Li  Li33  1  0.810416  0.189584  0.468771  1
  Li  Li34  1  0.189584  0.810416  0.468771  1
  Li  Li35  1  0.531229  0.810416  0.810416  1
  Li  Li36  1  0.810416  0.531229  0.810416  1
  Li  Li37  1  0.468771  0.810416  0.189584  1
  Li  Li38  1  0.810416  0.468771  0.189584  1
  Li  Li39  1  0.189584  0.189584  0.531229  1
  Pb  Pb40  1  0.313409  0.313409  0.032999  1
  Pb  Pb41  1  0.686591  0.032999  0.686591  1
  Pb  Pb42  1  0.686591  0.967001  0.313409  1
  Pb  Pb43  1  0.967001  0.686591  0.313409  1
  Pb  Pb44  1  0.032999  0.686591  0.686591  1
  Pb  Pb45  1  0.313409  0.686591  0.967001  1
  Pb  Pb46  1  0.686591  0.313409  0.967001  1
  Pb  Pb47  1  0.032999  0.313409  0.313409  1
  Pb  Pb48  1  0.313409  0.032999  0.313409  1
  Pb  Pb49  1  0.967001  0.313409  0.686591  1
  Pb  Pb50  1  0.313409  0.967001  0.686591  1
  Pb  Pb51  1  0.686591  0.686591  0.032999  1
