# generated using pymatgen
data_Li2Mn2NiO6
_symmetry_space_group_name_H-M   'P 1'
_cell_length_a   5.05928892
_cell_length_b   5.05928892
_cell_length_c   10.26145161
_cell_angle_alpha   90.00000000
_cell_angle_beta   90.00000000
_cell_angle_gamma   120.06488319
_symmetry_Int_Tables_number   1
_chemical_formula_structural   Li2Mn2NiO6
_chemical_formula_sum   'Li4 Mn4 Ni2 O12'
_cell_volume   227.31813285
_cell_formula_units_Z   2
loop_
 _symmetry_equiv_pos_site_id
 _symmetry_equiv_pos_as_xyz
  1  'x, y, z'
loop_
 _atom_site_type_symbol
 _atom_site_label
 _atom_site_symmetry_multiplicity
 _atom_site_fract_x
 _atom_site_fract_y
 _atom_site_fract_z
 _atom_site_occupancy
  Li  Li0  1  0.670068  0.170068  0.750000  1
  Li  Li1  1  0.329932  0.829932  0.250000  1
  Li  Li2  1  0.829932  0.329932  0.250000  1
  Li  Li3  1  0.170068  0.670068  0.750000  1
  Mn  Mn4  1  0.836875  0.163125  0.500000  1
  Mn  Mn5  1  0.163125  0.836875  0.500000  1
  Mn  Mn6  1  0.336875  0.663125  0.000000  1
  Mn  Mn7  1  0.663125  0.336875  0.000000  1
  Ni  Ni8  1  0.500000  0.500000  0.500000  1
  Ni  Ni9  1  0.000000  0.000000  0.000000  1
  O  O10  1  0.148612  0.148612  0.599895  1
  O  O11  1  0.648612  0.648612  0.900105  1
  O  O12  1  0.141864  0.502953  0.394937  1
  O  O13  1  0.497047  0.858136  0.605063  1
  O  O14  1  0.002953  0.641864  0.105063  1
  O  O15  1  0.997047  0.358136  0.894937  1
  O  O16  1  0.851388  0.851388  0.400105  1
  O  O17  1  0.351388  0.351388  0.099895  1
  O  O18  1  0.641864  0.002953  0.105063  1
  O  O19  1  0.358136  0.997047  0.894937  1
  O  O20  1  0.858136  0.497047  0.605063  1
  O  O21  1  0.502953  0.141864  0.394937  1
