# generated using pymatgen
data_KCu3S2ClO9
_symmetry_space_group_name_H-M   'P 1'
_cell_length_a   7.21750174
_cell_length_b   9.80940057
_cell_length_c   13.03598799
_cell_angle_alpha   90.00000000
_cell_angle_beta   90.00000000
_cell_angle_gamma   90.00000000
_symmetry_Int_Tables_number   1
_chemical_formula_structural   KCu3S2ClO9
_chemical_formula_sum   'K4 Cu12 S8 Cl4 O36'
_cell_volume   922.93968073
_cell_formula_units_Z   4
loop_
 _symmetry_equiv_pos_site_id
 _symmetry_equiv_pos_as_xyz
  1  'x, y, z'
loop_
 _atom_site_type_symbol
 _atom_site_label
 _atom_site_symmetry_multiplicity
 _atom_site_fract_x
 _atom_site_fract_y
 _atom_site_fract_z
 _atom_site_occupancy
  K  K0  1  0.345253  0.864376  0.424690  1
  K  K1  1  0.845253  0.635624  0.924690  1
  K  K2  1  0.345253  0.364376  0.075310  1
  K  K3  1  0.845253  0.135624  0.575310  1
  Cu  Cu4  1  0.333535  0.346885  0.648095  1
  Cu  Cu5  1  0.835719  0.721067  0.594244  1
  Cu  Cu6  1  0.833535  0.653115  0.351905  1
  Cu  Cu7  1  0.082860  0.501134  0.500243  1
  Cu  Cu8  1  0.335719  0.778933  0.094244  1
  Cu  Cu9  1  0.582860  0.998866  0.000243  1
  Cu  Cu10  1  0.833535  0.153115  0.148095  1
  Cu  Cu11  1  0.082860  0.001134  0.999757  1
  Cu  Cu12  1  0.582860  0.498866  0.499757  1
  Cu  Cu13  1  0.835719  0.221067  0.905756  1
  Cu  Cu14  1  0.335719  0.278933  0.405756  1
  Cu  Cu15  1  0.333535  0.846885  0.851905  1
  S  S16  1  0.833513  0.834247  0.145022  1
  S  S17  1  0.837271  0.428886  0.709413  1
  S  S18  1  0.837271  0.928886  0.790587  1
  S  S19  1  0.337271  0.571114  0.290587  1
  S  S20  1  0.333513  0.665753  0.645022  1
  S  S21  1  0.833513  0.334247  0.354978  1
  S  S22  1  0.337271  0.071114  0.209413  1
  S  S23  1  0.333513  0.165753  0.854978  1
  Cl  Cl24  1  0.338698  0.141300  0.557271  1
  Cl  Cl25  1  0.838698  0.358700  0.057271  1
  Cl  Cl26  1  0.838698  0.858700  0.442729  1
  Cl  Cl27  1  0.338698  0.641300  0.942729  1
  O  O28  1  0.503001  0.168312  0.924065  1
  O  O29  1  0.340186  0.113125  0.320745  1
  O  O30  1  0.003001  0.831688  0.075935  1
  O  O31  1  0.840186  0.386875  0.820745  1
  O  O32  1  0.832287  0.077053  0.009097  1
  O  O33  1  0.503001  0.668312  0.575935  1
  O  O34  1  0.500734  0.627423  0.345757  1
  O  O35  1  0.000734  0.372577  0.654243  1
  O  O36  1  0.667607  0.878771  0.842291  1
  O  O37  1  0.340186  0.613125  0.179255  1
  O  O38  1  0.329649  0.543176  0.709619  1
  O  O39  1  0.843493  0.081929  0.786500  1
  O  O40  1  0.829649  0.456824  0.290381  1
  O  O41  1  0.166767  0.672176  0.574507  1
  O  O42  1  0.167607  0.621229  0.342291  1
  O  O43  1  0.336927  0.792252  0.705677  1
  O  O44  1  0.343493  0.418071  0.286500  1
  O  O45  1  0.832287  0.577053  0.490903  1
  O  O46  1  0.836927  0.207748  0.294323  1
  O  O47  1  0.166767  0.172176  0.925493  1
  O  O48  1  0.329649  0.043176  0.790381  1
  O  O49  1  0.840186  0.886875  0.679255  1
  O  O50  1  0.332286  0.922947  0.990903  1
  O  O51  1  0.666767  0.827824  0.074507  1
  O  O52  1  0.003001  0.331688  0.424065  1
  O  O53  1  0.336927  0.292252  0.794323  1
  O  O54  1  0.343493  0.918071  0.213500  1
  O  O55  1  0.843493  0.581929  0.713500  1
  O  O56  1  0.667607  0.378771  0.657709  1
  O  O57  1  0.000734  0.872577  0.845757  1
  O  O58  1  0.836927  0.707748  0.205677  1
  O  O59  1  0.332286  0.422947  0.509097  1
  O  O60  1  0.167607  0.121229  0.157709  1
  O  O61  1  0.500734  0.127423  0.154243  1
  O  O62  1  0.829649  0.956824  0.209619  1
  O  O63  1  0.666767  0.327824  0.425493  1
