# generated using pymatgen
data_Pr3Pt4
_symmetry_space_group_name_H-M   'P 1'
_cell_length_a   8.22135955
_cell_length_b   8.22135955
_cell_length_c   8.22135955
_cell_angle_alpha   114.57465735
_cell_angle_beta   114.57465735
_cell_angle_gamma   114.57465735
_symmetry_Int_Tables_number   1
_chemical_formula_structural   Pr3Pt4
_chemical_formula_sum   'Pr6 Pt8'
_cell_volume   322.71951042
_cell_formula_units_Z   2
loop_
 _symmetry_equiv_pos_site_id
 _symmetry_equiv_pos_as_xyz
  1  'x, y, z'
loop_
 _atom_site_type_symbol
 _atom_site_label
 _atom_site_symmetry_multiplicity
 _atom_site_fract_x
 _atom_site_fract_y
 _atom_site_fract_z
 _atom_site_occupancy
  Pr  Pr0  1  0.718956  0.970846  0.593864  1
  Pr  Pr1  1  0.970846  0.593864  0.718956  1
  Pr  Pr2  1  0.029154  0.406136  0.281044  1
  Pr  Pr3  1  0.281044  0.029154  0.406136  1
  Pr  Pr4  1  0.593864  0.718956  0.970846  1
  Pr  Pr5  1  0.406136  0.281044  0.029154  1
  Pt  Pt6  1  0.057316  0.221435  0.552930  1
  Pt  Pt7  1  0.552930  0.057316  0.221435  1
  Pt  Pt8  1  0.221435  0.552930  0.057316  1
  Pt  Pt9  1  0.500000  0.500000  0.500000  1
  Pt  Pt10  1  0.778565  0.447070  0.942684  1
  Pt  Pt11  1  0.942684  0.778565  0.447070  1
  Pt  Pt12  1  0.447070  0.942684  0.778565  1
  Pt  Pt13  1  0.000000  0.000000  0.000000  1
