# generated using pymatgen
data_NdGeBO5
_symmetry_space_group_name_H-M   'P 1'
_cell_length_a   5.01000454
_cell_length_b   7.68111000
_cell_length_c   10.14340618
_cell_angle_alpha   90.00000000
_cell_angle_beta   91.94074831
_cell_angle_gamma   90.00000000
_symmetry_Int_Tables_number   1
_chemical_formula_structural   NdGeBO5
_chemical_formula_sum   'Nd4 Ge4 B4 O20'
_cell_volume   390.11866632
_cell_formula_units_Z   4
loop_
 _symmetry_equiv_pos_site_id
 _symmetry_equiv_pos_as_xyz
  1  'x, y, z'
loop_
 _atom_site_type_symbol
 _atom_site_label
 _atom_site_symmetry_multiplicity
 _atom_site_fract_x
 _atom_site_fract_y
 _atom_site_fract_z
 _atom_site_occupancy
  Nd  Nd0  1  0.006737  0.108014  0.179342  1
  Nd  Nd1  1  0.993263  0.608014  0.320658  1
  Nd  Nd2  1  0.993263  0.891986  0.820658  1
  Nd  Nd3  1  0.006737  0.391986  0.679342  1
  Ge  Ge4  1  0.471140  0.765489  0.075850  1
  Ge  Ge5  1  0.528860  0.265489  0.424150  1
  Ge  Ge6  1  0.528860  0.234511  0.924150  1
  Ge  Ge7  1  0.471140  0.734511  0.575850  1
  B  B8  1  0.455034  0.096174  0.669281  1
  B  B9  1  0.544966  0.596174  0.830719  1
  B  B10  1  0.544966  0.903826  0.330719  1
  B  B11  1  0.455034  0.403826  0.169281  1
  O  O12  1  0.733799  0.103184  0.689510  1
  O  O13  1  0.266201  0.603184  0.810490  1
  O  O14  1  0.266201  0.896816  0.310490  1
  O  O15  1  0.733799  0.396816  0.189510  1
  O  O16  1  0.338852  0.214354  0.564026  1
  O  O17  1  0.661148  0.714354  0.935974  1
  O  O18  1  0.661148  0.785646  0.435974  1
  O  O19  1  0.338852  0.285646  0.064026  1
  O  O20  1  0.297503  0.160027  0.795625  1
  O  O21  1  0.702497  0.660027  0.704375  1
  O  O22  1  0.702497  0.839973  0.204375  1
  O  O23  1  0.297503  0.339973  0.295625  1
  O  O24  1  0.777823  0.089046  0.972408  1
  O  O25  1  0.222177  0.589046  0.527592  1
  O  O26  1  0.222177  0.910954  0.027592  1
  O  O27  1  0.777823  0.410954  0.472408  1
  O  O28  1  0.671127  0.078958  0.349956  1
  O  O29  1  0.328873  0.578958  0.150044  1
  O  O30  1  0.328873  0.921042  0.650044  1
  O  O31  1  0.671127  0.421042  0.849956  1
