# generated using pymatgen
data_La6Mo8O33
_symmetry_space_group_name_H-M   'P 1'
_cell_length_a   10.87511131
_cell_length_b   12.15245385
_cell_length_c   11.95181410
_cell_angle_alpha   90.00000000
_cell_angle_beta   116.04271215
_cell_angle_gamma   90.00000000
_symmetry_Int_Tables_number   1
_chemical_formula_structural   La6Mo8O33
_chemical_formula_sum   'La12 Mo16 O66'
_cell_volume   1419.16748845
_cell_formula_units_Z   2
loop_
 _symmetry_equiv_pos_site_id
 _symmetry_equiv_pos_as_xyz
  1  'x, y, z'
loop_
 _atom_site_type_symbol
 _atom_site_label
 _atom_site_symmetry_multiplicity
 _atom_site_fract_x
 _atom_site_fract_y
 _atom_site_fract_z
 _atom_site_occupancy
  La  La0  1  0.160388  0.999340  0.114878  1
  La  La1  1  0.839612  0.499340  0.885122  1
  La  La2  1  0.432090  0.250873  0.124477  1
  La  La3  1  0.567910  0.750873  0.875523  1
  La  La4  1  0.717529  0.007792  0.109395  1
  La  La5  1  0.282471  0.507792  0.890605  1
  La  La6  1  0.052873  0.500986  0.341817  1
  La  La7  1  0.947127  0.000986  0.658183  1
  La  La8  1  0.323818  0.754870  0.387026  1
  La  La9  1  0.676182  0.254870  0.612974  1
  La  La10  1  0.805201  0.754944  0.365678  1
  La  La11  1  0.194799  0.254944  0.634322  1
  Mo  Mo12  1  0.182404  0.509859  0.127909  1
  Mo  Mo13  1  0.817596  0.009859  0.872091  1
  Mo  Mo14  1  0.434647  0.766483  0.123569  1
  Mo  Mo15  1  0.565353  0.266483  0.876431  1
  Mo  Mo16  1  0.670256  0.512706  0.117785  1
  Mo  Mo17  1  0.329744  0.012706  0.882215  1
  Mo  Mo18  1  0.935908  0.783560  0.125102  1
  Mo  Mo19  1  0.064092  0.283560  0.874898  1
  Mo  Mo20  1  0.072614  0.993476  0.398458  1
  Mo  Mo21  1  0.927386  0.493476  0.601542  1
  Mo  Mo22  1  0.303364  0.246506  0.368579  1
  Mo  Mo23  1  0.696636  0.746506  0.631421  1
  Mo  Mo24  1  0.563882  0.002917  0.364494  1
  Mo  Mo25  1  0.436118  0.502917  0.635506  1
  Mo  Mo26  1  0.824340  0.243730  0.376534  1
  Mo  Mo27  1  0.175660  0.743730  0.623466  1
  O  O28  1  0.220200  0.612876  0.039490  1
  O  O29  1  0.779800  0.112876  0.960510  1
  O  O30  1  0.305885  0.401734  0.159768  1
  O  O31  1  0.694115  0.901734  0.840232  1
  O  O32  1  0.225567  0.576069  0.280244  1
  O  O33  1  0.774433  0.076069  0.719756  1
  O  O34  1  0.004734  0.484434  0.105906  1
  O  O35  1  0.995266  0.984434  0.894094  1
  O  O36  1  0.441194  0.682643  0.996316  1
  O  O37  1  0.558806  0.182643  0.003684  1
  O  O38  1  0.590781  0.848396  0.200267  1
  O  O39  1  0.409219  0.348396  0.799733  1
  O  O40  1  0.426959  0.697098  0.250991  1
  O  O41  1  0.573041  0.197098  0.749009  1
  O  O42  1  0.295057  0.859631  0.056092  1
  O  O43  1  0.704943  0.359631  0.943908  1
  O  O44  1  0.308436  0.080484  0.007590  1
  O  O45  1  0.691564  0.580484  0.992410  1
  O  O46  1  0.820219  0.435456  0.207077  1
  O  O47  1  0.179781  0.935456  0.792923  1
  O  O48  1  0.664489  0.614834  0.222759  1
  O  O49  1  0.335511  0.114834  0.777241  1
  O  O50  1  0.510850  0.433280  0.056546  1
  O  O51  1  0.489150  0.933280  0.943454  1
  O  O52  1  0.073307  0.200781  0.997797  1
  O  O53  1  0.926693  0.700781  0.002203  1
  O  O54  1  0.125282  0.825209  0.206419  1
  O  O55  1  0.874718  0.325209  0.793581  1
  O  O56  1  0.947206  0.688492  0.253818  1
  O  O57  1  0.052794  0.188492  0.746182  1
  O  O58  1  0.745279  0.810438  0.078467  1
  O  O59  1  0.254721  0.310438  0.921533  1
  O  O60  1  0.105164  0.070574  0.288483  1
  O  O61  1  0.894836  0.570574  0.711517  1
  O  O62  1  0.208518  0.896801  0.463827  1
  O  O63  1  0.791482  0.396801  0.536173  1
  O  O64  1  0.066609  0.075094  0.524781  1
  O  O65  1  0.933391  0.575094  0.475219  1
  O  O66  1  0.911017  0.918796  0.308504  1
  O  O67  1  0.088983  0.418796  0.691496  1
  O  O68  1  0.311553  0.162479  0.242037  1
  O  O69  1  0.688447  0.662479  0.757963  1
  O  O70  1  0.458861  0.323353  0.434910  1
  O  O71  1  0.541139  0.823353  0.565090  1
  O  O72  1  0.291747  0.181783  0.499043  1
  O  O73  1  0.708253  0.681783  0.500957  1
  O  O74  1  0.162476  0.339320  0.304516  1
  O  O75  1  0.837524  0.839320  0.695484  1
  O  O76  1  0.572070  0.076751  0.235785  1
  O  O77  1  0.427930  0.576751  0.764215  1
  O  O78  1  0.276068  0.427632  0.552916  1
  O  O79  1  0.723932  0.927632  0.447084  1
  O  O80  1  0.446968  0.601270  0.530968  1
  O  O81  1  0.553032  0.101270  0.469032  1
  O  O82  1  0.406013  0.924565  0.311662  1
  O  O83  1  0.593987  0.424565  0.688338  1
  O  O84  1  0.844285  0.146148  0.274128  1
  O  O85  1  0.155715  0.646148  0.725872  1
  O  O86  1  0.018360  0.828736  0.558526  1
  O  O87  1  0.981640  0.328736  0.441474  1
  O  O88  1  0.184733  0.667342  0.496862  1
  O  O89  1  0.815267  0.167342  0.503138  1
  O  O90  1  0.661518  0.306877  0.291017  1
  O  O91  1  0.338482  0.806877  0.708983  1
  O  O92  1  0.919593  0.942583  0.068221  1
  O  O93  1  0.080407  0.442583  0.931779  1
