# generated using pymatgen
data_AlPH8(CCl2)2
_symmetry_space_group_name_H-M   'P 1'
_cell_length_a   12.79528535
_cell_length_b   11.67634076
_cell_length_c   14.87062786
_cell_angle_alpha   90.00000000
_cell_angle_beta   90.03791380
_cell_angle_gamma   90.00000000
_symmetry_Int_Tables_number   1
_chemical_formula_structural   AlPH8(CCl2)2
_chemical_formula_sum   'Al8 P8 H64 C16 Cl32'
_cell_volume   2221.70272008
_cell_formula_units_Z   8
loop_
 _symmetry_equiv_pos_site_id
 _symmetry_equiv_pos_as_xyz
  1  'x, y, z'
loop_
 _atom_site_type_symbol
 _atom_site_label
 _atom_site_symmetry_multiplicity
 _atom_site_fract_x
 _atom_site_fract_y
 _atom_site_fract_z
 _atom_site_occupancy
  Al  Al0  1  0.033318  0.214548  0.872299  1
  Al  Al1  1  0.533318  0.285452  0.872299  1
  Al  Al2  1  0.082856  0.260697  0.375034  1
  Al  Al3  1  0.582856  0.239303  0.375034  1
  Al  Al4  1  0.966682  0.785452  0.127701  1
  Al  Al5  1  0.917144  0.739303  0.624966  1
  Al  Al6  1  0.466682  0.714548  0.127701  1
  Al  Al7  1  0.417144  0.760697  0.624966  1
  P  P8  1  0.648236  0.639092  0.392067  1
  P  P9  1  0.351764  0.360908  0.607933  1
  P  P10  1  0.342709  0.354796  0.140951  1
  P  P11  1  0.148236  0.860908  0.392067  1
  P  P12  1  0.157291  0.854796  0.859049  1
  P  P13  1  0.657291  0.645204  0.859049  1
  P  P14  1  0.851764  0.139092  0.607933  1
  P  P15  1  0.842709  0.145204  0.140951  1
  H  H16  1  0.295811  0.156591  0.143665  1
  H  H17  1  0.065312  0.677271  0.861424  1
  H  H18  1  0.368143  0.197396  0.703449  1
  H  H19  1  0.952646  0.310970  0.607049  1
  H  H20  1  0.684325  0.839001  0.404866  1
  H  H21  1  0.717958  0.995197  0.122860  1
  H  H22  1  0.565312  0.822729  0.861424  1
  H  H23  1  0.795811  0.343409  0.143665  1
  H  H24  1  0.849417  0.133064  0.234903  1
  H  H25  1  0.926504  0.082580  0.104441  1
  H  H26  1  0.452646  0.189030  0.607049  1
  H  H27  1  0.283291  0.907319  0.970802  1
  H  H28  1  0.434688  0.177271  0.138576  1
  H  H29  1  0.643679  0.803074  0.960680  1
  H  H30  1  0.934688  0.322729  0.138576  1
  H  H31  1  0.356321  0.196926  0.039320  1
  H  H32  1  0.833987  0.642617  0.390766  1
  H  H33  1  0.282042  0.004803  0.877140  1
  H  H34  1  0.666013  0.142617  0.609234  1
  H  H35  1  0.570051  0.572973  0.350338  1
  H  H36  1  0.281705  0.896613  0.283054  1
  H  H37  1  0.650583  0.633064  0.765097  1
  H  H38  1  0.656893  0.133294  0.133507  1
  H  H39  1  0.361928  0.379833  0.514940  1
  H  H40  1  0.716709  0.092681  0.029198  1
  H  H41  1  0.218295  0.396613  0.716946  1
  H  H42  1  0.349417  0.366936  0.234903  1
  H  H43  1  0.143679  0.696926  0.960680  1
  H  H44  1  0.333987  0.857383  0.390766  1
  H  H45  1  0.073496  0.917420  0.895559  1
  H  H46  1  0.204189  0.656591  0.856335  1
  H  H47  1  0.184325  0.660999  0.404866  1
  H  H48  1  0.781705  0.603387  0.283054  1
  H  H49  1  0.315675  0.160999  0.595134  1
  H  H50  1  0.929949  0.072973  0.649662  1
  H  H51  1  0.166013  0.357383  0.609234  1
  H  H52  1  0.856321  0.303074  0.039320  1
  H  H53  1  0.547354  0.810970  0.392951  1
  H  H54  1  0.216709  0.407319  0.029198  1
  H  H55  1  0.070051  0.927027  0.350338  1
  H  H56  1  0.843107  0.633294  0.866493  1
  H  H57  1  0.047354  0.689030  0.392951  1
  H  H58  1  0.715879  0.000586  0.626956  1
  H  H59  1  0.718295  0.103387  0.716946  1
  H  H60  1  0.704189  0.843409  0.856335  1
  H  H61  1  0.631857  0.802604  0.296551  1
  H  H62  1  0.784121  0.500586  0.373044  1
  H  H63  1  0.343107  0.866706  0.866493  1
  H  H64  1  0.284121  0.999414  0.373044  1
  H  H65  1  0.138072  0.879833  0.485060  1
  H  H66  1  0.156893  0.366706  0.133507  1
  H  H67  1  0.868143  0.302604  0.703449  1
  H  H68  1  0.782042  0.495197  0.877140  1
  H  H69  1  0.150583  0.866936  0.765097  1
  H  H70  1  0.815675  0.339001  0.595134  1
  H  H71  1  0.638072  0.620167  0.485060  1
  H  H72  1  0.217958  0.504803  0.122860  1
  H  H73  1  0.861928  0.120167  0.514940  1
  H  H74  1  0.573496  0.582580  0.895559  1
  H  H75  1  0.131857  0.697396  0.296551  1
  H  H76  1  0.215879  0.499414  0.626956  1
  H  H77  1  0.429949  0.427027  0.649662  1
  H  H78  1  0.783291  0.592681  0.970802  1
  H  H79  1  0.426504  0.417420  0.104441  1
  C  C80  1  0.641067  0.793572  0.887298  1
  C  C81  1  0.278590  0.914487  0.897318  1
  C  C82  1  0.721410  0.085513  0.102682  1
  C  C83  1  0.625627  0.787725  0.369208  1
  C  C84  1  0.358933  0.206428  0.112702  1
  C  C85  1  0.374373  0.212275  0.630792  1
  C  C86  1  0.274497  0.908613  0.355987  1
  C  C87  1  0.774497  0.591387  0.355987  1
  C  C88  1  0.141067  0.706428  0.887298  1
  C  C89  1  0.858933  0.293572  0.112702  1
  C  C90  1  0.125627  0.712275  0.369208  1
  C  C91  1  0.778590  0.585513  0.897318  1
  C  C92  1  0.221410  0.414487  0.102682  1
  C  C93  1  0.225503  0.408613  0.644013  1
  C  C94  1  0.874373  0.287725  0.630792  1
  C  C95  1  0.725503  0.091387  0.644013  1
  Cl  Cl96  1  0.921035  0.311090  0.378359  1
  Cl  Cl97  1  0.629630  0.664471  0.129861  1
  Cl  Cl98  1  0.956135  0.601739  0.133899  1
  Cl  Cl99  1  0.385969  0.653842  0.508361  1
  Cl  Cl100  1  0.603704  0.350332  0.993947  1
  Cl  Cl101  1  0.388672  0.637653  0.242065  1
  Cl  Cl102  1  0.890850  0.838700  0.745615  1
  Cl  Cl103  1  0.543865  0.101739  0.866101  1
  Cl  Cl104  1  0.114031  0.153842  0.491639  1
  Cl  Cl105  1  0.888672  0.862347  0.242065  1
  Cl  Cl106  1  0.129630  0.835529  0.129861  1
  Cl  Cl107  1  0.609150  0.338700  0.254385  1
  Cl  Cl108  1  0.315522  0.907421  0.622810  1
  Cl  Cl109  1  0.078965  0.688910  0.621641  1
  Cl  Cl110  1  0.684478  0.092579  0.377190  1
  Cl  Cl111  1  0.390850  0.661300  0.745615  1
  Cl  Cl112  1  0.614031  0.346158  0.491639  1
  Cl  Cl113  1  0.111328  0.137653  0.757935  1
  Cl  Cl114  1  0.870370  0.164471  0.870139  1
  Cl  Cl115  1  0.396296  0.649668  0.006053  1
  Cl  Cl116  1  0.109150  0.161300  0.254385  1
  Cl  Cl117  1  0.103704  0.149668  0.993947  1
  Cl  Cl118  1  0.896296  0.850332  0.006053  1
  Cl  Cl119  1  0.043865  0.398261  0.866101  1
  Cl  Cl120  1  0.611328  0.362347  0.757935  1
  Cl  Cl121  1  0.815522  0.592579  0.622810  1
  Cl  Cl122  1  0.456135  0.898261  0.133899  1
  Cl  Cl123  1  0.184478  0.407421  0.377190  1
  Cl  Cl124  1  0.885969  0.846158  0.508361  1
  Cl  Cl125  1  0.370370  0.335529  0.870139  1
  Cl  Cl126  1  0.421035  0.188910  0.378359  1
  Cl  Cl127  1  0.578965  0.811090  0.621641  1
