# generated using pymatgen
data_Cr2PIO4
_symmetry_space_group_name_H-M   'P 1'
_cell_length_a   6.51922310
_cell_length_b   6.42046205
_cell_length_c   12.82154684
_cell_angle_alpha   90.00000000
_cell_angle_beta   105.10447673
_cell_angle_gamma   90.00000000
_symmetry_Int_Tables_number   1
_chemical_formula_structural   Cr2PIO4
_chemical_formula_sum   'Cr8 P4 I4 O16'
_cell_volume   518.12358301
_cell_formula_units_Z   4
loop_
 _symmetry_equiv_pos_site_id
 _symmetry_equiv_pos_as_xyz
  1  'x, y, z'
loop_
 _atom_site_type_symbol
 _atom_site_label
 _atom_site_symmetry_multiplicity
 _atom_site_fract_x
 _atom_site_fract_y
 _atom_site_fract_z
 _atom_site_occupancy
  Cr  Cr0  1  0.538713  0.850688  0.103395  1
  Cr  Cr1  1  0.088059  0.986054  0.392612  1
  Cr  Cr2  1  0.911941  0.013946  0.607388  1
  Cr  Cr3  1  0.911941  0.486054  0.107388  1
  Cr  Cr4  1  0.461287  0.350688  0.396605  1
  Cr  Cr5  1  0.088059  0.513946  0.892612  1
  Cr  Cr6  1  0.538713  0.649312  0.603395  1
  Cr  Cr7  1  0.461287  0.149312  0.896605  1
  P  P8  1  0.572842  0.631151  0.877942  1
  P  P9  1  0.427158  0.131151  0.622058  1
  P  P10  1  0.572842  0.868849  0.377942  1
  P  P11  1  0.427158  0.368849  0.122058  1
  I  I12  1  0.000811  0.469913  0.340208  1
  I  I13  1  0.999189  0.530087  0.659792  1
  I  I14  1  0.999189  0.969913  0.159792  1
  I  I15  1  0.000811  0.030087  0.840208  1
  O  O16  1  0.555297  0.826507  0.260972  1
  O  O17  1  0.534968  0.665584  0.438525  1
  O  O18  1  0.465032  0.334416  0.561475  1
  O  O19  1  0.401003  0.468690  0.891419  1
  O  O20  1  0.444703  0.326507  0.239028  1
  O  O21  1  0.202222  0.036429  0.563725  1
  O  O22  1  0.465032  0.165584  0.061475  1
  O  O23  1  0.797778  0.963571  0.436275  1
  O  O24  1  0.202222  0.463571  0.063725  1
  O  O25  1  0.401003  0.031310  0.391419  1
  O  O26  1  0.444703  0.173493  0.739028  1
  O  O27  1  0.555297  0.673493  0.760972  1
  O  O28  1  0.534968  0.834416  0.938525  1
  O  O29  1  0.598997  0.531310  0.108581  1
  O  O30  1  0.797778  0.536429  0.936275  1
  O  O31  1  0.598997  0.968690  0.608581  1
