# generated using pymatgen
data_U3Ni3Sn4
_symmetry_space_group_name_H-M   'P 1'
_cell_length_a   8.08991272
_cell_length_b   8.08991272
_cell_length_c   8.08991272
_cell_angle_alpha   109.47122063
_cell_angle_beta   109.47122063
_cell_angle_gamma   109.47122063
_symmetry_Int_Tables_number   1
_chemical_formula_structural   U3Ni3Sn4
_chemical_formula_sum   'U6 Ni6 Sn8'
_cell_volume   407.57695230
_cell_formula_units_Z   2
loop_
 _symmetry_equiv_pos_site_id
 _symmetry_equiv_pos_as_xyz
  1  'x, y, z'
loop_
 _atom_site_type_symbol
 _atom_site_label
 _atom_site_symmetry_multiplicity
 _atom_site_fract_x
 _atom_site_fract_y
 _atom_site_fract_z
 _atom_site_occupancy
  U  U0  1  0.750000  0.875000  0.125000  1
  U  U1  1  0.875000  0.125000  0.750000  1
  U  U2  1  0.625000  0.375000  0.250000  1
  U  U3  1  0.250000  0.625000  0.375000  1
  U  U4  1  0.375000  0.250000  0.625000  1
  U  U5  1  0.125000  0.750000  0.875000  1
  Ni  Ni6  1  0.125000  0.875000  0.250000  1
  Ni  Ni7  1  0.625000  0.750000  0.375000  1
  Ni  Ni8  1  0.875000  0.250000  0.125000  1
  Ni  Ni9  1  0.375000  0.625000  0.750000  1
  Ni  Ni10  1  0.250000  0.125000  0.875000  1
  Ni  Ni11  1  0.750000  0.375000  0.625000  1
  Sn  Sn12  1  0.831286  0.500000  0.000000  1
  Sn  Sn13  1  0.168714  0.168714  0.168714  1
  Sn  Sn14  1  0.331286  0.500000  0.000000  1
  Sn  Sn15  1  0.000000  0.831286  0.500000  1
  Sn  Sn16  1  0.500000  0.000000  0.331286  1
  Sn  Sn17  1  0.000000  0.331286  0.500000  1
  Sn  Sn18  1  0.500000  1.000000  0.831286  1
  Sn  Sn19  1  0.668714  0.668714  0.668714  1
