# generated using pymatgen
data_BaGa2B2O7
_symmetry_space_group_name_H-M   'P 1'
_cell_length_a   7.38395779
_cell_length_b   7.38395779
_cell_length_c   5.92738977
_cell_angle_alpha   90.00000000
_cell_angle_beta   90.00000000
_cell_angle_gamma   107.00963297
_symmetry_Int_Tables_number   1
_chemical_formula_structural   BaGa2B2O7
_chemical_formula_sum   'Ba2 Ga4 B4 O14'
_cell_volume   309.04084514
_cell_formula_units_Z   2
loop_
 _symmetry_equiv_pos_site_id
 _symmetry_equiv_pos_as_xyz
  1  'x, y, z'
loop_
 _atom_site_type_symbol
 _atom_site_label
 _atom_site_symmetry_multiplicity
 _atom_site_fract_x
 _atom_site_fract_y
 _atom_site_fract_z
 _atom_site_occupancy
  Ba  Ba0  1  0.194443  0.194443  0.750000  1
  Ba  Ba1  1  0.805557  0.805557  0.250000  1
  Ga  Ga2  1  0.711309  0.130453  0.750000  1
  Ga  Ga3  1  0.869547  0.288691  0.250000  1
  Ga  Ga4  1  0.130453  0.711309  0.750000  1
  Ga  Ga5  1  0.288691  0.869547  0.250000  1
  B  B6  1  0.280936  0.502347  0.250000  1
  B  B7  1  0.719064  0.497653  0.750000  1
  B  B8  1  0.497653  0.719064  0.750000  1
  B  B9  1  0.502347  0.280936  0.250000  1
  O  O10  1  0.865505  0.134495  0.500000  1
  O  O11  1  0.667731  0.667731  0.750000  1
  O  O12  1  0.134495  0.865505  1.000000  1
  O  O13  1  0.586956  0.321534  0.750000  1
  O  O14  1  0.134495  0.865505  0.500000  1
  O  O15  1  0.865505  0.134495  1.000000  1
  O  O16  1  0.332269  0.332269  0.250000  1
  O  O17  1  0.488915  0.092907  0.250000  1
  O  O18  1  0.413044  0.678466  0.250000  1
  O  O19  1  0.907093  0.511085  0.750000  1
  O  O20  1  0.511085  0.907093  0.750000  1
  O  O21  1  0.321534  0.586956  0.750000  1
  O  O22  1  0.678466  0.413044  0.250000  1
  O  O23  1  0.092907  0.488915  0.250000  1
