# generated using pymatgen
data_Sr2CuO3
_symmetry_space_group_name_H-M   'P 1'
_cell_length_a   6.88268141
_cell_length_b   6.88268141
_cell_length_c   6.88268141
_cell_angle_alpha   150.12120048
_cell_angle_beta   146.44700051
_cell_angle_gamma   45.53639525
_symmetry_Int_Tables_number   1
_chemical_formula_structural   Sr2CuO3
_chemical_formula_sum   'Sr2 Cu1 O3'
_cell_volume   89.48169498
_cell_formula_units_Z   1
loop_
 _symmetry_equiv_pos_site_id
 _symmetry_equiv_pos_as_xyz
  1  'x, y, z'
loop_
 _atom_site_type_symbol
 _atom_site_label
 _atom_site_symmetry_multiplicity
 _atom_site_fract_x
 _atom_site_fract_y
 _atom_site_fract_z
 _atom_site_occupancy
  Sr  Sr0  1  0.646782  0.646782  0.000000  1
  Sr  Sr1  1  0.353218  0.353218  0.000000  1
  Cu  Cu2  1  0.000000  0.000000  0.000000  1
  O  O3  1  0.500000  1.000000  0.500000  1
  O  O4  1  0.845292  0.845292  0.000000  1
  O  O5  1  0.154708  0.154708  0.000000  1
