# generated using pymatgen
data_Rb2SbBr6
_symmetry_space_group_name_H-M   'P 1'
_cell_length_a   13.56626089
_cell_length_b   13.56626089
_cell_length_c   13.56626089
_cell_angle_alpha   132.24456232
_cell_angle_beta   132.24456232
_cell_angle_gamma   69.84304048
_symmetry_Int_Tables_number   1
_chemical_formula_structural   Rb2SbBr6
_chemical_formula_sum   'Rb8 Sb4 Br24'
_cell_volume   1341.75104142
_cell_formula_units_Z   4
loop_
 _symmetry_equiv_pos_site_id
 _symmetry_equiv_pos_as_xyz
  1  'x, y, z'
loop_
 _atom_site_type_symbol
 _atom_site_label
 _atom_site_symmetry_multiplicity
 _atom_site_fract_x
 _atom_site_fract_y
 _atom_site_fract_z
 _atom_site_occupancy
  Rb  Rb0  1  0.140864  0.123193  0.518400  1
  Rb  Rb1  1  0.876807  0.395207  0.017672  1
  Rb  Rb2  1  0.604793  0.622464  0.481600  1
  Rb  Rb3  1  0.372464  0.390864  0.517672  1
  Rb  Rb4  1  0.609136  0.126807  0.981600  1
  Rb  Rb5  1  0.873193  0.854793  0.482328  1
  Rb  Rb6  1  0.377536  0.859136  0.982328  1
  Rb  Rb7  1  0.145207  0.627536  0.018400  1
  Sb  Sb8  1  0.750000  0.250000  0.500000  1
  Sb  Sb9  1  0.000000  0.000000  0.000000  1
  Sb  Sb10  1  0.250000  0.750000  0.500000  1
  Sb  Sb11  1  0.500000  0.500000  0.000000  1
  Br  Br12  1  0.724344  0.492448  0.716593  1
  Br  Br13  1  0.246435  0.484017  0.736810  1
  Br  Br14  1  0.507552  0.224145  0.231896  1
  Br  Br15  1  0.259625  0.496435  0.262418  1
  Br  Br16  1  0.870122  0.370122  0.500000  1
  Br  Br17  1  0.974145  0.242249  0.216593  1
  Br  Br18  1  0.775855  0.007751  0.283407  1
  Br  Br19  1  0.234017  0.997207  0.737582  1
  Br  Br20  1  0.242448  0.025855  0.268104  1
  Br  Br21  1  0.879878  0.879878  0.000000  1
  Br  Br22  1  0.757751  0.974344  0.731896  1
  Br  Br23  1  0.375835  0.375835  0.000000  1
  Br  Br24  1  0.624165  0.624165  0.000000  1
  Br  Br25  1  0.747207  0.509625  0.263190  1
  Br  Br26  1  0.490375  0.753565  0.237582  1
  Br  Br27  1  0.515983  0.252793  0.762418  1
  Br  Br28  1  0.025656  0.757552  0.783407  1
  Br  Br29  1  0.992249  0.275656  0.768104  1
  Br  Br30  1  0.629878  0.129878  0.500000  1
  Br  Br31  1  0.125835  0.625835  0.500000  1
  Br  Br32  1  0.120122  0.120122  0.000000  1
  Br  Br33  1  0.374165  0.874165  0.500000  1
  Br  Br34  1  0.002793  0.740375  0.236810  1
  Br  Br35  1  0.503565  0.765983  0.763190  1
