# generated using pymatgen
data_Na6CoS4
_symmetry_space_group_name_H-M   'P 1'
_cell_length_a   8.91390121
_cell_length_b   8.91390121
_cell_length_c   6.91809092
_cell_angle_alpha   90.00000000
_cell_angle_beta   90.00000000
_cell_angle_gamma   120.00000000
_symmetry_Int_Tables_number   1
_chemical_formula_structural   Na6CoS4
_chemical_formula_sum   'Na12 Co2 S8'
_cell_volume   476.04995671
_cell_formula_units_Z   2
loop_
 _symmetry_equiv_pos_site_id
 _symmetry_equiv_pos_as_xyz
  1  'x, y, z'
loop_
 _atom_site_type_symbol
 _atom_site_label
 _atom_site_symmetry_multiplicity
 _atom_site_fract_x
 _atom_site_fract_y
 _atom_site_fract_z
 _atom_site_occupancy
  Na  Na0  1  0.147257  0.852743  0.539761  1
  Na  Na1  1  0.294514  0.147257  0.039761  1
  Na  Na2  1  0.852743  0.705486  0.039761  1
  Na  Na3  1  0.147257  0.294514  0.539761  1
  Na  Na4  1  0.705486  0.852743  0.539761  1
  Na  Na5  1  0.852743  0.147257  0.039761  1
  Na  Na6  1  0.530985  0.469015  0.367382  1
  Na  Na7  1  0.061970  0.530985  0.867382  1
  Na  Na8  1  0.469015  0.938030  0.867382  1
  Na  Na9  1  0.530985  0.061970  0.367382  1
  Na  Na10  1  0.938030  0.469015  0.367382  1
  Na  Na11  1  0.469015  0.530985  0.867382  1
  Co  Co12  1  0.666667  0.333333  0.752490  1
  Co  Co13  1  0.333333  0.666667  0.252490  1
  S  S14  1  0.809686  0.190314  0.646026  1
  S  S15  1  0.619373  0.809686  0.146026  1
  S  S16  1  0.333333  0.666667  0.587705  1
  S  S17  1  0.666667  0.333333  0.087705  1
  S  S18  1  0.190314  0.809686  0.146026  1
  S  S19  1  0.380627  0.190314  0.646026  1
  S  S20  1  0.809686  0.619373  0.646026  1
  S  S21  1  0.190314  0.380627  0.146026  1
