# generated using pymatgen
data_NaB(CO2)4
_symmetry_space_group_name_H-M   'P 1'
_cell_length_a   6.69107324
_cell_length_b   6.69107324
_cell_length_c   8.03952772
_cell_angle_alpha   90.00000000
_cell_angle_beta   90.00000000
_cell_angle_gamma   102.59700039
_symmetry_Int_Tables_number   1
_chemical_formula_structural   NaB(CO2)4
_chemical_formula_sum   'Na2 B2 C8 O16'
_cell_volume   351.26911271
_cell_formula_units_Z   2
loop_
 _symmetry_equiv_pos_site_id
 _symmetry_equiv_pos_as_xyz
  1  'x, y, z'
loop_
 _atom_site_type_symbol
 _atom_site_label
 _atom_site_symmetry_multiplicity
 _atom_site_fract_x
 _atom_site_fract_y
 _atom_site_fract_z
 _atom_site_occupancy
  Na  Na0  1  0.928850  0.071150  0.250000  1
  Na  Na1  1  0.071150  0.928850  0.750000  1
  B  B2  1  0.569720  0.430280  0.750000  1
  B  B3  1  0.430280  0.569720  0.250000  1
  C  C4  1  0.776695  0.223305  0.654487  1
  C  C5  1  0.776695  0.223305  0.845513  1
  C  C6  1  0.223305  0.776695  0.345513  1
  C  C7  1  0.270596  0.545643  0.750000  1
  C  C8  1  0.223305  0.776695  0.154487  1
  C  C9  1  0.454357  0.729404  0.750000  1
  C  C10  1  0.729404  0.454357  0.250000  1
  C  C11  1  0.545643  0.270596  0.250000  1
  O  O12  1  0.872282  0.127718  0.932957  1
  O  O13  1  0.374790  0.341515  0.250000  1
  O  O14  1  0.344404  0.655596  0.103083  1
  O  O15  1  0.872282  0.127718  0.567043  1
  O  O16  1  0.127718  0.872282  0.432957  1
  O  O17  1  0.625210  0.658485  0.750000  1
  O  O18  1  0.655596  0.344404  0.896917  1
  O  O19  1  0.441218  0.908385  0.750000  1
  O  O20  1  0.127718  0.872282  0.067043  1
  O  O21  1  0.558782  0.091615  0.250000  1
  O  O22  1  0.341515  0.374790  0.750000  1
  O  O23  1  0.344404  0.655596  0.396917  1
  O  O24  1  0.091615  0.558782  0.750000  1
  O  O25  1  0.658485  0.625210  0.250000  1
  O  O26  1  0.908385  0.441218  0.250000  1
  O  O27  1  0.655596  0.344404  0.603083  1
