# generated using pymatgen
data_Ho7Co6Sn23
_symmetry_space_group_name_H-M   'P 1'
_cell_length_a   9.70541738
_cell_length_b   9.70541738
_cell_length_c   9.93145306
_cell_angle_alpha   90.00000000
_cell_angle_beta   90.00000000
_cell_angle_gamma   120.00000000
_symmetry_Int_Tables_number   1
_chemical_formula_structural   Ho7Co6Sn23
_chemical_formula_sum   'Ho7 Co6 Sn23'
_cell_volume   810.16198224
_cell_formula_units_Z   1
loop_
 _symmetry_equiv_pos_site_id
 _symmetry_equiv_pos_as_xyz
  1  'x, y, z'
loop_
 _atom_site_type_symbol
 _atom_site_label
 _atom_site_symmetry_multiplicity
 _atom_site_fract_x
 _atom_site_fract_y
 _atom_site_fract_z
 _atom_site_occupancy
  Ho  Ho0  1  0.000000  0.000000  0.000000  1
  Ho  Ho1  1  0.521350  0.478650  0.692782  1
  Ho  Ho2  1  0.521350  0.042699  0.692782  1
  Ho  Ho3  1  0.957301  0.478650  0.692782  1
  Ho  Ho4  1  0.042699  0.521350  0.307218  1
  Ho  Ho5  1  0.478650  0.957301  0.307218  1
  Ho  Ho6  1  0.478650  0.521350  0.307218  1
  Co  Co7  1  0.167977  0.832023  0.802415  1
  Co  Co8  1  0.167977  0.335954  0.802415  1
  Co  Co9  1  0.664046  0.832023  0.802415  1
  Co  Co10  1  0.335954  0.167977  0.197585  1
  Co  Co11  1  0.832023  0.664046  0.197585  1
  Co  Co12  1  0.832023  0.167977  0.197585  1
  Sn  Sn13  1  0.666667  0.333333  0.180003  1
  Sn  Sn14  1  0.666667  0.333333  0.883804  1
  Sn  Sn15  1  0.333333  0.666667  0.116196  1
  Sn  Sn16  1  0.346693  0.346693  0.000000  1
  Sn  Sn17  1  0.000000  0.653307  0.000000  1
  Sn  Sn18  1  0.653307  0.000000  0.000000  1
  Sn  Sn19  1  0.653307  0.653307  0.000000  1
  Sn  Sn20  1  0.333333  0.666667  0.819997  1
  Sn  Sn21  1  0.436353  0.218177  0.452621  1
  Sn  Sn22  1  0.218177  0.781823  0.547379  1
  Sn  Sn23  1  0.218177  0.436353  0.547379  1
  Sn  Sn24  1  0.563647  0.781823  0.547379  1
  Sn  Sn25  1  0.117504  0.882496  0.274128  1
  Sn  Sn26  1  0.781823  0.563647  0.452621  1
  Sn  Sn27  1  0.781823  0.218177  0.452621  1
  Sn  Sn28  1  0.346693  0.000000  0.000000  1
  Sn  Sn29  1  0.117504  0.235008  0.274128  1
  Sn  Sn30  1  0.764992  0.882496  0.274128  1
  Sn  Sn31  1  0.235008  0.117504  0.725872  1
  Sn  Sn32  1  0.882496  0.764992  0.725872  1
  Sn  Sn33  1  0.882496  0.117504  0.725872  1
  Sn  Sn34  1  0.000000  0.000000  0.500000  1
  Sn  Sn35  1  0.000000  0.346693  0.000000  1
