# generated using pymatgen
data_SrGd2Al2O7
_symmetry_space_group_name_H-M   'P 1'
_cell_length_a   10.27591815
_cell_length_b   10.27591815
_cell_length_c   10.27591815
_cell_angle_alpha   159.00615584
_cell_angle_beta   159.00615584
_cell_angle_gamma   29.86077098
_symmetry_Int_Tables_number   1
_chemical_formula_structural   SrGd2Al2O7
_chemical_formula_sum   'Sr1 Gd2 Al2 O7'
_cell_volume   139.19416014
_cell_formula_units_Z   1
loop_
 _symmetry_equiv_pos_site_id
 _symmetry_equiv_pos_as_xyz
  1  'x, y, z'
loop_
 _atom_site_type_symbol
 _atom_site_label
 _atom_site_symmetry_multiplicity
 _atom_site_fract_x
 _atom_site_fract_y
 _atom_site_fract_z
 _atom_site_occupancy
  Sr  Sr0  1  0.500000  0.500000  0.000000  1
  Gd  Gd1  1  0.681734  0.681734  0.000000  1
  Gd  Gd2  1  0.318266  0.318266  0.000000  1
  Al  Al3  1  0.095119  0.095119  0.000000  1
  Al  Al4  1  0.904881  0.904881  0.000000  1
  O  O5  1  0.395540  0.895540  0.500000  1
  O  O6  1  0.895540  0.395540  0.500000  1
  O  O7  1  0.604460  0.104460  0.500000  1
  O  O8  1  0.104460  0.604460  0.500000  1
  O  O9  1  0.796160  0.796160  0.000000  1
  O  O10  1  0.203840  0.203840  0.000000  1
  O  O11  1  0.000000  0.000000  0.000000  1
