# generated using pymatgen
data_K2Ba(NO2)4
_symmetry_space_group_name_H-M   'P 1'
_cell_length_a   9.15385281
_cell_length_b   9.15385281
_cell_length_c   13.42388950
_cell_angle_alpha   68.67784229
_cell_angle_beta   111.32215771
_cell_angle_gamma   93.85259168
_symmetry_Int_Tables_number   1
_chemical_formula_structural   K2Ba(NO2)4
_chemical_formula_sum   'K8 Ba4 N16 O32'
_cell_volume   973.36689332
_cell_formula_units_Z   4
loop_
 _symmetry_equiv_pos_site_id
 _symmetry_equiv_pos_as_xyz
  1  'x, y, z'
loop_
 _atom_site_type_symbol
 _atom_site_label
 _atom_site_symmetry_multiplicity
 _atom_site_fract_x
 _atom_site_fract_y
 _atom_site_fract_z
 _atom_site_occupancy
  K  K0  1  0.422845  0.074879  0.835124  1
  K  K1  1  0.074879  0.422845  0.164876  1
  K  K2  1  0.088635  0.410895  0.664876  1
  K  K3  1  0.577155  0.925121  0.164876  1
  K  K4  1  0.410895  0.088635  0.335124  1
  K  K5  1  0.589105  0.911365  0.664876  1
  K  K6  1  0.911365  0.589105  0.335124  1
  K  K7  1  0.925121  0.577155  0.835124  1
  Ba  Ba8  1  0.500000  0.500000  0.000000  1
  Ba  Ba9  1  0.500000  0.500000  0.500000  1
  Ba  Ba10  1  0.000000  0.000000  0.000000  1
  Ba  Ba11  1  0.000000  0.000000  0.500000  1
  N  N12  1  0.268939  0.268939  0.500000  1
  N  N13  1  0.491385  0.508615  0.233691  1
  N  N14  1  0.268784  0.268784  0.000000  1
  N  N15  1  0.765456  0.234544  0.996055  1
  N  N16  1  0.243811  0.756189  0.732649  1
  N  N17  1  0.769558  0.230442  0.503555  1
  N  N18  1  0.731061  0.731061  0.500000  1
  N  N19  1  0.234544  0.765456  0.003945  1
  N  N20  1  0.741800  0.258200  0.734790  1
  N  N21  1  0.990399  0.009601  0.233783  1
  N  N22  1  0.258200  0.741800  0.265210  1
  N  N23  1  0.230442  0.769558  0.496445  1
  N  N24  1  0.508615  0.491385  0.766309  1
  N  N25  1  0.731216  0.731216  0.000000  1
  N  N26  1  0.009601  0.990399  0.766217  1
  N  N27  1  0.756189  0.243811  0.267351  1
  O  O28  1  0.093870  0.077600  0.714276  1
  O  O29  1  0.922400  0.906130  0.714276  1
  O  O30  1  0.906130  0.922400  0.285724  1
  O  O31  1  0.307169  0.122471  0.554303  1
  O  O32  1  0.367069  0.804457  0.495772  1
  O  O33  1  0.628258  0.200413  0.995437  1
  O  O34  1  0.692831  0.877529  0.445697  1
  O  O35  1  0.804457  0.367069  0.504228  1
  O  O36  1  0.707228  0.121230  0.786057  1
  O  O37  1  0.799587  0.371742  0.995437  1
  O  O38  1  0.122471  0.307169  0.445697  1
  O  O39  1  0.292772  0.878770  0.213943  1
  O  O40  1  0.371742  0.799587  0.004563  1
  O  O41  1  0.209771  0.618726  0.783270  1
  O  O42  1  0.200413  0.628258  0.004563  1
  O  O43  1  0.381274  0.790229  0.783270  1
  O  O44  1  0.877529  0.692831  0.554303  1
  O  O45  1  0.747220  0.823365  0.054302  1
  O  O46  1  0.632931  0.195543  0.504228  1
  O  O47  1  0.596861  0.574734  0.716362  1
  O  O48  1  0.176635  0.252780  0.054302  1
  O  O49  1  0.077600  0.093870  0.285724  1
  O  O50  1  0.195543  0.632931  0.495772  1
  O  O51  1  0.403139  0.425266  0.283638  1
  O  O52  1  0.425266  0.403139  0.716362  1
  O  O53  1  0.574734  0.596861  0.283638  1
  O  O54  1  0.823365  0.747220  0.945698  1
  O  O55  1  0.252780  0.176635  0.945698  1
  O  O56  1  0.878770  0.292772  0.786057  1
  O  O57  1  0.618726  0.209771  0.216730  1
  O  O58  1  0.121230  0.707228  0.213943  1
  O  O59  1  0.790229  0.381274  0.216730  1
