# generated using pymatgen
data_Na2TiS2O
_symmetry_space_group_name_H-M   'P 1'
_cell_length_a   5.79476928
_cell_length_b   13.72007434
_cell_length_c   6.92986732
_cell_angle_alpha   90.00000000
_cell_angle_beta   113.27521046
_cell_angle_gamma   90.00000000
_symmetry_Int_Tables_number   1
_chemical_formula_structural   Na2TiS2O
_chemical_formula_sum   'Na8 Ti4 S8 O4'
_cell_volume   506.11850344
_cell_formula_units_Z   4
loop_
 _symmetry_equiv_pos_site_id
 _symmetry_equiv_pos_as_xyz
  1  'x, y, z'
loop_
 _atom_site_type_symbol
 _atom_site_label
 _atom_site_symmetry_multiplicity
 _atom_site_fract_x
 _atom_site_fract_y
 _atom_site_fract_z
 _atom_site_occupancy
  Na  Na0  1  0.455270  0.360513  0.396100  1
  Na  Na1  1  0.352087  0.942178  0.213883  1
  Na  Na2  1  0.955270  0.139487  0.396100  1
  Na  Na3  1  0.147913  0.442178  0.786117  1
  Na  Na4  1  0.852087  0.557822  0.213883  1
  Na  Na5  1  0.044730  0.860513  0.603900  1
  Na  Na6  1  0.647913  0.057822  0.786117  1
  Na  Na7  1  0.544730  0.639487  0.603900  1
  Ti  Ti8  1  0.837439  0.317071  0.021387  1
  Ti  Ti9  1  0.162561  0.682929  0.978613  1
  Ti  Ti10  1  0.337439  0.182929  0.021387  1
  Ti  Ti11  1  0.662561  0.817071  0.978613  1
  S  S12  1  0.352174  0.558309  0.191597  1
  S  S13  1  0.941167  0.357021  0.360383  1
  S  S14  1  0.558833  0.857021  0.639617  1
  S  S15  1  0.852174  0.941691  0.191597  1
  S  S16  1  0.058833  0.642979  0.639617  1
  S  S17  1  0.441167  0.142979  0.360383  1
  S  S18  1  0.647826  0.441691  0.808403  1
  S  S19  1  0.147826  0.058309  0.808403  1
  O  O20  1  0.868648  0.708575  0.020056  1
  O  O21  1  0.631352  0.208575  0.979944  1
  O  O22  1  0.368648  0.791425  0.020056  1
  O  O23  1  0.131352  0.291425  0.979944  1
