# generated using pymatgen
data_FeClO
_symmetry_space_group_name_H-M   'P 1'
_cell_length_a   3.30546131
_cell_length_b   3.92603153
_cell_length_c   8.34472236
_cell_angle_alpha   90.00000000
_cell_angle_beta   90.00000000
_cell_angle_gamma   90.00000000
_symmetry_Int_Tables_number   1
_chemical_formula_structural   FeClO
_chemical_formula_sum   'Fe2 Cl2 O2'
_cell_volume   108.29234370
_cell_formula_units_Z   2
loop_
 _symmetry_equiv_pos_site_id
 _symmetry_equiv_pos_as_xyz
  1  'x, y, z'
loop_
 _atom_site_type_symbol
 _atom_site_label
 _atom_site_symmetry_multiplicity
 _atom_site_fract_x
 _atom_site_fract_y
 _atom_site_fract_z
 _atom_site_occupancy
  Fe  Fe0  1  0.500000  0.000000  0.106375  1
  Fe  Fe1  1  0.000000  0.500000  0.893625  1
  Cl  Cl2  1  0.000000  0.000000  0.314772  1
  Cl  Cl3  1  0.500000  0.500000  0.685228  1
  O  O4  1  0.000000  0.000000  0.952707  1
  O  O5  1  0.500000  0.500000  0.047293  1
