# generated using pymatgen
data_TaPt3
_symmetry_space_group_name_H-M   'P 1'
_cell_length_a   4.93681259
_cell_length_b   5.61204780
_cell_length_c   9.39611051
_cell_angle_alpha   90.00000000
_cell_angle_beta   100.59336089
_cell_angle_gamma   90.00000000
_symmetry_Int_Tables_number   1
_chemical_formula_structural   TaPt3
_chemical_formula_sum   'Ta4 Pt12'
_cell_volume   255.88833426
_cell_formula_units_Z   4
loop_
 _symmetry_equiv_pos_site_id
 _symmetry_equiv_pos_as_xyz
  1  'x, y, z'
loop_
 _atom_site_type_symbol
 _atom_site_label
 _atom_site_symmetry_multiplicity
 _atom_site_fract_x
 _atom_site_fract_y
 _atom_site_fract_z
 _atom_site_occupancy
  Ta  Ta0  1  0.376808  0.250000  0.122005  1
  Ta  Ta1  1  0.623192  0.750000  0.877995  1
  Ta  Ta2  1  0.214377  0.250000  0.627261  1
  Ta  Ta3  1  0.785623  0.750000  0.372739  1
  Pt  Pt4  1  0.611308  0.250000  0.875846  1
  Pt  Pt5  1  0.388692  0.750000  0.124154  1
  Pt  Pt6  1  0.793488  0.250000  0.372910  1
  Pt  Pt7  1  0.206512  0.750000  0.627090  1
  Pt  Pt8  1  0.876474  0.498420  0.125704  1
  Pt  Pt9  1  0.123526  0.998420  0.874296  1
  Pt  Pt10  1  0.123526  0.501580  0.874296  1
  Pt  Pt11  1  0.876474  0.001580  0.125704  1
  Pt  Pt12  1  0.708529  0.500985  0.623533  1
  Pt  Pt13  1  0.291471  0.000985  0.376467  1
  Pt  Pt14  1  0.291471  0.499015  0.376467  1
  Pt  Pt15  1  0.708529  0.999015  0.623533  1
