# generated using pymatgen
data_Cu12As4S13
_symmetry_space_group_name_H-M   'P 1'
_cell_length_a   8.84370432
_cell_length_b   8.84370432
_cell_length_c   8.84370432
_cell_angle_alpha   109.47122063
_cell_angle_beta   109.47122063
_cell_angle_gamma   109.47122063
_symmetry_Int_Tables_number   1
_chemical_formula_structural   Cu12As4S13
_chemical_formula_sum   'Cu12 As4 S13'
_cell_volume   532.45235341
_cell_formula_units_Z   1
loop_
 _symmetry_equiv_pos_site_id
 _symmetry_equiv_pos_as_xyz
  1  'x, y, z'
loop_
 _atom_site_type_symbol
 _atom_site_label
 _atom_site_symmetry_multiplicity
 _atom_site_fract_x
 _atom_site_fract_y
 _atom_site_fract_z
 _atom_site_occupancy
  Cu  Cu0  1  0.500000  0.250000  0.750000  1
  Cu  Cu1  1  0.750000  0.500000  0.250000  1
  Cu  Cu2  1  0.250000  0.500000  0.750000  1
  Cu  Cu3  1  0.750000  0.250000  0.500000  1
  Cu  Cu4  1  0.250000  0.750000  0.500000  1
  Cu  Cu5  1  0.500000  0.750000  0.250000  1
  Cu  Cu6  1  0.000000  0.221153  0.221153  1
  Cu  Cu7  1  0.778847  0.000000  0.778847  1
  Cu  Cu8  1  0.221153  0.000000  0.221153  1
  Cu  Cu9  1  0.221153  0.221153  0.000000  1
  Cu  Cu10  1  0.778847  0.778847  0.000000  1
  Cu  Cu11  1  0.000000  0.778847  0.778847  1
  As  As12  1  0.527508  0.527508  0.527508  1
  As  As13  1  0.472492  0.000000  0.000000  1
  As  As14  1  0.000000  0.472492  0.000000  1
  As  As15  1  0.000000  0.000000  0.472492  1
  S  S16  1  0.479995  0.479995  0.239210  1
  S  S17  1  0.520005  0.759215  0.000000  1
  S  S18  1  0.759215  0.520005  0.000000  1
  S  S19  1  0.000000  0.759215  0.520005  1
  S  S20  1  0.760790  0.240785  0.240785  1
  S  S21  1  0.240785  0.760790  0.240785  1
  S  S22  1  0.759215  0.000000  0.520005  1
  S  S23  1  0.520005  0.000000  0.759215  1
  S  S24  1  0.000000  0.520005  0.759215  1
  S  S25  1  0.239210  0.479995  0.479995  1
  S  S26  1  0.479995  0.239210  0.479995  1
  S  S27  1  0.240785  0.240785  0.760790  1
  S  S28  1  0.000000  0.000000  0.000000  1
