# generated using pymatgen
data_PrNb3O9
_symmetry_space_group_name_H-M   'P 1'
_cell_length_a   5.44438469
_cell_length_b   7.73791116
_cell_length_c   16.66490404
_cell_angle_alpha   90.00000000
_cell_angle_beta   92.03108093
_cell_angle_gamma   90.00000000
_symmetry_Int_Tables_number   1
_chemical_formula_structural   PrNb3O9
_chemical_formula_sum   'Pr4 Nb12 O36'
_cell_volume   701.62075633
_cell_formula_units_Z   4
loop_
 _symmetry_equiv_pos_site_id
 _symmetry_equiv_pos_as_xyz
  1  'x, y, z'
loop_
 _atom_site_type_symbol
 _atom_site_label
 _atom_site_symmetry_multiplicity
 _atom_site_fract_x
 _atom_site_fract_y
 _atom_site_fract_z
 _atom_site_occupancy
  Pr  Pr0  1  0.966689  0.249984  0.532194  1
  Pr  Pr1  1  0.033311  0.749984  0.967806  1
  Pr  Pr2  1  0.966689  0.250016  0.032194  1
  Pr  Pr3  1  0.033311  0.750016  0.467806  1
  Nb  Nb4  1  0.991644  0.470485  0.751315  1
  Nb  Nb5  1  0.991644  0.029515  0.251315  1
  Nb  Nb6  1  0.527595  0.482846  0.400074  1
  Nb  Nb7  1  0.479686  0.001076  0.600317  1
  Nb  Nb8  1  0.479686  0.498924  0.100317  1
  Nb  Nb9  1  0.520314  0.501076  0.899683  1
  Nb  Nb10  1  0.008356  0.529515  0.248685  1
  Nb  Nb11  1  0.527595  0.017154  0.900074  1
  Nb  Nb12  1  0.008356  0.970485  0.748685  1
  Nb  Nb13  1  0.520314  0.998924  0.399683  1
  Nb  Nb14  1  0.472405  0.982846  0.099926  1
  Nb  Nb15  1  0.472405  0.517154  0.599926  1
  O  O16  1  0.154286  0.438540  0.643575  1
  O  O17  1  0.263789  0.037500  0.482867  1
  O  O18  1  0.735706  0.964031  0.016996  1
  O  O19  1  0.845714  0.561460  0.356425  1
  O  O20  1  0.154286  0.061460  0.143575  1
  O  O21  1  0.648499  0.249218  0.419244  1
  O  O22  1  0.849685  0.946145  0.356486  1
  O  O23  1  0.679971  0.553573  0.189753  1
  O  O24  1  0.439020  0.748587  0.904795  1
  O  O25  1  0.560980  0.248587  0.595205  1
  O  O26  1  0.264294  0.464031  0.483004  1
  O  O27  1  0.903136  0.244884  0.759131  1
  O  O28  1  0.351501  0.750782  0.580756  1
  O  O29  1  0.560980  0.251413  0.095205  1
  O  O30  1  0.351501  0.749218  0.080756  1
  O  O31  1  0.849685  0.553855  0.856486  1
  O  O32  1  0.679971  0.946427  0.689753  1
  O  O33  1  0.735706  0.535969  0.516996  1
  O  O34  1  0.320029  0.446427  0.810247  1
  O  O35  1  0.264294  0.035969  0.983004  1
  O  O36  1  0.150315  0.053855  0.643514  1
  O  O37  1  0.263789  0.462500  0.982867  1
  O  O38  1  0.736211  0.537500  0.017133  1
  O  O39  1  0.316940  0.048654  0.811094  1
  O  O40  1  0.648499  0.250782  0.919244  1
  O  O41  1  0.150315  0.446145  0.143514  1
  O  O42  1  0.096864  0.744884  0.740869  1
  O  O43  1  0.683060  0.951346  0.188906  1
  O  O44  1  0.320029  0.053573  0.310247  1
  O  O45  1  0.096864  0.755116  0.240869  1
  O  O46  1  0.316940  0.451346  0.311094  1
  O  O47  1  0.683060  0.548654  0.688906  1
  O  O48  1  0.903136  0.255116  0.259131  1
  O  O49  1  0.845714  0.938540  0.856425  1
  O  O50  1  0.439020  0.751413  0.404795  1
  O  O51  1  0.736211  0.962500  0.517133  1
