# generated using pymatgen
data_La3As2ClO7
_symmetry_space_group_name_H-M   'P 1'
_cell_length_a   13.09564601
_cell_length_b   13.09564601
_cell_length_c   5.64513098
_cell_angle_alpha   90.00000000
_cell_angle_beta   90.00000000
_cell_angle_gamma   90.00000000
_symmetry_Int_Tables_number   1
_chemical_formula_structural   La3As2ClO7
_chemical_formula_sum   'La12 As8 Cl4 O28'
_cell_volume   968.11706879
_cell_formula_units_Z   4
loop_
 _symmetry_equiv_pos_site_id
 _symmetry_equiv_pos_as_xyz
  1  'x, y, z'
loop_
 _atom_site_type_symbol
 _atom_site_label
 _atom_site_symmetry_multiplicity
 _atom_site_fract_x
 _atom_site_fract_y
 _atom_site_fract_z
 _atom_site_occupancy
  La  La0  1  0.731018  0.731018  0.000000  1
  La  La1  1  0.363451  0.051836  0.500000  1
  La  La2  1  0.768982  0.231018  0.500000  1
  La  La3  1  0.231018  0.768982  0.500000  1
  La  La4  1  0.948164  0.636549  0.500000  1
  La  La5  1  0.136549  0.551836  0.000000  1
  La  La6  1  0.268982  0.268982  0.000000  1
  La  La7  1  0.448164  0.863451  0.000000  1
  La  La8  1  0.051836  0.363451  0.500000  1
  La  La9  1  0.636549  0.948164  0.500000  1
  La  La10  1  0.551836  0.136549  0.000000  1
  La  La11  1  0.863451  0.448164  0.000000  1
  As  As12  1  0.980044  0.208618  0.000000  1
  As  As13  1  0.519956  0.708618  0.500000  1
  As  As14  1  0.291382  0.480044  0.500000  1
  As  As15  1  0.791382  0.019956  0.000000  1
  As  As16  1  0.019956  0.791382  0.000000  1
  As  As17  1  0.708618  0.519956  0.500000  1
  As  As18  1  0.208618  0.980044  0.000000  1
  As  As19  1  0.480044  0.291382  0.500000  1
  Cl  Cl20  1  0.167346  0.167346  0.500000  1
  Cl  Cl21  1  0.667346  0.332654  0.000000  1
  Cl  Cl22  1  0.832654  0.832654  0.500000  1
  Cl  Cl23  1  0.332654  0.667346  0.000000  1
  O  O24  1  0.776555  0.585058  0.261722  1
  O  O25  1  0.709490  0.911127  0.000000  1
  O  O26  1  0.223445  0.414942  0.738278  1
  O  O27  1  0.411127  0.790510  0.500000  1
  O  O28  1  0.776555  0.585058  0.738278  1
  O  O29  1  0.290510  0.088873  0.000000  1
  O  O30  1  0.585058  0.776555  0.738278  1
  O  O31  1  0.276555  0.914942  0.238278  1
  O  O32  1  0.723445  0.085058  0.761722  1
  O  O33  1  0.085058  0.723445  0.238278  1
  O  O34  1  0.414942  0.223445  0.261722  1
  O  O35  1  0.585058  0.776555  0.261722  1
  O  O36  1  0.723445  0.085058  0.238278  1
  O  O37  1  0.223445  0.414942  0.261722  1
  O  O38  1  0.914942  0.276555  0.238278  1
  O  O39  1  0.790510  0.411127  0.500000  1
  O  O40  1  0.000000  0.500000  0.250000  1
  O  O41  1  0.588873  0.209490  0.500000  1
  O  O42  1  0.276555  0.914942  0.761722  1
  O  O43  1  0.085058  0.723445  0.761722  1
  O  O44  1  0.414942  0.223445  0.738278  1
  O  O45  1  0.209490  0.588873  0.500000  1
  O  O46  1  0.914942  0.276555  0.761722  1
  O  O47  1  0.911127  0.709490  0.000000  1
  O  O48  1  0.088873  0.290510  0.000000  1
  O  O49  1  0.000000  0.500000  0.750000  1
  O  O50  1  0.500000  0.000000  0.750000  1
  O  O51  1  0.500000  0.000000  0.250000  1
