# generated using pymatgen
data_HCN
_symmetry_space_group_name_H-M   'P 1'
_cell_length_a   8.71329934
_cell_length_b   5.04705992
_cell_length_c   12.66765442
_cell_angle_alpha   90.00000000
_cell_angle_beta   101.84297544
_cell_angle_gamma   90.00000000
_symmetry_Int_Tables_number   1
_chemical_formula_structural   HCN
_chemical_formula_sum   'H16 C16 N16'
_cell_volume   545.22151105
_cell_formula_units_Z   16
loop_
 _symmetry_equiv_pos_site_id
 _symmetry_equiv_pos_as_xyz
  1  'x, y, z'
loop_
 _atom_site_type_symbol
 _atom_site_label
 _atom_site_symmetry_multiplicity
 _atom_site_fract_x
 _atom_site_fract_y
 _atom_site_fract_z
 _atom_site_occupancy
  H  H0  1  0.115740  0.262508  0.931398  1
  H  H1  1  0.884260  0.762508  0.568602  1
  H  H2  1  0.884260  0.737492  0.068602  1
  H  H3  1  0.115740  0.237492  0.431398  1
  H  H4  1  0.205380  0.513656  0.872210  1
  H  H5  1  0.794620  0.013656  0.627790  1
  H  H6  1  0.794620  0.486344  0.127790  1
  H  H7  1  0.205380  0.986344  0.372210  1
  H  H8  1  0.419874  0.807569  0.106383  1
  H  H9  1  0.580126  0.307569  0.393617  1
  H  H10  1  0.580126  0.192431  0.893617  1
  H  H11  1  0.419874  0.692431  0.606383  1
  H  H12  1  0.381650  0.794777  0.965140  1
  H  H13  1  0.618350  0.294777  0.534860  1
  H  H14  1  0.618350  0.205223  0.034860  1
  H  H15  1  0.381650  0.705223  0.465140  1
  C  C16  1  0.264372  0.517050  0.035937  1
  C  C17  1  0.735628  0.017050  0.464063  1
  C  C18  1  0.735628  0.482950  0.964063  1
  C  C19  1  0.264372  0.982950  0.535937  1
  C  C20  1  0.236451  0.406187  0.134675  1
  C  C21  1  0.763549  0.906187  0.365325  1
  C  C22  1  0.763549  0.593813  0.865325  1
  C  C23  1  0.236451  0.093813  0.634675  1
  C  C24  1  0.128450  0.199387  0.134278  1
  C  C25  1  0.871550  0.699387  0.365722  1
  C  C26  1  0.871550  0.800613  0.865722  1
  C  C27  1  0.128450  0.300613  0.634278  1
  C  C28  1  0.314910  0.505264  0.234094  1
  C  C29  1  0.685090  0.005264  0.265906  1
  C  C30  1  0.685090  0.494736  0.765906  1
  C  C31  1  0.314910  0.994736  0.734094  1
  N  N32  1  0.193180  0.417742  0.940415  1
  N  N33  1  0.806820  0.917742  0.559585  1
  N  N34  1  0.806820  0.582258  0.059585  1
  N  N35  1  0.193180  0.082258  0.440415  1
  N  N36  1  0.363029  0.720557  0.036899  1
  N  N37  1  0.636971  0.220557  0.463101  1
  N  N38  1  0.636971  0.279443  0.963101  1
  N  N39  1  0.363029  0.779443  0.536899  1
  N  N40  1  0.037920  0.026441  0.132733  1
  N  N41  1  0.962080  0.526441  0.367267  1
  N  N42  1  0.962080  0.973559  0.867267  1
  N  N43  1  0.037920  0.473559  0.632733  1
  N  N44  1  0.382199  0.587185  0.317840  1
  N  N45  1  0.617801  0.087185  0.182160  1
  N  N46  1  0.617801  0.412815  0.682160  1
  N  N47  1  0.382199  0.912815  0.817840  1
