# generated using pymatgen
data_Hg6BiSb4Br7
_symmetry_space_group_name_H-M   'P 1'
_cell_length_a   13.39019755
_cell_length_b   13.39019755
_cell_length_c   13.39019755
_cell_angle_alpha   90.00000000
_cell_angle_beta   90.00000000
_cell_angle_gamma   90.00000000
_symmetry_Int_Tables_number   1
_chemical_formula_structural   Hg6BiSb4Br7
_chemical_formula_sum   'Hg24 Bi4 Sb16 Br28'
_cell_volume   2400.82747803
_cell_formula_units_Z   4
loop_
 _symmetry_equiv_pos_site_id
 _symmetry_equiv_pos_as_xyz
  1  'x, y, z'
loop_
 _atom_site_type_symbol
 _atom_site_label
 _atom_site_symmetry_multiplicity
 _atom_site_fract_x
 _atom_site_fract_y
 _atom_site_fract_z
 _atom_site_occupancy
  Hg  Hg0  1  0.185852  0.300450  0.447460  1
  Hg  Hg1  1  0.314148  0.699550  0.947460  1
  Hg  Hg2  1  0.199550  0.552540  0.685852  1
  Hg  Hg3  1  0.800450  0.052540  0.814148  1
  Hg  Hg4  1  0.447460  0.185852  0.300450  1
  Hg  Hg5  1  0.552540  0.814148  0.699550  1
  Hg  Hg6  1  0.947460  0.185852  0.199550  1
  Hg  Hg7  1  0.300450  0.447460  0.185852  1
  Hg  Hg8  1  0.814148  0.699550  0.552540  1
  Hg  Hg9  1  0.052540  0.685852  0.300450  1
  Hg  Hg10  1  0.685852  0.199550  0.552540  1
  Hg  Hg11  1  0.947460  0.314148  0.699550  1
  Hg  Hg12  1  0.814148  0.800450  0.052540  1
  Hg  Hg13  1  0.685852  0.300450  0.052540  1
  Hg  Hg14  1  0.800450  0.447460  0.314148  1
  Hg  Hg15  1  0.185852  0.199550  0.947460  1
  Hg  Hg16  1  0.300450  0.052540  0.685852  1
  Hg  Hg17  1  0.699550  0.552540  0.814148  1
  Hg  Hg18  1  0.052540  0.814148  0.800450  1
  Hg  Hg19  1  0.447460  0.314148  0.800450  1
  Hg  Hg20  1  0.552540  0.685852  0.199550  1
  Hg  Hg21  1  0.314148  0.800450  0.447460  1
  Hg  Hg22  1  0.699550  0.947460  0.314148  1
  Hg  Hg23  1  0.199550  0.947460  0.185852  1
  Bi  Bi24  1  0.000000  0.500000  0.000000  1
  Bi  Bi25  1  0.500000  0.500000  0.500000  1
  Bi  Bi26  1  0.000000  0.000000  0.500000  1
  Bi  Bi27  1  0.500000  0.000000  0.000000  1
  Sb  Sb28  1  0.261842  0.238158  0.761842  1
  Sb  Sb29  1  0.864249  0.635751  0.364249  1
  Sb  Sb30  1  0.238158  0.761842  0.261842  1
  Sb  Sb31  1  0.738158  0.738158  0.738158  1
  Sb  Sb32  1  0.135751  0.364249  0.635751  1
  Sb  Sb33  1  0.635751  0.364249  0.864249  1
  Sb  Sb34  1  0.364249  0.864249  0.635751  1
  Sb  Sb35  1  0.635751  0.135751  0.364249  1
  Sb  Sb36  1  0.364249  0.635751  0.135751  1
  Sb  Sb37  1  0.738158  0.761842  0.238158  1
  Sb  Sb38  1  0.238158  0.738158  0.761842  1
  Sb  Sb39  1  0.761842  0.238158  0.738158  1
  Sb  Sb40  1  0.864249  0.864249  0.864249  1
  Sb  Sb41  1  0.135751  0.135751  0.135751  1
  Sb  Sb42  1  0.761842  0.261842  0.238158  1
  Sb  Sb43  1  0.261842  0.261842  0.261842  1
  Br  Br44  1  0.705992  0.455484  0.550124  1
  Br  Br45  1  0.455484  0.550124  0.705992  1
  Br  Br46  1  0.544516  0.050124  0.794008  1
  Br  Br47  1  0.449876  0.205992  0.044516  1
  Br  Br48  1  0.544516  0.449876  0.294008  1
  Br  Br49  1  0.000000  0.000000  0.000000  1
  Br  Br50  1  0.455484  0.949876  0.205992  1
  Br  Br51  1  0.705992  0.044516  0.050124  1
  Br  Br52  1  0.294008  0.955484  0.949876  1
  Br  Br53  1  0.955484  0.949876  0.294008  1
  Br  Br54  1  0.050124  0.705992  0.044516  1
  Br  Br55  1  0.500000  0.000000  0.500000  1
  Br  Br56  1  0.449876  0.294008  0.544516  1
  Br  Br57  1  0.000000  0.500000  0.500000  1
  Br  Br58  1  0.050124  0.794008  0.544516  1
  Br  Br59  1  0.044516  0.050124  0.705992  1
  Br  Br60  1  0.294008  0.544516  0.449876  1
  Br  Br61  1  0.205992  0.044516  0.449876  1
  Br  Br62  1  0.205992  0.455484  0.949876  1
  Br  Br63  1  0.949876  0.294008  0.955484  1
  Br  Br64  1  0.794008  0.544516  0.050124  1
  Br  Br65  1  0.044516  0.449876  0.205992  1
  Br  Br66  1  0.550124  0.705992  0.455484  1
  Br  Br67  1  0.955484  0.550124  0.794008  1
  Br  Br68  1  0.794008  0.955484  0.550124  1
  Br  Br69  1  0.550124  0.794008  0.955484  1
  Br  Br70  1  0.949876  0.205992  0.455484  1
  Br  Br71  1  0.500000  0.500000  0.000000  1
