# generated using pymatgen
data_Nd3CuSiS7
_symmetry_space_group_name_H-M   'P 1'
_cell_length_a   10.19380366
_cell_length_b   10.19380366
_cell_length_c   5.79346510
_cell_angle_alpha   90.00000000
_cell_angle_beta   90.00000000
_cell_angle_gamma   120.00000000
_symmetry_Int_Tables_number   1
_chemical_formula_structural   Nd3CuSiS7
_chemical_formula_sum   'Nd6 Cu2 Si2 S14'
_cell_volume   521.36461913
_cell_formula_units_Z   2
loop_
 _symmetry_equiv_pos_site_id
 _symmetry_equiv_pos_as_xyz
  1  'x, y, z'
loop_
 _atom_site_type_symbol
 _atom_site_label
 _atom_site_symmetry_multiplicity
 _atom_site_fract_x
 _atom_site_fract_y
 _atom_site_fract_z
 _atom_site_occupancy
  Nd  Nd0  1  0.232076  0.875378  0.747450  1
  Nd  Nd1  1  0.356698  0.232076  0.247450  1
  Nd  Nd2  1  0.124622  0.356698  0.747450  1
  Nd  Nd3  1  0.767924  0.124622  0.247450  1
  Nd  Nd4  1  0.875378  0.643302  0.247450  1
  Nd  Nd5  1  0.643302  0.767924  0.747450  1
  Cu  Cu6  1  0.000000  0.000000  0.221050  1
  Cu  Cu7  1  0.000000  0.000000  0.721050  1
  Si  Si8  1  0.666667  0.333333  0.833270  1
  Si  Si9  1  0.333333  0.666667  0.333270  1
  S  S10  1  0.524461  0.112337  0.977158  1
  S  S11  1  0.835573  0.087469  0.732701  1
  S  S12  1  0.112337  0.587876  0.477158  1
  S  S13  1  0.475539  0.887663  0.477158  1
  S  S14  1  0.164427  0.912531  0.232701  1
  S  S15  1  0.666667  0.333333  0.468456  1
  S  S16  1  0.912531  0.748104  0.732701  1
  S  S17  1  0.333333  0.666667  0.968456  1
  S  S18  1  0.587876  0.475539  0.977158  1
  S  S19  1  0.748104  0.835573  0.232701  1
  S  S20  1  0.412124  0.524461  0.477158  1
  S  S21  1  0.887663  0.412124  0.977158  1
  S  S22  1  0.087469  0.251896  0.232701  1
  S  S23  1  0.251896  0.164427  0.732701  1
