# generated using pymatgen
data_Ba6CdAg2(SnS4)4
_symmetry_space_group_name_H-M   'P 1'
_cell_length_a   12.94995845
_cell_length_b   12.94995845
_cell_length_c   12.94995845
_cell_angle_alpha   109.39326669
_cell_angle_beta   109.39326669
_cell_angle_gamma   109.62724127
_symmetry_Int_Tables_number   1
_chemical_formula_structural   Ba6CdAg2(SnS4)4
_chemical_formula_sum   'Ba12 Cd2 Ag4 Sn8 S32'
_cell_volume   1671.78651822
_cell_formula_units_Z   2
loop_
 _symmetry_equiv_pos_site_id
 _symmetry_equiv_pos_as_xyz
  1  'x, y, z'
loop_
 _atom_site_type_symbol
 _atom_site_label
 _atom_site_symmetry_multiplicity
 _atom_site_fract_x
 _atom_site_fract_y
 _atom_site_fract_z
 _atom_site_occupancy
  Ba  Ba0  1  0.142494  0.142494  0.000000  1
  Ba  Ba1  1  0.642946  0.375000  0.767946  1
  Ba  Ba2  1  0.125000  0.357054  0.732054  1
  Ba  Ba3  1  0.355931  0.375000  0.480931  1
  Ba  Ba4  1  0.625000  0.392946  0.267946  1
  Ba  Ba5  1  0.857506  0.857506  0.000000  1
  Ba  Ba6  1  0.125000  0.644069  0.019069  1
  Ba  Ba7  1  0.607054  0.875000  0.232054  1
  Ba  Ba8  1  0.107506  0.607506  0.500000  1
  Ba  Ba9  1  0.625000  0.105931  0.980931  1
  Ba  Ba10  1  0.392494  0.892494  0.500000  1
  Ba  Ba11  1  0.894069  0.875000  0.519069  1
  Cd  Cd12  1  0.750000  0.250000  0.500000  1
  Cd  Cd13  1  0.500000  0.500000  0.000000  1
  Ag  Ag14  1  0.000051  0.375000  0.125051  1
  Ag  Ag15  1  0.625000  0.750051  0.625051  1
  Ag  Ag16  1  0.249949  0.875000  0.874949  1
  Ag  Ag17  1  0.125000  0.999949  0.374949  1
  Sn  Sn18  1  0.832759  0.126394  0.753544  1
  Sn  Sn19  1  0.329215  0.122850  0.746456  1
  Sn  Sn20  1  0.920785  0.167241  0.293635  1
  Sn  Sn21  1  0.873606  0.627150  0.706365  1
  Sn  Sn22  1  0.877150  0.623606  0.206365  1
  Sn  Sn23  1  0.417241  0.670785  0.793635  1
  Sn  Sn24  1  0.376394  0.582759  0.253544  1
  Sn  Sn25  1  0.372850  0.079215  0.246456  1
  S  S26  1  0.646963  0.125576  0.748971  1
  S  S27  1  0.855434  0.430772  0.207610  1
  S  S28  1  0.524199  0.301525  0.943698  1
  S  S29  1  0.915586  0.148894  0.099256  1
  S  S30  1  0.147991  0.126604  0.751029  1
  S  S31  1  0.725801  0.169499  0.277326  1
  S  S32  1  0.352176  0.144566  0.575338  1
  S  S33  1  0.551525  0.274199  0.443698  1
  S  S34  1  0.026838  0.319228  0.924662  1
  S  S35  1  0.698475  0.642173  0.222674  1
  S  S36  1  0.419499  0.475801  0.777326  1
  S  S37  1  0.357827  0.580501  0.056302  1
  S  S38  1  0.680772  0.605434  0.707610  1
  S  S39  1  0.874424  0.623396  0.521387  1
  S  S40  1  0.102009  0.353037  0.478613  1
  S  S41  1  0.375576  0.396963  0.248971  1
  S  S42  1  0.892173  0.448475  0.722674  1
  S  S43  1  0.223162  0.647824  0.792390  1
  S  S44  1  0.603037  0.852009  0.978613  1
  S  S45  1  0.873396  0.624424  0.021387  1
  S  S46  1  0.398894  0.665586  0.599256  1
  S  S47  1  0.851106  0.950363  0.766693  1
  S  S48  1  0.569228  0.776838  0.424662  1
  S  S49  1  0.200363  0.601106  0.266693  1
  S  S50  1  0.049637  0.816330  0.900744  1
  S  S51  1  0.334414  0.933670  0.733307  1
  S  S52  1  0.183670  0.084414  0.233307  1
  S  S53  1  0.394566  0.102176  0.075338  1
  S  S54  1  0.830501  0.107827  0.556302  1
  S  S55  1  0.066330  0.799637  0.400744  1
  S  S56  1  0.376604  0.897991  0.251029  1
  S  S57  1  0.897824  0.973162  0.292390  1
