# generated using pymatgen
data_CsNiF3
_symmetry_space_group_name_H-M   'P 1'
_cell_length_a   6.33681557
_cell_length_b   6.33681557
_cell_length_c   5.28883637
_cell_angle_alpha   90.00000000
_cell_angle_beta   90.00000000
_cell_angle_gamma   120.00000000
_symmetry_Int_Tables_number   1
_chemical_formula_structural   CsNiF3
_chemical_formula_sum   'Cs2 Ni2 F6'
_cell_volume   183.92166795
_cell_formula_units_Z   2
loop_
 _symmetry_equiv_pos_site_id
 _symmetry_equiv_pos_as_xyz
  1  'x, y, z'
loop_
 _atom_site_type_symbol
 _atom_site_label
 _atom_site_symmetry_multiplicity
 _atom_site_fract_x
 _atom_site_fract_y
 _atom_site_fract_z
 _atom_site_occupancy
  Cs  Cs0  1  0.333333  0.666667  0.750000  1
  Cs  Cs1  1  0.666667  0.333333  0.250000  1
  Ni  Ni2  1  0.000000  0.000000  0.000000  1
  Ni  Ni3  1  0.000000  0.000000  0.500000  1
  F  F4  1  0.717258  0.858629  0.250000  1
  F  F5  1  0.858629  0.717258  0.750000  1
  F  F6  1  0.141371  0.282742  0.250000  1
  F  F7  1  0.858629  0.141371  0.750000  1
  F  F8  1  0.282742  0.141371  0.750000  1
  F  F9  1  0.141371  0.858629  0.250000  1
