# generated using pymatgen
data_Na5Bi2As5O18
_symmetry_space_group_name_H-M   'P 1'
_cell_length_a   7.18485547
_cell_length_b   10.24580128
_cell_length_c   12.31278077
_cell_angle_alpha   97.39371770
_cell_angle_beta   92.21293728
_cell_angle_gamma   90.91537023
_symmetry_Int_Tables_number   1
_chemical_formula_structural   Na5Bi2As5O18
_chemical_formula_sum   'Na10 Bi4 As10 O36'
_cell_volume   897.99298187
_cell_formula_units_Z   2
loop_
 _symmetry_equiv_pos_site_id
 _symmetry_equiv_pos_as_xyz
  1  'x, y, z'
loop_
 _atom_site_type_symbol
 _atom_site_label
 _atom_site_symmetry_multiplicity
 _atom_site_fract_x
 _atom_site_fract_y
 _atom_site_fract_z
 _atom_site_occupancy
  Na  Na0  1  0.015073  0.064947  0.873201  1
  Na  Na1  1  0.772280  0.123469  0.358139  1
  Na  Na2  1  0.984927  0.935053  0.126799  1
  Na  Na3  1  0.471012  0.729920  0.402588  1
  Na  Na4  1  0.664714  0.607981  0.119475  1
  Na  Na5  1  0.911537  0.776388  0.344838  1
  Na  Na6  1  0.528988  0.270080  0.597412  1
  Na  Na7  1  0.227720  0.876531  0.641861  1
  Na  Na8  1  0.088463  0.223612  0.655162  1
  Na  Na9  1  0.335286  0.392019  0.880525  1
  Bi  Bi10  1  0.230357  0.372872  0.394376  1
  Bi  Bi11  1  0.673576  0.234998  0.060730  1
  Bi  Bi12  1  0.769643  0.627128  0.605624  1
  Bi  Bi13  1  0.326424  0.765002  0.939270  1
  As  As14  1  0.169469  0.581289  0.159004  1
  As  As15  1  0.510310  0.936141  0.195771  1
  As  As16  1  0.823167  0.735515  0.892007  1
  As  As17  1  0.176833  0.264485  0.107993  1
  As  As18  1  0.716677  0.425772  0.340661  1
  As  As19  1  0.283323  0.574228  0.659339  1
  As  As20  1  0.774853  0.979497  0.608327  1
  As  As21  1  0.830531  0.418711  0.840996  1
  As  As22  1  0.225147  0.020503  0.391673  1
  As  As23  1  0.489690  0.063859  0.804229  1
  O  O24  1  0.354859  0.251417  0.018649  1
  O  O25  1  0.987716  0.683388  0.162202  1
  O  O26  1  0.394135  0.196779  0.757749  1
  O  O27  1  0.230289  0.175439  0.468813  1
  O  O28  1  0.769711  0.824561  0.531187  1
  O  O29  1  0.934187  0.580753  0.891576  1
  O  O30  1  0.734331  0.754525  0.765267  1
  O  O31  1  0.242444  0.413527  0.602171  1
  O  O32  1  0.266113  0.567737  0.286401  1
  O  O33  1  0.971563  0.008273  0.688374  1
  O  O34  1  0.012284  0.316612  0.837798  1
  O  O35  1  0.065813  0.419247  0.108424  1
  O  O36  1  0.672024  0.398748  0.939957  1
  O  O37  1  0.262460  0.894290  0.464515  1
  O  O38  1  0.002789  0.841683  0.938433  1
  O  O39  1  0.733887  0.432263  0.713599  1
  O  O40  1  0.675168  0.091862  0.896910  1
  O  O41  1  0.997211  0.158317  0.061567  1
  O  O42  1  0.909155  0.329720  0.353131  1
  O  O43  1  0.737540  0.105710  0.535485  1
  O  O44  1  0.550972  0.356611  0.416642  1
  O  O45  1  0.351155  0.583378  0.795747  1
  O  O46  1  0.648845  0.416622  0.204253  1
  O  O47  1  0.566867  0.964652  0.684254  1
  O  O48  1  0.757556  0.586473  0.397829  1
  O  O49  1  0.433133  0.035348  0.315746  1
  O  O50  1  0.090845  0.670280  0.646869  1
  O  O51  1  0.028437  0.991727  0.311626  1
  O  O52  1  0.265669  0.245475  0.234733  1
  O  O53  1  0.324832  0.908138  0.103090  1
  O  O54  1  0.324531  0.956304  0.841487  1
  O  O55  1  0.449028  0.643389  0.583358  1
  O  O56  1  0.605865  0.803221  0.242251  1
  O  O57  1  0.327976  0.601252  0.060043  1
  O  O58  1  0.675469  0.043696  0.158513  1
  O  O59  1  0.645141  0.748583  0.981351  1
