# generated using pymatgen
data_InSb2S4Br
_symmetry_space_group_name_H-M   'P 1'
_cell_length_a   10.51330181
_cell_length_b   10.51330181
_cell_length_c   12.13897637
_cell_angle_alpha   60.23162369
_cell_angle_beta   119.76837631
_cell_angle_gamma   158.55084331
_symmetry_Int_Tables_number   1
_chemical_formula_structural   InSb2S4Br
_chemical_formula_sum   'In2 Sb4 S8 Br2'
_cell_volume   423.38193483
_cell_formula_units_Z   2
loop_
 _symmetry_equiv_pos_site_id
 _symmetry_equiv_pos_as_xyz
  1  'x, y, z'
loop_
 _atom_site_type_symbol
 _atom_site_label
 _atom_site_symmetry_multiplicity
 _atom_site_fract_x
 _atom_site_fract_y
 _atom_site_fract_z
 _atom_site_occupancy
  In  In0  1  0.336179  0.663821  0.566398  1
  In  In1  1  0.663821  0.336179  0.433602  1
  Sb  Sb2  1  0.706589  0.293411  0.094055  1
  Sb  Sb3  1  0.048234  0.951766  0.784464  1
  Sb  Sb4  1  0.951766  0.048234  0.215536  1
  Sb  Sb5  1  0.293411  0.706589  0.905945  1
  S  S6  1  0.319265  0.680735  0.130098  1
  S  S7  1  0.896094  0.103906  0.977321  1
  S  S8  1  0.788297  0.211703  0.649468  1
  S  S9  1  0.465570  0.534430  0.785727  1
  S  S10  1  0.211703  0.788297  0.350532  1
  S  S11  1  0.534430  0.465570  0.214273  1
  S  S12  1  0.680735  0.319265  0.869902  1
  S  S13  1  0.103906  0.896094  0.022679  1
  Br  Br14  1  0.102357  0.897643  0.527174  1
  Br  Br15  1  0.897643  0.102357  0.472826  1
