# generated using pymatgen
data_Cs6Fe2O5
_symmetry_space_group_name_H-M   'P 1'
_cell_length_a   7.32734010
_cell_length_b   7.32734010
_cell_length_c   7.48680734
_cell_angle_alpha   87.47826454
_cell_angle_beta   92.52173546
_cell_angle_gamma   62.31243405
_symmetry_Int_Tables_number   1
_chemical_formula_structural   Cs6Fe2O5
_chemical_formula_sum   'Cs6 Fe2 O5'
_cell_volume   354.64927467
_cell_formula_units_Z   1
loop_
 _symmetry_equiv_pos_site_id
 _symmetry_equiv_pos_as_xyz
  1  'x, y, z'
loop_
 _atom_site_type_symbol
 _atom_site_label
 _atom_site_symmetry_multiplicity
 _atom_site_fract_x
 _atom_site_fract_y
 _atom_site_fract_z
 _atom_site_occupancy
  Cs  Cs0  1  0.355649  0.644351  0.188265  1
  Cs  Cs1  1  0.644351  0.355649  0.811735  1
  Cs  Cs2  1  0.757988  0.757988  0.500000  1
  Cs  Cs3  1  0.242012  0.242012  0.500000  1
  Cs  Cs4  1  0.212934  0.212934  0.000000  1
  Cs  Cs5  1  0.787066  0.787066  0.000000  1
  Fe  Fe6  1  0.196728  0.803272  0.685848  1
  Fe  Fe7  1  0.803272  0.196728  0.314152  1
  O  O8  1  0.832433  0.429279  0.224567  1
  O  O9  1  0.429279  0.832433  0.775433  1
  O  O10  1  0.167567  0.570721  0.775433  1
  O  O11  1  0.570721  0.167567  0.224567  1
  O  O12  1  0.000000  0.000000  0.500000  1
