# generated using pymatgen
data_Ba2Mn(AsO4)2
_symmetry_space_group_name_H-M   'P 1'
_cell_length_a   5.60942345
_cell_length_b   9.34074126
_cell_length_c   17.77146560
_cell_angle_alpha   90.00000000
_cell_angle_beta   107.96425200
_cell_angle_gamma   90.00000000
_symmetry_Int_Tables_number   1
_chemical_formula_structural   Ba2Mn(AsO4)2
_chemical_formula_sum   'Ba8 Mn4 As8 O32'
_cell_volume   885.76208621
_cell_formula_units_Z   4
loop_
 _symmetry_equiv_pos_site_id
 _symmetry_equiv_pos_as_xyz
  1  'x, y, z'
loop_
 _atom_site_type_symbol
 _atom_site_label
 _atom_site_symmetry_multiplicity
 _atom_site_fract_x
 _atom_site_fract_y
 _atom_site_fract_z
 _atom_site_occupancy
  Ba  Ba0  1  0.476247  0.836605  0.231206  1
  Ba  Ba1  1  0.310325  0.197813  0.020648  1
  Ba  Ba2  1  0.476247  0.663395  0.731206  1
  Ba  Ba3  1  0.523753  0.336605  0.268794  1
  Ba  Ba4  1  0.523753  0.163395  0.768794  1
  Ba  Ba5  1  0.689675  0.697813  0.479352  1
  Ba  Ba6  1  0.689675  0.802187  0.979352  1
  Ba  Ba7  1  0.310325  0.302187  0.520648  1
  Mn  Mn8  1  0.905742  0.479847  0.136645  1
  Mn  Mn9  1  0.094258  0.520153  0.863355  1
  Mn  Mn10  1  0.094258  0.979847  0.363355  1
  Mn  Mn11  1  0.905742  0.020153  0.636645  1
  As  As12  1  0.084503  0.895844  0.836110  1
  As  As13  1  0.915497  0.395844  0.663890  1
  As  As14  1  0.321652  0.595469  0.075716  1
  As  As15  1  0.321652  0.904531  0.575716  1
  As  As16  1  0.678348  0.095469  0.424284  1
  As  As17  1  0.678348  0.404531  0.924284  1
  As  As18  1  0.915497  0.104156  0.163890  1
  As  As19  1  0.084503  0.604156  0.336110  1
  O  O20  1  0.882546  0.211719  0.400526  1
  O  O21  1  0.733294  0.469130  0.576132  1
  O  O22  1  0.266706  0.969130  0.923868  1
  O  O23  1  0.123156  0.994365  0.758323  1
  O  O24  1  0.702565  0.107011  0.522249  1
  O  O25  1  0.744892  0.570488  0.891743  1
  O  O26  1  0.297435  0.607011  0.977751  1
  O  O27  1  0.255108  0.429512  0.108257  1
  O  O28  1  0.702565  0.392989  0.022249  1
  O  O29  1  0.201530  0.773002  0.327391  1
  O  O30  1  0.375751  0.144350  0.369944  1
  O  O31  1  0.772524  0.608366  0.332179  1
  O  O32  1  0.227476  0.108366  0.167821  1
  O  O33  1  0.117454  0.711719  0.099474  1
  O  O34  1  0.123156  0.505635  0.258323  1
  O  O35  1  0.624249  0.644350  0.130056  1
  O  O36  1  0.266706  0.530870  0.423868  1
  O  O37  1  0.227476  0.391634  0.667821  1
  O  O38  1  0.798470  0.273002  0.172609  1
  O  O39  1  0.798470  0.226998  0.672609  1
  O  O40  1  0.882546  0.288281  0.900526  1
  O  O41  1  0.876844  0.005635  0.241677  1
  O  O42  1  0.297435  0.892989  0.477751  1
  O  O43  1  0.375751  0.355650  0.869944  1
  O  O44  1  0.201530  0.726998  0.827391  1
  O  O45  1  0.876844  0.494365  0.741677  1
  O  O46  1  0.733294  0.030870  0.076132  1
  O  O47  1  0.255108  0.070488  0.608257  1
  O  O48  1  0.772524  0.891634  0.832179  1
  O  O49  1  0.117454  0.788281  0.599474  1
  O  O50  1  0.744892  0.929512  0.391743  1
  O  O51  1  0.624249  0.855650  0.630056  1
