# generated using pymatgen
data_KZrVF7
_symmetry_space_group_name_H-M   'P 1'
_cell_length_a   6.61504814
_cell_length_b   8.07624109
_cell_length_c   11.34950180
_cell_angle_alpha   90.00000000
_cell_angle_beta   90.00000000
_cell_angle_gamma   90.00000000
_symmetry_Int_Tables_number   1
_chemical_formula_structural   KZrVF7
_chemical_formula_sum   'K4 Zr4 V4 F28'
_cell_volume   606.34399667
_cell_formula_units_Z   4
loop_
 _symmetry_equiv_pos_site_id
 _symmetry_equiv_pos_as_xyz
  1  'x, y, z'
loop_
 _atom_site_type_symbol
 _atom_site_label
 _atom_site_symmetry_multiplicity
 _atom_site_fract_x
 _atom_site_fract_y
 _atom_site_fract_z
 _atom_site_occupancy
  K  K0  1  0.763414  0.000000  0.250000  1
  K  K1  1  0.236586  0.000000  0.750000  1
  K  K2  1  0.736586  0.500000  0.250000  1
  K  K3  1  0.263414  0.500000  0.750000  1
  Zr  Zr4  1  0.250000  0.750000  0.406835  1
  Zr  Zr5  1  0.750000  0.250000  0.593165  1
  Zr  Zr6  1  0.750000  0.750000  0.906835  1
  Zr  Zr7  1  0.250000  0.250000  0.093165  1
  V  V8  1  0.250000  0.250000  0.402259  1
  V  V9  1  0.750000  0.250000  0.902259  1
  V  V10  1  0.750000  0.750000  0.597741  1
  V  V11  1  0.250000  0.750000  0.097741  1
  F  F12  1  0.551249  0.194441  0.043500  1
  F  F13  1  0.551249  0.805559  0.456500  1
  F  F14  1  0.948751  0.694441  0.456500  1
  F  F15  1  0.948751  0.305559  0.043500  1
  F  F16  1  0.448751  0.805559  0.956500  1
  F  F17  1  0.448751  0.194441  0.543500  1
  F  F18  1  0.051249  0.305559  0.543500  1
  F  F19  1  0.051249  0.694441  0.956500  1
  F  F20  1  0.750000  0.750000  0.085910  1
  F  F21  1  0.750000  0.250000  0.414090  1
  F  F22  1  0.250000  0.250000  0.914090  1
  F  F23  1  0.250000  0.750000  0.585910  1
  F  F24  1  0.430665  0.788176  0.250383  1
  F  F25  1  0.430665  0.211824  0.249617  1
  F  F26  1  0.069335  0.288176  0.249617  1
  F  F27  1  0.069335  0.711824  0.250383  1
  F  F28  1  0.569335  0.211824  0.749617  1
  F  F29  1  0.569335  0.788176  0.750383  1
  F  F30  1  0.930665  0.711824  0.750383  1
  F  F31  1  0.930665  0.288176  0.749617  1
  F  F32  1  0.167562  0.004127  0.102069  1
  F  F33  1  0.167562  0.995873  0.397931  1
  F  F34  1  0.332438  0.504127  0.397931  1
  F  F35  1  0.332438  0.495873  0.102069  1
  F  F36  1  0.832438  0.995873  0.897931  1
  F  F37  1  0.832438  0.004127  0.602069  1
  F  F38  1  0.667562  0.495873  0.602069  1
  F  F39  1  0.667562  0.504127  0.897931  1
