# generated using pymatgen
data_Nd2Ti3(ClO4)2
_symmetry_space_group_name_H-M   'P 1'
_cell_length_a   5.05581688
_cell_length_b   11.66970681
_cell_length_c   14.98365639
_cell_angle_alpha   90.00000000
_cell_angle_beta   90.00000000
_cell_angle_gamma   90.00000000
_symmetry_Int_Tables_number   1
_chemical_formula_structural   Nd2Ti3(ClO4)2
_chemical_formula_sum   'Nd8 Ti12 Cl8 O32'
_cell_volume   884.03423875
_cell_formula_units_Z   4
loop_
 _symmetry_equiv_pos_site_id
 _symmetry_equiv_pos_as_xyz
  1  'x, y, z'
loop_
 _atom_site_type_symbol
 _atom_site_label
 _atom_site_symmetry_multiplicity
 _atom_site_fract_x
 _atom_site_fract_y
 _atom_site_fract_z
 _atom_site_occupancy
  Nd  Nd0  1  0.021706  0.362794  0.336569  1
  Nd  Nd1  1  0.478294  0.362794  0.663431  1
  Nd  Nd2  1  0.478294  0.862794  0.836569  1
  Nd  Nd3  1  0.521706  0.137206  0.163431  1
  Nd  Nd4  1  0.978294  0.137206  0.836569  1
  Nd  Nd5  1  0.978294  0.637206  0.663431  1
  Nd  Nd6  1  0.021706  0.862794  0.163431  1
  Nd  Nd7  1  0.521706  0.637206  0.336569  1
  Ti  Ti8  1  0.750000  0.092277  0.500000  1
  Ti  Ti9  1  0.871841  0.422863  0.837721  1
  Ti  Ti10  1  0.128159  0.577137  0.162279  1
  Ti  Ti11  1  0.128159  0.077137  0.337721  1
  Ti  Ti12  1  0.250000  0.407723  0.000000  1
  Ti  Ti13  1  0.371841  0.077137  0.662279  1
  Ti  Ti14  1  0.250000  0.907723  0.500000  1
  Ti  Ti15  1  0.371841  0.577137  0.837721  1
  Ti  Ti16  1  0.628159  0.922863  0.337721  1
  Ti  Ti17  1  0.628159  0.422863  0.162279  1
  Ti  Ti18  1  0.750000  0.592277  0.000000  1
  Ti  Ti19  1  0.871841  0.922863  0.662279  1
  Cl  Cl20  1  0.017797  0.601460  0.422094  1
  Cl  Cl21  1  0.482203  0.101460  0.922094  1
  Cl  Cl22  1  0.982203  0.898540  0.922094  1
  Cl  Cl23  1  0.482203  0.601460  0.577906  1
  Cl  Cl24  1  0.017797  0.101460  0.077906  1
  Cl  Cl25  1  0.517797  0.898540  0.077906  1
  Cl  Cl26  1  0.517797  0.398540  0.422094  1
  Cl  Cl27  1  0.982203  0.398540  0.577906  1
  O  O28  1  0.062383  0.045167  0.576549  1
  O  O29  1  0.062383  0.545167  0.923451  1
  O  O30  1  0.574463  0.683049  0.918791  1
  O  O31  1  0.425537  0.816951  0.418791  1
  O  O32  1  0.326805  0.468860  0.236980  1
  O  O33  1  0.437617  0.045167  0.423451  1
  O  O34  1  0.750730  0.798440  0.720803  1
  O  O35  1  0.074463  0.316951  0.918791  1
  O  O36  1  0.249270  0.701560  0.220803  1
  O  O37  1  0.173195  0.968860  0.736980  1
  O  O38  1  0.250730  0.701560  0.779197  1
  O  O39  1  0.249270  0.201560  0.279197  1
  O  O40  1  0.173195  0.468860  0.763020  1
  O  O41  1  0.826805  0.031140  0.263020  1
  O  O42  1  0.749270  0.298440  0.220803  1
  O  O43  1  0.437617  0.545167  0.076549  1
  O  O44  1  0.562383  0.954833  0.576549  1
  O  O45  1  0.937617  0.954833  0.423451  1
  O  O46  1  0.925537  0.183049  0.418791  1
  O  O47  1  0.673195  0.031140  0.736980  1
  O  O48  1  0.826805  0.531140  0.236980  1
  O  O49  1  0.562383  0.454833  0.923451  1
  O  O50  1  0.749270  0.798440  0.279197  1
  O  O51  1  0.925537  0.683049  0.081209  1
  O  O52  1  0.425537  0.316951  0.081209  1
  O  O53  1  0.750730  0.298440  0.779197  1
  O  O54  1  0.673195  0.531140  0.763020  1
  O  O55  1  0.937617  0.454833  0.076549  1
  O  O56  1  0.250730  0.201560  0.720803  1
  O  O57  1  0.326805  0.968860  0.263020  1
  O  O58  1  0.574463  0.183049  0.581209  1
  O  O59  1  0.074463  0.816951  0.581209  1
