# generated using pymatgen
data_Cs4Ga2Se5
_symmetry_space_group_name_H-M   'P 1'
_cell_length_a   8.11897691
_cell_length_b   9.53717157
_cell_length_c   11.47220280
_cell_angle_alpha   76.20651292
_cell_angle_beta   85.72572446
_cell_angle_gamma   80.88376370
_symmetry_Int_Tables_number   1
_chemical_formula_structural   Cs4Ga2Se5
_chemical_formula_sum   'Cs8 Ga4 Se10'
_cell_volume   851.17586787
_cell_formula_units_Z   2
loop_
 _symmetry_equiv_pos_site_id
 _symmetry_equiv_pos_as_xyz
  1  'x, y, z'
loop_
 _atom_site_type_symbol
 _atom_site_label
 _atom_site_symmetry_multiplicity
 _atom_site_fract_x
 _atom_site_fract_y
 _atom_site_fract_z
 _atom_site_occupancy
  Cs  Cs0  1  0.420665  0.326502  0.087735  1
  Cs  Cs1  1  0.579335  0.673498  0.912265  1
  Cs  Cs2  1  0.200502  0.078442  0.867572  1
  Cs  Cs3  1  0.054511  0.606980  0.750661  1
  Cs  Cs4  1  0.799498  0.921558  0.132428  1
  Cs  Cs5  1  0.945489  0.393020  0.249339  1
  Cs  Cs6  1  0.578553  0.710354  0.499826  1
  Cs  Cs7  1  0.421447  0.289646  0.500174  1
  Ga  Ga8  1  0.905217  0.086784  0.598771  1
  Ga  Ga9  1  0.094783  0.913216  0.401229  1
  Ga  Ga10  1  0.274817  0.719934  0.210074  1
  Ga  Ga11  1  0.725183  0.280066  0.789926  1
  Se  Se12  1  0.904322  0.340317  0.600761  1
  Se  Se13  1  0.193825  0.956909  0.585677  1
  Se  Se14  1  0.448209  0.411973  0.764063  1
  Se  Se15  1  0.149598  0.691589  0.035888  1
  Se  Se16  1  0.850402  0.308411  0.964112  1
  Se  Se17  1  0.551791  0.588027  0.235937  1
  Se  Se18  1  0.095678  0.659683  0.399239  1
  Se  Se19  1  0.265719  0.986083  0.219449  1
  Se  Se20  1  0.734281  0.013917  0.780551  1
  Se  Se21  1  0.806175  0.043091  0.414323  1
