# generated using pymatgen
data_BaNbTePO8
_symmetry_space_group_name_H-M   'P 1'
_cell_length_a   6.85294986
_cell_length_b   7.69509093
_cell_length_c   27.85648413
_cell_angle_alpha   90.00000000
_cell_angle_beta   90.00000000
_cell_angle_gamma   90.00000000
_symmetry_Int_Tables_number   1
_chemical_formula_structural   BaNbTePO8
_chemical_formula_sum   'Ba8 Nb8 Te8 P8 O64'
_cell_volume   1468.98584845
_cell_formula_units_Z   8
loop_
 _symmetry_equiv_pos_site_id
 _symmetry_equiv_pos_as_xyz
  1  'x, y, z'
loop_
 _atom_site_type_symbol
 _atom_site_label
 _atom_site_symmetry_multiplicity
 _atom_site_fract_x
 _atom_site_fract_y
 _atom_site_fract_z
 _atom_site_occupancy
  Ba  Ba0  1  0.969529  0.357730  0.801039  1
  Ba  Ba1  1  0.469529  0.142270  0.198961  1
  Ba  Ba2  1  0.530471  0.642270  0.301039  1
  Ba  Ba3  1  0.469529  0.357730  0.698961  1
  Ba  Ba4  1  0.969529  0.142270  0.301039  1
  Ba  Ba5  1  0.030471  0.857730  0.698961  1
  Ba  Ba6  1  0.530471  0.857730  0.801039  1
  Ba  Ba7  1  0.030471  0.642270  0.198961  1
  Nb  Nb8  1  0.236284  0.584441  0.435341  1
  Nb  Nb9  1  0.736284  0.915559  0.564659  1
  Nb  Nb10  1  0.763716  0.084441  0.064659  1
  Nb  Nb11  1  0.763716  0.415559  0.564659  1
  Nb  Nb12  1  0.263716  0.415559  0.935341  1
  Nb  Nb13  1  0.263716  0.084441  0.435341  1
  Nb  Nb14  1  0.236284  0.915559  0.935341  1
  Nb  Nb15  1  0.736284  0.584441  0.064659  1
  Te  Te16  1  0.292772  0.638559  0.572507  1
  Te  Te17  1  0.792772  0.861441  0.427493  1
  Te  Te18  1  0.707228  0.361441  0.427493  1
  Te  Te19  1  0.292772  0.861441  0.072507  1
  Te  Te20  1  0.792772  0.638559  0.927493  1
  Te  Te21  1  0.207228  0.138559  0.572507  1
  Te  Te22  1  0.707228  0.138559  0.927493  1
  Te  Te23  1  0.207228  0.361441  0.072507  1
  P  P24  1  0.034974  0.822881  0.823124  1
  P  P25  1  0.465026  0.322881  0.823124  1
  P  P26  1  0.965026  0.322881  0.676876  1
  P  P27  1  0.465026  0.177119  0.323124  1
  P  P28  1  0.534974  0.822881  0.676876  1
  P  P29  1  0.534974  0.677119  0.176876  1
  P  P30  1  0.965026  0.177119  0.176876  1
  P  P31  1  0.034974  0.677119  0.323124  1
  O  O32  1  0.972532  0.049218  0.417235  1
  O  O33  1  0.821144  0.850653  0.068438  1
  O  O34  1  0.190413  0.886472  0.860721  1
  O  O35  1  0.690413  0.886472  0.639279  1
  O  O36  1  0.027468  0.950782  0.582765  1
  O  O37  1  0.146342  0.713236  0.785534  1
  O  O38  1  0.958824  0.667174  0.440435  1
  O  O39  1  0.527468  0.549218  0.417235  1
  O  O40  1  0.678856  0.149347  0.568438  1
  O  O41  1  0.027468  0.549218  0.082765  1
  O  O42  1  0.716509  0.406945  0.496537  1
  O  O43  1  0.678856  0.350653  0.068438  1
  O  O44  1  0.178856  0.350653  0.431562  1
  O  O45  1  0.458824  0.667174  0.059565  1
  O  O46  1  0.458824  0.832826  0.559565  1
  O  O47  1  0.646342  0.713236  0.714466  1
  O  O48  1  0.283491  0.593055  0.503463  1
  O  O49  1  0.874739  0.706832  0.848054  1
  O  O50  1  0.125261  0.293168  0.151946  1
  O  O51  1  0.931244  0.523312  0.298598  1
  O  O52  1  0.431244  0.523312  0.201402  1
  O  O53  1  0.068756  0.476688  0.701402  1
  O  O54  1  0.321144  0.850653  0.431562  1
  O  O55  1  0.190413  0.613528  0.360721  1
  O  O56  1  0.216509  0.093055  0.503463  1
  O  O57  1  0.283491  0.906945  0.003463  1
  O  O58  1  0.809587  0.386472  0.639279  1
  O  O59  1  0.783491  0.906945  0.496537  1
  O  O60  1  0.625261  0.206832  0.848054  1
  O  O61  1  0.041176  0.167174  0.059565  1
  O  O62  1  0.958824  0.832826  0.940435  1
  O  O63  1  0.541176  0.167174  0.440435  1
  O  O64  1  0.353658  0.286764  0.285534  1
  O  O65  1  0.353658  0.213236  0.785534  1
  O  O66  1  0.374739  0.706832  0.651946  1
  O  O67  1  0.690413  0.613528  0.139279  1
  O  O68  1  0.931244  0.976688  0.798598  1
  O  O69  1  0.472532  0.049218  0.082765  1
  O  O70  1  0.068756  0.023312  0.201402  1
  O  O71  1  0.472532  0.450782  0.582765  1
  O  O72  1  0.821144  0.649347  0.568438  1
  O  O73  1  0.431244  0.976688  0.701402  1
  O  O74  1  0.178856  0.149347  0.931562  1
  O  O75  1  0.809587  0.113528  0.139279  1
  O  O76  1  0.374739  0.793168  0.151946  1
  O  O77  1  0.146342  0.786764  0.285534  1
  O  O78  1  0.321144  0.649347  0.931562  1
  O  O79  1  0.716509  0.093055  0.996537  1
  O  O80  1  0.541176  0.332826  0.940435  1
  O  O81  1  0.783491  0.593055  0.996537  1
  O  O82  1  0.568756  0.023312  0.298598  1
  O  O83  1  0.309587  0.113528  0.360721  1
  O  O84  1  0.527468  0.950782  0.917235  1
  O  O85  1  0.646342  0.786764  0.214466  1
  O  O86  1  0.309587  0.386472  0.860721  1
  O  O87  1  0.853658  0.213236  0.714466  1
  O  O88  1  0.125261  0.206832  0.651946  1
  O  O89  1  0.216509  0.406945  0.003463  1
  O  O90  1  0.625261  0.293168  0.348054  1
  O  O91  1  0.853658  0.286764  0.214466  1
  O  O92  1  0.041176  0.332826  0.559565  1
  O  O93  1  0.972532  0.450782  0.917235  1
  O  O94  1  0.874739  0.793168  0.348054  1
  O  O95  1  0.568756  0.476688  0.798598  1
