# generated using pymatgen
data_OsOF4
_symmetry_space_group_name_H-M   'P 1'
_cell_length_a   5.78612339
_cell_length_b   9.82281651
_cell_length_c   13.15651642
_cell_angle_alpha   90.00000000
_cell_angle_beta   90.00000000
_cell_angle_gamma   90.00000000
_symmetry_Int_Tables_number   1
_chemical_formula_structural   OsOF4
_chemical_formula_sum   'Os8 O8 F32'
_cell_volume   747.76414042
_cell_formula_units_Z   8
loop_
 _symmetry_equiv_pos_site_id
 _symmetry_equiv_pos_as_xyz
  1  'x, y, z'
loop_
 _atom_site_type_symbol
 _atom_site_label
 _atom_site_symmetry_multiplicity
 _atom_site_fract_x
 _atom_site_fract_y
 _atom_site_fract_z
 _atom_site_occupancy
  Os  Os0  1  0.645531  0.990082  0.485845  1
  Os  Os1  1  0.854469  0.009918  0.985845  1
  Os  Os2  1  0.895015  0.268134  0.299974  1
  Os  Os3  1  0.395015  0.231866  0.700026  1
  Os  Os4  1  0.604985  0.731866  0.799974  1
  Os  Os5  1  0.104985  0.768134  0.200026  1
  Os  Os6  1  0.145531  0.509918  0.514155  1
  Os  Os7  1  0.354469  0.490082  0.014155  1
  O  O8  1  0.103740  0.427702  0.970405  1
  O  O9  1  0.862315  0.680579  0.225032  1
  O  O10  1  0.637685  0.319421  0.725032  1
  O  O11  1  0.896260  0.927702  0.529595  1
  O  O12  1  0.396260  0.572298  0.470405  1
  O  O13  1  0.603740  0.072298  0.029595  1
  O  O14  1  0.137685  0.180579  0.274968  1
  O  O15  1  0.362315  0.819421  0.774968  1
  F  F16  1  0.589189  0.611898  0.052688  1
  F  F17  1  0.410811  0.111898  0.447312  1
  F  F18  1  0.601983  0.089186  0.625614  1
  F  F19  1  0.371990  0.406059  0.142714  1
  F  F20  1  0.174855  0.338521  0.768918  1
  F  F21  1  0.910811  0.388102  0.552688  1
  F  F22  1  0.108546  0.891387  0.310186  1
  F  F23  1  0.891454  0.391387  0.189814  1
  F  F24  1  0.101983  0.410814  0.374386  1
  F  F25  1  0.650970  0.848196  0.929241  1
  F  F26  1  0.825145  0.838521  0.731082  1
  F  F27  1  0.159316  0.130000  0.637610  1
  F  F28  1  0.674855  0.161479  0.231082  1
  F  F29  1  0.069929  0.138425  0.034361  1
  F  F30  1  0.659316  0.370000  0.362390  1
  F  F31  1  0.340684  0.870000  0.137610  1
  F  F32  1  0.898017  0.910814  0.125614  1
  F  F33  1  0.871990  0.093941  0.857286  1
  F  F34  1  0.608546  0.608613  0.689814  1
  F  F35  1  0.128010  0.593941  0.642714  1
  F  F36  1  0.325145  0.661479  0.268918  1
  F  F37  1  0.089189  0.888102  0.947312  1
  F  F38  1  0.430071  0.861575  0.534361  1
  F  F39  1  0.150970  0.651804  0.070759  1
  F  F40  1  0.930071  0.638425  0.465639  1
  F  F41  1  0.398017  0.589186  0.874386  1
  F  F42  1  0.349030  0.348196  0.570759  1
  F  F43  1  0.840684  0.630000  0.862390  1
  F  F44  1  0.628010  0.906059  0.357286  1
  F  F45  1  0.569929  0.361575  0.965639  1
  F  F46  1  0.391454  0.108613  0.810186  1
  F  F47  1  0.849030  0.151804  0.429241  1
