# generated using pymatgen
data_Te2MoCl12
_symmetry_space_group_name_H-M   'P 1'
_cell_length_a   14.13781931
_cell_length_b   14.13781931
_cell_length_c   14.13781931
_cell_angle_alpha   48.06195179
_cell_angle_beta   48.06195179
_cell_angle_gamma   48.06195179
_symmetry_Int_Tables_number   1
_chemical_formula_structural   Te2MoCl12
_chemical_formula_sum   'Te6 Mo3 Cl36'
_cell_volume   1432.69901595
_cell_formula_units_Z   3
loop_
 _symmetry_equiv_pos_site_id
 _symmetry_equiv_pos_as_xyz
  1  'x, y, z'
loop_
 _atom_site_type_symbol
 _atom_site_label
 _atom_site_symmetry_multiplicity
 _atom_site_fract_x
 _atom_site_fract_y
 _atom_site_fract_z
 _atom_site_occupancy
  Te  Te0  1  0.248313  0.609132  0.896716  1
  Te  Te1  1  0.896716  0.248313  0.609132  1
  Te  Te2  1  0.609132  0.896716  0.248313  1
  Te  Te3  1  0.751687  0.390868  0.103284  1
  Te  Te4  1  0.103284  0.751687  0.390868  1
  Te  Te5  1  0.390868  0.103284  0.751687  1
  Mo  Mo6  1  0.252627  0.252627  0.252627  1
  Mo  Mo7  1  0.747373  0.747373  0.747373  1
  Mo  Mo8  1  0.500000  0.500000  0.500000  1
  Cl  Cl9  1  0.389342  0.734795  0.740460  1
  Cl  Cl10  1  0.740460  0.389342  0.734795  1
  Cl  Cl11  1  0.734795  0.740460  0.389342  1
  Cl  Cl12  1  0.610658  0.265205  0.259540  1
  Cl  Cl13  1  0.259540  0.610658  0.265205  1
  Cl  Cl14  1  0.265205  0.259540  0.610658  1
  Cl  Cl15  1  0.103204  0.748076  0.780676  1
  Cl  Cl16  1  0.780676  0.103204  0.748076  1
  Cl  Cl17  1  0.748076  0.780676  0.103204  1
  Cl  Cl18  1  0.896796  0.251924  0.219324  1
  Cl  Cl19  1  0.219324  0.896796  0.251924  1
  Cl  Cl20  1  0.251924  0.219324  0.896796  1
  Cl  Cl21  1  0.095625  0.730768  0.039665  1
  Cl  Cl22  1  0.039665  0.095625  0.730768  1
  Cl  Cl23  1  0.730768  0.039665  0.095625  1
  Cl  Cl24  1  0.904375  0.269232  0.960335  1
  Cl  Cl25  1  0.960335  0.904375  0.269232  1
  Cl  Cl26  1  0.269232  0.960335  0.904375  1
  Cl  Cl27  1  0.119272  0.412699  0.114128  1
  Cl  Cl28  1  0.114128  0.119272  0.412699  1
  Cl  Cl29  1  0.412699  0.114128  0.119272  1
  Cl  Cl30  1  0.880728  0.587301  0.885872  1
  Cl  Cl31  1  0.885872  0.880728  0.587301  1
  Cl  Cl32  1  0.587301  0.885872  0.880728  1
  Cl  Cl33  1  0.383514  0.392646  0.091658  1
  Cl  Cl34  1  0.091658  0.383514  0.392646  1
  Cl  Cl35  1  0.392646  0.091658  0.383514  1
  Cl  Cl36  1  0.616486  0.607354  0.908342  1
  Cl  Cl37  1  0.908342  0.616486  0.607354  1
  Cl  Cl38  1  0.607354  0.908342  0.616486  1
  Cl  Cl39  1  0.440856  0.436336  0.733017  1
  Cl  Cl40  1  0.733017  0.440856  0.436336  1
  Cl  Cl41  1  0.436336  0.733017  0.440856  1
  Cl  Cl42  1  0.559144  0.563664  0.266983  1
  Cl  Cl43  1  0.266983  0.559144  0.563664  1
  Cl  Cl44  1  0.563664  0.266983  0.559144  1
