# generated using pymatgen
data_MgAl2O4
_symmetry_space_group_name_H-M   'P 1'
_cell_length_a   19.17583917
_cell_length_b   19.17583917
_cell_length_c   19.17583917
_cell_angle_alpha   17.31770820
_cell_angle_beta   17.31770820
_cell_angle_gamma   17.31770820
_symmetry_Int_Tables_number   1
_chemical_formula_structural   MgAl2O4
_chemical_formula_sum   'Mg8 Al16 O32'
_cell_volume   545.20142737
_cell_formula_units_Z   8
loop_
 _symmetry_equiv_pos_site_id
 _symmetry_equiv_pos_as_xyz
  1  'x, y, z'
loop_
 _atom_site_type_symbol
 _atom_site_label
 _atom_site_symmetry_multiplicity
 _atom_site_fract_x
 _atom_site_fract_y
 _atom_site_fract_z
 _atom_site_occupancy
  Mg  Mg0  1  0.155288  0.155288  0.155288  1
  Mg  Mg1  1  0.499271  0.499271  0.499271  1
  Mg  Mg2  1  0.405760  0.405760  0.405760  1
  Mg  Mg3  1  0.656443  0.656443  0.656443  1
  Mg  Mg4  1  0.094454  0.094454  0.094454  1
  Mg  Mg5  1  0.906316  0.906316  0.906316  1
  Mg  Mg6  1  0.343843  0.343843  0.343843  1
  Mg  Mg7  1  0.593534  0.593534  0.593534  1
  Al  Al8  1  0.621942  0.130123  0.621942  1
  Al  Al9  1  0.749911  0.749911  0.749911  1
  Al  Al10  1  0.130123  0.621942  0.621942  1
  Al  Al11  1  0.875046  0.375252  0.875046  1
  Al  Al12  1  0.621942  0.621942  0.130123  1
  Al  Al13  1  0.000235  0.000235  0.000235  1
  Al  Al14  1  0.375252  0.875046  0.875046  1
  Al  Al15  1  0.124789  0.625875  0.124789  1
  Al  Al16  1  0.875046  0.875046  0.375252  1
  Al  Al17  1  0.250495  0.250495  0.250495  1
  Al  Al18  1  0.625875  0.124789  0.124789  1
  Al  Al19  1  0.124789  0.124789  0.625875  1
  Al  Al20  1  0.372848  0.880064  0.372848  1
  Al  Al21  1  0.880064  0.372848  0.372848  1
  Al  Al22  1  0.372848  0.372848  0.880064  1
  Al  Al23  1  0.844413  0.844413  0.844413  1
  O  O24  1  0.322461  0.783444  0.322461  1
  O  O25  1  0.440043  0.440043  0.440043  1
  O  O26  1  0.783444  0.322461  0.322461  1
  O  O27  1  0.322461  0.322461  0.783444  1
  O  O28  1  0.918155  0.918155  0.480378  1
  O  O29  1  0.579655  0.024700  0.579655  1
  O  O30  1  0.480378  0.918155  0.918155  1
  O  O31  1  0.690906  0.690906  0.690906  1
  O  O32  1  0.812206  0.812206  0.812206  1
  O  O33  1  0.024700  0.579655  0.579655  1
  O  O34  1  0.579655  0.579655  0.024700  1
  O  O35  1  0.918155  0.480378  0.918155  1
  O  O36  1  0.829376  0.275142  0.829376  1
  O  O37  1  0.170419  0.170419  0.725062  1
  O  O38  1  0.059400  0.059400  0.059400  1
  O  O39  1  0.725062  0.170419  0.170419  1
  O  O40  1  0.940846  0.940846  0.940846  1
  O  O41  1  0.275142  0.829376  0.829376  1
  O  O42  1  0.829376  0.829376  0.275142  1
  O  O43  1  0.170419  0.725062  0.170419  1
  O  O44  1  0.080787  0.523494  0.080787  1
  O  O45  1  0.420782  0.420782  0.974158  1
  O  O46  1  0.974158  0.420782  0.420782  1
  O  O47  1  0.309009  0.309009  0.309009  1
  O  O48  1  0.190705  0.190705  0.190705  1
  O  O49  1  0.523494  0.080787  0.080787  1
  O  O50  1  0.080787  0.080787  0.523494  1
  O  O51  1  0.420782  0.974158  0.420782  1
  O  O52  1  0.686072  0.686072  0.196484  1
  O  O53  1  0.558079  0.558079  0.558079  1
  O  O54  1  0.196484  0.686072  0.686072  1
  O  O55  1  0.686072  0.196484  0.686072  1
