# generated using pymatgen
data_NaVO3
_symmetry_space_group_name_H-M   'P 1'
_cell_length_a   3.65936310
_cell_length_b   5.49029788
_cell_length_c   14.59751528
_cell_angle_alpha   90.00000000
_cell_angle_beta   90.00000000
_cell_angle_gamma   90.00000000
_symmetry_Int_Tables_number   1
_chemical_formula_structural   NaVO3
_chemical_formula_sum   'Na4 V4 O12'
_cell_volume   293.27858417
_cell_formula_units_Z   4
loop_
 _symmetry_equiv_pos_site_id
 _symmetry_equiv_pos_as_xyz
  1  'x, y, z'
loop_
 _atom_site_type_symbol
 _atom_site_label
 _atom_site_symmetry_multiplicity
 _atom_site_fract_x
 _atom_site_fract_y
 _atom_site_fract_z
 _atom_site_occupancy
  Na  Na0  1  0.250000  0.888316  0.327243  1
  Na  Na1  1  0.750000  0.111684  0.672757  1
  Na  Na2  1  0.750000  0.388316  0.172757  1
  Na  Na3  1  0.250000  0.611684  0.827243  1
  V  V4  1  0.750000  0.073216  0.914861  1
  V  V5  1  0.250000  0.926784  0.085139  1
  V  V6  1  0.250000  0.573216  0.585139  1
  V  V7  1  0.750000  0.426784  0.414861  1
  O  O8  1  0.250000  0.409300  0.683601  1
  O  O9  1  0.750000  0.131350  0.388266  1
  O  O10  1  0.250000  0.495794  0.448348  1
  O  O11  1  0.750000  0.504206  0.551652  1
  O  O12  1  0.750000  0.368650  0.888266  1
  O  O13  1  0.750000  0.995794  0.051652  1
  O  O14  1  0.750000  0.590700  0.316399  1
  O  O15  1  0.750000  0.909300  0.816399  1
  O  O16  1  0.250000  0.868650  0.611734  1
  O  O17  1  0.250000  0.631350  0.111734  1
  O  O18  1  0.250000  0.090700  0.183601  1
  O  O19  1  0.250000  0.004206  0.948348  1
