# generated using pymatgen
data_Ag5(Sn3S8)2
_symmetry_space_group_name_H-M   'P 1'
_cell_length_a   10.74073804
_cell_length_b   10.74073804
_cell_length_c   10.72235807
_cell_angle_alpha   90.00000000
_cell_angle_beta   90.00000000
_cell_angle_gamma   90.97133418
_symmetry_Int_Tables_number   1
_chemical_formula_structural   Ag5(Sn3S8)2
_chemical_formula_sum   'Ag10 Sn12 S32'
_cell_volume   1236.79050786
_cell_formula_units_Z   2
loop_
 _symmetry_equiv_pos_site_id
 _symmetry_equiv_pos_as_xyz
  1  'x, y, z'
loop_
 _atom_site_type_symbol
 _atom_site_label
 _atom_site_symmetry_multiplicity
 _atom_site_fract_x
 _atom_site_fract_y
 _atom_site_fract_z
 _atom_site_occupancy
  Ag  Ag0  1  0.388142  0.388142  0.000000  1
  Ag  Ag1  1  0.371173  0.371173  0.500000  1
  Ag  Ag2  1  0.877887  0.364277  0.492749  1
  Ag  Ag3  1  0.877082  0.122918  0.250000  1
  Ag  Ag4  1  0.635723  0.122113  0.007251  1
  Ag  Ag5  1  0.122918  0.877082  0.750000  1
  Ag  Ag6  1  0.364277  0.877887  0.507251  1
  Ag  Ag7  1  0.122113  0.635723  0.992749  1
  Ag  Ag8  1  0.628827  0.628827  0.000000  1
  Ag  Ag9  1  0.611858  0.611858  0.500000  1
  Sn  Sn10  1  0.125592  0.377753  0.244131  1
  Sn  Sn11  1  0.885017  0.373767  0.992885  1
  Sn  Sn12  1  0.634874  0.365126  0.750000  1
  Sn  Sn13  1  0.127425  0.127425  0.000000  1
  Sn  Sn14  1  0.377753  0.125592  0.755869  1
  Sn  Sn15  1  0.626233  0.114983  0.507115  1
  Sn  Sn16  1  0.373767  0.885017  0.007115  1
  Sn  Sn17  1  0.622247  0.874408  0.255869  1
  Sn  Sn18  1  0.872575  0.872575  0.500000  1
  Sn  Sn19  1  0.365126  0.634874  0.250000  1
  Sn  Sn20  1  0.114983  0.626233  0.492885  1
  Sn  Sn21  1  0.874408  0.622247  0.744131  1
  S  S22  1  0.364079  0.394691  0.241189  1
  S  S23  1  0.118094  0.386397  0.483938  1
  S  S24  1  0.887139  0.368484  0.236193  1
  S  S25  1  0.128345  0.377911  0.996881  1
  S  S26  1  0.877835  0.375197  0.746689  1
  S  S27  1  0.642766  0.365052  0.990056  1
  S  S28  1  0.394691  0.364079  0.758811  1
  S  S29  1  0.634948  0.357234  0.509944  1
  S  S30  1  0.122021  0.139622  0.238890  1
  S  S31  1  0.888137  0.135793  0.998433  1
  S  S32  1  0.139622  0.122021  0.761110  1
  S  S33  1  0.377911  0.128345  0.003119  1
  S  S34  1  0.624803  0.122165  0.753311  1
  S  S35  1  0.386397  0.118094  0.516062  1
  S  S36  1  0.631516  0.112861  0.263807  1
  S  S37  1  0.864207  0.111863  0.501567  1
  S  S38  1  0.135793  0.888137  0.001567  1
  S  S39  1  0.368484  0.887139  0.763807  1
  S  S40  1  0.613603  0.881906  0.016062  1
  S  S41  1  0.375197  0.877835  0.253311  1
  S  S42  1  0.622089  0.871655  0.503119  1
  S  S43  1  0.860378  0.877979  0.261110  1
  S  S44  1  0.111863  0.864207  0.498433  1
  S  S45  1  0.877979  0.860378  0.738890  1
  S  S46  1  0.365052  0.642766  0.009944  1
  S  S47  1  0.605309  0.635921  0.258811  1
  S  S48  1  0.357234  0.634948  0.490056  1
  S  S49  1  0.122165  0.624803  0.246689  1
  S  S50  1  0.871655  0.622089  0.496881  1
  S  S51  1  0.112861  0.631516  0.736193  1
  S  S52  1  0.881906  0.613603  0.983938  1
  S  S53  1  0.635921  0.605309  0.741189  1
