# generated using pymatgen
data_NaLi2(RuO2)6
_symmetry_space_group_name_H-M   'P 1'
_cell_length_a   9.57319264
_cell_length_b   9.57319264
_cell_length_c   2.76461895
_cell_angle_alpha   90.00000000
_cell_angle_beta   90.00000000
_cell_angle_gamma   120.00000000
_symmetry_Int_Tables_number   1
_chemical_formula_structural   NaLi2(RuO2)6
_chemical_formula_sum   'Na1 Li2 Ru6 O12'
_cell_volume   219.42166652
_cell_formula_units_Z   1
loop_
 _symmetry_equiv_pos_site_id
 _symmetry_equiv_pos_as_xyz
  1  'x, y, z'
loop_
 _atom_site_type_symbol
 _atom_site_label
 _atom_site_symmetry_multiplicity
 _atom_site_fract_x
 _atom_site_fract_y
 _atom_site_fract_z
 _atom_site_occupancy
  Na  Na0  1  0.000000  0.000000  0.000000  1
  Li  Li1  1  0.666667  0.333333  0.749197  1
  Li  Li2  1  0.333333  0.666667  0.250803  1
  Ru  Ru3  1  0.358302  0.341884  0.750135  1
  Ru  Ru4  1  0.658116  0.016418  0.750135  1
  Ru  Ru5  1  0.341884  0.983582  0.249865  1
  Ru  Ru6  1  0.983582  0.641698  0.750135  1
  Ru  Ru7  1  0.016418  0.358302  0.249865  1
  Ru  Ru8  1  0.641698  0.658116  0.249865  1
  O  O9  1  0.543652  0.410757  0.251253  1
  O  O10  1  0.410757  0.867105  0.748747  1
  O  O11  1  0.456348  0.589243  0.748747  1
  O  O12  1  0.132895  0.543652  0.748747  1
  O  O13  1  0.867105  0.456348  0.251253  1
  O  O14  1  0.106398  0.812078  0.251468  1
  O  O15  1  0.294321  0.106398  0.748532  1
  O  O16  1  0.589243  0.132895  0.251253  1
  O  O17  1  0.187922  0.294321  0.251468  1
  O  O18  1  0.893602  0.187922  0.748532  1
  O  O19  1  0.812078  0.705679  0.748532  1
  O  O20  1  0.705679  0.893602  0.251468  1
