# generated using pymatgen
data_Na8Hg3
_symmetry_space_group_name_H-M   'P 1'
_cell_length_a   18.34734625
_cell_length_b   18.34734625
_cell_length_c   18.34734625
_cell_angle_alpha   29.33989245
_cell_angle_beta   29.33989245
_cell_angle_gamma   29.33989245
_symmetry_Int_Tables_number   1
_chemical_formula_structural   Na8Hg3
_chemical_formula_sum   'Na32 Hg12'
_cell_volume   1312.19864101
_cell_formula_units_Z   4
loop_
 _symmetry_equiv_pos_site_id
 _symmetry_equiv_pos_as_xyz
  1  'x, y, z'
loop_
 _atom_site_type_symbol
 _atom_site_label
 _atom_site_symmetry_multiplicity
 _atom_site_fract_x
 _atom_site_fract_y
 _atom_site_fract_z
 _atom_site_occupancy
  Na  Na0  1  0.290328  0.013626  0.641561  1
  Na  Na1  1  0.641561  0.290328  0.013626  1
  Na  Na2  1  0.013626  0.641561  0.290328  1
  Na  Na3  1  0.858439  0.486374  0.209672  1
  Na  Na4  1  0.209672  0.858439  0.486374  1
  Na  Na5  1  0.486374  0.209672  0.858439  1
  Na  Na6  1  0.709672  0.986374  0.358439  1
  Na  Na7  1  0.358439  0.709672  0.986374  1
  Na  Na8  1  0.986374  0.358439  0.709672  1
  Na  Na9  1  0.141561  0.513626  0.790328  1
  Na  Na10  1  0.790328  0.141561  0.513626  1
  Na  Na11  1  0.513626  0.790328  0.141561  1
  Na  Na12  1  0.866084  0.356732  0.620599  1
  Na  Na13  1  0.620599  0.866084  0.356732  1
  Na  Na14  1  0.356732  0.620599  0.866084  1
  Na  Na15  1  0.879401  0.143268  0.633916  1
  Na  Na16  1  0.633916  0.879401  0.143268  1
  Na  Na17  1  0.143268  0.633916  0.879401  1
  Na  Na18  1  0.133916  0.643268  0.379401  1
  Na  Na19  1  0.379401  0.133916  0.643268  1
  Na  Na20  1  0.643268  0.379401  0.133916  1
  Na  Na21  1  0.120599  0.856732  0.366084  1
  Na  Na22  1  0.366084  0.120599  0.856732  1
  Na  Na23  1  0.856732  0.366084  0.120599  1
  Na  Na24  1  0.938599  0.938599  0.938599  1
  Na  Na25  1  0.561401  0.561401  0.561401  1
  Na  Na26  1  0.061401  0.061401  0.061401  1
  Na  Na27  1  0.438599  0.438599  0.438599  1
  Na  Na28  1  0.280269  0.280269  0.280269  1
  Na  Na29  1  0.219731  0.219731  0.219731  1
  Na  Na30  1  0.719731  0.719731  0.719731  1
  Na  Na31  1  0.780269  0.780269  0.780269  1
  Hg  Hg32  1  0.434568  0.750000  0.065432  1
  Hg  Hg33  1  0.065432  0.434568  0.750000  1
  Hg  Hg34  1  0.750000  0.065432  0.434568  1
  Hg  Hg35  1  0.565432  0.250000  0.934568  1
  Hg  Hg36  1  0.934568  0.565432  0.250000  1
  Hg  Hg37  1  0.250000  0.934568  0.565432  1
  Hg  Hg38  1  0.000000  0.000000  0.000000  1
  Hg  Hg39  1  0.500000  0.500000  0.500000  1
  Hg  Hg40  1  0.658060  0.658060  0.658060  1
  Hg  Hg41  1  0.841940  0.841940  0.841940  1
  Hg  Hg42  1  0.341940  0.341940  0.341940  1
  Hg  Hg43  1  0.158060  0.158060  0.158060  1
