# generated using pymatgen
data_H6RuN3Cl3O
_symmetry_space_group_name_H-M   'P 1'
_cell_length_a   6.79399368
_cell_length_b   11.64596276
_cell_length_c   11.36165555
_cell_angle_alpha   90.00000000
_cell_angle_beta   119.03313617
_cell_angle_gamma   90.00000000
_symmetry_Int_Tables_number   1
_chemical_formula_structural   H6RuN3Cl3O
_chemical_formula_sum   'H24 Ru4 N12 Cl12 O4'
_cell_volume   785.99918088
_cell_formula_units_Z   4
loop_
 _symmetry_equiv_pos_site_id
 _symmetry_equiv_pos_as_xyz
  1  'x, y, z'
loop_
 _atom_site_type_symbol
 _atom_site_label
 _atom_site_symmetry_multiplicity
 _atom_site_fract_x
 _atom_site_fract_y
 _atom_site_fract_z
 _atom_site_occupancy
  H  H0  1  0.224213  0.595643  0.672548  1
  H  H1  1  0.016182  0.888047  0.642715  1
  H  H2  1  0.979934  0.743630  0.078021  1
  H  H3  1  0.775787  0.095643  0.827452  1
  H  H4  1  0.016182  0.611953  0.142715  1
  H  H5  1  0.983818  0.388047  0.857285  1
  H  H6  1  0.367370  0.540440  0.827407  1
  H  H7  1  0.518580  0.141419  0.722855  1
  H  H8  1  0.224213  0.904357  0.172548  1
  H  H9  1  0.481420  0.641419  0.777145  1
  H  H10  1  0.632630  0.040440  0.672593  1
  H  H11  1  0.187147  0.194145  0.362412  1
  H  H12  1  0.367370  0.959560  0.327407  1
  H  H13  1  0.187147  0.305855  0.862412  1
  H  H14  1  0.481420  0.858581  0.277145  1
  H  H15  1  0.775787  0.404357  0.327452  1
  H  H16  1  0.979934  0.756370  0.578021  1
  H  H17  1  0.518580  0.358581  0.222855  1
  H  H18  1  0.983818  0.111953  0.357285  1
  H  H19  1  0.812853  0.694145  0.137588  1
  H  H20  1  0.632630  0.459560  0.172593  1
  H  H21  1  0.812853  0.805855  0.637588  1
  H  H22  1  0.020066  0.256370  0.921979  1
  H  H23  1  0.020066  0.243630  0.421979  1
  Ru  Ru24  1  0.804251  0.240121  0.650841  1
  Ru  Ru25  1  0.195749  0.740121  0.849159  1
  Ru  Ru26  1  0.195749  0.759879  0.349159  1
  Ru  Ru27  1  0.804251  0.259879  0.150841  1
  N  N28  1  0.601644  0.155111  0.120085  1
  N  N29  1  0.975343  0.695004  0.152815  1
  N  N30  1  0.398356  0.844889  0.879915  1
  N  N31  1  0.333476  0.614665  0.771973  1
  N  N32  1  0.333476  0.885335  0.271973  1
  N  N33  1  0.024657  0.195004  0.347185  1
  N  N34  1  0.398356  0.655111  0.379915  1
  N  N35  1  0.666524  0.385335  0.228027  1
  N  N36  1  0.024657  0.304996  0.847185  1
  N  N37  1  0.666524  0.114665  0.728027  1
  N  N38  1  0.601644  0.344889  0.620085  1
  N  N39  1  0.975343  0.804996  0.652815  1
  Cl  Cl40  1  0.580402  0.154625  0.430476  1
  Cl  Cl41  1  0.419598  0.654625  0.069524  1
  Cl  Cl42  1  0.419598  0.845375  0.569524  1
  Cl  Cl43  1  0.909659  0.603654  0.804138  1
  Cl  Cl44  1  0.008875  0.866803  0.930209  1
  Cl  Cl45  1  0.991125  0.366803  0.569791  1
  Cl  Cl46  1  0.008875  0.633197  0.430209  1
  Cl  Cl47  1  0.991125  0.133197  0.069791  1
  Cl  Cl48  1  0.580402  0.345375  0.930476  1
  Cl  Cl49  1  0.090341  0.103654  0.695862  1
  Cl  Cl50  1  0.909659  0.896346  0.304138  1
  Cl  Cl51  1  0.090341  0.396346  0.195862  1
  O  O52  1  0.527976  0.581156  0.403399  1
  O  O53  1  0.472024  0.081156  0.096601  1
  O  O54  1  0.472024  0.418844  0.596601  1
  O  O55  1  0.527976  0.918844  0.903399  1
