# generated using pymatgen
data_LaAg(PO3)4
_symmetry_space_group_name_H-M   'P 1'
_cell_length_a   7.40868129
_cell_length_b   13.41333869
_cell_length_c   12.55376926
_cell_angle_alpha   90.00000000
_cell_angle_beta   125.80942534
_cell_angle_gamma   90.00000000
_symmetry_Int_Tables_number   1
_chemical_formula_structural   LaAg(PO3)4
_chemical_formula_sum   'La4 Ag4 P16 O48'
_cell_volume   1011.70859245
_cell_formula_units_Z   4
loop_
 _symmetry_equiv_pos_site_id
 _symmetry_equiv_pos_as_xyz
  1  'x, y, z'
loop_
 _atom_site_type_symbol
 _atom_site_label
 _atom_site_symmetry_multiplicity
 _atom_site_fract_x
 _atom_site_fract_y
 _atom_site_fract_z
 _atom_site_occupancy
  La  La0  1  0.536178  0.282921  0.522932  1
  La  La1  1  0.536178  0.217079  0.022932  1
  La  La2  1  0.463822  0.782921  0.977068  1
  La  La3  1  0.463822  0.717079  0.477068  1
  Ag  Ag4  1  0.067878  0.722079  0.567427  1
  Ag  Ag5  1  0.067878  0.777921  0.067427  1
  Ag  Ag6  1  0.932122  0.277921  0.432573  1
  Ag  Ag7  1  0.932122  0.222079  0.932573  1
  P  P8  1  0.117952  0.113230  0.237427  1
  P  P9  1  0.882048  0.886770  0.762573  1
  P  P10  1  0.992424  0.901859  0.245766  1
  P  P11  1  0.007576  0.401859  0.254234  1
  P  P12  1  0.882048  0.613230  0.262573  1
  P  P13  1  0.567874  0.411238  0.801438  1
  P  P14  1  0.337751  0.125946  0.693972  1
  P  P15  1  0.567874  0.088762  0.301438  1
  P  P16  1  0.992424  0.598141  0.745766  1
  P  P17  1  0.337751  0.374054  0.193972  1
  P  P18  1  0.662249  0.874054  0.306028  1
  P  P19  1  0.662249  0.625946  0.806028  1
  P  P20  1  0.432126  0.588762  0.198562  1
  P  P21  1  0.117952  0.386770  0.737427  1
  P  P22  1  0.432126  0.911238  0.698562  1
  P  P23  1  0.007576  0.098141  0.754234  1
  O  O24  1  0.191917  0.103722  0.899030  1
  O  O25  1  0.806387  0.163698  0.703283  1
  O  O26  1  0.095492  0.380743  0.165652  1
  O  O27  1  0.369982  0.608712  0.290951  1
  O  O28  1  0.347736  0.841254  0.584741  1
  O  O29  1  0.630018  0.391288  0.709049  1
  O  O30  1  0.808083  0.603722  0.600970  1
  O  O31  1  0.647054  0.521603  0.864462  1
  O  O32  1  0.193613  0.836302  0.296717  1
  O  O33  1  0.299827  0.078476  0.213310  1
  O  O34  1  0.921279  0.985838  0.707307  1
  O  O35  1  0.681375  0.706766  0.895413  1
  O  O36  1  0.911059  0.358706  0.605162  1
  O  O37  1  0.700173  0.921524  0.786690  1
  O  O38  1  0.483722  0.867103  0.161045  1
  O  O39  1  0.921279  0.514162  0.207307  1
  O  O40  1  0.078721  0.014162  0.292693  1
  O  O41  1  0.352946  0.478397  0.135538  1
  O  O42  1  0.516278  0.132897  0.838955  1
  O  O43  1  0.215709  0.311527  0.845834  1
  O  O44  1  0.483722  0.632897  0.661045  1
  O  O45  1  0.352946  0.021603  0.635538  1
  O  O46  1  0.193613  0.663698  0.796717  1
  O  O47  1  0.681375  0.793234  0.395413  1
  O  O48  1  0.784291  0.811527  0.654166  1
  O  O49  1  0.215709  0.188473  0.345834  1
  O  O50  1  0.318625  0.293234  0.104587  1
  O  O51  1  0.088941  0.858706  0.894838  1
  O  O52  1  0.347736  0.658746  0.084741  1
  O  O53  1  0.191917  0.396278  0.399030  1
  O  O54  1  0.516278  0.367103  0.338955  1
  O  O55  1  0.369982  0.891288  0.790951  1
  O  O56  1  0.647054  0.978397  0.364462  1
  O  O57  1  0.911059  0.141294  0.105162  1
  O  O58  1  0.784291  0.688473  0.154166  1
  O  O59  1  0.652264  0.341254  0.915259  1
  O  O60  1  0.299827  0.421524  0.713310  1
  O  O61  1  0.652264  0.158746  0.415259  1
  O  O62  1  0.088941  0.641294  0.394838  1
  O  O63  1  0.806387  0.336302  0.203283  1
  O  O64  1  0.904508  0.619257  0.834348  1
  O  O65  1  0.808083  0.896278  0.100970  1
  O  O66  1  0.078721  0.485838  0.792693  1
  O  O67  1  0.904508  0.880743  0.334348  1
  O  O68  1  0.318625  0.206766  0.604587  1
  O  O69  1  0.630018  0.108712  0.209049  1
  O  O70  1  0.095492  0.119257  0.665652  1
  O  O71  1  0.700173  0.578476  0.286690  1
