# generated using pymatgen
data_Sr3Li3(NiN)4
_symmetry_space_group_name_H-M   'P 1'
_cell_length_a   9.33644188
_cell_length_b   9.33644188
_cell_length_c   9.33644188
_cell_angle_alpha   154.92766879
_cell_angle_beta   135.57166398
_cell_angle_gamma   51.69115942
_symmetry_Int_Tables_number   1
_chemical_formula_structural   Sr3Li3(NiN)4
_chemical_formula_sum   'Sr3 Li3 Ni4 N4'
_cell_volume   240.42334503
_cell_formula_units_Z   1
loop_
 _symmetry_equiv_pos_site_id
 _symmetry_equiv_pos_as_xyz
  1  'x, y, z'
loop_
 _atom_site_type_symbol
 _atom_site_label
 _atom_site_symmetry_multiplicity
 _atom_site_fract_x
 _atom_site_fract_y
 _atom_site_fract_z
 _atom_site_occupancy
  Sr  Sr0  1  0.781850  0.781850  0.000000  1
  Sr  Sr1  1  0.218150  0.218150  0.000000  1
  Sr  Sr2  1  0.000000  0.000000  0.000000  1
  Li  Li3  1  0.615863  0.115863  0.500000  1
  Li  Li4  1  0.384137  0.884137  0.500000  1
  Li  Li5  1  0.500000  0.500000  0.000000  1
  Ni  Ni6  1  0.630239  0.380277  0.249962  1
  Ni  Ni7  1  0.130316  0.380277  0.750038  1
  Ni  Ni8  1  0.369761  0.619723  0.750038  1
  Ni  Ni9  1  0.869684  0.619723  0.249962  1
  N  N10  1  0.883603  0.383603  0.500000  1
  N  N11  1  0.116397  0.616397  0.500000  1
  N  N12  1  0.379479  0.379479  0.000000  1
  N  N13  1  0.620521  0.620521  0.000000  1
