# generated using pymatgen
data_Fe2NiP
_symmetry_space_group_name_H-M   'P 1'
_cell_length_a   6.70019576
_cell_length_b   6.70019576
_cell_length_c   6.70019576
_cell_angle_alpha   96.14187250
_cell_angle_beta   96.14187250
_cell_angle_gamma   141.81498134
_symmetry_Int_Tables_number   1
_chemical_formula_structural   Fe2NiP
_chemical_formula_sum   'Fe8 Ni4 P4'
_cell_volume   175.72012129
_cell_formula_units_Z   4
loop_
 _symmetry_equiv_pos_site_id
 _symmetry_equiv_pos_as_xyz
  1  'x, y, z'
loop_
 _atom_site_type_symbol
 _atom_site_label
 _atom_site_symmetry_multiplicity
 _atom_site_fract_x
 _atom_site_fract_y
 _atom_site_fract_z
 _atom_site_occupancy
  Fe  Fe0  1  0.348242  0.376847  0.185740  1
  Fe  Fe1  1  0.450534  0.843454  0.329669  1
  Fe  Fe2  1  0.623153  0.808892  0.971394  1
  Fe  Fe3  1  0.837498  0.651758  0.028606  1
  Fe  Fe4  1  0.513785  0.120865  0.670331  1
  Fe  Fe5  1  0.191108  0.162502  0.814260  1
  Fe  Fe6  1  0.156546  0.486215  0.607080  1
  Fe  Fe7  1  0.879135  0.549466  0.392920  1
  Ni  Ni8  1  0.031417  0.422164  0.952688  1
  Ni  Ni9  1  0.577836  0.530524  0.609253  1
  Ni  Ni10  1  0.921270  0.968583  0.390747  1
  Ni  Ni11  1  0.469476  0.078730  0.047312  1
  P  P12  1  0.033024  0.694666  0.754056  1
  P  P13  1  0.721032  0.966976  0.661642  1
  P  P14  1  0.940610  0.278968  0.245944  1
  P  P15  1  0.305334  0.059390  0.338358  1
