# generated using pymatgen
data_V2(CuO2)5
_symmetry_space_group_name_H-M   'P 1'
_cell_length_a   8.44266875
_cell_length_b   6.33350932
_cell_length_c   16.47972140
_cell_angle_alpha   90.00000000
_cell_angle_beta   108.33810871
_cell_angle_gamma   90.00000000
_symmetry_Int_Tables_number   1
_chemical_formula_structural   V2(CuO2)5
_chemical_formula_sum   'V8 Cu20 O40'
_cell_volume   836.44862840
_cell_formula_units_Z   4
loop_
 _symmetry_equiv_pos_site_id
 _symmetry_equiv_pos_as_xyz
  1  'x, y, z'
loop_
 _atom_site_type_symbol
 _atom_site_label
 _atom_site_symmetry_multiplicity
 _atom_site_fract_x
 _atom_site_fract_y
 _atom_site_fract_z
 _atom_site_occupancy
  V  V0  1  0.433443  0.311124  0.105913  1
  V  V1  1  0.566557  0.811124  0.394087  1
  V  V2  1  0.566557  0.688876  0.894087  1
  V  V3  1  0.433443  0.188876  0.605913  1
  V  V4  1  0.212838  0.330201  0.333994  1
  V  V5  1  0.787162  0.830201  0.166006  1
  V  V6  1  0.787162  0.669799  0.666006  1
  V  V7  1  0.212838  0.169799  0.833994  1
  Cu  Cu8  1  0.060874  0.075618  0.100612  1
  Cu  Cu9  1  0.939126  0.575618  0.399388  1
  Cu  Cu10  1  0.939126  0.924382  0.899388  1
  Cu  Cu11  1  0.060874  0.424382  0.600612  1
  Cu  Cu12  1  0.266770  0.769998  0.480869  1
  Cu  Cu13  1  0.733230  0.269998  0.019131  1
  Cu  Cu14  1  0.733230  0.230002  0.519131  1
  Cu  Cu15  1  0.266770  0.730002  0.980869  1
  Cu  Cu16  1  0.160394  0.870740  0.280725  1
  Cu  Cu17  1  0.839606  0.370740  0.219275  1
  Cu  Cu18  1  0.839606  0.129260  0.719275  1
  Cu  Cu19  1  0.160394  0.629260  0.780725  1
  Cu  Cu20  1  0.030714  0.571637  0.090002  1
  Cu  Cu21  1  0.969286  0.071637  0.409998  1
  Cu  Cu22  1  0.969286  0.428363  0.909998  1
  Cu  Cu23  1  0.030714  0.928363  0.590002  1
  Cu  Cu24  1  0.373462  0.793563  0.172720  1
  Cu  Cu25  1  0.626538  0.293563  0.327280  1
  Cu  Cu26  1  0.626538  0.206437  0.827280  1
  Cu  Cu27  1  0.373462  0.706437  0.672720  1
  O  O28  1  0.398960  0.834423  0.297351  1
  O  O29  1  0.601040  0.334423  0.202649  1
  O  O30  1  0.601040  0.165577  0.702649  1
  O  O31  1  0.398960  0.665577  0.797351  1
  O  O32  1  0.486720  0.750956  0.473794  1
  O  O33  1  0.513280  0.250956  0.026206  1
  O  O34  1  0.513280  0.249044  0.526206  1
  O  O35  1  0.486720  0.749044  0.973794  1
  O  O36  1  0.288967  0.114086  0.109830  1
  O  O37  1  0.711033  0.614086  0.390170  1
  O  O38  1  0.711033  0.885914  0.890170  1
  O  O39  1  0.288967  0.385914  0.609830  1
  O  O40  1  0.326251  0.561125  0.085169  1
  O  O41  1  0.673749  0.061125  0.414831  1
  O  O42  1  0.673749  0.438875  0.914831  1
  O  O43  1  0.326251  0.938875  0.585169  1
  O  O44  1  0.405033  0.350027  0.323916  1
  O  O45  1  0.594967  0.850027  0.176084  1
  O  O46  1  0.594967  0.649973  0.676084  1
  O  O47  1  0.405033  0.149973  0.823916  1
  O  O48  1  0.166289  0.538904  0.398686  1
  O  O49  1  0.833711  0.038904  0.101314  1
  O  O50  1  0.833711  0.461096  0.601314  1
  O  O51  1  0.166289  0.961096  0.898686  1
  O  O52  1  0.183799  0.075856  0.374287  1
  O  O53  1  0.816201  0.575856  0.125713  1
  O  O54  1  0.816201  0.924144  0.625713  1
  O  O55  1  0.183799  0.424144  0.874287  1
  O  O56  1  0.072255  0.345057  0.230173  1
  O  O57  1  0.927745  0.845057  0.269827  1
  O  O58  1  0.927745  0.654943  0.769827  1
  O  O59  1  0.072255  0.154943  0.730173  1
  O  O60  1  0.133660  0.809798  0.159205  1
  O  O61  1  0.866340  0.309798  0.340795  1
  O  O62  1  0.866340  0.190202  0.840795  1
  O  O63  1  0.133660  0.690202  0.659205  1
  O  O64  1  0.032175  0.811036  0.471511  1
  O  O65  1  0.967825  0.311036  0.028489  1
  O  O66  1  0.967825  0.188964  0.528489  1
  O  O67  1  0.032175  0.688964  0.971511  1
