# generated using pymatgen
data_NaPr4I7N2
_symmetry_space_group_name_H-M   'P 1'
_cell_length_a   11.23718742
_cell_length_b   12.19621261
_cell_length_c   14.51525583
_cell_angle_alpha   90.00000000
_cell_angle_beta   90.00000000
_cell_angle_gamma   90.00000000
_symmetry_Int_Tables_number   1
_chemical_formula_structural   NaPr4I7N2
_chemical_formula_sum   'Na4 Pr16 I28 N8'
_cell_volume   1989.33216893
_cell_formula_units_Z   4
loop_
 _symmetry_equiv_pos_site_id
 _symmetry_equiv_pos_as_xyz
  1  'x, y, z'
loop_
 _atom_site_type_symbol
 _atom_site_label
 _atom_site_symmetry_multiplicity
 _atom_site_fract_x
 _atom_site_fract_y
 _atom_site_fract_z
 _atom_site_occupancy
  Na  Na0  1  0.950212  0.754528  0.096818  1
  Na  Na1  1  0.450212  0.254528  0.403182  1
  Na  Na2  1  0.549788  0.754528  0.596818  1
  Na  Na3  1  0.049788  0.254528  0.903182  1
  Pr  Pr4  1  0.896163  0.557202  0.587139  1
  Pr  Pr5  1  0.416837  0.820889  0.101393  1
  Pr  Pr6  1  0.876352  0.080121  0.582242  1
  Pr  Pr7  1  0.623648  0.080121  0.082242  1
  Pr  Pr8  1  0.916837  0.320889  0.398607  1
  Pr  Pr9  1  0.083163  0.820889  0.601393  1
  Pr  Pr10  1  0.122975  0.314151  0.584790  1
  Pr  Pr11  1  0.376352  0.580121  0.917758  1
  Pr  Pr12  1  0.583163  0.320889  0.898607  1
  Pr  Pr13  1  0.377025  0.314151  0.084790  1
  Pr  Pr14  1  0.103837  0.057202  0.412861  1
  Pr  Pr15  1  0.877025  0.814151  0.415210  1
  Pr  Pr16  1  0.396163  0.057202  0.912861  1
  Pr  Pr17  1  0.603837  0.557202  0.087139  1
  Pr  Pr18  1  0.622975  0.814151  0.915210  1
  Pr  Pr19  1  0.123648  0.580121  0.417758  1
  I  I20  1  0.189616  0.788498  0.977592  1
  I  I21  1  0.188311  0.292873  0.295511  1
  I  I22  1  0.870869  0.093051  0.274645  1
  I  I23  1  0.593948  0.330840  0.230734  1
  I  I24  1  0.433871  0.034791  0.246031  1
  I  I25  1  0.180730  0.113052  0.046595  1
  I  I26  1  0.129131  0.593051  0.725355  1
  I  I27  1  0.093948  0.830840  0.269266  1
  I  I28  1  0.652066  0.958257  0.484530  1
  I  I29  1  0.347934  0.458257  0.515470  1
  I  I30  1  0.310384  0.788498  0.477592  1
  I  I31  1  0.629131  0.093051  0.774645  1
  I  I32  1  0.810384  0.288498  0.022408  1
  I  I33  1  0.680730  0.613052  0.453405  1
  I  I34  1  0.406052  0.830840  0.769266  1
  I  I35  1  0.566129  0.534791  0.753969  1
  I  I36  1  0.370869  0.593051  0.225355  1
  I  I37  1  0.688311  0.792873  0.204489  1
  I  I38  1  0.906052  0.330840  0.730734  1
  I  I39  1  0.689616  0.288498  0.522408  1
  I  I40  1  0.311689  0.292873  0.795511  1
  I  I41  1  0.319270  0.113052  0.546595  1
  I  I42  1  0.152066  0.458257  0.015470  1
  I  I43  1  0.847934  0.958257  0.984530  1
  I  I44  1  0.933871  0.534791  0.253969  1
  I  I45  1  0.819270  0.613052  0.953405  1
  I  I46  1  0.066129  0.034791  0.746031  1
  I  I47  1  0.811689  0.792873  0.704489  1
  N  N48  1  0.984688  0.943452  0.503115  1
  N  N49  1  0.494522  0.192626  0.996755  1
  N  N50  1  0.515312  0.943452  0.003115  1
  N  N51  1  0.484688  0.443452  0.996885  1
  N  N52  1  0.015312  0.443452  0.496885  1
  N  N53  1  0.505478  0.692626  0.003245  1
  N  N54  1  0.005478  0.192626  0.496755  1
  N  N55  1  0.994522  0.692626  0.503245  1
