# generated using pymatgen
data_NaMo2(PO4)3
_symmetry_space_group_name_H-M   'P 1'
_cell_length_a   9.06579494
_cell_length_b   9.06579494
_cell_length_c   9.06579494
_cell_angle_alpha   58.22501118
_cell_angle_beta   58.22501118
_cell_angle_gamma   58.22501118
_symmetry_Int_Tables_number   1
_chemical_formula_structural   NaMo2(PO4)3
_chemical_formula_sum   'Na2 Mo4 P6 O24'
_cell_volume   505.44316045
_cell_formula_units_Z   2
loop_
 _symmetry_equiv_pos_site_id
 _symmetry_equiv_pos_as_xyz
  1  'x, y, z'
loop_
 _atom_site_type_symbol
 _atom_site_label
 _atom_site_symmetry_multiplicity
 _atom_site_fract_x
 _atom_site_fract_y
 _atom_site_fract_z
 _atom_site_occupancy
  Na  Na0  1  0.000000  0.000000  0.000000  1
  Na  Na1  1  0.500000  0.500000  0.500000  1
  Mo  Mo2  1  0.855661  0.855661  0.855661  1
  Mo  Mo3  1  0.644339  0.644339  0.644339  1
  Mo  Mo4  1  0.144339  0.144339  0.144339  1
  Mo  Mo5  1  0.355661  0.355661  0.355661  1
  P  P6  1  0.750000  0.039400  0.460600  1
  P  P7  1  0.460600  0.750000  0.039400  1
  P  P8  1  0.039400  0.460600  0.750000  1
  P  P9  1  0.250000  0.960600  0.539400  1
  P  P10  1  0.539400  0.250000  0.960600  1
  P  P11  1  0.960600  0.539400  0.250000  1
  O  O12  1  0.082573  0.937846  0.720658  1
  O  O13  1  0.720658  0.082573  0.937846  1
  O  O14  1  0.937846  0.720658  0.082573  1
  O  O15  1  0.779342  0.562154  0.417427  1
  O  O16  1  0.417427  0.779342  0.562154  1
  O  O17  1  0.562154  0.417427  0.779342  1
  O  O18  1  0.917427  0.062154  0.279342  1
  O  O19  1  0.279342  0.917427  0.062154  1
  O  O20  1  0.062154  0.279342  0.917427  1
  O  O21  1  0.220658  0.437846  0.582573  1
  O  O22  1  0.582573  0.220658  0.437846  1
  O  O23  1  0.437846  0.582573  0.220658  1
  O  O24  1  0.009052  0.622900  0.787840  1
  O  O25  1  0.787840  0.009052  0.622900  1
  O  O26  1  0.622900  0.787840  0.009052  1
  O  O27  1  0.712160  0.877100  0.490948  1
  O  O28  1  0.490948  0.712160  0.877100  1
  O  O29  1  0.877100  0.490948  0.712160  1
  O  O30  1  0.990948  0.377100  0.212160  1
  O  O31  1  0.212160  0.990948  0.377100  1
  O  O32  1  0.377100  0.212160  0.990948  1
  O  O33  1  0.287840  0.122900  0.509052  1
  O  O34  1  0.509052  0.287840  0.122900  1
  O  O35  1  0.122900  0.509052  0.287840  1
