# generated using pymatgen
data_Lu5(Si5Ir2)2
_symmetry_space_group_name_H-M   'P 1'
_cell_length_a   12.55344335
_cell_length_b   12.55344335
_cell_length_c   4.20996846
_cell_angle_alpha   90.00000000
_cell_angle_beta   90.00000000
_cell_angle_gamma   90.00000000
_symmetry_Int_Tables_number   1
_chemical_formula_structural   Lu5(Si5Ir2)2
_chemical_formula_sum   'Lu10 Si20 Ir8'
_cell_volume   663.44446680
_cell_formula_units_Z   2
loop_
 _symmetry_equiv_pos_site_id
 _symmetry_equiv_pos_as_xyz
  1  'x, y, z'
loop_
 _atom_site_type_symbol
 _atom_site_label
 _atom_site_symmetry_multiplicity
 _atom_site_fract_x
 _atom_site_fract_y
 _atom_site_fract_z
 _atom_site_occupancy
  Lu  Lu0  1  0.500000  0.500000  0.000000  1
  Lu  Lu1  1  0.000000  0.000000  0.000000  1
  Lu  Lu2  1  0.674294  0.825706  0.500000  1
  Lu  Lu3  1  0.325706  0.174294  0.500000  1
  Lu  Lu4  1  0.174294  0.674294  0.500000  1
  Lu  Lu5  1  0.825706  0.325706  0.500000  1
  Lu  Lu6  1  0.384486  0.884486  0.500000  1
  Lu  Lu7  1  0.615514  0.115514  0.500000  1
  Lu  Lu8  1  0.884486  0.615514  0.500000  1
  Lu  Lu9  1  0.115514  0.384486  0.500000  1
  Si  Si10  1  0.565821  0.934179  0.000000  1
  Si  Si11  1  0.434179  0.065821  0.000000  1
  Si  Si12  1  0.065821  0.565821  0.000000  1
  Si  Si13  1  0.934179  0.434179  0.000000  1
  Si  Si14  1  0.700895  0.665034  0.000000  1
  Si  Si15  1  0.299105  0.334966  0.000000  1
  Si  Si16  1  0.200895  0.834966  0.000000  1
  Si  Si17  1  0.799105  0.165034  0.000000  1
  Si  Si18  1  0.334966  0.700895  0.000000  1
  Si  Si19  1  0.665034  0.299105  0.000000  1
  Si  Si20  1  0.165034  0.200895  0.000000  1
  Si  Si21  1  0.834966  0.799105  0.000000  1
  Si  Si22  1  0.503579  0.654771  0.500000  1
  Si  Si23  1  0.496421  0.345229  0.500000  1
  Si  Si24  1  0.003579  0.845229  0.500000  1
  Si  Si25  1  0.996421  0.154771  0.500000  1
  Si  Si26  1  0.345229  0.503579  0.500000  1
  Si  Si27  1  0.654771  0.496421  0.500000  1
  Si  Si28  1  0.154771  0.003579  0.500000  1
  Si  Si29  1  0.845229  0.996421  0.500000  1
  Ir  Ir30  1  0.519658  0.745589  0.000000  1
  Ir  Ir31  1  0.480342  0.254411  0.000000  1
  Ir  Ir32  1  0.019658  0.754411  0.000000  1
  Ir  Ir33  1  0.980342  0.245589  0.000000  1
  Ir  Ir34  1  0.254411  0.519658  0.000000  1
  Ir  Ir35  1  0.745589  0.480342  0.000000  1
  Ir  Ir36  1  0.245589  0.019658  0.000000  1
  Ir  Ir37  1  0.754411  0.980342  0.000000  1
