# generated using pymatgen
data_V3As2
_symmetry_space_group_name_H-M   'P 1'
_cell_length_a   9.43930307
_cell_length_b   9.43930307
_cell_length_c   3.29671410
_cell_angle_alpha   90.00000000
_cell_angle_beta   90.00000000
_cell_angle_gamma   90.00000000
_symmetry_Int_Tables_number   1
_chemical_formula_structural   V3As2
_chemical_formula_sum   'V12 As8'
_cell_volume   293.73868493
_cell_formula_units_Z   4
loop_
 _symmetry_equiv_pos_site_id
 _symmetry_equiv_pos_as_xyz
  1  'x, y, z'
loop_
 _atom_site_type_symbol
 _atom_site_label
 _atom_site_symmetry_multiplicity
 _atom_site_fract_x
 _atom_site_fract_y
 _atom_site_fract_z
 _atom_site_occupancy
  V  V0  1  0.178440  0.132348  0.500000  1
  V  V1  1  0.132348  0.821560  0.500000  1
  V  V2  1  0.867652  0.178440  0.500000  1
  V  V3  1  0.821560  0.867652  0.500000  1
  V  V4  1  0.284784  0.397634  0.000000  1
  V  V5  1  0.397634  0.715216  0.000000  1
  V  V6  1  0.602366  0.284784  0.000000  1
  V  V7  1  0.715216  0.602366  0.000000  1
  V  V8  1  0.500000  0.000000  0.500000  1
  V  V9  1  0.000000  0.500000  0.500000  1
  V  V10  1  0.500000  0.500000  0.500000  1
  V  V11  1  0.000000  0.000000  0.000000  1
  As  As12  1  0.410561  0.245413  0.500000  1
  As  As13  1  0.245413  0.589439  0.500000  1
  As  As14  1  0.754587  0.410561  0.500000  1
  As  As15  1  0.589439  0.754587  0.500000  1
  As  As16  1  0.039551  0.285526  0.000000  1
  As  As17  1  0.285526  0.960449  0.000000  1
  As  As18  1  0.714474  0.039551  0.000000  1
  As  As19  1  0.960449  0.714474  0.000000  1
