# generated using pymatgen
data_Te7(OF5)6
_symmetry_space_group_name_H-M   'P 1'
_cell_length_a   10.77061415
_cell_length_b   10.77061415
_cell_length_c   10.77061415
_cell_angle_alpha   50.12094398
_cell_angle_beta   50.12094398
_cell_angle_gamma   50.12094398
_symmetry_Int_Tables_number   1
_chemical_formula_structural   Te7(OF5)6
_chemical_formula_sum   'Te7 O6 F30'
_cell_volume   677.33135095
_cell_formula_units_Z   1
loop_
 _symmetry_equiv_pos_site_id
 _symmetry_equiv_pos_as_xyz
  1  'x, y, z'
loop_
 _atom_site_type_symbol
 _atom_site_label
 _atom_site_symmetry_multiplicity
 _atom_site_fract_x
 _atom_site_fract_y
 _atom_site_fract_z
 _atom_site_occupancy
  Te  Te0  1  0.080954  0.767894  0.391700  1
  Te  Te1  1  0.232106  0.608300  0.919046  1
  Te  Te2  1  0.767894  0.391700  0.080954  1
  Te  Te3  1  0.608300  0.919046  0.232106  1
  Te  Te4  1  0.000000  0.000000  0.000000  1
  Te  Te5  1  0.919046  0.232106  0.608300  1
  Te  Te6  1  0.391700  0.080954  0.767894  1
  O  O7  1  0.050050  0.076371  0.756583  1
  O  O8  1  0.923629  0.243417  0.949950  1
  O  O9  1  0.756583  0.050050  0.076371  1
  O  O10  1  0.243417  0.949950  0.923629  1
  O  O11  1  0.076371  0.756583  0.050050  1
  O  O12  1  0.949950  0.923629  0.243417  1
  F  F13  1  0.458823  0.052891  0.366727  1
  F  F14  1  0.910775  0.909284  0.520939  1
  F  F15  1  0.366727  0.458823  0.052891  1
  F  F16  1  0.458584  0.801791  0.379054  1
  F  F17  1  0.541177  0.947109  0.633273  1
  F  F18  1  0.520939  0.910775  0.909284  1
  F  F19  1  0.947109  0.633273  0.541177  1
  F  F20  1  0.801791  0.379054  0.458584  1
  F  F21  1  0.621759  0.266822  0.252549  1
  F  F22  1  0.909284  0.520939  0.910775  1
  F  F23  1  0.089225  0.090716  0.479061  1
  F  F24  1  0.633273  0.541177  0.947109  1
  F  F25  1  0.541416  0.198209  0.620946  1
  F  F26  1  0.198209  0.620946  0.541416  1
  F  F27  1  0.620946  0.541416  0.198209  1
  F  F28  1  0.266822  0.252549  0.621759  1
  F  F29  1  0.378241  0.733178  0.747451  1
  F  F30  1  0.747451  0.378241  0.733178  1
  F  F31  1  0.249735  0.215037  0.901065  1
  F  F32  1  0.215037  0.901065  0.249735  1
  F  F33  1  0.098935  0.750265  0.784963  1
  F  F34  1  0.090716  0.479061  0.089225  1
  F  F35  1  0.784963  0.098935  0.750265  1
  F  F36  1  0.379054  0.458584  0.801791  1
  F  F37  1  0.750265  0.784963  0.098935  1
  F  F38  1  0.479061  0.089225  0.090716  1
  F  F39  1  0.052891  0.366727  0.458823  1
  F  F40  1  0.733178  0.747451  0.378241  1
  F  F41  1  0.901065  0.249735  0.215037  1
  F  F42  1  0.252549  0.621759  0.266822  1
