# generated using pymatgen
data_MgH6(CO3)2
_symmetry_space_group_name_H-M   'P 1'
_cell_length_a   7.55848952
_cell_length_b   8.53677308
_cell_length_c   8.75460787
_cell_angle_alpha   90.00000000
_cell_angle_beta   90.00000000
_cell_angle_gamma   90.00000000
_symmetry_Int_Tables_number   1
_chemical_formula_structural   MgH6(CO3)2
_chemical_formula_sum   'Mg4 H24 C8 O24'
_cell_volume   564.89203459
_cell_formula_units_Z   4
loop_
 _symmetry_equiv_pos_site_id
 _symmetry_equiv_pos_as_xyz
  1  'x, y, z'
loop_
 _atom_site_type_symbol
 _atom_site_label
 _atom_site_symmetry_multiplicity
 _atom_site_fract_x
 _atom_site_fract_y
 _atom_site_fract_z
 _atom_site_occupancy
  Mg  Mg0  1  0.500000  0.000000  0.000000  1
  Mg  Mg1  1  0.000000  0.000000  0.500000  1
  Mg  Mg2  1  0.000000  0.500000  0.000000  1
  Mg  Mg3  1  0.500000  0.500000  0.500000  1
  H  H4  1  0.838334  0.981740  0.115839  1
  H  H5  1  0.930376  0.812574  0.827277  1
  H  H6  1  0.161666  0.518260  0.615839  1
  H  H7  1  0.154695  0.380808  0.492740  1
  H  H8  1  0.569624  0.312574  0.172723  1
  H  H9  1  0.069624  0.187426  0.172723  1
  H  H10  1  0.430376  0.187426  0.672723  1
  H  H11  1  0.930376  0.312574  0.672723  1
  H  H12  1  0.345305  0.880808  0.507260  1
  H  H13  1  0.661666  0.481740  0.884161  1
  H  H14  1  0.845305  0.619192  0.507260  1
  H  H15  1  0.338334  0.518260  0.115839  1
  H  H16  1  0.154695  0.880808  0.007260  1
  H  H17  1  0.661666  0.981740  0.615839  1
  H  H18  1  0.069624  0.687426  0.327277  1
  H  H19  1  0.569624  0.812574  0.327277  1
  H  H20  1  0.654695  0.119192  0.492740  1
  H  H21  1  0.845305  0.119192  0.992740  1
  H  H22  1  0.345305  0.380808  0.992740  1
  H  H23  1  0.161666  0.018260  0.884161  1
  H  H24  1  0.430376  0.687426  0.827277  1
  H  H25  1  0.838334  0.481740  0.384161  1
  H  H26  1  0.654695  0.619192  0.007260  1
  H  H27  1  0.338334  0.018260  0.384161  1
  C  C28  1  0.516386  0.233228  0.261687  1
  C  C29  1  0.483614  0.266772  0.761687  1
  C  C30  1  0.483614  0.766772  0.738313  1
  C  C31  1  0.016386  0.266772  0.261687  1
  C  C32  1  0.016386  0.766772  0.238313  1
  C  C33  1  0.983614  0.733228  0.738313  1
  C  C34  1  0.983614  0.233228  0.761687  1
  C  C35  1  0.516386  0.733228  0.238313  1
  O  O36  1  0.043848  0.101094  0.720283  1
  O  O37  1  0.772078  0.032285  0.031165  1
  O  O38  1  0.727922  0.532285  0.968835  1
  O  O39  1  0.978635  0.778865  0.599980  1
  O  O40  1  0.543848  0.398906  0.720283  1
  O  O41  1  0.272078  0.467715  0.031165  1
  O  O42  1  0.227922  0.467715  0.531165  1
  O  O43  1  0.456152  0.601094  0.279717  1
  O  O44  1  0.043848  0.601094  0.779717  1
  O  O45  1  0.272078  0.967715  0.468835  1
  O  O46  1  0.021365  0.221135  0.400020  1
  O  O47  1  0.543848  0.898906  0.779717  1
  O  O48  1  0.521365  0.278865  0.400020  1
  O  O49  1  0.021365  0.721135  0.099980  1
  O  O50  1  0.956152  0.398906  0.220283  1
  O  O51  1  0.956152  0.898906  0.279717  1
  O  O52  1  0.521365  0.778865  0.099980  1
  O  O53  1  0.727922  0.032285  0.531165  1
  O  O54  1  0.456152  0.101094  0.220283  1
  O  O55  1  0.227922  0.967715  0.968835  1
  O  O56  1  0.978635  0.278865  0.900020  1
  O  O57  1  0.478635  0.721135  0.599980  1
  O  O58  1  0.478635  0.221135  0.900020  1
  O  O59  1  0.772078  0.532285  0.468835  1
