# generated using pymatgen
data_SbSNCl5
_symmetry_space_group_name_H-M   'P 1'
_cell_length_a   13.73769569
_cell_length_b   13.73769569
_cell_length_c   13.73769569
_cell_angle_alpha   111.41203214
_cell_angle_beta   111.41203214
_cell_angle_gamma   105.65566268
_symmetry_Int_Tables_number   1
_chemical_formula_structural   SbSNCl5
_chemical_formula_sum   'Sb8 S8 N8 Cl40'
_cell_volume   1989.23177272
_cell_formula_units_Z   8
loop_
 _symmetry_equiv_pos_site_id
 _symmetry_equiv_pos_as_xyz
  1  'x, y, z'
loop_
 _atom_site_type_symbol
 _atom_site_label
 _atom_site_symmetry_multiplicity
 _atom_site_fract_x
 _atom_site_fract_y
 _atom_site_fract_z
 _atom_site_occupancy
  Sb  Sb0  1  0.375000  0.085031  0.210031  1
  Sb  Sb1  1  0.875000  0.604974  0.229974  1
  Sb  Sb2  1  0.354974  0.125000  0.729974  1
  Sb  Sb3  1  0.395026  0.625000  0.270026  1
  Sb  Sb4  1  0.875000  0.164969  0.789969  1
  Sb  Sb5  1  0.375000  0.645026  0.770026  1
  Sb  Sb6  1  0.914969  0.125000  0.289969  1
  Sb  Sb7  1  0.835031  0.625000  0.710031  1
  S  S8  1  0.599727  0.531608  0.412711  1
  S  S9  1  0.468392  0.881103  0.068119  1
  S  S10  1  0.281608  0.849727  0.912711  1
  S  S11  1  0.631103  0.718392  0.568119  1
  S  S12  1  0.812983  0.400273  0.931881  1
  S  S13  1  0.118897  0.187017  0.587289  1
  S  S14  1  0.150273  0.062983  0.431881  1
  S  S15  1  0.937017  0.368897  0.087289  1
  N  N16  1  0.875000  0.312874  0.937874  1
  N  N17  1  0.375000  0.937126  0.062126  1
  N  N18  1  0.543772  0.625000  0.418772  1
  N  N19  1  0.062874  0.125000  0.437874  1
  N  N20  1  0.875000  0.456228  0.081228  1
  N  N21  1  0.206228  0.125000  0.581228  1
  N  N22  1  0.375000  0.793772  0.918772  1
  N  N23  1  0.687126  0.625000  0.562126  1
  Cl  Cl24  1  0.380240  0.437267  0.153702  1
  Cl  Cl25  1  0.875000  0.757053  0.382053  1
  Cl  Cl26  1  0.283565  0.226538  0.846298  1
  Cl  Cl27  1  0.691675  0.460046  0.173968  1
  Cl  Cl28  1  0.034900  0.315871  0.816494  1
  Cl  Cl29  1  0.210046  0.941675  0.673968  1
  Cl  Cl30  1  0.773462  0.619760  0.057026  1
  Cl  Cl31  1  0.781595  0.965100  0.280971  1
  Cl  Cl32  1  0.250624  0.934129  0.219029  1
  Cl  Cl33  1  0.790583  0.456818  0.531837  1
  Cl  Cl34  1  0.375000  0.237496  0.362496  1
  Cl  Cl35  1  0.267707  0.536078  0.326032  1
  Cl  Cl36  1  0.286078  0.517707  0.826032  1
  Cl  Cl37  1  0.507053  0.125000  0.882053  1
  Cl  Cl38  1  0.987496  0.625000  0.862496  1
  Cl  Cl39  1  0.741254  0.209417  0.666235  1
  Cl  Cl40  1  0.375000  0.492947  0.617947  1
  Cl  Cl41  1  0.715100  0.031595  0.780971  1
  Cl  Cl42  1  0.825019  0.793182  0.833765  1
  Cl  Cl43  1  0.008746  0.174981  0.968163  1
  Cl  Cl44  1  0.562733  0.716435  0.942974  1
  Cl  Cl45  1  0.463922  0.789954  0.731629  1
  Cl  Cl46  1  0.539954  0.713922  0.231629  1
  Cl  Cl47  1  0.466435  0.812733  0.442974  1
  Cl  Cl48  1  0.482293  0.308325  0.768371  1
  Cl  Cl49  1  0.065871  0.284900  0.316494  1
  Cl  Cl50  1  0.206818  0.040583  0.031837  1
  Cl  Cl51  1  0.968405  0.749376  0.683506  1
  Cl  Cl52  1  0.684129  0.500624  0.719029  1
  Cl  Cl53  1  0.762504  0.125000  0.137504  1
  Cl  Cl54  1  0.058325  0.732293  0.268371  1
  Cl  Cl55  1  0.499376  0.218405  0.183506  1
  Cl  Cl56  1  0.976538  0.533565  0.346298  1
  Cl  Cl57  1  0.959417  0.991254  0.166235  1
  Cl  Cl58  1  0.242947  0.625000  0.117947  1
  Cl  Cl59  1  0.924981  0.258746  0.468163  1
  Cl  Cl60  1  0.875000  0.012504  0.637504  1
  Cl  Cl61  1  0.543182  0.075019  0.333765  1
  Cl  Cl62  1  0.187267  0.630240  0.653702  1
  Cl  Cl63  1  0.369760  0.023462  0.557026  1
