# generated using pymatgen
data_Ho2Sn3(PbS4)3
_symmetry_space_group_name_H-M   'P 1'
_cell_length_a   3.93968634
_cell_length_b   11.65239267
_cell_length_c   20.42475221
_cell_angle_alpha   90.00000000
_cell_angle_beta   90.00000000
_cell_angle_gamma   90.00000000
_symmetry_Int_Tables_number   1
_chemical_formula_structural   Ho2Sn3(PbS4)3
_chemical_formula_sum   'Ho4 Sn6 Pb6 S24'
_cell_volume   937.63444757
_cell_formula_units_Z   2
loop_
 _symmetry_equiv_pos_site_id
 _symmetry_equiv_pos_as_xyz
  1  'x, y, z'
loop_
 _atom_site_type_symbol
 _atom_site_label
 _atom_site_symmetry_multiplicity
 _atom_site_fract_x
 _atom_site_fract_y
 _atom_site_fract_z
 _atom_site_occupancy
  Ho  Ho0  1  0.000000  0.869478  0.893449  1
  Ho  Ho1  1  0.000000  0.369478  0.106551  1
  Ho  Ho2  1  0.000000  0.548389  0.587890  1
  Ho  Ho3  1  0.000000  0.048389  0.412110  1
  Sn  Sn4  1  0.500000  0.676805  0.088681  1
  Sn  Sn5  1  0.500000  0.692718  0.750148  1
  Sn  Sn6  1  0.500000  0.200191  0.571657  1
  Sn  Sn7  1  0.500000  0.192718  0.249852  1
  Sn  Sn8  1  0.500000  0.700191  0.428343  1
  Sn  Sn9  1  0.500000  0.176805  0.911319  1
  Pb  Pb10  1  0.000000  0.290136  0.739685  1
  Pb  Pb11  1  0.000000  0.992026  0.084418  1
  Pb  Pb12  1  0.000000  0.492026  0.915582  1
  Pb  Pb13  1  0.000000  0.790136  0.260315  1
  Pb  Pb14  1  0.000000  0.921944  0.621235  1
  Pb  Pb15  1  0.000000  0.421944  0.378765  1
  S  S16  1  0.500000  0.889429  0.362745  1
  S  S17  1  0.500000  0.094490  0.675411  1
  S  S18  1  0.500000  0.389429  0.637255  1
  S  S19  1  0.500000  0.210538  0.373683  1
  S  S20  1  0.000000  0.593449  0.158609  1
  S  S21  1  0.500000  0.704829  0.875390  1
  S  S22  1  0.000000  0.260712  0.982340  1
  S  S23  1  0.500000  0.857677  0.158318  1
  S  S24  1  0.000000  0.760712  0.017660  1
  S  S25  1  0.000000  0.752798  0.496130  1
  S  S26  1  0.500000  0.204829  0.124610  1
  S  S27  1  0.500000  0.710538  0.626317  1
  S  S28  1  0.500000  0.981395  0.967909  1
  S  S29  1  0.500000  0.009845  0.508568  1
  S  S30  1  0.000000  0.844414  0.756783  1
  S  S31  1  0.500000  0.509845  0.491432  1
  S  S32  1  0.500000  0.594490  0.324589  1
  S  S33  1  0.000000  0.093449  0.841391  1
  S  S34  1  0.000000  0.547937  0.738696  1
  S  S35  1  0.500000  0.357677  0.841682  1
  S  S36  1  0.000000  0.344414  0.243217  1
  S  S37  1  0.000000  0.252798  0.503870  1
  S  S38  1  0.500000  0.481395  0.032091  1
  S  S39  1  0.000000  0.047937  0.261304  1
