# generated using pymatgen
data_Ba4Fe2S4I5
_symmetry_space_group_name_H-M   'P 1'
_cell_length_a   10.23098490
_cell_length_b   10.23098490
_cell_length_c   10.23098490
_cell_angle_alpha   93.66257539
_cell_angle_beta   93.66257539
_cell_angle_gamma   150.71988370
_symmetry_Int_Tables_number   1
_chemical_formula_structural   Ba4Fe2S4I5
_chemical_formula_sum   'Ba4 Fe2 S4 I5'
_cell_volume   506.75459287
_cell_formula_units_Z   1
loop_
 _symmetry_equiv_pos_site_id
 _symmetry_equiv_pos_as_xyz
  1  'x, y, z'
loop_
 _atom_site_type_symbol
 _atom_site_label
 _atom_site_symmetry_multiplicity
 _atom_site_fract_x
 _atom_site_fract_y
 _atom_site_fract_z
 _atom_site_occupancy
  Ba  Ba0  1  0.250391  0.060621  0.311013  1
  Ba  Ba1  1  0.939379  0.250391  0.189770  1
  Ba  Ba2  1  0.060621  0.749609  0.810230  1
  Ba  Ba3  1  0.749609  0.939379  0.688987  1
  Fe  Fe4  1  0.750000  0.250000  0.500000  1
  Fe  Fe5  1  0.250000  0.750000  0.500000  1
  S  S6  1  0.414537  0.899642  0.314179  1
  S  S7  1  0.100358  0.414537  0.514895  1
  S  S8  1  0.585463  0.100358  0.685821  1
  S  S9  1  0.899642  0.585463  0.485105  1
  I  I10  1  0.369310  0.296697  0.666007  1
  I  I11  1  0.703303  0.369310  0.072613  1
  I  I12  1  0.630690  0.703303  0.333993  1
  I  I13  1  1.000000  1.000000  0.000000  1
  I  I14  1  0.296697  0.630690  0.927387  1
