# generated using pymatgen
data_Li2Te2O5
_symmetry_space_group_name_H-M   'P 1'
_cell_length_a   5.31802966
_cell_length_b   8.45116197
_cell_length_c   24.51529817
_cell_angle_alpha   90.00000000
_cell_angle_beta   90.00000000
_cell_angle_gamma   90.00000000
_symmetry_Int_Tables_number   1
_chemical_formula_structural   Li2Te2O5
_chemical_formula_sum   'Li16 Te16 O40'
_cell_volume   1101.80403920
_cell_formula_units_Z   8
loop_
 _symmetry_equiv_pos_site_id
 _symmetry_equiv_pos_as_xyz
  1  'x, y, z'
loop_
 _atom_site_type_symbol
 _atom_site_label
 _atom_site_symmetry_multiplicity
 _atom_site_fract_x
 _atom_site_fract_y
 _atom_site_fract_z
 _atom_site_occupancy
  Li  Li0  1  0.825777  0.840658  0.830911  1
  Li  Li1  1  0.325777  0.840658  0.669089  1
  Li  Li2  1  0.363324  0.152670  0.418292  1
  Li  Li3  1  0.174223  0.340658  0.330911  1
  Li  Li4  1  0.325777  0.659342  0.830911  1
  Li  Li5  1  0.863324  0.347330  0.418292  1
  Li  Li6  1  0.174223  0.159342  0.169089  1
  Li  Li7  1  0.636676  0.652670  0.918292  1
  Li  Li8  1  0.674223  0.340658  0.169089  1
  Li  Li9  1  0.636676  0.847330  0.581708  1
  Li  Li10  1  0.136676  0.652670  0.581708  1
  Li  Li11  1  0.863324  0.152670  0.081708  1
  Li  Li12  1  0.363324  0.347330  0.081708  1
  Li  Li13  1  0.674223  0.159342  0.330911  1
  Li  Li14  1  0.136676  0.847330  0.918292  1
  Li  Li15  1  0.825777  0.659342  0.669089  1
  Te  Te16  1  0.638160  0.067070  0.943456  1
  Te  Te17  1  0.861840  0.567070  0.056544  1
  Te  Te18  1  0.861840  0.932930  0.443456  1
  Te  Te19  1  0.666541  0.559144  0.306025  1
  Te  Te20  1  0.361840  0.932930  0.056544  1
  Te  Te21  1  0.166541  0.559144  0.193975  1
  Te  Te22  1  0.833459  0.059144  0.693975  1
  Te  Te23  1  0.333459  0.440856  0.693975  1
  Te  Te24  1  0.138160  0.432930  0.943456  1
  Te  Te25  1  0.361840  0.567070  0.443456  1
  Te  Te26  1  0.166541  0.940856  0.306025  1
  Te  Te27  1  0.833459  0.440856  0.806025  1
  Te  Te28  1  0.638160  0.432930  0.556544  1
  Te  Te29  1  0.138160  0.067070  0.556544  1
  Te  Te30  1  0.333459  0.059144  0.806025  1
  Te  Te31  1  0.666541  0.940856  0.193975  1
  O  O32  1  0.694600  0.878578  0.661243  1
  O  O33  1  0.691964  0.501624  0.465955  1
  O  O34  1  0.364872  0.471180  0.278420  1
  O  O35  1  0.235194  0.126097  0.082973  1
  O  O36  1  0.808036  0.498376  0.965955  1
  O  O37  1  0.191964  0.501624  0.034045  1
  O  O38  1  0.135128  0.528820  0.778420  1
  O  O39  1  0.998022  0.855016  0.372103  1
  O  O40  1  0.694600  0.621422  0.838757  1
  O  O41  1  0.635128  0.528820  0.721580  1
  O  O42  1  0.191964  0.998376  0.465955  1
  O  O43  1  0.691964  0.998376  0.034045  1
  O  O44  1  0.264806  0.626097  0.917027  1
  O  O45  1  0.864872  0.471180  0.221580  1
  O  O46  1  0.194600  0.878578  0.838757  1
  O  O47  1  0.305400  0.121422  0.338757  1
  O  O48  1  0.001978  0.355016  0.872103  1
  O  O49  1  0.735194  0.126097  0.417027  1
  O  O50  1  0.501978  0.355016  0.627897  1
  O  O51  1  0.235194  0.373903  0.417027  1
  O  O52  1  0.998022  0.644984  0.127897  1
  O  O53  1  0.764806  0.873903  0.917027  1
  O  O54  1  0.308036  0.498376  0.534045  1
  O  O55  1  0.735194  0.373903  0.082973  1
  O  O56  1  0.194600  0.621422  0.661243  1
  O  O57  1  0.501978  0.144984  0.872103  1
  O  O58  1  0.308036  0.001624  0.965955  1
  O  O59  1  0.864872  0.028820  0.278420  1
  O  O60  1  0.635128  0.971180  0.778420  1
  O  O61  1  0.498022  0.855016  0.127897  1
  O  O62  1  0.264806  0.873903  0.582973  1
  O  O63  1  0.805400  0.378578  0.338757  1
  O  O64  1  0.498022  0.644984  0.372103  1
  O  O65  1  0.001978  0.144984  0.627897  1
  O  O66  1  0.364872  0.028820  0.221580  1
  O  O67  1  0.764806  0.626097  0.582973  1
  O  O68  1  0.808036  0.001624  0.534045  1
  O  O69  1  0.805400  0.121422  0.161243  1
  O  O70  1  0.135128  0.971180  0.721580  1
  O  O71  1  0.305400  0.378578  0.161243  1
