# generated using pymatgen
data_CsCu2ICl2
_symmetry_space_group_name_H-M   'P 1'
_cell_length_a   7.76227321
_cell_length_b   5.55818212
_cell_length_c   8.83039707
_cell_angle_alpha   90.00000000
_cell_angle_beta   110.20336140
_cell_angle_gamma   90.00000000
_symmetry_Int_Tables_number   1
_chemical_formula_structural   CsCu2ICl2
_chemical_formula_sum   'Cs2 Cu4 I2 Cl4'
_cell_volume   357.53914991
_cell_formula_units_Z   2
loop_
 _symmetry_equiv_pos_site_id
 _symmetry_equiv_pos_as_xyz
  1  'x, y, z'
loop_
 _atom_site_type_symbol
 _atom_site_label
 _atom_site_symmetry_multiplicity
 _atom_site_fract_x
 _atom_site_fract_y
 _atom_site_fract_z
 _atom_site_occupancy
  Cs  Cs0  1  0.328037  0.750000  0.634139  1
  Cs  Cs1  1  0.671963  0.250000  0.365861  1
  Cu  Cu2  1  0.114322  0.495866  0.146786  1
  Cu  Cu3  1  0.114322  0.004134  0.146786  1
  Cu  Cu4  1  0.885678  0.995866  0.853214  1
  Cu  Cu5  1  0.885678  0.504134  0.853214  1
  I  I6  1  0.194463  0.250000  0.918327  1
  I  I7  1  0.805537  0.750000  0.081673  1
  Cl  Cl8  1  0.131211  0.250000  0.372050  1
  Cl  Cl9  1  0.624120  0.250000  0.746722  1
  Cl  Cl10  1  0.868789  0.750000  0.627950  1
  Cl  Cl11  1  0.375880  0.750000  0.253278  1
