# generated using pymatgen
data_Al2Tl3(PO4)3
_symmetry_space_group_name_H-M   'P 1'
_cell_length_a   6.22303930
_cell_length_b   10.54622139
_cell_length_c   18.06112031
_cell_angle_alpha   90.00000000
_cell_angle_beta   90.00000000
_cell_angle_gamma   90.00000000
_symmetry_Int_Tables_number   1
_chemical_formula_structural   Al2Tl3(PO4)3
_chemical_formula_sum   'Al8 Tl12 P12 O48'
_cell_volume   1185.34320163
_cell_formula_units_Z   4
loop_
 _symmetry_equiv_pos_site_id
 _symmetry_equiv_pos_as_xyz
  1  'x, y, z'
loop_
 _atom_site_type_symbol
 _atom_site_label
 _atom_site_symmetry_multiplicity
 _atom_site_fract_x
 _atom_site_fract_y
 _atom_site_fract_z
 _atom_site_occupancy
  Al  Al0  1  0.742652  0.083027  0.417157  1
  Al  Al1  1  0.742652  0.083027  0.082843  1
  Al  Al2  1  0.757348  0.583027  0.917157  1
  Al  Al3  1  0.257348  0.916973  0.582843  1
  Al  Al4  1  0.242652  0.416973  0.417157  1
  Al  Al5  1  0.257348  0.916973  0.917157  1
  Al  Al6  1  0.242652  0.416973  0.082843  1
  Al  Al7  1  0.757348  0.583027  0.582843  1
  Tl  Tl8  1  0.264869  0.841959  0.358647  1
  Tl  Tl9  1  0.734141  0.859479  0.750000  1
  Tl  Tl10  1  0.764869  0.658041  0.358647  1
  Tl  Tl11  1  0.765859  0.359479  0.250000  1
  Tl  Tl12  1  0.264869  0.841959  0.141353  1
  Tl  Tl13  1  0.735131  0.158041  0.641353  1
  Tl  Tl14  1  0.735131  0.158041  0.858647  1
  Tl  Tl15  1  0.764869  0.658041  0.141353  1
  Tl  Tl16  1  0.235131  0.341959  0.858647  1
  Tl  Tl17  1  0.265859  0.140521  0.250000  1
  Tl  Tl18  1  0.235131  0.341959  0.641353  1
  Tl  Tl19  1  0.234141  0.640521  0.750000  1
  P  P20  1  0.748680  0.372712  0.459698  1
  P  P21  1  0.741929  0.493805  0.750000  1
  P  P22  1  0.751320  0.872712  0.959698  1
  P  P23  1  0.248680  0.127288  0.459698  1
  P  P24  1  0.758071  0.993805  0.250000  1
  P  P25  1  0.251320  0.627288  0.540302  1
  P  P26  1  0.748680  0.372712  0.040302  1
  P  P27  1  0.248680  0.127288  0.040302  1
  P  P28  1  0.751320  0.872712  0.540302  1
  P  P29  1  0.258071  0.506195  0.250000  1
  P  P30  1  0.241929  0.006195  0.750000  1
  P  P31  1  0.251320  0.627288  0.959698  1
  O  O32  1  0.460418  0.574613  0.921981  1
  O  O33  1  0.738562  0.227581  0.471100  1
  O  O34  1  0.746368  0.587045  0.817490  1
  O  O35  1  0.570427  0.909557  0.906959  1
  O  O36  1  0.534103  0.414011  0.750000  1
  O  O37  1  0.288422  0.069970  0.962030  1
  O  O38  1  0.929573  0.409557  0.093041  1
  O  O39  1  0.057668  0.587579  0.250000  1
  O  O40  1  0.711578  0.930030  0.462030  1
  O  O41  1  0.211578  0.569970  0.462030  1
  O  O42  1  0.753632  0.087045  0.317490  1
  O  O43  1  0.965897  0.914011  0.250000  1
  O  O44  1  0.288422  0.069970  0.537970  1
  O  O45  1  0.034103  0.085989  0.750000  1
  O  O46  1  0.211578  0.569970  0.037970  1
  O  O47  1  0.070427  0.590443  0.593041  1
  O  O48  1  0.960418  0.925387  0.578019  1
  O  O49  1  0.539582  0.425387  0.421981  1
  O  O50  1  0.711578  0.930030  0.037970  1
  O  O51  1  0.570427  0.909557  0.593041  1
  O  O52  1  0.960418  0.925387  0.921981  1
  O  O53  1  0.070427  0.590443  0.906959  1
  O  O54  1  0.442332  0.087579  0.750000  1
  O  O55  1  0.261438  0.772419  0.971100  1
  O  O56  1  0.460418  0.574613  0.578019  1
  O  O57  1  0.761438  0.727581  0.971100  1
  O  O58  1  0.746368  0.587045  0.682510  1
  O  O59  1  0.039582  0.074613  0.078019  1
  O  O60  1  0.238562  0.272419  0.028900  1
  O  O61  1  0.253632  0.412955  0.317490  1
  O  O62  1  0.753632  0.087045  0.182510  1
  O  O63  1  0.738562  0.227581  0.028900  1
  O  O64  1  0.761438  0.727581  0.528900  1
  O  O65  1  0.238562  0.272419  0.471100  1
  O  O66  1  0.039582  0.074613  0.421981  1
  O  O67  1  0.929573  0.409557  0.406959  1
  O  O68  1  0.942332  0.412421  0.750000  1
  O  O69  1  0.465897  0.585989  0.250000  1
  O  O70  1  0.539582  0.425387  0.078019  1
  O  O71  1  0.557668  0.912421  0.250000  1
  O  O72  1  0.246368  0.912955  0.682510  1
  O  O73  1  0.429573  0.090443  0.406959  1
  O  O74  1  0.788422  0.430030  0.962030  1
  O  O75  1  0.261438  0.772419  0.528900  1
  O  O76  1  0.429573  0.090443  0.093041  1
  O  O77  1  0.788422  0.430030  0.537970  1
  O  O78  1  0.246368  0.912955  0.817490  1
  O  O79  1  0.253632  0.412955  0.182510  1
