# generated using pymatgen
data_Sm2MnNiO6
_symmetry_space_group_name_H-M   'P 1'
_cell_length_a   5.36931178
_cell_length_b   5.62917047
_cell_length_c   9.35039233
_cell_angle_alpha   90.00000000
_cell_angle_beta   124.79175300
_cell_angle_gamma   90.00000000
_symmetry_Int_Tables_number   1
_chemical_formula_structural   Sm2MnNiO6
_chemical_formula_sum   'Sm4 Mn2 Ni2 O12'
_cell_volume   232.09104048
_cell_formula_units_Z   2
loop_
 _symmetry_equiv_pos_site_id
 _symmetry_equiv_pos_as_xyz
  1  'x, y, z'
loop_
 _atom_site_type_symbol
 _atom_site_label
 _atom_site_symmetry_multiplicity
 _atom_site_fract_x
 _atom_site_fract_y
 _atom_site_fract_z
 _atom_site_occupancy
  Sm  Sm0  1  0.267190  0.435902  0.750884  1
  Sm  Sm1  1  0.267190  0.064098  0.250884  1
  Sm  Sm2  1  0.732810  0.564098  0.249116  1
  Sm  Sm3  1  0.732810  0.935902  0.749116  1
  Mn  Mn4  1  0.000000  0.500000  0.000000  1
  Mn  Mn5  1  0.000000  0.000000  0.500000  1
  Ni  Ni6  1  0.500000  0.000000  0.000000  1
  Ni  Ni7  1  0.500000  0.500000  0.500000  1
  O  O8  1  0.852385  0.971971  0.257431  1
  O  O9  1  0.660629  0.806817  0.452562  1
  O  O10  1  0.339371  0.306817  0.047438  1
  O  O11  1  0.852385  0.528029  0.757431  1
  O  O12  1  0.147615  0.028029  0.742569  1
  O  O13  1  0.339371  0.193183  0.547438  1
  O  O14  1  0.147615  0.471971  0.242569  1
  O  O15  1  0.758250  0.211638  0.948786  1
  O  O16  1  0.241750  0.788362  0.051214  1
  O  O17  1  0.758250  0.288362  0.448786  1
  O  O18  1  0.660629  0.693183  0.952562  1
  O  O19  1  0.241750  0.711638  0.551214  1
