# generated using pymatgen
data_K2Ce(PO4)2
_symmetry_space_group_name_H-M   'P 1'
_cell_length_a   10.16950800
_cell_length_b   10.16950800
_cell_length_c   10.16950800
_cell_angle_alpha   140.17377704
_cell_angle_beta   140.17377704
_cell_angle_gamma   57.58953787
_symmetry_Int_Tables_number   1
_chemical_formula_structural   K2Ce(PO4)2
_chemical_formula_sum   'K4 Ce2 P4 O16'
_cell_volume   427.67468836
_cell_formula_units_Z   2
loop_
 _symmetry_equiv_pos_site_id
 _symmetry_equiv_pos_as_xyz
  1  'x, y, z'
loop_
 _atom_site_type_symbol
 _atom_site_label
 _atom_site_symmetry_multiplicity
 _atom_site_fract_x
 _atom_site_fract_y
 _atom_site_fract_z
 _atom_site_occupancy
  K  K0  1  0.375000  0.125000  0.250000  1
  K  K1  1  0.875000  0.625000  0.750000  1
  K  K2  1  0.875000  0.125000  0.750000  1
  K  K3  1  0.875000  0.125000  0.250000  1
  Ce  Ce4  1  0.250000  0.750000  0.500000  1
  Ce  Ce5  1  0.500000  0.500000  0.000000  1
  P  P6  1  0.677225  0.677225  0.000000  1
  P  P7  1  0.072775  0.572775  0.500000  1
  P  P8  1  0.322775  0.322775  0.000000  1
  P  P9  1  0.427225  0.927225  0.500000  1
  O  O10  1  0.480423  0.158257  0.677834  1
  O  O11  1  0.554175  0.374691  0.179484  1
  O  O12  1  0.480423  0.802589  0.322166  1
  O  O13  1  0.195207  0.374691  0.820516  1
  O  O14  1  0.269577  0.091743  0.822166  1
  O  O15  1  0.841743  0.519577  0.322166  1
  O  O16  1  0.195825  0.875309  0.320516  1
  O  O17  1  0.269577  0.447411  0.177834  1
  O  O18  1  0.124691  0.445207  0.320516  1
  O  O19  1  0.908257  0.730423  0.177834  1
  O  O20  1  0.197411  0.519577  0.677834  1
  O  O21  1  0.552589  0.730423  0.822166  1
  O  O22  1  0.554793  0.875309  0.679484  1
  O  O23  1  0.625309  0.445825  0.820516  1
  O  O24  1  0.124691  0.804175  0.679484  1
  O  O25  1  0.625309  0.804793  0.179484  1
