# generated using pymatgen
data_Dy2CuTe5Br2O13
_symmetry_space_group_name_H-M   'P 1'
_cell_length_a   15.64849488
_cell_length_b   5.50708377
_cell_length_c   20.76890360
_cell_angle_alpha   90.00000000
_cell_angle_beta   122.74400999
_cell_angle_gamma   90.00000000
_symmetry_Int_Tables_number   1
_chemical_formula_structural   Dy2CuTe5Br2O13
_chemical_formula_sum   'Dy8 Cu4 Te20 Br8 O52'
_cell_volume   1505.40435481
_cell_formula_units_Z   4
loop_
 _symmetry_equiv_pos_site_id
 _symmetry_equiv_pos_as_xyz
  1  'x, y, z'
loop_
 _atom_site_type_symbol
 _atom_site_label
 _atom_site_symmetry_multiplicity
 _atom_site_fract_x
 _atom_site_fract_y
 _atom_site_fract_z
 _atom_site_occupancy
  Dy  Dy0  1  0.771910  0.257899  0.219335  1
  Dy  Dy1  1  0.595802  0.770054  0.074554  1
  Dy  Dy2  1  0.404198  0.270054  0.425446  1
  Dy  Dy3  1  0.228090  0.742101  0.780665  1
  Dy  Dy4  1  0.404198  0.229946  0.925446  1
  Dy  Dy5  1  0.595802  0.729946  0.574554  1
  Dy  Dy6  1  0.771910  0.242101  0.719335  1
  Dy  Dy7  1  0.228090  0.757899  0.280665  1
  Cu  Cu8  1  0.940931  0.665460  0.347393  1
  Cu  Cu9  1  0.059069  0.334540  0.652607  1
  Cu  Cu10  1  0.059069  0.165460  0.152607  1
  Cu  Cu11  1  0.940931  0.834540  0.847393  1
  Te  Te12  1  0.266740  0.798933  0.459453  1
  Te  Te13  1  0.942424  0.596073  0.175077  1
  Te  Te14  1  0.733260  0.201067  0.540547  1
  Te  Te15  1  0.311372  0.303370  0.212167  1
  Te  Te16  1  0.904298  0.322234  0.940428  1
  Te  Te17  1  0.057576  0.096073  0.324923  1
  Te  Te18  1  0.523218  0.685490  0.885594  1
  Te  Te19  1  0.057576  0.403927  0.824923  1
  Te  Te20  1  0.688628  0.803370  0.287833  1
  Te  Te21  1  0.904298  0.177766  0.440428  1
  Te  Te22  1  0.733260  0.298933  0.040547  1
  Te  Te23  1  0.095702  0.677766  0.059572  1
  Te  Te24  1  0.688628  0.696630  0.787833  1
  Te  Te25  1  0.476782  0.185490  0.614406  1
  Te  Te26  1  0.311372  0.196630  0.712167  1
  Te  Te27  1  0.266740  0.701067  0.959453  1
  Te  Te28  1  0.523218  0.814510  0.385594  1
  Te  Te29  1  0.942424  0.903927  0.675077  1
  Te  Te30  1  0.476782  0.314510  0.114406  1
  Te  Te31  1  0.095702  0.822234  0.559572  1
  Br  Br32  1  0.765927  0.736772  0.466981  1
  Br  Br33  1  0.424876  0.763465  0.180326  1
  Br  Br34  1  0.234073  0.263228  0.533019  1
  Br  Br35  1  0.234073  0.236772  0.033019  1
  Br  Br36  1  0.765927  0.763228  0.966981  1
  Br  Br37  1  0.575124  0.236535  0.819674  1
  Br  Br38  1  0.575124  0.263465  0.319674  1
  Br  Br39  1  0.424876  0.736535  0.680326  1
  O  O40  1  0.069989  0.946591  0.245745  1
  O  O41  1  0.787540  0.072696  0.330074  1
  O  O42  1  0.745241  0.541085  0.112117  1
  O  O43  1  0.026367  0.854977  0.095699  1
  O  O44  1  0.431264  0.963513  0.526762  1
  O  O45  1  0.963607  0.863662  0.442434  1
  O  O46  1  0.889976  0.200464  0.609626  1
  O  O47  1  0.390082  0.555402  0.844717  1
  O  O48  1  0.036393  0.363662  0.057566  1
  O  O49  1  0.963607  0.636338  0.942434  1
  O  O50  1  0.655560  0.943788  0.192995  1
  O  O51  1  0.212460  0.572696  0.169926  1
  O  O52  1  0.716447  0.067073  0.101250  1
  O  O53  1  0.431264  0.536487  0.026762  1
  O  O54  1  0.254759  0.458915  0.887883  1
  O  O55  1  0.973633  0.145023  0.904301  1
  O  O56  1  0.784399  0.923456  0.795282  1
  O  O57  1  0.069989  0.553409  0.745745  1
  O  O58  1  0.215601  0.423456  0.704718  1
  O  O59  1  0.344440  0.443788  0.307005  1
  O  O60  1  0.522973  0.928680  0.951333  1
  O  O61  1  0.787540  0.427304  0.830074  1
  O  O62  1  0.609918  0.444598  0.155283  1
  O  O63  1  0.076035  0.459246  0.215471  1
  O  O64  1  0.110024  0.700464  0.890374  1
  O  O65  1  0.973633  0.354977  0.404301  1
  O  O66  1  0.076035  0.040754  0.715471  1
  O  O67  1  0.930011  0.446591  0.254255  1
  O  O68  1  0.568736  0.036487  0.473238  1
  O  O69  1  0.390082  0.944598  0.344717  1
  O  O70  1  0.477027  0.071320  0.048667  1
  O  O71  1  0.923965  0.959246  0.284529  1
  O  O72  1  0.655560  0.556212  0.692995  1
  O  O73  1  0.745241  0.958915  0.612117  1
  O  O74  1  0.283553  0.932927  0.898750  1
  O  O75  1  0.036393  0.136338  0.557566  1
  O  O76  1  0.026367  0.645023  0.595699  1
  O  O77  1  0.923965  0.540754  0.784529  1
  O  O78  1  0.930011  0.053409  0.754255  1
  O  O79  1  0.609918  0.055402  0.655283  1
  O  O80  1  0.110024  0.799536  0.390374  1
  O  O81  1  0.568736  0.463513  0.973238  1
  O  O82  1  0.283553  0.567073  0.398750  1
  O  O83  1  0.212460  0.927304  0.669926  1
  O  O84  1  0.344440  0.056212  0.807005  1
  O  O85  1  0.889976  0.299536  0.109626  1
  O  O86  1  0.254759  0.041085  0.387883  1
  O  O87  1  0.784399  0.576544  0.295282  1
  O  O88  1  0.716447  0.432927  0.601250  1
  O  O89  1  0.477027  0.428680  0.548667  1
  O  O90  1  0.522973  0.571320  0.451333  1
  O  O91  1  0.215601  0.076544  0.204718  1
