# generated using pymatgen
data_Al22PbO34
_symmetry_space_group_name_H-M   'P 1'
_cell_length_a   9.78194386
_cell_length_b   11.30684592
_cell_length_c   11.89227646
_cell_angle_alpha   90.00000000
_cell_angle_beta   105.70615773
_cell_angle_gamma   90.00000000
_symmetry_Int_Tables_number   1
_chemical_formula_structural   Al22PbO34
_chemical_formula_sum   'Al44 Pb2 O68'
_cell_volume   1266.21006903
_cell_formula_units_Z   2
loop_
 _symmetry_equiv_pos_site_id
 _symmetry_equiv_pos_as_xyz
  1  'x, y, z'
loop_
 _atom_site_type_symbol
 _atom_site_label
 _atom_site_symmetry_multiplicity
 _atom_site_fract_x
 _atom_site_fract_y
 _atom_site_fract_z
 _atom_site_occupancy
  Al  Al0  1  0.000000  0.000000  0.000000  1
  Al  Al1  1  0.343662  0.124440  0.784412  1
  Al  Al2  1  0.096491  0.000042  0.783975  1
  Al  Al3  1  0.350151  0.000676  0.048944  1
  Al  Al4  1  0.450136  0.001203  0.350659  1
  Al  Al5  1  0.549864  0.998797  0.649341  1
  Al  Al6  1  0.848031  0.376192  0.794570  1
  Al  Al7  1  0.848031  0.123808  0.794570  1
  Al  Al8  1  0.596782  0.250000  0.790530  1
  Al  Al9  1  0.649849  0.999324  0.951056  1
  Al  Al10  1  0.851312  0.250000  0.052783  1
  Al  Al11  1  0.499801  0.250000  0.998731  1
  Al  Al12  1  0.903509  0.999958  0.216025  1
  Al  Al13  1  0.654067  0.123450  0.210778  1
  Al  Al14  1  0.945551  0.250000  0.352160  1
  Al  Al15  1  0.050175  0.250000  0.647848  1
  Al  Al16  1  0.343662  0.375560  0.784412  1
  Al  Al17  1  0.345933  0.623450  0.789222  1
  Al  Al18  1  0.096491  0.499958  0.783975  1
  Al  Al19  1  0.151392  0.250000  0.951597  1
  Al  Al20  1  0.350151  0.499324  0.048944  1
  Al  Al21  1  0.000000  0.500000  0.000000  1
  Al  Al22  1  0.401266  0.250000  0.211567  1
  Al  Al23  1  0.153888  0.373140  0.217038  1
  Al  Al24  1  0.153888  0.126860  0.217038  1
  Al  Al25  1  0.450136  0.498797  0.350659  1
  Al  Al26  1  0.549864  0.501203  0.649341  1
  Al  Al27  1  0.846112  0.873140  0.782962  1
  Al  Al28  1  0.846112  0.626860  0.782962  1
  Al  Al29  1  0.598734  0.750000  0.788433  1
  Al  Al30  1  0.649849  0.500676  0.951056  1
  Al  Al31  1  0.848608  0.750000  0.048403  1
  Al  Al32  1  0.500199  0.750000  0.001269  1
  Al  Al33  1  0.903509  0.500042  0.216025  1
  Al  Al34  1  0.654067  0.376550  0.210778  1
  Al  Al35  1  0.656338  0.624440  0.215588  1
  Al  Al36  1  0.949825  0.750000  0.352152  1
  Al  Al37  1  0.054449  0.750000  0.647840  1
  Al  Al38  1  0.345933  0.876550  0.789222  1
  Al  Al39  1  0.148688  0.750000  0.947217  1
  Al  Al40  1  0.403218  0.750000  0.209470  1
  Al  Al41  1  0.151969  0.623808  0.205430  1
  Al  Al42  1  0.151969  0.876192  0.205430  1
  Al  Al43  1  0.656338  0.875560  0.215588  1
  Pb  Pb44  1  0.702469  0.250000  0.530500  1
  Pb  Pb45  1  0.297531  0.750000  0.469500  1
  O  O46  1  0.094210  0.997990  0.281429  1
  O  O47  1  0.454921  0.132782  0.097898  1
  O  O48  1  0.190407  0.997623  0.098293  1
  O  O49  1  0.593584  0.250000  0.282849  1
  O  O50  1  0.345051  0.125116  0.286751  1
  O  O51  1  0.500000  0.000000  0.500000  1
  O  O52  1  0.656860  0.129385  0.705674  1
  O  O53  1  0.404853  0.999526  0.713021  1
  O  O54  1  0.796514  0.250000  0.890831  1
  O  O55  1  0.809593  0.002377  0.901707  1
  O  O56  1  0.548073  0.132484  0.900194  1
  O  O57  1  0.955886  0.382484  0.099955  1
  O  O58  1  0.955886  0.117516  0.099955  1
  O  O59  1  0.688781  0.250000  0.098500  1
  O  O60  1  0.703605  0.998634  0.110623  1
  O  O61  1  0.094210  0.502010  0.281429  1
  O  O62  1  0.096133  0.250000  0.293757  1
  O  O63  1  0.843390  0.124418  0.287222  1
  O  O64  1  0.843390  0.375582  0.287222  1
  O  O65  1  0.954563  0.250000  0.501277  1
  O  O66  1  0.153546  0.374726  0.709677  1
  O  O67  1  0.153546  0.125274  0.709677  1
  O  O68  1  0.898144  0.250000  0.710730  1
  O  O69  1  0.296395  0.498634  0.889377  1
  O  O70  1  0.310487  0.250000  0.900909  1
  O  O71  1  0.044824  0.380994  0.901405  1
  O  O72  1  0.044824  0.119006  0.901405  1
  O  O73  1  0.451927  0.632484  0.099806  1
  O  O74  1  0.454921  0.367218  0.097898  1
  O  O75  1  0.190407  0.502377  0.098293  1
  O  O76  1  0.202552  0.250000  0.111570  1
  O  O77  1  0.591971  0.750000  0.281630  1
  O  O78  1  0.595147  0.499526  0.286979  1
  O  O79  1  0.343140  0.629385  0.294326  1
  O  O80  1  0.345051  0.374884  0.286751  1
  O  O81  1  0.500000  0.500000  0.500000  1
  O  O82  1  0.656860  0.370615  0.705674  1
  O  O83  1  0.654949  0.625116  0.713249  1
  O  O84  1  0.404853  0.500474  0.713021  1
  O  O85  1  0.408029  0.250000  0.718370  1
  O  O86  1  0.797448  0.750000  0.888430  1
  O  O87  1  0.809593  0.497623  0.901707  1
  O  O88  1  0.548073  0.367516  0.900194  1
  O  O89  1  0.545079  0.632782  0.902102  1
  O  O90  1  0.955176  0.880994  0.098595  1
  O  O91  1  0.955176  0.619006  0.098595  1
  O  O92  1  0.689513  0.750000  0.099091  1
  O  O93  1  0.703605  0.501366  0.110623  1
  O  O94  1  0.101856  0.750000  0.289270  1
  O  O95  1  0.846454  0.625274  0.290323  1
  O  O96  1  0.846454  0.874726  0.290323  1
  O  O97  1  0.045437  0.750000  0.498723  1
  O  O98  1  0.156610  0.624418  0.712778  1
  O  O99  1  0.156610  0.875582  0.712778  1
  O  O100  1  0.903867  0.750000  0.706243  1
  O  O101  1  0.905790  0.497990  0.718571  1
  O  O102  1  0.296395  0.001366  0.889377  1
  O  O103  1  0.311219  0.750000  0.901500  1
  O  O104  1  0.044114  0.617516  0.900045  1
  O  O105  1  0.044114  0.882484  0.900045  1
  O  O106  1  0.451927  0.867516  0.099806  1
  O  O107  1  0.203486  0.750000  0.109169  1
  O  O108  1  0.595147  0.000474  0.286979  1
  O  O109  1  0.343140  0.870615  0.294326  1
  O  O110  1  0.654949  0.874884  0.713249  1
  O  O111  1  0.406416  0.750000  0.717151  1
  O  O112  1  0.545079  0.867218  0.902102  1
  O  O113  1  0.905790  0.002010  0.718571  1
