# generated using pymatgen
data_Y(IO3)3
_symmetry_space_group_name_H-M   'P 1'
_cell_length_a   8.81729858
_cell_length_b   6.15234522
_cell_length_c   16.76278104
_cell_angle_alpha   90.00000000
_cell_angle_beta   114.79827719
_cell_angle_gamma   90.00000000
_symmetry_Int_Tables_number   1
_chemical_formula_structural   Y(IO3)3
_chemical_formula_sum   'Y4 I12 O36'
_cell_volume   825.48227776
_cell_formula_units_Z   4
loop_
 _symmetry_equiv_pos_site_id
 _symmetry_equiv_pos_as_xyz
  1  'x, y, z'
loop_
 _atom_site_type_symbol
 _atom_site_label
 _atom_site_symmetry_multiplicity
 _atom_site_fract_x
 _atom_site_fract_y
 _atom_site_fract_z
 _atom_site_occupancy
  Y  Y0  1  0.352814  0.785567  0.894840  1
  Y  Y1  1  0.647186  0.214433  0.105160  1
  Y  Y2  1  0.352814  0.714433  0.394840  1
  Y  Y3  1  0.647186  0.285567  0.605160  1
  I  I4  1  0.081979  0.406078  0.197667  1
  I  I5  1  0.145271  0.355607  0.479967  1
  I  I6  1  0.081979  0.093922  0.697667  1
  I  I7  1  0.854729  0.644393  0.520033  1
  I  I8  1  0.573674  0.310759  0.858320  1
  I  I9  1  0.426326  0.689241  0.141680  1
  I  I10  1  0.145271  0.144393  0.979967  1
  I  I11  1  0.918021  0.906078  0.302333  1
  I  I12  1  0.918021  0.593922  0.802333  1
  I  I13  1  0.573674  0.189241  0.358320  1
  I  I14  1  0.854729  0.855607  0.020033  1
  I  I15  1  0.426326  0.810759  0.641680  1
  O  O16  1  0.373981  0.127808  0.014707  1
  O  O17  1  0.158547  0.082438  0.611305  1
  O  O18  1  0.405654  0.395401  0.329834  1
  O  O19  1  0.158547  0.417562  0.111305  1
  O  O20  1  0.383824  0.869602  0.527794  1
  O  O21  1  0.405654  0.104599  0.829834  1
  O  O22  1  0.146952  0.930400  0.059122  1
  O  O23  1  0.844077  0.323372  0.755912  1
  O  O24  1  0.440979  0.948391  0.313319  1
  O  O25  1  0.890050  0.472171  0.616414  1
  O  O26  1  0.137240  0.988861  0.365170  1
  O  O27  1  0.373981  0.372192  0.514707  1
  O  O28  1  0.862760  0.011139  0.634830  1
  O  O29  1  0.559021  0.448391  0.186681  1
  O  O30  1  0.862760  0.488861  0.134830  1
  O  O31  1  0.853048  0.430400  0.440878  1
  O  O32  1  0.440979  0.551609  0.813319  1
  O  O33  1  0.853048  0.069600  0.940878  1
  O  O34  1  0.616176  0.130398  0.472206  1
  O  O35  1  0.137240  0.511139  0.865170  1
  O  O36  1  0.841453  0.917562  0.388695  1
  O  O37  1  0.626019  0.627808  0.485293  1
  O  O38  1  0.109950  0.972171  0.883586  1
  O  O39  1  0.594346  0.895401  0.170166  1
  O  O40  1  0.594346  0.604599  0.670166  1
  O  O41  1  0.109950  0.527829  0.383586  1
  O  O42  1  0.890050  0.027829  0.116414  1
  O  O43  1  0.841453  0.582438  0.888695  1
  O  O44  1  0.146952  0.569600  0.559122  1
  O  O45  1  0.383824  0.630398  0.027794  1
  O  O46  1  0.844077  0.176628  0.255912  1
  O  O47  1  0.626019  0.872192  0.985293  1
  O  O48  1  0.559021  0.051609  0.686681  1
  O  O49  1  0.616176  0.369602  0.972206  1
  O  O50  1  0.155923  0.823372  0.744088  1
  O  O51  1  0.155923  0.676628  0.244088  1
