# generated using pymatgen
data_LiS2N(O2F)2
_symmetry_space_group_name_H-M   'P 1'
_cell_length_a   8.73812704
_cell_length_b   8.73812704
_cell_length_c   12.96651498
_cell_angle_alpha   90.00000000
_cell_angle_beta   90.00000000
_cell_angle_gamma   120.00000000
_symmetry_Int_Tables_number   1
_chemical_formula_structural   LiS2N(O2F)2
_chemical_formula_sum   'Li6 S12 N6 O24 F12'
_cell_volume   857.41407137
_cell_formula_units_Z   6
loop_
 _symmetry_equiv_pos_site_id
 _symmetry_equiv_pos_as_xyz
  1  'x, y, z'
loop_
 _atom_site_type_symbol
 _atom_site_label
 _atom_site_symmetry_multiplicity
 _atom_site_fract_x
 _atom_site_fract_y
 _atom_site_fract_z
 _atom_site_occupancy
  Li  Li0  1  0.666667  0.333333  0.018195  1
  Li  Li1  1  0.333333  0.666667  0.981804  1
  Li  Li2  1  0.666667  0.333333  0.481805  1
  Li  Li3  1  0.333333  0.666667  0.518196  1
  Li  Li4  1  0.333333  0.666667  0.750000  1
  Li  Li5  1  0.666667  0.333333  0.250000  1
  S  S6  1  0.973173  0.636935  0.857018  1
  S  S7  1  0.663762  0.026827  0.642982  1
  S  S8  1  0.363065  0.336238  0.857018  1
  S  S9  1  0.336238  0.973173  0.142982  1
  S  S10  1  0.973173  0.636935  0.642982  1
  S  S11  1  0.026827  0.363065  0.357018  1
  S  S12  1  0.636935  0.663762  0.357018  1
  S  S13  1  0.336238  0.973173  0.357018  1
  S  S14  1  0.636935  0.663762  0.142982  1
  S  S15  1  0.026827  0.363065  0.142982  1
  S  S16  1  0.363065  0.336238  0.642982  1
  S  S17  1  0.663762  0.026827  0.857018  1
  N  N18  1  0.277917  0.876120  0.250000  1
  N  N19  1  0.598202  0.722083  0.250000  1
  N  N20  1  0.722083  0.123880  0.750000  1
  N  N21  1  0.401798  0.277917  0.750000  1
  N  N22  1  0.123880  0.401798  0.250000  1
  N  N23  1  0.876120  0.598202  0.750000  1
  O  O24  1  0.156125  0.442920  0.063058  1
  O  O25  1  0.156125  0.442920  0.436942  1
  O  O26  1  0.872860  0.384878  0.360440  1
  O  O27  1  0.713205  0.156125  0.563058  1
  O  O28  1  0.384878  0.512018  0.639560  1
  O  O29  1  0.512018  0.127140  0.360440  1
  O  O30  1  0.843875  0.557080  0.563058  1
  O  O31  1  0.843875  0.557080  0.936942  1
  O  O32  1  0.557080  0.713205  0.063058  1
  O  O33  1  0.615122  0.487982  0.139560  1
  O  O34  1  0.442920  0.286795  0.936942  1
  O  O35  1  0.557080  0.713205  0.436942  1
  O  O36  1  0.127140  0.615122  0.860440  1
  O  O37  1  0.127140  0.615122  0.639560  1
  O  O38  1  0.512018  0.127140  0.139560  1
  O  O39  1  0.487982  0.872860  0.639560  1
  O  O40  1  0.615122  0.487982  0.360440  1
  O  O41  1  0.713205  0.156125  0.936942  1
  O  O42  1  0.487982  0.872860  0.860440  1
  O  O43  1  0.286795  0.843875  0.063058  1
  O  O44  1  0.872860  0.384878  0.139560  1
  O  O45  1  0.442920  0.286795  0.563058  1
  O  O46  1  0.286795  0.843875  0.436942  1
  O  O47  1  0.384878  0.512018  0.860440  1
  F  F48  1  0.209086  0.053474  0.372452  1
  F  F49  1  0.790914  0.946526  0.627548  1
  F  F50  1  0.053474  0.844388  0.627548  1
  F  F51  1  0.053474  0.844388  0.872452  1
  F  F52  1  0.946526  0.155612  0.127548  1
  F  F53  1  0.155612  0.209086  0.627548  1
  F  F54  1  0.946526  0.155612  0.372452  1
  F  F55  1  0.790914  0.946526  0.872452  1
  F  F56  1  0.155612  0.209086  0.872452  1
  F  F57  1  0.209086  0.053474  0.127548  1
  F  F58  1  0.844388  0.790914  0.127548  1
  F  F59  1  0.844388  0.790914  0.372452  1
