# generated using pymatgen
data_CrP2O7
_symmetry_space_group_name_H-M   'P 1'
_cell_length_a   7.24156668
_cell_length_b   8.05792742
_cell_length_c   9.37868076
_cell_angle_alpha   90.00000000
_cell_angle_beta   110.68758307
_cell_angle_gamma   90.00000000
_symmetry_Int_Tables_number   1
_chemical_formula_structural   CrP2O7
_chemical_formula_sum   'Cr4 P8 O28'
_cell_volume   511.97764650
_cell_formula_units_Z   4
loop_
 _symmetry_equiv_pos_site_id
 _symmetry_equiv_pos_as_xyz
  1  'x, y, z'
loop_
 _atom_site_type_symbol
 _atom_site_label
 _atom_site_symmetry_multiplicity
 _atom_site_fract_x
 _atom_site_fract_y
 _atom_site_fract_z
 _atom_site_occupancy
  Cr  Cr0  1  0.727583  0.508243  0.753236  1
  Cr  Cr1  1  0.727583  0.991757  0.253236  1
  Cr  Cr2  1  0.272417  0.008243  0.746764  1
  Cr  Cr3  1  0.272417  0.491757  0.246764  1
  P  P4  1  0.926542  0.761225  0.555438  1
  P  P5  1  0.926542  0.738775  0.055438  1
  P  P6  1  0.675640  0.202304  0.949075  1
  P  P7  1  0.324360  0.702304  0.550925  1
  P  P8  1  0.675640  0.297696  0.449075  1
  P  P9  1  0.324360  0.797696  0.050925  1
  P  P10  1  0.073458  0.261225  0.944562  1
  P  P11  1  0.073458  0.238775  0.444562  1
  O  O12  1  0.991226  0.413439  0.843369  1
  O  O13  1  0.800508  0.645903  0.608442  1
  O  O14  1  0.890220  0.150366  0.949150  1
  O  O15  1  0.674283  0.321242  0.610807  1
  O  O16  1  0.808835  0.689630  0.889458  1
  O  O17  1  0.991226  0.086561  0.343369  1
  O  O18  1  0.800508  0.854097  0.108442  1
  O  O19  1  0.639769  0.382802  0.898324  1
  O  O20  1  0.890220  0.349634  0.449150  1
  O  O21  1  0.674283  0.178758  0.110807  1
  O  O22  1  0.808835  0.810370  0.389458  1
  O  O23  1  0.463410  0.581231  0.666451  1
  O  O24  1  0.536590  0.081231  0.833549  1
  O  O25  1  0.360231  0.882802  0.601676  1
  O  O26  1  0.639769  0.117198  0.398324  1
  O  O27  1  0.463410  0.918769  0.166451  1
  O  O28  1  0.536590  0.418769  0.333549  1
  O  O29  1  0.191165  0.189630  0.610542  1
  O  O30  1  0.325717  0.821242  0.889193  1
  O  O31  1  0.109780  0.650366  0.550850  1
  O  O32  1  0.360231  0.617198  0.101676  1
  O  O33  1  0.199492  0.145903  0.891558  1
  O  O34  1  0.008774  0.913439  0.656631  1
  O  O35  1  0.191165  0.310370  0.110542  1
  O  O36  1  0.325717  0.678758  0.389193  1
  O  O37  1  0.109780  0.849634  0.050850  1
  O  O38  1  0.199492  0.354097  0.391558  1
  O  O39  1  0.008774  0.586561  0.156631  1
