# generated using pymatgen
data_CsZr(NO3)5
_symmetry_space_group_name_H-M   'P 1'
_cell_length_a   7.77939036
_cell_length_b   11.96633449
_cell_length_c   16.01912518
_cell_angle_alpha   90.00000000
_cell_angle_beta   112.57457861
_cell_angle_gamma   90.00000000
_symmetry_Int_Tables_number   1
_chemical_formula_structural   CsZr(NO3)5
_chemical_formula_sum   'Cs4 Zr4 N20 O60'
_cell_volume   1376.97564571
_cell_formula_units_Z   4
loop_
 _symmetry_equiv_pos_site_id
 _symmetry_equiv_pos_as_xyz
  1  'x, y, z'
loop_
 _atom_site_type_symbol
 _atom_site_label
 _atom_site_symmetry_multiplicity
 _atom_site_fract_x
 _atom_site_fract_y
 _atom_site_fract_z
 _atom_site_occupancy
  Cs  Cs0  1  0.643040  0.237380  0.999086  1
  Cs  Cs1  1  0.356960  0.737380  0.500914  1
  Cs  Cs2  1  0.643040  0.262620  0.499086  1
  Cs  Cs3  1  0.356960  0.762620  0.000914  1
  Zr  Zr4  1  0.806352  0.584151  0.271879  1
  Zr  Zr5  1  0.806352  0.915849  0.771879  1
  Zr  Zr6  1  0.193648  0.415849  0.728121  1
  Zr  Zr7  1  0.193648  0.084151  0.228121  1
  N  N8  1  0.925151  0.549083  0.605263  1
  N  N9  1  0.925151  0.950917  0.105263  1
  N  N10  1  0.033400  0.855057  0.683799  1
  N  N11  1  0.033400  0.644943  0.183799  1
  N  N12  1  0.533856  0.477555  0.123821  1
  N  N13  1  0.569098  0.534022  0.358672  1
  N  N14  1  0.074849  0.450917  0.394737  1
  N  N15  1  0.966600  0.355057  0.816201  1
  N  N16  1  0.202458  0.313262  0.201610  1
  N  N17  1  0.797542  0.686738  0.798390  1
  N  N18  1  0.966600  0.144943  0.316201  1
  N  N19  1  0.074849  0.049083  0.894737  1
  N  N20  1  0.202458  0.186738  0.701610  1
  N  N21  1  0.430902  0.034022  0.141328  1
  N  N22  1  0.466144  0.522445  0.876179  1
  N  N23  1  0.466144  0.977555  0.376179  1
  N  N24  1  0.569098  0.965978  0.858672  1
  N  N25  1  0.797542  0.813262  0.298390  1
  N  N26  1  0.533856  0.022445  0.623821  1
  N  N27  1  0.430902  0.465978  0.641328  1
  O  O28  1  0.781754  0.586886  0.807425  1
  O  O29  1  0.218246  0.086886  0.692575  1
  O  O30  1  0.082670  0.849118  0.771130  1
  O  O31  1  0.131018  0.101968  0.356383  1
  O  O32  1  0.469845  0.988744  0.899689  1
  O  O33  1  0.004978  0.572655  0.690193  1
  O  O34  1  0.412643  0.060728  0.555888  1
  O  O35  1  0.184342  0.389129  0.450198  1
  O  O36  1  0.781754  0.913114  0.307425  1
  O  O37  1  0.869721  0.176738  0.355289  1
  O  O38  1  0.288661  0.261005  0.277913  1
  O  O39  1  0.469845  0.511256  0.399689  1
  O  O40  1  0.663905  0.041029  0.836108  1
  O  O41  1  0.975303  0.452497  0.584446  1
  O  O42  1  0.100895  0.247943  0.137633  1
  O  O43  1  0.184342  0.110871  0.950198  1
  O  O44  1  0.408982  0.133786  0.165360  1
  O  O45  1  0.869721  0.323262  0.855289  1
  O  O46  1  0.131018  0.398032  0.856383  1
  O  O47  1  0.591018  0.633786  0.334640  1
  O  O48  1  0.995022  0.072655  0.809807  1
  O  O49  1  0.082670  0.650882  0.271130  1
  O  O50  1  0.868982  0.898032  0.643617  1
  O  O51  1  0.587357  0.939272  0.444112  1
  O  O52  1  0.479860  0.076595  0.345061  1
  O  O53  1  0.479860  0.423405  0.845061  1
  O  O54  1  0.520140  0.923405  0.654939  1
  O  O55  1  0.336095  0.541029  0.663892  1
  O  O56  1  0.684834  0.073750  0.670353  1
  O  O57  1  0.975303  0.047503  0.084446  1
  O  O58  1  0.995022  0.427345  0.309807  1
  O  O59  1  0.711339  0.761005  0.222087  1
  O  O60  1  0.130279  0.676738  0.144711  1
  O  O61  1  0.899105  0.752057  0.862367  1
  O  O62  1  0.412643  0.439272  0.055888  1
  O  O63  1  0.315166  0.573750  0.829647  1
  O  O64  1  0.218246  0.413114  0.192575  1
  O  O65  1  0.815658  0.889129  0.049802  1
  O  O66  1  0.130279  0.823262  0.644711  1
  O  O67  1  0.917330  0.349118  0.728870  1
  O  O68  1  0.684834  0.426250  0.170353  1
  O  O69  1  0.711339  0.738995  0.722087  1
  O  O70  1  0.868982  0.601968  0.143617  1
  O  O71  1  0.024697  0.547503  0.415554  1
  O  O72  1  0.530155  0.011256  0.100311  1
  O  O73  1  0.530155  0.488744  0.600311  1
  O  O74  1  0.591018  0.866214  0.834640  1
  O  O75  1  0.899105  0.747943  0.362367  1
  O  O76  1  0.815658  0.610871  0.549802  1
  O  O77  1  0.288661  0.238995  0.777913  1
  O  O78  1  0.024697  0.952497  0.915554  1
  O  O79  1  0.587357  0.560728  0.944112  1
  O  O80  1  0.336095  0.958971  0.163892  1
  O  O81  1  0.004978  0.927345  0.190193  1
  O  O82  1  0.408982  0.366214  0.665360  1
  O  O83  1  0.100895  0.252057  0.637633  1
  O  O84  1  0.520140  0.576595  0.154939  1
  O  O85  1  0.917330  0.150882  0.228870  1
  O  O86  1  0.315166  0.926250  0.329647  1
  O  O87  1  0.663905  0.458971  0.336108  1
