# generated using pymatgen
data_K2Sn(HO)6
_symmetry_space_group_name_H-M   'P 1'
_cell_length_a   5.72521164
_cell_length_b   5.72521164
_cell_length_c   5.72521164
_cell_angle_alpha   71.38042752
_cell_angle_beta   71.38042752
_cell_angle_gamma   71.38042752
_symmetry_Int_Tables_number   1
_chemical_formula_structural   K2Sn(HO)6
_chemical_formula_sum   'K2 Sn1 H6 O6'
_cell_volume   163.52086783
_cell_formula_units_Z   1
loop_
 _symmetry_equiv_pos_site_id
 _symmetry_equiv_pos_as_xyz
  1  'x, y, z'
loop_
 _atom_site_type_symbol
 _atom_site_label
 _atom_site_symmetry_multiplicity
 _atom_site_fract_x
 _atom_site_fract_y
 _atom_site_fract_z
 _atom_site_occupancy
  K  K0  1  0.709236  0.709236  0.709236  1
  K  K1  1  0.290764  0.290764  0.290764  1
  Sn  Sn2  1  0.000000  0.000000  0.000000  1
  H  H3  1  0.758535  0.639385  0.189089  1
  H  H4  1  0.189089  0.758535  0.639385  1
  H  H5  1  0.639385  0.189089  0.758535  1
  H  H6  1  0.241465  0.360615  0.810911  1
  H  H7  1  0.810911  0.241465  0.360615  1
  H  H8  1  0.360615  0.810911  0.241465  1
  O  O9  1  0.700613  0.819379  0.198525  1
  O  O10  1  0.198525  0.700613  0.819379  1
  O  O11  1  0.819379  0.198525  0.700613  1
  O  O12  1  0.299387  0.180621  0.801475  1
  O  O13  1  0.801475  0.299387  0.180621  1
  O  O14  1  0.180621  0.801475  0.299387  1
