# generated using pymatgen
data_La3CuGeS7
_symmetry_space_group_name_H-M   'P 1'
_cell_length_a   10.36134816
_cell_length_b   10.36134816
_cell_length_c   5.92323898
_cell_angle_alpha   90.00000000
_cell_angle_beta   90.00000000
_cell_angle_gamma   120.00000000
_symmetry_Int_Tables_number   1
_chemical_formula_structural   La3CuGeS7
_chemical_formula_sum   'La6 Cu2 Ge2 S14'
_cell_volume   550.70931254
_cell_formula_units_Z   2
loop_
 _symmetry_equiv_pos_site_id
 _symmetry_equiv_pos_as_xyz
  1  'x, y, z'
loop_
 _atom_site_type_symbol
 _atom_site_label
 _atom_site_symmetry_multiplicity
 _atom_site_fract_x
 _atom_site_fract_y
 _atom_site_fract_z
 _atom_site_occupancy
  La  La0  1  0.356232  0.229487  0.318590  1
  La  La1  1  0.229487  0.873254  0.818590  1
  La  La2  1  0.873254  0.643768  0.318590  1
  La  La3  1  0.770513  0.126746  0.318590  1
  La  La4  1  0.126746  0.356232  0.818590  1
  La  La5  1  0.643768  0.770513  0.818590  1
  Cu  Cu6  1  0.000000  0.000000  0.289962  1
  Cu  Cu7  1  0.000000  0.000000  0.789962  1
  Ge  Ge8  1  0.333333  0.666667  0.400591  1
  Ge  Ge9  1  0.666667  0.333333  0.900591  1
  S  S10  1  0.521775  0.106300  0.050931  1
  S  S11  1  0.751122  0.839609  0.302818  1
  S  S12  1  0.478225  0.893700  0.550931  1
  S  S13  1  0.333333  0.666667  0.028132  1
  S  S14  1  0.106300  0.584525  0.550931  1
  S  S15  1  0.893700  0.415475  0.050931  1
  S  S16  1  0.248878  0.160391  0.802818  1
  S  S17  1  0.415475  0.521775  0.550931  1
  S  S18  1  0.584525  0.478225  0.050931  1
  S  S19  1  0.088487  0.248878  0.302818  1
  S  S20  1  0.666667  0.333333  0.528132  1
  S  S21  1  0.911513  0.751122  0.802818  1
  S  S22  1  0.839609  0.088487  0.802818  1
  S  S23  1  0.160391  0.911513  0.302818  1
