# generated using pymatgen
data_LiMoAsO6
_symmetry_space_group_name_H-M   'P 1'
_cell_length_a   5.00568006
_cell_length_b   9.09604894
_cell_length_c   9.57260553
_cell_angle_alpha   90.00000000
_cell_angle_beta   90.00000000
_cell_angle_gamma   90.00000000
_symmetry_Int_Tables_number   1
_chemical_formula_structural   LiMoAsO6
_chemical_formula_sum   'Li4 Mo4 As4 O24'
_cell_volume   435.85902115
_cell_formula_units_Z   4
loop_
 _symmetry_equiv_pos_site_id
 _symmetry_equiv_pos_as_xyz
  1  'x, y, z'
loop_
 _atom_site_type_symbol
 _atom_site_label
 _atom_site_symmetry_multiplicity
 _atom_site_fract_x
 _atom_site_fract_y
 _atom_site_fract_z
 _atom_site_occupancy
  Li  Li0  1  0.603476  0.851850  0.620936  1
  Li  Li1  1  0.103476  0.351850  0.879064  1
  Li  Li2  1  0.396524  0.351850  0.379064  1
  Li  Li3  1  0.896524  0.851850  0.120936  1
  Mo  Mo4  1  0.390108  0.998379  0.338550  1
  Mo  Mo5  1  0.109892  0.998379  0.838550  1
  Mo  Mo6  1  0.609892  0.498379  0.661450  1
  Mo  Mo7  1  0.890108  0.498379  0.161450  1
  As  As8  1  0.100010  0.678610  0.448487  1
  As  As9  1  0.399990  0.678610  0.948487  1
  As  As10  1  0.899990  0.178610  0.551513  1
  As  As11  1  0.600010  0.178610  0.051513  1
  O  O12  1  0.761909  0.344587  0.016062  1
  O  O13  1  0.918160  0.870864  0.749828  1
  O  O14  1  0.596084  0.494707  0.255417  1
  O  O15  1  0.418160  0.370864  0.750172  1
  O  O16  1  0.238091  0.844587  0.983938  1
  O  O17  1  0.446271  0.671821  0.766418  1
  O  O18  1  0.202857  0.536500  0.004458  1
  O  O19  1  0.096084  0.994707  0.244583  1
  O  O20  1  0.297143  0.536500  0.504458  1
  O  O21  1  0.797143  0.036500  0.995542  1
  O  O22  1  0.946271  0.171822  0.733582  1
  O  O23  1  0.553729  0.171822  0.233582  1
  O  O24  1  0.053729  0.671821  0.266418  1
  O  O25  1  0.903916  0.494707  0.755417  1
  O  O26  1  0.290829  0.172480  0.976072  1
  O  O27  1  0.081840  0.370864  0.250172  1
  O  O28  1  0.790829  0.672480  0.523928  1
  O  O29  1  0.403916  0.994707  0.744583  1
  O  O30  1  0.709171  0.672480  0.023928  1
  O  O31  1  0.702857  0.036500  0.495542  1
  O  O32  1  0.209171  0.172480  0.476072  1
  O  O33  1  0.261909  0.844587  0.483938  1
  O  O34  1  0.581840  0.870864  0.249828  1
  O  O35  1  0.738091  0.344587  0.516062  1
