# generated using pymatgen
data_Sr3Se3(ClO4)2
_symmetry_space_group_name_H-M   'P 1'
_cell_length_a   5.60104551
_cell_length_b   11.74125389
_cell_length_c   17.75078171
_cell_angle_alpha   90.00000000
_cell_angle_beta   90.00000000
_cell_angle_gamma   90.00000000
_symmetry_Int_Tables_number   1
_chemical_formula_structural   Sr3Se3(ClO4)2
_chemical_formula_sum   'Sr12 Se12 Cl8 O32'
_cell_volume   1167.34993636
_cell_formula_units_Z   4
loop_
 _symmetry_equiv_pos_site_id
 _symmetry_equiv_pos_as_xyz
  1  'x, y, z'
loop_
 _atom_site_type_symbol
 _atom_site_label
 _atom_site_symmetry_multiplicity
 _atom_site_fract_x
 _atom_site_fract_y
 _atom_site_fract_z
 _atom_site_occupancy
  Sr  Sr0  1  0.750000  0.539234  0.698942  1
  Sr  Sr1  1  0.750000  0.039234  0.801058  1
  Sr  Sr2  1  0.750000  0.871212  0.576251  1
  Sr  Sr3  1  0.250000  0.460766  0.301058  1
  Sr  Sr4  1  0.750000  0.371212  0.923749  1
  Sr  Sr5  1  0.250000  0.632180  0.513512  1
  Sr  Sr6  1  0.250000  0.628788  0.076251  1
  Sr  Sr7  1  0.250000  0.128788  0.423749  1
  Sr  Sr8  1  0.250000  0.960766  0.198942  1
  Sr  Sr9  1  0.750000  0.367820  0.486488  1
  Sr  Sr10  1  0.250000  0.132180  0.986488  1
  Sr  Sr11  1  0.750000  0.867820  0.013512  1
  Se  Se12  1  0.750000  0.129324  0.103128  1
  Se  Se13  1  0.750000  0.629324  0.396872  1
  Se  Se14  1  0.750000  0.755467  0.192686  1
  Se  Se15  1  0.250000  0.054863  0.665172  1
  Se  Se16  1  0.750000  0.945137  0.334828  1
  Se  Se17  1  0.250000  0.554863  0.834828  1
  Se  Se18  1  0.250000  0.370676  0.603128  1
  Se  Se19  1  0.250000  0.744533  0.692686  1
  Se  Se20  1  0.750000  0.445137  0.165172  1
  Se  Se21  1  0.750000  0.255467  0.307314  1
  Se  Se22  1  0.250000  0.870676  0.896872  1
  Se  Se23  1  0.250000  0.244533  0.807314  1
  Cl  Cl24  1  0.750000  0.602610  0.000462  1
  Cl  Cl25  1  0.750000  0.755793  0.804156  1
  Cl  Cl26  1  0.250000  0.244207  0.195844  1
  Cl  Cl27  1  0.250000  0.397390  0.999538  1
  Cl  Cl28  1  0.750000  0.255793  0.695844  1
  Cl  Cl29  1  0.250000  0.897390  0.500462  1
  Cl  Cl30  1  0.750000  0.102610  0.499538  1
  Cl  Cl31  1  0.250000  0.744207  0.304156  1
  O  O32  1  0.017278  0.716391  0.633680  1
  O  O33  1  0.509832  0.030845  0.324155  1
  O  O34  1  0.509832  0.530845  0.175845  1
  O  O35  1  0.982722  0.283609  0.366320  1
  O  O36  1  0.982722  0.783609  0.133680  1
  O  O37  1  0.517278  0.783609  0.133680  1
  O  O38  1  0.490168  0.969155  0.675845  1
  O  O39  1  0.482722  0.716391  0.633680  1
  O  O40  1  0.514681  0.535442  0.412473  1
  O  O41  1  0.517278  0.283609  0.366320  1
  O  O42  1  0.482722  0.216391  0.866320  1
  O  O43  1  0.985319  0.535442  0.412473  1
  O  O44  1  0.485319  0.464558  0.587527  1
  O  O45  1  0.250000  0.296552  0.519370  1
  O  O46  1  0.250000  0.596955  0.733330  1
  O  O47  1  0.514681  0.035442  0.087527  1
  O  O48  1  0.485319  0.964558  0.912473  1
  O  O49  1  0.250000  0.096955  0.766670  1
  O  O50  1  0.985319  0.035442  0.087527  1
  O  O51  1  0.750000  0.403045  0.266670  1
  O  O52  1  0.990168  0.030845  0.324155  1
  O  O53  1  0.009832  0.469155  0.824155  1
  O  O54  1  0.750000  0.703448  0.480630  1
  O  O55  1  0.017278  0.216391  0.866320  1
  O  O56  1  0.750000  0.903045  0.233330  1
  O  O57  1  0.490168  0.469155  0.824155  1
  O  O58  1  0.014681  0.964558  0.912473  1
  O  O59  1  0.014681  0.464558  0.587527  1
  O  O60  1  0.009832  0.969155  0.675845  1
  O  O61  1  0.990168  0.530845  0.175845  1
  O  O62  1  0.250000  0.796552  0.980630  1
  O  O63  1  0.750000  0.203448  0.019370  1
