# generated using pymatgen
data_Ti4Bi2O11
_symmetry_space_group_name_H-M   'P 1'
_cell_length_a   7.68712239
_cell_length_b   7.68712239
_cell_length_c   15.17679526
_cell_angle_alpha   87.06326173
_cell_angle_beta   92.93673827
_cell_angle_gamma   151.24648972
_symmetry_Int_Tables_number   1
_chemical_formula_structural   Ti4Bi2O11
_chemical_formula_sum   'Ti8 Bi4 O22'
_cell_volume   430.80706638
_cell_formula_units_Z   2
loop_
 _symmetry_equiv_pos_site_id
 _symmetry_equiv_pos_as_xyz
  1  'x, y, z'
loop_
 _atom_site_type_symbol
 _atom_site_label
 _atom_site_symmetry_multiplicity
 _atom_site_fract_x
 _atom_site_fract_y
 _atom_site_fract_z
 _atom_site_occupancy
  Ti  Ti0  1  0.407664  0.114283  0.516794  1
  Ti  Ti1  1  0.198499  0.300455  0.359632  1
  Ti  Ti2  1  0.699545  0.801501  0.859632  1
  Ti  Ti3  1  0.592336  0.885717  0.483206  1
  Ti  Ti4  1  0.801501  0.699545  0.640368  1
  Ti  Ti5  1  0.114283  0.407664  0.983206  1
  Ti  Ti6  1  0.885717  0.592336  0.016794  1
  Ti  Ti7  1  0.300455  0.198499  0.140368  1
  Bi  Bi8  1  0.365348  0.004657  0.820230  1
  Bi  Bi9  1  0.004657  0.365348  0.679770  1
  Bi  Bi10  1  0.995343  0.634652  0.320230  1
  Bi  Bi11  1  0.634652  0.995343  0.179770  1
  O  O12  1  0.530383  0.992227  0.582429  1
  O  O13  1  0.469617  0.007773  0.417571  1
  O  O14  1  0.669763  0.826923  0.371836  1
  O  O15  1  0.110054  0.384539  0.465312  1
  O  O16  1  0.805595  0.696148  0.924750  1
  O  O17  1  0.445817  0.080274  0.224331  1
  O  O18  1  0.229574  0.229574  0.250000  1
  O  O19  1  0.080274  0.445817  0.275669  1
  O  O20  1  0.384539  0.110054  0.034688  1
  O  O21  1  0.303852  0.194405  0.424750  1
  O  O22  1  0.330237  0.173077  0.628164  1
  O  O23  1  0.919726  0.554183  0.724331  1
  O  O24  1  0.826923  0.669763  0.128164  1
  O  O25  1  0.007773  0.469617  0.082429  1
  O  O26  1  0.554183  0.919726  0.775669  1
  O  O27  1  0.194405  0.303852  0.075250  1
  O  O28  1  0.696148  0.805595  0.575250  1
  O  O29  1  0.992227  0.530383  0.917571  1
  O  O30  1  0.770426  0.770426  0.750000  1
  O  O31  1  0.173077  0.330237  0.871836  1
  O  O32  1  0.615461  0.889946  0.965312  1
  O  O33  1  0.889946  0.615461  0.534688  1
