# generated using pymatgen
data_Sm2C3
_symmetry_space_group_name_H-M   'P 1'
_cell_length_a   7.34163459
_cell_length_b   7.34163459
_cell_length_c   7.34163459
_cell_angle_alpha   109.47122063
_cell_angle_beta   109.47122063
_cell_angle_gamma   109.47122063
_symmetry_Int_Tables_number   1
_chemical_formula_structural   Sm2C3
_chemical_formula_sum   'Sm8 C12'
_cell_volume   304.61859011
_cell_formula_units_Z   4
loop_
 _symmetry_equiv_pos_site_id
 _symmetry_equiv_pos_as_xyz
  1  'x, y, z'
loop_
 _atom_site_type_symbol
 _atom_site_label
 _atom_site_symmetry_multiplicity
 _atom_site_fract_x
 _atom_site_fract_y
 _atom_site_fract_z
 _atom_site_occupancy
  Sm  Sm0  1  0.397282  0.500000  0.000000  1
  Sm  Sm1  1  1.000000  0.397282  0.500000  1
  Sm  Sm2  1  0.500000  1.000000  0.397282  1
  Sm  Sm3  1  0.897282  0.500000  1.000000  1
  Sm  Sm4  1  0.102718  0.102718  0.102718  1
  Sm  Sm5  1  1.000000  0.897282  0.500000  1
  Sm  Sm6  1  0.602718  0.602718  0.602718  1
  Sm  Sm7  1  0.500000  1.000000  0.897282  1
  C  C8  1  0.703615  0.453615  0.250000  1
  C  C9  1  0.750000  0.796385  0.046385  1
  C  C10  1  0.546385  0.296385  0.250000  1
  C  C11  1  0.250000  0.546385  0.296385  1
  C  C12  1  0.953615  0.203615  0.750000  1
  C  C13  1  0.750000  0.953615  0.203615  1
  C  C14  1  0.796385  0.046385  0.750000  1
  C  C15  1  0.203615  0.750000  0.953615  1
  C  C16  1  0.046385  0.750000  0.796385  1
  C  C17  1  0.453615  0.250000  0.703615  1
  C  C18  1  0.250000  0.703615  0.453615  1
  C  C19  1  0.296385  0.250000  0.546385  1
