# generated using pymatgen
data_BaNb7(P2O11)3
_symmetry_space_group_name_H-M   'P 1'
_cell_length_a   10.20576183
_cell_length_b   10.20576183
_cell_length_c   14.91258681
_cell_angle_alpha   90.00000000
_cell_angle_beta   90.00000000
_cell_angle_gamma   120.00000000
_symmetry_Int_Tables_number   1
_chemical_formula_structural   BaNb7(P2O11)3
_chemical_formula_sum   'Ba2 Nb14 P12 O66'
_cell_volume   1345.16164163
_cell_formula_units_Z   2
loop_
 _symmetry_equiv_pos_site_id
 _symmetry_equiv_pos_as_xyz
  1  'x, y, z'
loop_
 _atom_site_type_symbol
 _atom_site_label
 _atom_site_symmetry_multiplicity
 _atom_site_fract_x
 _atom_site_fract_y
 _atom_site_fract_z
 _atom_site_occupancy
  Ba  Ba0  1  0.000000  0.000000  0.750000  1
  Ba  Ba1  1  0.000000  0.000000  0.250000  1
  Nb  Nb2  1  0.236087  0.428059  0.622531  1
  Nb  Nb3  1  0.428059  0.236087  0.122531  1
  Nb  Nb4  1  0.333333  0.666667  0.250000  1
  Nb  Nb5  1  0.808029  0.571941  0.122531  1
  Nb  Nb6  1  0.808029  0.236087  0.377469  1
  Nb  Nb7  1  0.191971  0.428059  0.877469  1
  Nb  Nb8  1  0.571941  0.808029  0.622531  1
  Nb  Nb9  1  0.763913  0.191971  0.122531  1
  Nb  Nb10  1  0.571941  0.763913  0.877469  1
  Nb  Nb11  1  0.666667  0.333333  0.750000  1
  Nb  Nb12  1  0.428059  0.191971  0.377469  1
  Nb  Nb13  1  0.191971  0.763913  0.622531  1
  Nb  Nb14  1  0.763913  0.571941  0.377469  1
  Nb  Nb15  1  0.236087  0.808029  0.877469  1
  P  P16  1  0.350849  0.196852  0.886057  1
  P  P17  1  0.153997  0.350849  0.113943  1
  P  P18  1  0.803148  0.153997  0.886057  1
  P  P19  1  0.649151  0.803148  0.113943  1
  P  P20  1  0.196852  0.350849  0.386057  1
  P  P21  1  0.846003  0.649151  0.886057  1
  P  P22  1  0.350849  0.153997  0.613943  1
  P  P23  1  0.803148  0.649151  0.613943  1
  P  P24  1  0.649151  0.846003  0.386057  1
  P  P25  1  0.846003  0.196852  0.613943  1
  P  P26  1  0.153997  0.803148  0.386057  1
  P  P27  1  0.196852  0.846003  0.113943  1
  O  O28  1  0.846633  0.410302  0.105958  1
  O  O29  1  0.502407  0.696015  0.168128  1
  O  O30  1  0.292695  0.260744  0.644385  1
  O  O31  1  0.707305  0.968049  0.144385  1
  O  O32  1  0.696015  0.502407  0.668128  1
  O  O33  1  0.991731  0.225719  0.137352  1
  O  O34  1  0.292695  0.031951  0.855615  1
  O  O35  1  0.968049  0.260744  0.855615  1
  O  O36  1  0.831758  0.615695  0.986327  1
  O  O37  1  0.031951  0.292695  0.355615  1
  O  O38  1  0.774281  0.008269  0.362648  1
  O  O39  1  0.168242  0.783938  0.486327  1
  O  O40  1  0.553582  0.776791  0.750000  1
  O  O41  1  0.497593  0.303985  0.831872  1
  O  O42  1  0.225719  0.991731  0.637352  1
  O  O43  1  0.766012  0.774281  0.637352  1
  O  O44  1  0.225719  0.233988  0.862648  1
  O  O45  1  0.233988  0.225719  0.362648  1
  O  O46  1  0.589698  0.153367  0.394042  1
  O  O47  1  0.497593  0.193609  0.668128  1
  O  O48  1  0.233988  0.008269  0.137352  1
  O  O49  1  0.008269  0.774281  0.862648  1
  O  O50  1  0.774281  0.766012  0.137352  1
  O  O51  1  0.968049  0.707305  0.644385  1
  O  O52  1  0.303985  0.497593  0.331872  1
  O  O53  1  0.615695  0.831758  0.486327  1
  O  O54  1  0.991731  0.766012  0.362648  1
  O  O55  1  0.696015  0.193609  0.831872  1
  O  O56  1  0.436331  0.846633  0.894042  1
  O  O57  1  0.168242  0.384305  0.013673  1
  O  O58  1  0.563669  0.410302  0.394042  1
  O  O59  1  0.806391  0.502407  0.831872  1
  O  O60  1  0.410302  0.846633  0.605958  1
  O  O61  1  0.436331  0.589698  0.605958  1
  O  O62  1  0.260744  0.968049  0.355615  1
  O  O63  1  0.223209  0.776791  0.750000  1
  O  O64  1  0.153367  0.589698  0.894042  1
  O  O65  1  0.216062  0.831758  0.013673  1
  O  O66  1  0.410302  0.563669  0.894042  1
  O  O67  1  0.384305  0.168242  0.513673  1
  O  O68  1  0.223209  0.446418  0.750000  1
  O  O69  1  0.739256  0.031951  0.644385  1
  O  O70  1  0.766012  0.991731  0.862648  1
  O  O71  1  0.589698  0.436331  0.105958  1
  O  O72  1  0.031951  0.739256  0.144385  1
  O  O73  1  0.846633  0.436331  0.394042  1
  O  O74  1  0.303985  0.806391  0.168128  1
  O  O75  1  0.384305  0.216062  0.986327  1
  O  O76  1  0.502407  0.806391  0.331872  1
  O  O77  1  0.216062  0.384305  0.486327  1
  O  O78  1  0.783938  0.615695  0.513673  1
  O  O79  1  0.615695  0.783938  0.013673  1
  O  O80  1  0.153367  0.563669  0.605958  1
  O  O81  1  0.193609  0.696015  0.331872  1
  O  O82  1  0.776791  0.223209  0.250000  1
  O  O83  1  0.739256  0.707305  0.855615  1
  O  O84  1  0.707305  0.739256  0.355615  1
  O  O85  1  0.806391  0.303985  0.668128  1
  O  O86  1  0.260744  0.292695  0.144385  1
  O  O87  1  0.776791  0.553582  0.250000  1
  O  O88  1  0.563669  0.153367  0.105958  1
  O  O89  1  0.783938  0.168242  0.986327  1
  O  O90  1  0.193609  0.497593  0.168128  1
  O  O91  1  0.446418  0.223209  0.250000  1
  O  O92  1  0.831758  0.216062  0.513673  1
  O  O93  1  0.008269  0.233988  0.637352  1
