# generated using pymatgen
data_Sc2Te5O13
_symmetry_space_group_name_H-M   'P 1'
_cell_length_a   6.69736461
_cell_length_b   8.71309078
_cell_length_c   10.62085547
_cell_angle_alpha   86.56748617
_cell_angle_beta   86.38486819
_cell_angle_gamma   73.79988028
_symmetry_Int_Tables_number   1
_chemical_formula_structural   Sc2Te5O13
_chemical_formula_sum   'Sc4 Te10 O26'
_cell_volume   593.40524284
_cell_formula_units_Z   2
loop_
 _symmetry_equiv_pos_site_id
 _symmetry_equiv_pos_as_xyz
  1  'x, y, z'
loop_
 _atom_site_type_symbol
 _atom_site_label
 _atom_site_symmetry_multiplicity
 _atom_site_fract_x
 _atom_site_fract_y
 _atom_site_fract_z
 _atom_site_occupancy
  Sc  Sc0  1  0.991267  0.240986  0.751871  1
  Sc  Sc1  1  0.008733  0.759014  0.248129  1
  Sc  Sc2  1  0.447940  0.456414  0.809775  1
  Sc  Sc3  1  0.552060  0.543586  0.190225  1
  Te  Te4  1  0.454433  0.909021  0.297622  1
  Te  Te5  1  0.833934  0.204286  0.357869  1
  Te  Te6  1  0.733847  0.602741  0.516635  1
  Te  Te7  1  0.711475  0.121011  0.020655  1
  Te  Te8  1  0.858605  0.636515  0.898800  1
  Te  Te9  1  0.166066  0.795714  0.642131  1
  Te  Te10  1  0.288525  0.878989  0.979345  1
  Te  Te11  1  0.545567  0.090979  0.702378  1
  Te  Te12  1  0.141395  0.363485  0.101200  1
  Te  Te13  1  0.266153  0.397259  0.483365  1
  O  O14  1  0.455929  0.187166  0.520186  1
  O  O15  1  0.481147  0.675879  0.018284  1
  O  O16  1  0.518853  0.324121  0.981716  1
  O  O17  1  0.303102  0.231315  0.776975  1
  O  O18  1  0.856476  0.498543  0.088815  1
  O  O19  1  0.069700  0.269084  0.279312  1
  O  O20  1  0.319150  0.744701  0.287359  1
  O  O21  1  0.696898  0.768685  0.223025  1
  O  O22  1  0.661450  0.493228  0.382316  1
  O  O23  1  0.930300  0.730916  0.720688  1
  O  O24  1  0.646415  0.006062  0.882568  1
  O  O25  1  0.025935  0.352795  0.568320  1
  O  O26  1  0.354652  0.716847  0.773906  1
  O  O27  1  0.954004  0.169840  0.944508  1
  O  O28  1  0.045996  0.830160  0.055492  1
  O  O29  1  0.917276  0.987864  0.306481  1
  O  O30  1  0.082724  0.012136  0.693519  1
  O  O31  1  0.645348  0.283153  0.226094  1
  O  O32  1  0.338550  0.506772  0.617684  1
  O  O33  1  0.229581  0.517295  0.187024  1
  O  O34  1  0.353585  0.993938  0.117432  1
  O  O35  1  0.544071  0.812834  0.479814  1
  O  O36  1  0.974065  0.647205  0.431680  1
  O  O37  1  0.680850  0.255299  0.712641  1
  O  O38  1  0.770419  0.482705  0.812976  1
  O  O39  1  0.143524  0.501457  0.911185  1
