# generated using pymatgen
data_LiLa5Ti8O24
_symmetry_space_group_name_H-M   'P 1'
_cell_length_a   7.82501141
_cell_length_b   7.79476410
_cell_length_c   7.87643124
_cell_angle_alpha   90.00000000
_cell_angle_beta   90.24195130
_cell_angle_gamma   90.00000000
_symmetry_Int_Tables_number   1
_chemical_formula_structural   LiLa5Ti8O24
_chemical_formula_sum   'Li1 La5 Ti8 O24'
_cell_volume   480.41169309
_cell_formula_units_Z   1
loop_
 _symmetry_equiv_pos_site_id
 _symmetry_equiv_pos_as_xyz
  1  'x, y, z'
loop_
 _atom_site_type_symbol
 _atom_site_label
 _atom_site_symmetry_multiplicity
 _atom_site_fract_x
 _atom_site_fract_y
 _atom_site_fract_z
 _atom_site_occupancy
  Li  Li0  1  0.755321  0.000000  0.755849  1
  La  La1  1  0.028328  0.500000  0.243036  1
  La  La2  1  0.499092  0.500000  0.746344  1
  La  La3  1  0.004486  0.500000  0.742222  1
  La  La4  1  0.504767  0.000000  0.258133  1
  La  La5  1  0.005438  0.000000  0.245291  1
  Ti  Ti6  1  0.751759  0.748570  0.001544  1
  Ti  Ti7  1  0.260115  0.244268  0.502128  1
  Ti  Ti8  1  0.260115  0.755732  0.502128  1
  Ti  Ti9  1  0.261190  0.245602  0.991847  1
  Ti  Ti10  1  0.261190  0.754398  0.991847  1
  Ti  Ti11  1  0.751003  0.250771  0.498604  1
  Ti  Ti12  1  0.751003  0.749229  0.498604  1
  Ti  Ti13  1  0.751759  0.251430  0.001544  1
  O  O14  1  0.739623  0.225685  0.257997  1
  O  O15  1  0.272495  0.000000  0.037883  1
  O  O16  1  0.265306  0.500000  0.521074  1
  O  O17  1  0.995648  0.230816  0.030007  1
  O  O18  1  0.786983  0.500000  0.010058  1
  O  O19  1  0.496380  0.280443  0.993460  1
  O  O20  1  0.243155  0.254664  0.258102  1
  O  O21  1  0.757529  0.738323  0.758867  1
  O  O22  1  0.723042  0.000000  0.006386  1
  O  O23  1  0.235698  0.733299  0.756148  1
  O  O24  1  0.243155  0.745336  0.258102  1
  O  O25  1  0.495995  0.777914  0.511295  1
  O  O26  1  0.235698  0.266701  0.756148  1
  O  O27  1  0.495995  0.222086  0.511295  1
  O  O28  1  0.775481  0.000000  0.509462  1
  O  O29  1  0.718679  0.500000  0.522325  1
  O  O30  1  0.992459  0.707725  0.489629  1
  O  O31  1  0.739623  0.774315  0.257997  1
  O  O32  1  0.218711  0.000000  0.478446  1
  O  O33  1  0.992459  0.292275  0.489629  1
  O  O34  1  0.496380  0.719557  0.993460  1
  O  O35  1  0.209574  0.500000  0.997365  1
  O  O36  1  0.757529  0.261677  0.758867  1
  O  O37  1  0.995648  0.769184  0.030007  1
