# generated using pymatgen
data_Nb4Zn2C
_symmetry_space_group_name_H-M   'P 1'
_cell_length_a   8.45008682
_cell_length_b   8.45008682
_cell_length_c   8.45008682
_cell_angle_alpha   60.00000000
_cell_angle_beta   60.00000000
_cell_angle_gamma   60.00000000
_symmetry_Int_Tables_number   1
_chemical_formula_structural   Nb4Zn2C
_chemical_formula_sum   'Nb16 Zn8 C4'
_cell_volume   426.64682196
_cell_formula_units_Z   4
loop_
 _symmetry_equiv_pos_site_id
 _symmetry_equiv_pos_as_xyz
  1  'x, y, z'
loop_
 _atom_site_type_symbol
 _atom_site_label
 _atom_site_symmetry_multiplicity
 _atom_site_fract_x
 _atom_site_fract_y
 _atom_site_fract_z
 _atom_site_occupancy
  Nb  Nb0  1  0.439827  0.060173  0.060173  1
  Nb  Nb1  1  0.810173  0.189827  0.810173  1
  Nb  Nb2  1  0.189827  0.810173  0.189827  1
  Nb  Nb3  1  0.189827  0.810173  0.810173  1
  Nb  Nb4  1  0.189827  0.189827  0.810173  1
  Nb  Nb5  1  0.810173  0.810173  0.189827  1
  Nb  Nb6  1  0.060173  0.060173  0.439827  1
  Nb  Nb7  1  0.439827  0.060173  0.439827  1
  Nb  Nb8  1  0.060173  0.439827  0.060173  1
  Nb  Nb9  1  0.439827  0.439827  0.060173  1
  Nb  Nb10  1  0.810173  0.189827  0.189827  1
  Nb  Nb11  1  0.060173  0.439827  0.439827  1
  Nb  Nb12  1  0.625000  0.125000  0.625000  1
  Nb  Nb13  1  0.625000  0.625000  0.625000  1
  Nb  Nb14  1  0.625000  0.625000  0.125000  1
  Nb  Nb15  1  0.125000  0.625000  0.625000  1
  Zn  Zn16  1  0.839314  0.482059  0.839314  1
  Zn  Zn17  1  0.410686  0.410686  0.410686  1
  Zn  Zn18  1  0.410686  0.410686  0.767941  1
  Zn  Zn19  1  0.767941  0.410686  0.410686  1
  Zn  Zn20  1  0.839314  0.839314  0.482059  1
  Zn  Zn21  1  0.482059  0.839314  0.839314  1
  Zn  Zn22  1  0.839314  0.839314  0.839314  1
  Zn  Zn23  1  0.410686  0.767941  0.410686  1
  C  C24  1  0.125000  0.625000  0.125000  1
  C  C25  1  0.125000  0.125000  0.125000  1
  C  C26  1  0.125000  0.125000  0.625000  1
  C  C27  1  0.625000  0.125000  0.125000  1
