# generated using pymatgen
data_SbOF
_symmetry_space_group_name_H-M   'P 1'
_cell_length_a   5.75161843
_cell_length_b   11.78647659
_cell_length_c   12.61048605
_cell_angle_alpha   90.00000000
_cell_angle_beta   90.00000000
_cell_angle_gamma   90.00000000
_symmetry_Int_Tables_number   1
_chemical_formula_structural   SbOF
_chemical_formula_sum   'Sb16 O16 F16'
_cell_volume   854.88144447
_cell_formula_units_Z   16
loop_
 _symmetry_equiv_pos_site_id
 _symmetry_equiv_pos_as_xyz
  1  'x, y, z'
loop_
 _atom_site_type_symbol
 _atom_site_label
 _atom_site_symmetry_multiplicity
 _atom_site_fract_x
 _atom_site_fract_y
 _atom_site_fract_z
 _atom_site_occupancy
  Sb  Sb0  1  0.696605  0.643469  0.204883  1
  Sb  Sb1  1  0.793930  0.384836  0.489979  1
  Sb  Sb2  1  0.793930  0.884836  0.010021  1
  Sb  Sb3  1  0.803395  0.643469  0.704883  1
  Sb  Sb4  1  0.206070  0.615164  0.510021  1
  Sb  Sb5  1  0.196605  0.856531  0.204883  1
  Sb  Sb6  1  0.706070  0.884836  0.510021  1
  Sb  Sb7  1  0.303395  0.856531  0.704883  1
  Sb  Sb8  1  0.293930  0.115164  0.489979  1
  Sb  Sb9  1  0.696605  0.143469  0.295117  1
  Sb  Sb10  1  0.706070  0.384836  0.989979  1
  Sb  Sb11  1  0.803395  0.143469  0.795117  1
  Sb  Sb12  1  0.303395  0.356531  0.795117  1
  Sb  Sb13  1  0.293930  0.615164  0.010021  1
  Sb  Sb14  1  0.206070  0.115164  0.989979  1
  Sb  Sb15  1  0.196605  0.356531  0.295117  1
  O  O16  1  0.919335  0.549014  0.580557  1
  O  O17  1  0.115522  0.736998  0.625976  1
  O  O18  1  0.384478  0.236998  0.374024  1
  O  O19  1  0.580665  0.049014  0.419443  1
  O  O20  1  0.080665  0.450986  0.419443  1
  O  O21  1  0.419335  0.950986  0.580557  1
  O  O22  1  0.080665  0.950986  0.080557  1
  O  O23  1  0.115522  0.236998  0.874024  1
  O  O24  1  0.615522  0.263002  0.874024  1
  O  O25  1  0.419335  0.450986  0.919443  1
  O  O26  1  0.884478  0.263002  0.374024  1
  O  O27  1  0.919335  0.049014  0.919443  1
  O  O28  1  0.580665  0.549014  0.080557  1
  O  O29  1  0.615522  0.763002  0.625976  1
  O  O30  1  0.384478  0.736998  0.125976  1
  O  O31  1  0.884478  0.763002  0.125976  1
  F  F32  1  0.491790  0.955347  0.185588  1
  F  F33  1  0.508210  0.044653  0.814412  1
  F  F34  1  0.509094  0.299524  0.092632  1
  F  F35  1  0.990906  0.299524  0.592632  1
  F  F36  1  0.491790  0.455347  0.314412  1
  F  F37  1  0.991790  0.544653  0.185588  1
  F  F38  1  0.008210  0.955347  0.685588  1
  F  F39  1  0.009094  0.200476  0.092632  1
  F  F40  1  0.490906  0.200476  0.592632  1
  F  F41  1  0.508210  0.544653  0.685588  1
  F  F42  1  0.490906  0.700476  0.907368  1
  F  F43  1  0.008210  0.455347  0.814412  1
  F  F44  1  0.991790  0.044653  0.314412  1
  F  F45  1  0.509094  0.799524  0.407368  1
  F  F46  1  0.009094  0.700476  0.407368  1
  F  F47  1  0.990906  0.799524  0.907368  1
