# generated using pymatgen
data_SiO2
_symmetry_space_group_name_H-M   'P 1'
_cell_length_a   8.89520036
_cell_length_b   8.02228192
_cell_length_c   8.89868214
_cell_angle_alpha   90.00000000
_cell_angle_beta   90.31542007
_cell_angle_gamma   90.00000000
_symmetry_Int_Tables_number   1
_chemical_formula_structural   SiO2
_chemical_formula_sum   'Si16 O32'
_cell_volume   634.99860056
_cell_formula_units_Z   16
loop_
 _symmetry_equiv_pos_site_id
 _symmetry_equiv_pos_as_xyz
  1  'x, y, z'
loop_
 _atom_site_type_symbol
 _atom_site_label
 _atom_site_symmetry_multiplicity
 _atom_site_fract_x
 _atom_site_fract_y
 _atom_site_fract_z
 _atom_site_occupancy
  Si  Si0  1  0.839239  0.128594  0.645787  1
  Si  Si1  1  0.895999  0.627812  0.404611  1
  Si  Si2  1  0.404993  0.140477  0.909466  1
  Si  Si3  1  0.895999  0.872188  0.904611  1
  Si  Si4  1  0.160761  0.871406  0.354213  1
  Si  Si5  1  0.595007  0.640477  0.590534  1
  Si  Si6  1  0.595007  0.859523  0.090534  1
  Si  Si7  1  0.342615  0.607039  0.158040  1
  Si  Si8  1  0.104001  0.372188  0.595389  1
  Si  Si9  1  0.104001  0.127812  0.095389  1
  Si  Si10  1  0.657385  0.392961  0.841960  1
  Si  Si11  1  0.404993  0.359523  0.409466  1
  Si  Si12  1  0.342615  0.892961  0.658040  1
  Si  Si13  1  0.839239  0.371406  0.145787  1
  Si  Si14  1  0.160761  0.628594  0.854213  1
  Si  Si15  1  0.657385  0.107039  0.341960  1
  O  O16  1  0.501233  0.814515  0.599800  1
  O  O17  1  0.249231  0.177558  0.996418  1
  O  O18  1  0.501233  0.685485  0.099800  1
  O  O19  1  0.728745  0.267311  0.718326  1
  O  O20  1  0.372344  0.427842  0.239221  1
  O  O21  1  0.271255  0.767311  0.781674  1
  O  O22  1  0.991117  0.704259  0.866609  1
  O  O23  1  0.225487  0.582052  0.019679  1
  O  O24  1  0.008883  0.204259  0.633391  1
  O  O25  1  0.991117  0.795741  0.366609  1
  O  O26  1  0.728745  0.232689  0.218326  1
  O  O27  1  0.843231  0.961151  0.748428  1
  O  O28  1  0.156769  0.038849  0.251572  1
  O  O29  1  0.843231  0.538849  0.248428  1
  O  O30  1  0.498767  0.314515  0.900200  1
  O  O31  1  0.249231  0.322442  0.496418  1
  O  O32  1  0.750769  0.822442  0.003582  1
  O  O33  1  0.498767  0.185485  0.400200  1
  O  O34  1  0.271255  0.732689  0.281674  1
  O  O35  1  0.008883  0.295741  0.133391  1
  O  O36  1  0.774513  0.082052  0.480321  1
  O  O37  1  0.500000  0.500000  0.500000  1
  O  O38  1  0.627656  0.572158  0.760779  1
  O  O39  1  0.372344  0.072158  0.739221  1
  O  O40  1  0.156769  0.461151  0.751572  1
  O  O41  1  0.750769  0.677558  0.503582  1
  O  O42  1  0.774513  0.417948  0.980321  1
  O  O43  1  0.627656  0.927842  0.260779  1
  O  O44  1  0.500000  0.000000  0.000000  1
  O  O45  1  0.000000  0.000000  0.000000  1
  O  O46  1  0.225487  0.917948  0.519679  1
  O  O47  1  0.000000  0.500000  0.500000  1
