# generated using pymatgen
data_Eu3BWO9
_symmetry_space_group_name_H-M   'P 1'
_cell_length_a   8.82343089
_cell_length_b   8.82343089
_cell_length_c   5.53684299
_cell_angle_alpha   90.00000000
_cell_angle_beta   90.00000000
_cell_angle_gamma   120.00000000
_symmetry_Int_Tables_number   1
_chemical_formula_structural   Eu3BWO9
_chemical_formula_sum   'Eu6 B2 W2 O18'
_cell_volume   373.30844682
_cell_formula_units_Z   2
loop_
 _symmetry_equiv_pos_site_id
 _symmetry_equiv_pos_as_xyz
  1  'x, y, z'
loop_
 _atom_site_type_symbol
 _atom_site_label
 _atom_site_symmetry_multiplicity
 _atom_site_fract_x
 _atom_site_fract_y
 _atom_site_fract_z
 _atom_site_occupancy
  Eu  Eu0  1  0.719344  0.075690  0.208145  1
  Eu  Eu1  1  0.356346  0.280656  0.208145  1
  Eu  Eu2  1  0.075690  0.356346  0.708145  1
  Eu  Eu3  1  0.280656  0.924310  0.708145  1
  Eu  Eu4  1  0.643654  0.719344  0.708145  1
  Eu  Eu5  1  0.924310  0.643654  0.208145  1
  B  B6  1  0.000000  0.000000  0.877883  1
  B  B7  1  0.000000  0.000000  0.377883  1
  W  W8  1  0.666667  0.333333  0.748526  1
  W  W9  1  0.333333  0.666667  0.248526  1
  O  O10  1  0.794977  0.261737  0.540710  1
  O  O11  1  0.135130  0.611850  0.467615  1
  O  O12  1  0.055948  0.176505  0.371194  1
  O  O13  1  0.738263  0.533240  0.540710  1
  O  O14  1  0.944052  0.823495  0.871194  1
  O  O15  1  0.879443  0.055948  0.871194  1
  O  O16  1  0.388150  0.523280  0.467615  1
  O  O17  1  0.533240  0.794977  0.040710  1
  O  O18  1  0.205023  0.738263  0.040710  1
  O  O19  1  0.176505  0.120557  0.871194  1
  O  O20  1  0.466760  0.205023  0.540710  1
  O  O21  1  0.476720  0.864870  0.467615  1
  O  O22  1  0.523280  0.135130  0.967615  1
  O  O23  1  0.864870  0.388150  0.967615  1
  O  O24  1  0.261737  0.466760  0.040710  1
  O  O25  1  0.611850  0.476720  0.967615  1
  O  O26  1  0.120557  0.944052  0.371194  1
  O  O27  1  0.823495  0.879443  0.371194  1
