# generated using pymatgen
data_KNaTiO3
_symmetry_space_group_name_H-M   'P 1'
_cell_length_a   6.28111650
_cell_length_b   6.28111650
_cell_length_c   5.51255830
_cell_angle_alpha   86.55403038
_cell_angle_beta   93.44596962
_cell_angle_gamma   55.47517641
_symmetry_Int_Tables_number   1
_chemical_formula_structural   KNaTiO3
_chemical_formula_sum   'K2 Na2 Ti2 O6'
_cell_volume   177.68017917
_cell_formula_units_Z   2
loop_
 _symmetry_equiv_pos_site_id
 _symmetry_equiv_pos_as_xyz
  1  'x, y, z'
loop_
 _atom_site_type_symbol
 _atom_site_label
 _atom_site_symmetry_multiplicity
 _atom_site_fract_x
 _atom_site_fract_y
 _atom_site_fract_z
 _atom_site_occupancy
  K  K0  1  0.737121  0.737121  0.250000  1
  K  K1  1  0.262879  0.262879  0.750000  1
  Na  Na2  1  0.422416  0.422416  0.250000  1
  Na  Na3  1  0.577584  0.577584  0.750000  1
  Ti  Ti4  1  0.947071  0.947071  0.750000  1
  Ti  Ti5  1  0.052929  0.052929  0.250000  1
  O  O6  1  0.189385  0.761604  0.495374  1
  O  O7  1  0.238396  0.810615  0.995373  1
  O  O8  1  0.761604  0.189385  0.004626  1
  O  O9  1  0.810615  0.238396  0.504626  1
  O  O10  1  0.213231  0.213231  0.250000  1
  O  O11  1  0.786769  0.786769  0.750000  1
