# generated using pymatgen
data_TlBi(PSe3)2
_symmetry_space_group_name_H-M   'P 1'
_cell_length_a   12.62207488
_cell_length_b   7.74937221
_cell_length_c   23.54602500
_cell_angle_alpha   90.00000000
_cell_angle_beta   97.60228085
_cell_angle_gamma   90.00000000
_symmetry_Int_Tables_number   1
_chemical_formula_structural   TlBi(PSe3)2
_chemical_formula_sum   'Tl8 Bi8 P16 Se48'
_cell_volume   2282.86731094
_cell_formula_units_Z   8
loop_
 _symmetry_equiv_pos_site_id
 _symmetry_equiv_pos_as_xyz
  1  'x, y, z'
loop_
 _atom_site_type_symbol
 _atom_site_label
 _atom_site_symmetry_multiplicity
 _atom_site_fract_x
 _atom_site_fract_y
 _atom_site_fract_z
 _atom_site_occupancy
  Tl  Tl0  1  0.338255  0.582675  0.422675  1
  Tl  Tl1  1  0.661745  0.417325  0.577325  1
  Tl  Tl2  1  0.338255  0.917325  0.922675  1
  Tl  Tl3  1  0.661745  0.082675  0.077325  1
  Tl  Tl4  1  0.418617  0.095029  0.325222  1
  Tl  Tl5  1  0.581383  0.595029  0.174778  1
  Tl  Tl6  1  0.581383  0.904971  0.674778  1
  Tl  Tl7  1  0.418617  0.404971  0.825222  1
  Bi  Bi8  1  0.201698  0.154967  0.580086  1
  Bi  Bi9  1  0.060474  0.846412  0.172611  1
  Bi  Bi10  1  0.060474  0.653588  0.672611  1
  Bi  Bi11  1  0.798302  0.654967  0.919914  1
  Bi  Bi12  1  0.201698  0.345033  0.080086  1
  Bi  Bi13  1  0.939526  0.346412  0.327389  1
  Bi  Bi14  1  0.939526  0.153588  0.827389  1
  Bi  Bi15  1  0.798302  0.845033  0.419914  1
  P  P16  1  0.399642  0.095427  0.152268  1
  P  P17  1  0.600358  0.904573  0.847732  1
  P  P18  1  0.666094  0.123111  0.907013  1
  P  P19  1  0.079218  0.874899  0.343690  1
  P  P20  1  0.859204  0.904250  0.596686  1
  P  P21  1  0.140796  0.404250  0.903314  1
  P  P22  1  0.600358  0.595427  0.347732  1
  P  P23  1  0.333906  0.876889  0.092987  1
  P  P24  1  0.079218  0.625101  0.843690  1
  P  P25  1  0.920782  0.374899  0.156310  1
  P  P26  1  0.920782  0.125101  0.656310  1
  P  P27  1  0.333906  0.623111  0.592987  1
  P  P28  1  0.859204  0.595750  0.096686  1
  P  P29  1  0.399642  0.404573  0.652268  1
  P  P30  1  0.140796  0.095750  0.403314  1
  P  P31  1  0.666094  0.376889  0.407013  1
  Se  Se32  1  0.729540  0.497550  0.034307  1
  Se  Se33  1  0.536570  0.008419  0.209270  1
  Se  Se34  1  0.727968  0.313791  0.847769  1
  Se  Se35  1  0.949134  0.501208  0.781522  1
  Se  Se36  1  0.949134  0.998792  0.281522  1
  Se  Se37  1  0.799560  0.496437  0.466988  1
  Se  Se38  1  0.270460  0.997550  0.465693  1
  Se  Se39  1  0.004384  0.688283  0.060782  1
  Se  Se40  1  0.208996  0.717027  0.798183  1
  Se  Se41  1  0.982919  0.318560  0.599053  1
  Se  Se42  1  0.463430  0.508419  0.290730  1
  Se  Se43  1  0.791004  0.282973  0.201817  1
  Se  Se44  1  0.819706  0.797657  0.156707  1
  Se  Se45  1  0.744710  0.815044  0.809329  1
  Se  Se46  1  0.463602  0.728659  0.551419  1
  Se  Se47  1  0.017081  0.818560  0.900947  1
  Se  Se48  1  0.208996  0.782973  0.298183  1
  Se  Se49  1  0.004384  0.811717  0.560782  1
  Se  Se50  1  0.791004  0.217027  0.701817  1
  Se  Se51  1  0.995616  0.188283  0.439218  1
  Se  Se52  1  0.017081  0.681440  0.400947  1
  Se  Se53  1  0.431715  0.302657  0.091140  1
  Se  Se54  1  0.431715  0.197343  0.591140  1
  Se  Se55  1  0.568285  0.697343  0.908860  1
  Se  Se56  1  0.255290  0.315044  0.690671  1
  Se  Se57  1  0.180294  0.202343  0.843293  1
  Se  Se58  1  0.255290  0.184956  0.190671  1
  Se  Se59  1  0.270460  0.502450  0.965693  1
  Se  Se60  1  0.180294  0.297657  0.343293  1
  Se  Se61  1  0.744710  0.684956  0.309329  1
  Se  Se62  1  0.568285  0.802657  0.408860  1
  Se  Se63  1  0.463602  0.771341  0.051419  1
  Se  Se64  1  0.995616  0.311717  0.939218  1
  Se  Se65  1  0.050866  0.498792  0.218478  1
  Se  Se66  1  0.050866  0.001208  0.718478  1
  Se  Se67  1  0.536570  0.491581  0.709270  1
  Se  Se68  1  0.799560  0.003563  0.966988  1
  Se  Se69  1  0.819706  0.702343  0.656707  1
  Se  Se70  1  0.463430  0.991581  0.790730  1
  Se  Se71  1  0.200440  0.503563  0.533012  1
  Se  Se72  1  0.200440  0.996437  0.033012  1
  Se  Se73  1  0.727968  0.186209  0.347769  1
  Se  Se74  1  0.272032  0.813791  0.652231  1
  Se  Se75  1  0.536398  0.271341  0.448581  1
  Se  Se76  1  0.729540  0.002450  0.534307  1
  Se  Se77  1  0.272032  0.686209  0.152231  1
  Se  Se78  1  0.982919  0.181440  0.099053  1
  Se  Se79  1  0.536398  0.228659  0.948581  1
