# generated using pymatgen
data_V8O15
_symmetry_space_group_name_H-M   'P 1'
_cell_length_a   5.54238491
_cell_length_b   7.08985251
_cell_length_c   13.49709010
_cell_angle_alpha   101.55328306
_cell_angle_beta   96.66116373
_cell_angle_gamma   107.57957884
_symmetry_Int_Tables_number   1
_chemical_formula_structural   V8O15
_chemical_formula_sum   'V16 O30'
_cell_volume   486.42711050
_cell_formula_units_Z   2
loop_
 _symmetry_equiv_pos_site_id
 _symmetry_equiv_pos_as_xyz
  1  'x, y, z'
loop_
 _atom_site_type_symbol
 _atom_site_label
 _atom_site_symmetry_multiplicity
 _atom_site_fract_x
 _atom_site_fract_y
 _atom_site_fract_z
 _atom_site_occupancy
  V  V0  1  0.316316  0.158973  0.186632  1
  V  V1  1  0.183824  0.681022  0.952478  1
  V  V2  1  0.739718  0.670989  0.560319  1
  V  V3  1  0.738716  0.171865  0.566948  1
  V  V4  1  0.260282  0.329011  0.439681  1
  V  V5  1  0.827369  0.823682  0.051143  1
  V  V6  1  0.780241  0.987540  0.309312  1
  V  V7  1  0.261284  0.828135  0.433052  1
  V  V8  1  0.209616  0.508572  0.692329  1
  V  V9  1  0.691929  0.356872  0.822541  1
  V  V10  1  0.683684  0.841027  0.813368  1
  V  V11  1  0.219759  0.012460  0.690688  1
  V  V12  1  0.816176  0.318978  0.047522  1
  V  V13  1  0.790384  0.491428  0.307671  1
  V  V14  1  0.308071  0.643128  0.177459  1
  V  V15  1  0.172631  0.176318  0.948857  1
  O  O16  1  0.123804  0.520634  0.391205  1
  O  O17  1  0.066994  0.213671  0.654675  1
  O  O18  1  0.598908  0.866996  0.525807  1
  O  O19  1  0.946328  0.492457  0.182628  1
  O  O20  1  0.876196  0.479366  0.608795  1
  O  O21  1  0.203217  0.460016  0.021669  1
  O  O22  1  0.809206  0.153430  0.894043  1
  O  O23  1  0.401092  0.133004  0.474193  1
  O  O24  1  0.459746  0.451160  0.218920  1
  O  O25  1  0.144456  0.146021  0.289172  1
  O  O26  1  0.997929  0.130372  0.080270  1
  O  O27  1  0.911904  0.172260  0.451148  1
  O  O28  1  0.674238  0.808577  0.156194  1
  O  O29  1  0.855544  0.853979  0.710828  1
  O  O30  1  0.381877  0.508329  0.577151  1
  O  O31  1  0.796783  0.539984  0.978331  1
  O  O32  1  0.575441  0.172686  0.682352  1
  O  O33  1  0.053672  0.507543  0.817372  1
  O  O34  1  0.325762  0.191423  0.843806  1
  O  O35  1  0.350289  0.810865  0.742874  1
  O  O36  1  0.485220  0.201434  0.048918  1
  O  O37  1  0.088096  0.827740  0.548852  1
  O  O38  1  0.933006  0.786329  0.345325  1
  O  O39  1  0.190794  0.846570  0.105957  1
  O  O40  1  0.002071  0.869628  0.919730  1
  O  O41  1  0.424559  0.827314  0.317648  1
  O  O42  1  0.540254  0.548840  0.781080  1
  O  O43  1  0.649711  0.189135  0.257126  1
  O  O44  1  0.514780  0.798566  0.951082  1
  O  O45  1  0.618123  0.491671  0.422849  1
