# generated using pymatgen
data_NiP4O11
_symmetry_space_group_name_H-M   'P 1'
_cell_length_a   9.54506249
_cell_length_b   8.16229247
_cell_length_c   13.33635868
_cell_angle_alpha   90.00000000
_cell_angle_beta   123.48674379
_cell_angle_gamma   90.00000000
_symmetry_Int_Tables_number   1
_chemical_formula_structural   NiP4O11
_chemical_formula_sum   'Ni4 P16 O44'
_cell_volume   866.56526165
_cell_formula_units_Z   4
loop_
 _symmetry_equiv_pos_site_id
 _symmetry_equiv_pos_as_xyz
  1  'x, y, z'
loop_
 _atom_site_type_symbol
 _atom_site_label
 _atom_site_symmetry_multiplicity
 _atom_site_fract_x
 _atom_site_fract_y
 _atom_site_fract_z
 _atom_site_occupancy
  Ni  Ni0  1  0.752530  0.486205  0.718129  1
  Ni  Ni1  1  0.247470  0.986205  0.781871  1
  Ni  Ni2  1  0.247470  0.513795  0.281871  1
  Ni  Ni3  1  0.752530  0.013795  0.218129  1
  P  P4  1  0.330019  0.498277  0.073163  1
  P  P5  1  0.669981  0.998277  0.426837  1
  P  P6  1  0.669981  0.501723  0.926837  1
  P  P7  1  0.330019  0.001723  0.573163  1
  P  P8  1  0.683478  0.888147  0.744163  1
  P  P9  1  0.316522  0.388147  0.755837  1
  P  P10  1  0.316522  0.111853  0.255837  1
  P  P11  1  0.683478  0.611853  0.244163  1
  P  P12  1  0.137512  0.613619  0.825307  1
  P  P13  1  0.862488  0.113619  0.674693  1
  P  P14  1  0.666572  0.625366  0.455732  1
  P  P15  1  0.137512  0.886381  0.325307  1
  P  P16  1  0.666572  0.874634  0.955732  1
  P  P17  1  0.333428  0.374634  0.544268  1
  P  P18  1  0.333428  0.125366  0.044268  1
  P  P19  1  0.862488  0.386381  0.174693  1
  O  O20  1  0.770340  0.542271  0.573689  1
  O  O21  1  0.229660  0.042271  0.926311  1
  O  O22  1  0.229660  0.457729  0.426311  1
  O  O23  1  0.770340  0.957729  0.073689  1
  O  O24  1  0.530972  0.011509  0.661885  1
  O  O25  1  0.469028  0.511509  0.838115  1
  O  O26  1  0.469028  0.988491  0.338115  1
  O  O27  1  0.530972  0.488491  0.161885  1
  O  O28  1  0.721774  0.680120  0.978349  1
  O  O29  1  0.278226  0.180120  0.521651  1
  O  O30  1  0.278226  0.319880  0.021651  1
  O  O31  1  0.721774  0.819880  0.478349  1
  O  O32  1  0.518805  0.383166  0.621805  1
  O  O33  1  0.481195  0.883166  0.878195  1
  O  O34  1  0.481195  0.616834  0.378195  1
  O  O35  1  0.172110  0.450397  0.768528  1
  O  O36  1  0.746611  0.931583  0.878186  1
  O  O37  1  0.253389  0.431583  0.621814  1
  O  O38  1  0.253389  0.068417  0.121814  1
  O  O39  1  0.746611  0.568417  0.378186  1
  O  O40  1  0.988347  0.921071  0.329703  1
  O  O41  1  0.011653  0.421071  0.170297  1
  O  O42  1  0.011653  0.078929  0.670297  1
  O  O43  1  0.988347  0.578929  0.829703  1
  O  O44  1  0.305239  0.896629  0.464676  1
  O  O45  1  0.694761  0.396629  0.035324  1
  O  O46  1  0.694761  0.103371  0.535324  1
  O  O47  1  0.305239  0.603371  0.964676  1
  O  O48  1  0.847191  0.240289  0.233007  1
  O  O49  1  0.152809  0.740289  0.266993  1
  O  O50  1  0.152809  0.759711  0.766993  1
  O  O51  1  0.847191  0.259711  0.733007  1
  O  O52  1  0.637251  0.785289  0.209642  1
  O  O53  1  0.362749  0.285289  0.290358  1
  O  O54  1  0.362749  0.214711  0.790358  1
  O  O55  1  0.637251  0.714711  0.709642  1
  O  O56  1  0.754591  0.066995  0.371852  1
  O  O57  1  0.245409  0.566995  0.128148  1
  O  O58  1  0.245409  0.933005  0.628148  1
  O  O59  1  0.754591  0.433005  0.871852  1
  O  O60  1  0.172110  0.049603  0.268528  1
  O  O61  1  0.827890  0.549603  0.231472  1
  O  O62  1  0.827890  0.950397  0.731472  1
  O  O63  1  0.518805  0.116834  0.121805  1
