# generated using pymatgen
data_La2Cu2O5
_symmetry_space_group_name_H-M   'P 1'
_cell_length_a   3.92537353
_cell_length_b   5.48569665
_cell_length_c   10.54424827
_cell_angle_alpha   90.00000000
_cell_angle_beta   90.00000000
_cell_angle_gamma   90.00000000
_symmetry_Int_Tables_number   1
_chemical_formula_structural   La2Cu2O5
_chemical_formula_sum   'La4 Cu4 O10'
_cell_volume   227.05360452
_cell_formula_units_Z   2
loop_
 _symmetry_equiv_pos_site_id
 _symmetry_equiv_pos_as_xyz
  1  'x, y, z'
loop_
 _atom_site_type_symbol
 _atom_site_label
 _atom_site_symmetry_multiplicity
 _atom_site_fract_x
 _atom_site_fract_y
 _atom_site_fract_z
 _atom_site_occupancy
  La  La0  1  0.500000  0.194083  0.862997  1
  La  La1  1  0.500000  0.805917  0.137003  1
  La  La2  1  0.500000  0.694083  0.637003  1
  La  La3  1  0.500000  0.305917  0.362997  1
  Cu  Cu4  1  0.000000  0.203785  0.604957  1
  Cu  Cu5  1  0.000000  0.796215  0.395043  1
  Cu  Cu6  1  0.000000  0.703785  0.895043  1
  Cu  Cu7  1  0.000000  0.296215  0.104957  1
  O  O8  1  0.000000  0.500000  0.500000  1
  O  O9  1  0.000000  0.000000  0.000000  1
  O  O10  1  0.000000  0.416903  0.790679  1
  O  O11  1  0.000000  0.583097  0.209321  1
  O  O12  1  0.000000  0.916903  0.709321  1
  O  O13  1  0.000000  0.083097  0.290679  1
  O  O14  1  0.500000  0.214222  0.604138  1
  O  O15  1  0.500000  0.785778  0.395862  1
  O  O16  1  0.500000  0.285778  0.104138  1
  O  O17  1  0.500000  0.714222  0.895862  1
