# generated using pymatgen
data_Hg9(PO4)4
_symmetry_space_group_name_H-M   'P 1'
_cell_length_a   10.39894125
_cell_length_b   10.39894125
_cell_length_c   10.39894125
_cell_angle_alpha   108.46393778
_cell_angle_beta   108.46393778
_cell_angle_gamma   108.46393778
_symmetry_Int_Tables_number   1
_chemical_formula_structural   Hg9(PO4)4
_chemical_formula_sum   'Hg18 P8 O32'
_cell_volume   896.48668740
_cell_formula_units_Z   2
loop_
 _symmetry_equiv_pos_site_id
 _symmetry_equiv_pos_as_xyz
  1  'x, y, z'
loop_
 _atom_site_type_symbol
 _atom_site_label
 _atom_site_symmetry_multiplicity
 _atom_site_fract_x
 _atom_site_fract_y
 _atom_site_fract_z
 _atom_site_occupancy
  Hg  Hg0  1  0.179191  0.456193  0.404619  1
  Hg  Hg1  1  0.456193  0.404619  0.179191  1
  Hg  Hg2  1  0.404619  0.179191  0.456193  1
  Hg  Hg3  1  0.679191  0.904619  0.956193  1
  Hg  Hg4  1  0.904619  0.956193  0.679191  1
  Hg  Hg5  1  0.956193  0.679191  0.904619  1
  Hg  Hg6  1  0.652147  0.280836  0.180738  1
  Hg  Hg7  1  0.280836  0.180738  0.652147  1
  Hg  Hg8  1  0.180738  0.652147  0.280836  1
  Hg  Hg9  1  0.152147  0.680738  0.780836  1
  Hg  Hg10  1  0.680738  0.780836  0.152147  1
  Hg  Hg11  1  0.780836  0.152147  0.680738  1
  Hg  Hg12  1  0.093347  0.982582  0.347676  1
  Hg  Hg13  1  0.982582  0.347676  0.093347  1
  Hg  Hg14  1  0.347676  0.093347  0.982582  1
  Hg  Hg15  1  0.593347  0.847676  0.482582  1
  Hg  Hg16  1  0.847676  0.482582  0.593347  1
  Hg  Hg17  1  0.482582  0.593347  0.847676  1
  P  P18  1  0.881877  0.173727  0.378668  1
  P  P19  1  0.173727  0.378668  0.881877  1
  P  P20  1  0.378668  0.881877  0.173727  1
  P  P21  1  0.381877  0.878668  0.673727  1
  P  P22  1  0.878668  0.673727  0.381877  1
  P  P23  1  0.673727  0.381877  0.878668  1
  P  P24  1  0.055810  0.055810  0.055810  1
  P  P25  1  0.555810  0.555810  0.555810  1
  O  O26  1  0.991601  0.917223  0.090043  1
  O  O27  1  0.917223  0.090043  0.991601  1
  O  O28  1  0.090043  0.991601  0.917223  1
  O  O29  1  0.491601  0.590043  0.417223  1
  O  O30  1  0.590043  0.417223  0.491601  1
  O  O31  1  0.417223  0.491601  0.590043  1
  O  O32  1  0.793543  0.157730  0.215824  1
  O  O33  1  0.157730  0.215824  0.793543  1
  O  O34  1  0.215824  0.793543  0.157730  1
  O  O35  1  0.293543  0.715824  0.657730  1
  O  O36  1  0.715824  0.657730  0.293543  1
  O  O37  1  0.657730  0.293543  0.715824  1
  O  O38  1  0.056265  0.279702  0.453917  1
  O  O39  1  0.279702  0.453917  0.056265  1
  O  O40  1  0.453917  0.056265  0.279702  1
  O  O41  1  0.556265  0.953917  0.779702  1
  O  O42  1  0.953917  0.779702  0.556265  1
  O  O43  1  0.779702  0.556265  0.953917  1
  O  O44  1  0.866951  0.013279  0.362557  1
  O  O45  1  0.013279  0.362557  0.866951  1
  O  O46  1  0.362557  0.866951  0.013279  1
  O  O47  1  0.366951  0.862557  0.513279  1
  O  O48  1  0.862557  0.513279  0.366951  1
  O  O49  1  0.513279  0.366951  0.862557  1
  O  O50  1  0.982295  0.732382  0.311759  1
  O  O51  1  0.732382  0.311759  0.982295  1
  O  O52  1  0.311759  0.982295  0.732382  1
  O  O53  1  0.482295  0.811759  0.232382  1
  O  O54  1  0.811759  0.232382  0.482295  1
  O  O55  1  0.232382  0.482295  0.811759  1
  O  O56  1  0.195489  0.195489  0.195489  1
  O  O57  1  0.695489  0.695489  0.695489  1
