# generated using pymatgen
data_CoO2
_symmetry_space_group_name_H-M   'P 1'
_cell_length_a   5.63541726
_cell_length_b   5.63541726
_cell_length_c   5.63541726
_cell_angle_alpha   60.00000000
_cell_angle_beta   60.00000000
_cell_angle_gamma   60.00000000
_symmetry_Int_Tables_number   1
_chemical_formula_structural   CoO2
_chemical_formula_sum   'Co4 O8'
_cell_volume   126.55031650
_cell_formula_units_Z   4
loop_
 _symmetry_equiv_pos_site_id
 _symmetry_equiv_pos_as_xyz
  1  'x, y, z'
loop_
 _atom_site_type_symbol
 _atom_site_label
 _atom_site_symmetry_multiplicity
 _atom_site_fract_x
 _atom_site_fract_y
 _atom_site_fract_z
 _atom_site_occupancy
  Co  Co0  1  0.125000  0.625000  0.625000  1
  Co  Co1  1  0.625000  0.625000  0.125000  1
  Co  Co2  1  0.625000  0.125000  0.625000  1
  Co  Co3  1  0.625000  0.625000  0.625000  1
  O  O4  1  0.388602  0.388602  0.388602  1
  O  O5  1  0.834193  0.388602  0.388602  1
  O  O6  1  0.861398  0.861398  0.861398  1
  O  O7  1  0.861398  0.861398  0.415807  1
  O  O8  1  0.415807  0.861398  0.861398  1
  O  O9  1  0.861398  0.415807  0.861398  1
  O  O10  1  0.388602  0.388602  0.834193  1
  O  O11  1  0.388602  0.834193  0.388602  1
