# generated using pymatgen
data_BaZrS3
_symmetry_space_group_name_H-M   'P 1'
_cell_length_a   7.08830825
_cell_length_b   7.15495986
_cell_length_c   10.07677713
_cell_angle_alpha   90.00000000
_cell_angle_beta   90.00000000
_cell_angle_gamma   90.00000000
_symmetry_Int_Tables_number   1
_chemical_formula_structural   BaZrS3
_chemical_formula_sum   'Ba4 Zr4 S12'
_cell_volume   511.05948204
_cell_formula_units_Z   4
loop_
 _symmetry_equiv_pos_site_id
 _symmetry_equiv_pos_as_xyz
  1  'x, y, z'
loop_
 _atom_site_type_symbol
 _atom_site_label
 _atom_site_symmetry_multiplicity
 _atom_site_fract_x
 _atom_site_fract_y
 _atom_site_fract_z
 _atom_site_occupancy
  Ba  Ba0  1  0.008603  0.042741  0.250000  1
  Ba  Ba1  1  0.508603  0.457259  0.750000  1
  Ba  Ba2  1  0.491397  0.542741  0.250000  1
  Ba  Ba3  1  0.991397  0.957259  0.750000  1
  Zr  Zr4  1  0.500000  0.000000  0.000000  1
  Zr  Zr5  1  0.000000  0.500000  0.000000  1
  Zr  Zr6  1  0.000000  0.500000  0.500000  1
  Zr  Zr7  1  0.500000  0.000000  0.500000  1
  S  S8  1  0.560908  0.993829  0.250000  1
  S  S9  1  0.060908  0.506171  0.750000  1
  S  S10  1  0.939092  0.493829  0.250000  1
  S  S11  1  0.439092  0.006171  0.750000  1
  S  S12  1  0.786623  0.213183  0.968211  1
  S  S13  1  0.286623  0.286817  0.031789  1
  S  S14  1  0.713377  0.713183  0.531789  1
  S  S15  1  0.213377  0.786817  0.468211  1
  S  S16  1  0.213377  0.786817  0.031789  1
  S  S17  1  0.713377  0.713183  0.968211  1
  S  S18  1  0.286623  0.286817  0.468211  1
  S  S19  1  0.786623  0.213183  0.531789  1
