# generated using pymatgen
data_Cs3PSe4
_symmetry_space_group_name_H-M   'P 1'
_cell_length_a   10.17821987
_cell_length_b   10.20039029
_cell_length_c   12.26788070
_cell_angle_alpha   90.00000000
_cell_angle_beta   90.00000000
_cell_angle_gamma   90.00000000
_symmetry_Int_Tables_number   1
_chemical_formula_structural   Cs3PSe4
_chemical_formula_sum   'Cs12 P4 Se16'
_cell_volume   1273.67364209
_cell_formula_units_Z   4
loop_
 _symmetry_equiv_pos_site_id
 _symmetry_equiv_pos_as_xyz
  1  'x, y, z'
loop_
 _atom_site_type_symbol
 _atom_site_label
 _atom_site_symmetry_multiplicity
 _atom_site_fract_x
 _atom_site_fract_y
 _atom_site_fract_z
 _atom_site_occupancy
  Cs  Cs0  1  0.403713  0.843694  0.750000  1
  Cs  Cs1  1  0.596287  0.156306  0.250000  1
  Cs  Cs2  1  0.096287  0.343694  0.750000  1
  Cs  Cs3  1  0.705565  0.534873  0.957938  1
  Cs  Cs4  1  0.294435  0.465127  0.042062  1
  Cs  Cs5  1  0.903713  0.656306  0.250000  1
  Cs  Cs6  1  0.205565  0.965127  0.042062  1
  Cs  Cs7  1  0.294435  0.465127  0.457938  1
  Cs  Cs8  1  0.205565  0.965127  0.457938  1
  Cs  Cs9  1  0.705565  0.534873  0.542062  1
  Cs  Cs10  1  0.794435  0.034873  0.542062  1
  Cs  Cs11  1  0.794435  0.034873  0.957938  1
  P  P12  1  0.979086  0.774714  0.750000  1
  P  P13  1  0.520914  0.274714  0.750000  1
  P  P14  1  0.020914  0.225286  0.250000  1
  P  P15  1  0.479086  0.725286  0.250000  1
  Se  Se16  1  0.564548  0.522794  0.250000  1
  Se  Se17  1  0.064548  0.977206  0.750000  1
  Se  Se18  1  0.454429  0.171689  0.900612  1
  Se  Se19  1  0.045571  0.671689  0.599388  1
  Se  Se20  1  0.435452  0.477206  0.750000  1
  Se  Se21  1  0.954429  0.328311  0.099388  1
  Se  Se22  1  0.545571  0.828311  0.400612  1
  Se  Se23  1  0.760099  0.784079  0.750000  1
  Se  Se24  1  0.045571  0.671689  0.900612  1
  Se  Se25  1  0.260099  0.715921  0.250000  1
  Se  Se26  1  0.545571  0.828311  0.099388  1
  Se  Se27  1  0.239901  0.215921  0.250000  1
  Se  Se28  1  0.739901  0.284079  0.750000  1
  Se  Se29  1  0.454429  0.171689  0.599388  1
  Se  Se30  1  0.935452  0.022794  0.250000  1
  Se  Se31  1  0.954429  0.328311  0.400612  1
