# generated using pymatgen
data_Rb(SnSe2)2
_symmetry_space_group_name_H-M   'P 1'
_cell_length_a   7.79091459
_cell_length_b   20.04669185
_cell_length_c   14.61823245
_cell_angle_alpha   90.00000000
_cell_angle_beta   117.26744663
_cell_angle_gamma   90.00000000
_symmetry_Int_Tables_number   1
_chemical_formula_structural   Rb(SnSe2)2
_chemical_formula_sum   'Rb8 Sn16 Se32'
_cell_volume   2029.40170475
_cell_formula_units_Z   8
loop_
 _symmetry_equiv_pos_site_id
 _symmetry_equiv_pos_as_xyz
  1  'x, y, z'
loop_
 _atom_site_type_symbol
 _atom_site_label
 _atom_site_symmetry_multiplicity
 _atom_site_fract_x
 _atom_site_fract_y
 _atom_site_fract_z
 _atom_site_occupancy
  Rb  Rb0  1  0.662394  0.558729  0.419201  1
  Rb  Rb1  1  0.337606  0.441271  0.580799  1
  Rb  Rb2  1  0.589849  0.199810  0.416493  1
  Rb  Rb3  1  0.410151  0.699810  0.083507  1
  Rb  Rb4  1  0.589849  0.300190  0.916493  1
  Rb  Rb5  1  0.662394  0.941271  0.919201  1
  Rb  Rb6  1  0.410151  0.800190  0.583507  1
  Rb  Rb7  1  0.337606  0.058729  0.080799  1
  Sn  Sn8  1  0.855539  0.535760  0.174757  1
  Sn  Sn9  1  0.894826  0.638701  0.757534  1
  Sn  Sn10  1  0.120882  0.678929  0.289788  1
  Sn  Sn11  1  0.446569  0.875821  0.307319  1
  Sn  Sn12  1  0.105174  0.138701  0.742466  1
  Sn  Sn13  1  0.446569  0.624179  0.807319  1
  Sn  Sn14  1  0.144461  0.035760  0.325243  1
  Sn  Sn15  1  0.105174  0.361299  0.242466  1
  Sn  Sn16  1  0.553431  0.124179  0.692681  1
  Sn  Sn17  1  0.144461  0.464240  0.825243  1
  Sn  Sn18  1  0.553431  0.375821  0.192681  1
  Sn  Sn19  1  0.879118  0.178929  0.210212  1
  Sn  Sn20  1  0.855539  0.964240  0.674757  1
  Sn  Sn21  1  0.120882  0.821071  0.789788  1
  Sn  Sn22  1  0.894826  0.861299  0.257534  1
  Sn  Sn23  1  0.879118  0.321071  0.710212  1
  Se  Se24  1  0.453545  0.716594  0.336136  1
  Se  Se25  1  0.527218  0.978437  0.662816  1
  Se  Se26  1  0.111439  0.939463  0.864259  1
  Se  Se27  1  0.926564  0.133439  0.850226  1
  Se  Se28  1  0.467025  0.122008  0.856608  1
  Se  Se29  1  0.041624  0.557769  0.912266  1
  Se  Se30  1  0.064825  0.248204  0.637675  1
  Se  Se31  1  0.546455  0.216594  0.163864  1
  Se  Se32  1  0.111439  0.560537  0.364259  1
  Se  Se33  1  0.073436  0.633439  0.649774  1
  Se  Se34  1  0.041624  0.942231  0.412266  1
  Se  Se35  1  0.472782  0.478437  0.837184  1
  Se  Se36  1  0.546455  0.283406  0.663864  1
  Se  Se37  1  0.926564  0.366561  0.350226  1
  Se  Se38  1  0.889000  0.850220  0.597741  1
  Se  Se39  1  0.888561  0.060537  0.135741  1
  Se  Se40  1  0.958376  0.442231  0.087734  1
  Se  Se41  1  0.935175  0.748204  0.862325  1
  Se  Se42  1  0.527218  0.521563  0.162816  1
  Se  Se43  1  0.111000  0.149780  0.402259  1
  Se  Se44  1  0.889000  0.649780  0.097741  1
  Se  Se45  1  0.472782  0.021563  0.337184  1
  Se  Se46  1  0.888561  0.439463  0.635741  1
  Se  Se47  1  0.958376  0.057769  0.587734  1
  Se  Se48  1  0.111000  0.350220  0.902259  1
  Se  Se49  1  0.064825  0.251796  0.137675  1
  Se  Se50  1  0.935175  0.751796  0.362325  1
  Se  Se51  1  0.073436  0.866561  0.149774  1
  Se  Se52  1  0.453545  0.783406  0.836136  1
  Se  Se53  1  0.467025  0.377992  0.356608  1
  Se  Se54  1  0.532975  0.877992  0.143392  1
  Se  Se55  1  0.532975  0.622008  0.643392  1
