# generated using pymatgen
data_CaAg
_symmetry_space_group_name_H-M   'P 1'
_cell_length_a   6.04081238
_cell_length_b   6.04081238
_cell_length_c   4.71187061
_cell_angle_alpha   90.00000000
_cell_angle_beta   90.00000000
_cell_angle_gamma   140.24725840
_symmetry_Int_Tables_number   1
_chemical_formula_structural   CaAg
_chemical_formula_sum   'Ca2 Ag2'
_cell_volume   109.95327192
_cell_formula_units_Z   2
loop_
 _symmetry_equiv_pos_site_id
 _symmetry_equiv_pos_as_xyz
  1  'x, y, z'
loop_
 _atom_site_type_symbol
 _atom_site_label
 _atom_site_symmetry_multiplicity
 _atom_site_fract_x
 _atom_site_fract_y
 _atom_site_fract_z
 _atom_site_occupancy
  Ca  Ca0  1  0.141244  0.858756  0.750000  1
  Ca  Ca1  1  0.858756  0.141244  0.250000  1
  Ag  Ag2  1  0.425013  0.574987  0.750000  1
  Ag  Ag3  1  0.574987  0.425013  0.250000  1
