# generated using pymatgen
data_KMn5(SeO3)6
_symmetry_space_group_name_H-M   'P 1'
_cell_length_a   10.43598657
_cell_length_b   10.43598657
_cell_length_c   9.76410780
_cell_angle_alpha   88.78250907
_cell_angle_beta   91.21749093
_cell_angle_gamma   119.99757901
_symmetry_Int_Tables_number   1
_chemical_formula_structural   KMn5(SeO3)6
_chemical_formula_sum   'K2 Mn10 Se12 O36'
_cell_volume   920.68286521
_cell_formula_units_Z   2
loop_
 _symmetry_equiv_pos_site_id
 _symmetry_equiv_pos_as_xyz
  1  'x, y, z'
loop_
 _atom_site_type_symbol
 _atom_site_label
 _atom_site_symmetry_multiplicity
 _atom_site_fract_x
 _atom_site_fract_y
 _atom_site_fract_z
 _atom_site_occupancy
  K  K0  1  0.999639  0.999639  0.250000  1
  K  K1  1  0.000361  0.000361  0.750000  1
  Mn  Mn2  1  0.330815  0.668080  0.833294  1
  Mn  Mn3  1  0.624429  0.998595  0.750720  1
  Mn  Mn4  1  0.375571  0.001405  0.249280  1
  Mn  Mn5  1  0.998595  0.624429  0.749280  1
  Mn  Mn6  1  0.386531  0.386531  0.750000  1
  Mn  Mn7  1  0.001405  0.375571  0.250720  1
  Mn  Mn8  1  0.668080  0.330815  0.666706  1
  Mn  Mn9  1  0.669185  0.331920  0.166706  1
  Mn  Mn10  1  0.331920  0.669185  0.333294  1
  Mn  Mn11  1  0.613469  0.613469  0.250000  1
  Se  Se12  1  0.305351  0.919356  0.583109  1
  Se  Se13  1  0.311825  0.386284  0.084224  1
  Se  Se14  1  0.080644  0.694649  0.083109  1
  Se  Se15  1  0.694649  0.080644  0.416891  1
  Se  Se16  1  0.612645  0.911136  0.089006  1
  Se  Se17  1  0.386284  0.311825  0.415776  1
  Se  Se18  1  0.911136  0.612645  0.410994  1
  Se  Se19  1  0.613716  0.688175  0.584224  1
  Se  Se20  1  0.387355  0.088864  0.910994  1
  Se  Se21  1  0.919356  0.305351  0.916891  1
  Se  Se22  1  0.688175  0.613716  0.915776  1
  Se  Se23  1  0.088864  0.387355  0.589006  1
  O  O24  1  0.459102  0.852524  0.189058  1
  O  O25  1  0.841909  0.303649  0.074690  1
  O  O26  1  0.392816  0.849014  0.688813  1
  O  O27  1  0.453078  0.594811  0.688538  1
  O  O28  1  0.865227  0.695998  0.857567  1
  O  O29  1  0.311824  0.468289  0.927577  1
  O  O30  1  0.693636  0.808347  0.151267  1
  O  O31  1  0.171778  0.875809  0.135859  1
  O  O32  1  0.607184  0.150986  0.311187  1
  O  O33  1  0.304002  0.134773  0.357567  1
  O  O34  1  0.468289  0.311824  0.572423  1
  O  O35  1  0.828222  0.124191  0.864141  1
  O  O36  1  0.405189  0.546922  0.188538  1
  O  O37  1  0.150986  0.607184  0.188813  1
  O  O38  1  0.464494  0.161549  0.069684  1
  O  O39  1  0.838451  0.535506  0.569684  1
  O  O40  1  0.540898  0.147476  0.810942  1
  O  O41  1  0.158091  0.696351  0.925310  1
  O  O42  1  0.852524  0.459102  0.310942  1
  O  O43  1  0.535506  0.838451  0.930316  1
  O  O44  1  0.695998  0.865227  0.642433  1
  O  O45  1  0.306364  0.191653  0.848733  1
  O  O46  1  0.594811  0.453078  0.811462  1
  O  O47  1  0.808347  0.693636  0.348733  1
  O  O48  1  0.191653  0.306364  0.651267  1
  O  O49  1  0.161549  0.464494  0.430316  1
  O  O50  1  0.849014  0.392816  0.811187  1
  O  O51  1  0.303649  0.841909  0.425310  1
  O  O52  1  0.531711  0.688176  0.427577  1
  O  O53  1  0.546922  0.405189  0.311462  1
  O  O54  1  0.124191  0.828222  0.635859  1
  O  O55  1  0.875809  0.171778  0.364141  1
  O  O56  1  0.134773  0.304002  0.142433  1
  O  O57  1  0.147476  0.540898  0.689058  1
  O  O58  1  0.696351  0.158091  0.574690  1
  O  O59  1  0.688176  0.531711  0.072423  1
