# generated using pymatgen
data_K5SnSb3
_symmetry_space_group_name_H-M   'P 1'
_cell_length_a   9.96080396
_cell_length_b   8.88428370
_cell_length_c   19.01123917
_cell_angle_alpha   90.00000000
_cell_angle_beta   121.30829940
_cell_angle_gamma   90.00000000
_symmetry_Int_Tables_number   1
_chemical_formula_structural   K5SnSb3
_chemical_formula_sum   'K20 Sn4 Sb12'
_cell_volume   1437.40821820
_cell_formula_units_Z   4
loop_
 _symmetry_equiv_pos_site_id
 _symmetry_equiv_pos_as_xyz
  1  'x, y, z'
loop_
 _atom_site_type_symbol
 _atom_site_label
 _atom_site_symmetry_multiplicity
 _atom_site_fract_x
 _atom_site_fract_y
 _atom_site_fract_z
 _atom_site_occupancy
  K  K0  1  0.663961  0.159402  0.740598  1
  K  K1  1  0.336039  0.659402  0.759402  1
  K  K2  1  0.336039  0.840598  0.259402  1
  K  K3  1  0.663961  0.340598  0.240598  1
  K  K4  1  0.342618  0.171987  0.420545  1
  K  K5  1  0.657382  0.671987  0.079455  1
  K  K6  1  0.657382  0.828013  0.579455  1
  K  K7  1  0.342618  0.328013  0.920545  1
  K  K8  1  0.388587  0.006170  0.086501  1
  K  K9  1  0.611413  0.506170  0.413499  1
  K  K10  1  0.611413  0.993830  0.913499  1
  K  K11  1  0.388587  0.493830  0.586501  1
  K  K12  1  0.238910  0.519637  0.077523  1
  K  K13  1  0.761090  0.019637  0.422477  1
  K  K14  1  0.761090  0.480363  0.922477  1
  K  K15  1  0.238910  0.980363  0.577523  1
  K  K16  1  0.947082  0.992611  0.255302  1
  K  K17  1  0.052918  0.492611  0.244698  1
  K  K18  1  0.052918  0.007389  0.744698  1
  K  K19  1  0.947082  0.507389  0.755302  1
  Sn  Sn20  1  0.013481  0.356782  0.586736  1
  Sn  Sn21  1  0.986519  0.856782  0.913264  1
  Sn  Sn22  1  0.986519  0.643218  0.413264  1
  Sn  Sn23  1  0.013481  0.143218  0.086736  1
  Sb  Sb24  1  0.738011  0.262944  0.080400  1
  Sb  Sb25  1  0.261989  0.762944  0.419600  1
  Sb  Sb26  1  0.261989  0.737056  0.919600  1
  Sb  Sb27  1  0.738011  0.237056  0.580400  1
  Sb  Sb28  1  0.016600  0.187994  0.933846  1
  Sb  Sb29  1  0.983400  0.687994  0.566154  1
  Sb  Sb30  1  0.983400  0.812006  0.066154  1
  Sb  Sb31  1  0.016600  0.312006  0.433846  1
  Sb  Sb32  1  0.307805  0.266158  0.727419  1
  Sb  Sb33  1  0.692195  0.766158  0.772581  1
  Sb  Sb34  1  0.692195  0.733842  0.272581  1
  Sb  Sb35  1  0.307805  0.233842  0.227419  1
