# generated using pymatgen
data_CaInPt
_symmetry_space_group_name_H-M   'P 1'
_cell_length_a   4.41139967
_cell_length_b   7.32808547
_cell_length_c   8.52922500
_cell_angle_alpha   90.00000000
_cell_angle_beta   90.00000000
_cell_angle_gamma   90.00000000
_symmetry_Int_Tables_number   1
_chemical_formula_structural   CaInPt
_chemical_formula_sum   'Ca4 In4 Pt4'
_cell_volume   275.72522741
_cell_formula_units_Z   4
loop_
 _symmetry_equiv_pos_site_id
 _symmetry_equiv_pos_as_xyz
  1  'x, y, z'
loop_
 _atom_site_type_symbol
 _atom_site_label
 _atom_site_symmetry_multiplicity
 _atom_site_fract_x
 _atom_site_fract_y
 _atom_site_fract_z
 _atom_site_occupancy
  Ca  Ca0  1  0.250000  0.029746  0.322277  1
  Ca  Ca1  1  0.250000  0.529746  0.177723  1
  Ca  Ca2  1  0.750000  0.970254  0.677723  1
  Ca  Ca3  1  0.750000  0.470254  0.822277  1
  In  In4  1  0.750000  0.350533  0.434632  1
  In  In5  1  0.250000  0.149467  0.934632  1
  In  In6  1  0.750000  0.850533  0.065368  1
  In  In7  1  0.250000  0.649467  0.565368  1
  Pt  Pt8  1  0.750000  0.232412  0.123844  1
  Pt  Pt9  1  0.750000  0.732412  0.376156  1
  Pt  Pt10  1  0.250000  0.767588  0.876156  1
  Pt  Pt11  1  0.250000  0.267588  0.623844  1
