# generated using pymatgen
data_CsBa(BO2)3
_symmetry_space_group_name_H-M   'P 1'
_cell_length_a   12.69932998
_cell_length_b   12.69932998
_cell_length_c   7.64950653
_cell_angle_alpha   90.00000000
_cell_angle_beta   90.00000000
_cell_angle_gamma   120.00000000
_symmetry_Int_Tables_number   1
_chemical_formula_structural   CsBa(BO2)3
_chemical_formula_sum   'Cs6 Ba6 B18 O36'
_cell_volume   1068.37979848
_cell_formula_units_Z   6
loop_
 _symmetry_equiv_pos_site_id
 _symmetry_equiv_pos_as_xyz
  1  'x, y, z'
loop_
 _atom_site_type_symbol
 _atom_site_label
 _atom_site_symmetry_multiplicity
 _atom_site_fract_x
 _atom_site_fract_y
 _atom_site_fract_z
 _atom_site_occupancy
  Cs  Cs0  1  0.363373  0.000000  0.000000  1
  Cs  Cs1  1  0.695325  0.000000  0.000000  1
  Cs  Cs2  1  0.304675  0.304675  0.000000  1
  Cs  Cs3  1  0.000000  0.695325  0.000000  1
  Cs  Cs4  1  0.000000  0.363373  0.000000  1
  Cs  Cs5  1  0.636627  0.636627  0.000000  1
  Ba  Ba6  1  0.702198  0.000000  0.500000  1
  Ba  Ba7  1  0.000000  0.366772  0.500000  1
  Ba  Ba8  1  0.366772  0.000000  0.500000  1
  Ba  Ba9  1  0.297802  0.297802  0.500000  1
  Ba  Ba10  1  0.633228  0.633228  0.500000  1
  Ba  Ba11  1  0.000000  0.702198  0.500000  1
  B  B12  1  0.205108  0.624698  0.284680  1
  B  B13  1  0.266323  0.730359  0.714388  1
  B  B14  1  0.957457  0.086366  0.716462  1
  B  B15  1  0.624698  0.205108  0.715320  1
  B  B16  1  0.375302  0.580410  0.284680  1
  B  B17  1  0.464036  0.733677  0.714388  1
  B  B18  1  0.128908  0.042543  0.716462  1
  B  B19  1  0.730359  0.266323  0.285612  1
  B  B20  1  0.269641  0.535964  0.714388  1
  B  B21  1  0.913634  0.871092  0.716462  1
  B  B22  1  0.042543  0.128908  0.283538  1
  B  B23  1  0.580410  0.375302  0.715320  1
  B  B24  1  0.871092  0.913634  0.283538  1
  B  B25  1  0.535964  0.269641  0.285612  1
  B  B26  1  0.794892  0.419590  0.715320  1
  B  B27  1  0.086366  0.957457  0.283538  1
  B  B28  1  0.419590  0.794892  0.284680  1
  B  B29  1  0.733677  0.464036  0.285612  1
  O  O30  1  0.249944  0.542326  0.279733  1
  O  O31  1  0.417384  0.503345  0.295527  1
  O  O32  1  0.875647  0.958426  0.721249  1
  O  O33  1  0.207338  0.792099  0.702339  1
  O  O34  1  0.542326  0.249944  0.720267  1
  O  O35  1  0.496655  0.914039  0.295527  1
  O  O36  1  0.503345  0.417384  0.704473  1
  O  O37  1  0.085961  0.582616  0.295527  1
  O  O38  1  0.124353  0.082779  0.278751  1
  O  O39  1  0.792662  0.584761  0.297661  1
  O  O40  1  0.161180  0.913182  0.295249  1
  O  O41  1  0.604653  0.398069  0.280100  1
  O  O42  1  0.792099  0.207338  0.297661  1
  O  O43  1  0.041574  0.917221  0.721249  1
  O  O44  1  0.793415  0.395347  0.280100  1
  O  O45  1  0.750056  0.292382  0.720267  1
  O  O46  1  0.707618  0.457674  0.720267  1
  O  O47  1  0.086818  0.247998  0.295249  1
  O  O48  1  0.917221  0.041574  0.278751  1
  O  O49  1  0.398069  0.604653  0.719900  1
  O  O50  1  0.601931  0.206585  0.280100  1
  O  O51  1  0.395347  0.793415  0.719900  1
  O  O52  1  0.415239  0.207901  0.297661  1
  O  O53  1  0.584761  0.792662  0.702339  1
  O  O54  1  0.958426  0.875647  0.278751  1
  O  O55  1  0.207901  0.415239  0.702339  1
  O  O56  1  0.582616  0.085961  0.704473  1
  O  O57  1  0.247998  0.086818  0.704751  1
  O  O58  1  0.914039  0.496655  0.704473  1
  O  O59  1  0.206585  0.601931  0.719900  1
  O  O60  1  0.913182  0.161180  0.704751  1
  O  O61  1  0.082779  0.124353  0.721249  1
  O  O62  1  0.457674  0.707618  0.279733  1
  O  O63  1  0.292382  0.750056  0.279733  1
  O  O64  1  0.752002  0.838820  0.295249  1
  O  O65  1  0.838820  0.752002  0.704751  1
