# generated using pymatgen
data_NaCrF6
_symmetry_space_group_name_H-M   'P 1'
_cell_length_a   5.75077056
_cell_length_b   5.75077056
_cell_length_c   5.75077056
_cell_angle_alpha   55.83037915
_cell_angle_beta   55.83037915
_cell_angle_gamma   55.83037915
_symmetry_Int_Tables_number   1
_chemical_formula_structural   NaCrF6
_chemical_formula_sum   'Na1 Cr1 F6'
_cell_volume   121.48115884
_cell_formula_units_Z   1
loop_
 _symmetry_equiv_pos_site_id
 _symmetry_equiv_pos_as_xyz
  1  'x, y, z'
loop_
 _atom_site_type_symbol
 _atom_site_label
 _atom_site_symmetry_multiplicity
 _atom_site_fract_x
 _atom_site_fract_y
 _atom_site_fract_z
 _atom_site_occupancy
  Na  Na0  1  0.500000  0.500000  0.500000  1
  Cr  Cr1  1  0.000000  0.000000  0.000000  1
  F  F2  1  0.901516  0.668808  0.213457  1
  F  F3  1  0.668808  0.213457  0.901516  1
  F  F4  1  0.786543  0.098484  0.331192  1
  F  F5  1  0.331192  0.786543  0.098484  1
  F  F6  1  0.098484  0.331191  0.786543  1
  F  F7  1  0.213457  0.901516  0.668809  1
