# generated using pymatgen
data_Tm3(CuSn)4
_symmetry_space_group_name_H-M   'P 1'
_cell_length_a   8.17007298
_cell_length_b   8.17007298
_cell_length_c   8.42842004
_cell_angle_alpha   59.07861383
_cell_angle_beta   120.92138617
_cell_angle_gamma   150.57909320
_symmetry_Int_Tables_number   1
_chemical_formula_structural   Tm3(CuSn)4
_chemical_formula_sum   'Tm3 Cu4 Sn4'
_cell_volume   234.13204724
_cell_formula_units_Z   1
loop_
 _symmetry_equiv_pos_site_id
 _symmetry_equiv_pos_as_xyz
  1  'x, y, z'
loop_
 _atom_site_type_symbol
 _atom_site_label
 _atom_site_symmetry_multiplicity
 _atom_site_fract_x
 _atom_site_fract_y
 _atom_site_fract_z
 _atom_site_occupancy
  Tm  Tm0  1  0.146352  0.853648  0.151430  1
  Tm  Tm1  1  0.853648  0.146352  0.848570  1
  Tm  Tm2  1  0.500000  0.500000  0.500000  1
  Cu  Cu3  1  0.690945  0.309055  0.927425  1
  Cu  Cu4  1  0.309055  0.690945  0.072575  1
  Cu  Cu5  1  0.687975  0.312025  0.450084  1
  Cu  Cu6  1  0.312025  0.687975  0.549916  1
  Sn  Sn7  1  0.825216  0.174784  0.324836  1
  Sn  Sn8  1  0.174784  0.825216  0.675164  1
  Sn  Sn9  1  0.502288  0.497712  0.840574  1
  Sn  Sn10  1  0.497712  0.502288  0.159426  1
