# generated using pymatgen
data_Zn2P2O7
_symmetry_space_group_name_H-M   'P 1'
_cell_length_a   10.80499592
_cell_length_b   10.80499592
_cell_length_c   9.23807303
_cell_angle_alpha   81.24932115
_cell_angle_beta   98.75067885
_cell_angle_gamma   134.31441070
_symmetry_Int_Tables_number   1
_chemical_formula_structural   Zn2P2O7
_chemical_formula_sum   'Zn12 P12 O42'
_cell_volume   761.11583574
_cell_formula_units_Z   6
loop_
 _symmetry_equiv_pos_site_id
 _symmetry_equiv_pos_as_xyz
  1  'x, y, z'
loop_
 _atom_site_type_symbol
 _atom_site_label
 _atom_site_symmetry_multiplicity
 _atom_site_fract_x
 _atom_site_fract_y
 _atom_site_fract_z
 _atom_site_occupancy
  Zn  Zn0  1  0.298112  0.326545  0.959394  1
  Zn  Zn1  1  0.326545  0.298112  0.540606  1
  Zn  Zn2  1  0.701888  0.673455  0.040606  1
  Zn  Zn3  1  0.673455  0.701888  0.459394  1
  Zn  Zn4  1  0.018025  0.344306  0.838170  1
  Zn  Zn5  1  0.344306  0.018025  0.661830  1
  Zn  Zn6  1  0.981975  0.655694  0.161830  1
  Zn  Zn7  1  0.655694  0.981975  0.338170  1
  Zn  Zn8  1  0.627492  0.994665  0.789639  1
  Zn  Zn9  1  0.994665  0.627492  0.710361  1
  Zn  Zn10  1  0.372508  0.005335  0.210361  1
  Zn  Zn11  1  0.005335  0.372508  0.289639  1
  P  P12  1  0.954077  0.084957  0.138677  1
  P  P13  1  0.084957  0.954077  0.361323  1
  P  P14  1  0.045923  0.915043  0.861323  1
  P  P15  1  0.915043  0.045923  0.638677  1
  P  P16  1  0.404494  0.610197  0.180875  1
  P  P17  1  0.610197  0.404494  0.319125  1
  P  P18  1  0.595506  0.389803  0.819125  1
  P  P19  1  0.389803  0.595506  0.680875  1
  P  P20  1  0.279844  0.756452  0.963003  1
  P  P21  1  0.756452  0.279844  0.536997  1
  P  P22  1  0.720156  0.243548  0.036997  1
  P  P23  1  0.243548  0.720156  0.463003  1
  O  O24  1  0.086283  0.086283  0.250000  1
  O  O25  1  0.913717  0.913717  0.750000  1
  O  O26  1  0.130362  0.883910  0.268318  1
  O  O27  1  0.883910  0.130362  0.231682  1
  O  O28  1  0.869638  0.116090  0.731682  1
  O  O29  1  0.116090  0.869638  0.768318  1
  O  O30  1  0.237319  0.073549  0.474479  1
  O  O31  1  0.073549  0.237319  0.025521  1
  O  O32  1  0.762681  0.926451  0.525521  1
  O  O33  1  0.926451  0.762681  0.974479  1
  O  O34  1  0.811134  0.911599  0.072896  1
  O  O35  1  0.911599  0.811134  0.427104  1
  O  O36  1  0.188866  0.088401  0.927104  1
  O  O37  1  0.088401  0.188866  0.572896  1
  O  O38  1  0.392726  0.722077  0.052971  1
  O  O39  1  0.722077  0.392726  0.447029  1
  O  O40  1  0.607274  0.277923  0.947029  1
  O  O41  1  0.277923  0.607274  0.552971  1
  O  O42  1  0.454017  0.536000  0.099761  1
  O  O43  1  0.536000  0.454017  0.400239  1
  O  O44  1  0.545983  0.464000  0.900239  1
  O  O45  1  0.464000  0.545983  0.599761  1
  O  O46  1  0.220859  0.798852  0.071981  1
  O  O47  1  0.798852  0.220859  0.428019  1
  O  O48  1  0.779141  0.201148  0.928019  1
  O  O49  1  0.201148  0.779141  0.571981  1
  O  O50  1  0.556703  0.746413  0.286370  1
  O  O51  1  0.746413  0.556703  0.213630  1
  O  O52  1  0.443297  0.253587  0.713630  1
  O  O53  1  0.253587  0.443297  0.786370  1
  O  O54  1  0.405666  0.911962  0.856232  1
  O  O55  1  0.911962  0.405666  0.643768  1
  O  O56  1  0.594334  0.088038  0.143768  1
  O  O57  1  0.088038  0.594334  0.356232  1
  O  O58  1  0.237136  0.473444  0.255335  1
  O  O59  1  0.473444  0.237136  0.244665  1
  O  O60  1  0.762864  0.526556  0.744665  1
  O  O61  1  0.526556  0.762864  0.755335  1
  O  O62  1  0.122778  0.592290  0.883058  1
  O  O63  1  0.592290  0.122778  0.616942  1
  O  O64  1  0.877222  0.407710  0.116942  1
  O  O65  1  0.407710  0.877222  0.383058  1
