# generated using pymatgen
data_FeP2O7
_symmetry_space_group_name_H-M   'P 1'
_cell_length_a   5.14960802
_cell_length_b   6.79324933
_cell_length_c   8.38635621
_cell_angle_alpha   68.96720059
_cell_angle_beta   88.41363018
_cell_angle_gamma   88.20115597
_symmetry_Int_Tables_number   1
_chemical_formula_structural   FeP2O7
_chemical_formula_sum   'Fe2 P4 O14'
_cell_volume   273.65281370
_cell_formula_units_Z   2
loop_
 _symmetry_equiv_pos_site_id
 _symmetry_equiv_pos_as_xyz
  1  'x, y, z'
loop_
 _atom_site_type_symbol
 _atom_site_label
 _atom_site_symmetry_multiplicity
 _atom_site_fract_x
 _atom_site_fract_y
 _atom_site_fract_z
 _atom_site_occupancy
  Fe  Fe0  1  0.756736  0.787407  0.270489  1
  Fe  Fe1  1  0.243264  0.212593  0.729511  1
  P  P2  1  0.275070  0.454524  0.310171  1
  P  P3  1  0.724930  0.545476  0.689829  1
  P  P4  1  0.243088  0.110240  0.167873  1
  P  P5  1  0.756912  0.889760  0.832127  1
  O  O6  1  0.559923  0.040790  0.714023  1
  O  O7  1  0.915672  0.360078  0.760814  1
  O  O8  1  0.084328  0.639922  0.239186  1
  O  O9  1  0.037913  0.947282  0.775783  1
  O  O10  1  0.187369  0.291469  0.480241  1
  O  O11  1  0.283906  0.342163  0.170080  1
  O  O12  1  0.298132  0.130619  0.982805  1
  O  O13  1  0.440077  0.959210  0.285977  1
  O  O14  1  0.812631  0.708531  0.519759  1
  O  O15  1  0.551851  0.527325  0.314019  1
  O  O16  1  0.962087  0.052718  0.224217  1
  O  O17  1  0.701868  0.869381  0.017195  1
  O  O18  1  0.716094  0.657837  0.829920  1
  O  O19  1  0.448149  0.472675  0.685981  1
