# generated using pymatgen
data_Ba4Ag3Ge20
_symmetry_space_group_name_H-M   'P 1'
_cell_length_a   11.01999436
_cell_length_b   11.01999436
_cell_length_c   11.01999436
_cell_angle_alpha   90.00000000
_cell_angle_beta   90.00000000
_cell_angle_gamma   90.00000000
_symmetry_Int_Tables_number   1
_chemical_formula_structural   Ba4Ag3Ge20
_chemical_formula_sum   'Ba8 Ag6 Ge40'
_cell_volume   1338.27115323
_cell_formula_units_Z   2
loop_
 _symmetry_equiv_pos_site_id
 _symmetry_equiv_pos_as_xyz
  1  'x, y, z'
loop_
 _atom_site_type_symbol
 _atom_site_label
 _atom_site_symmetry_multiplicity
 _atom_site_fract_x
 _atom_site_fract_y
 _atom_site_fract_z
 _atom_site_occupancy
  Ba  Ba0  1  0.750000  0.500000  0.000000  1
  Ba  Ba1  1  0.500000  0.500000  0.500000  1
  Ba  Ba2  1  0.000000  0.000000  0.000000  1
  Ba  Ba3  1  0.250000  0.500000  0.000000  1
  Ba  Ba4  1  0.500000  0.000000  0.250000  1
  Ba  Ba5  1  0.000000  0.750000  0.500000  1
  Ba  Ba6  1  0.500000  0.000000  0.750000  1
  Ba  Ba7  1  0.000000  0.250000  0.500000  1
  Ag  Ag8  1  0.000000  0.500000  0.250000  1
  Ag  Ag9  1  0.250000  0.000000  0.500000  1
  Ag  Ag10  1  0.500000  0.750000  0.000000  1
  Ag  Ag11  1  0.500000  0.250000  0.000000  1
  Ag  Ag12  1  0.000000  0.500000  0.750000  1
  Ag  Ag13  1  0.750000  0.000000  0.500000  1
  Ge  Ge14  1  0.307263  0.115229  0.000000  1
  Ge  Ge15  1  0.384771  0.807263  0.500000  1
  Ge  Ge16  1  0.817095  0.182905  0.182905  1
  Ge  Ge17  1  0.182905  0.817095  0.182905  1
  Ge  Ge18  1  0.000000  0.692737  0.115229  1
  Ge  Ge19  1  0.615229  0.807263  0.500000  1
  Ge  Ge20  1  0.884771  0.000000  0.307263  1
  Ge  Ge21  1  0.817095  0.817095  0.182905  1
  Ge  Ge22  1  0.000000  0.307263  0.115229  1
  Ge  Ge23  1  0.817095  0.182905  0.817095  1
  Ge  Ge24  1  0.682905  0.317095  0.682905  1
  Ge  Ge25  1  0.192737  0.500000  0.615229  1
  Ge  Ge26  1  0.000000  0.307263  0.884771  1
  Ge  Ge27  1  0.115229  0.000000  0.307263  1
  Ge  Ge28  1  0.317095  0.682905  0.317095  1
  Ge  Ge29  1  0.884771  0.000000  0.692737  1
  Ge  Ge30  1  0.807263  0.500000  0.384771  1
  Ge  Ge31  1  0.682905  0.682905  0.317095  1
  Ge  Ge32  1  0.000000  0.692737  0.884771  1
  Ge  Ge33  1  0.615229  0.192737  0.500000  1
  Ge  Ge34  1  0.182905  0.182905  0.182905  1
  Ge  Ge35  1  0.817095  0.817095  0.817095  1
  Ge  Ge36  1  0.500000  0.384771  0.192737  1
  Ge  Ge37  1  0.692737  0.884771  0.000000  1
  Ge  Ge38  1  0.807263  0.500000  0.615229  1
  Ge  Ge39  1  0.115229  0.000000  0.692737  1
  Ge  Ge40  1  0.307263  0.884771  0.000000  1
  Ge  Ge41  1  0.500000  0.615229  0.807263  1
  Ge  Ge42  1  0.192737  0.500000  0.384771  1
  Ge  Ge43  1  0.682905  0.682905  0.682905  1
  Ge  Ge44  1  0.182905  0.182905  0.817095  1
  Ge  Ge45  1  0.182905  0.817095  0.817095  1
  Ge  Ge46  1  0.317095  0.317095  0.317095  1
  Ge  Ge47  1  0.317095  0.317095  0.682905  1
  Ge  Ge48  1  0.384771  0.192737  0.500000  1
  Ge  Ge49  1  0.682905  0.317095  0.317095  1
  Ge  Ge50  1  0.500000  0.384771  0.807263  1
  Ge  Ge51  1  0.500000  0.615229  0.192737  1
  Ge  Ge52  1  0.317095  0.682905  0.682905  1
  Ge  Ge53  1  0.692737  0.115229  0.000000  1
