# generated using pymatgen
data_LiGe2(PO4)3
_symmetry_space_group_name_H-M   'P 1'
_cell_length_a   8.43970312
_cell_length_b   8.43970312
_cell_length_c   8.43970312
_cell_angle_alpha   59.60514652
_cell_angle_beta   59.60514652
_cell_angle_gamma   59.60514652
_symmetry_Int_Tables_number   1
_chemical_formula_structural   LiGe2(PO4)3
_chemical_formula_sum   'Li2 Ge4 P6 O24'
_cell_volume   421.26117839
_cell_formula_units_Z   2
loop_
 _symmetry_equiv_pos_site_id
 _symmetry_equiv_pos_as_xyz
  1  'x, y, z'
loop_
 _atom_site_type_symbol
 _atom_site_label
 _atom_site_symmetry_multiplicity
 _atom_site_fract_x
 _atom_site_fract_y
 _atom_site_fract_z
 _atom_site_occupancy
  Li  Li0  1  0.000000  0.000000  0.000000  1
  Li  Li1  1  0.500000  0.500000  0.500000  1
  Ge  Ge2  1  0.858929  0.858929  0.858929  1
  Ge  Ge3  1  0.641071  0.641071  0.641071  1
  Ge  Ge4  1  0.141071  0.141071  0.141071  1
  Ge  Ge5  1  0.358929  0.358929  0.358929  1
  P  P6  1  0.038155  0.750000  0.461845  1
  P  P7  1  0.461845  0.038155  0.750000  1
  P  P8  1  0.750000  0.461845  0.038155  1
  P  P9  1  0.961845  0.250000  0.538155  1
  P  P10  1  0.538155  0.961845  0.250000  1
  P  P11  1  0.250000  0.538155  0.961845  1
  O  O12  1  0.008249  0.796810  0.630425  1
  O  O13  1  0.630425  0.008249  0.796810  1
  O  O14  1  0.796810  0.630425  0.008249  1
  O  O15  1  0.869575  0.703190  0.491751  1
  O  O16  1  0.491751  0.869575  0.703190  1
  O  O17  1  0.703190  0.491751  0.869575  1
  O  O18  1  0.991751  0.203190  0.369575  1
  O  O19  1  0.369575  0.991751  0.203190  1
  O  O20  1  0.203190  0.369575  0.991751  1
  O  O21  1  0.130425  0.296810  0.508249  1
  O  O22  1  0.508249  0.130425  0.296810  1
  O  O23  1  0.296810  0.508249  0.130425  1
  O  O24  1  0.943718  0.077516  0.733707  1
  O  O25  1  0.733707  0.943718  0.077516  1
  O  O26  1  0.077516  0.733707  0.943718  1
  O  O27  1  0.766293  0.422484  0.556282  1
  O  O28  1  0.556282  0.766293  0.422484  1
  O  O29  1  0.422484  0.556282  0.766293  1
  O  O30  1  0.056282  0.922484  0.266293  1
  O  O31  1  0.266293  0.056282  0.922484  1
  O  O32  1  0.922484  0.266293  0.056282  1
  O  O33  1  0.233707  0.577516  0.443718  1
  O  O34  1  0.443718  0.233707  0.577516  1
  O  O35  1  0.577516  0.443718  0.233707  1
