# generated using pymatgen
data_Ti7Cl16
_symmetry_space_group_name_H-M   'P 1'
_cell_length_a   6.86909926
_cell_length_b   10.06736476
_cell_length_c   14.55589598
_cell_angle_alpha   90.00000000
_cell_angle_beta   90.00000000
_cell_angle_gamma   90.00000000
_symmetry_Int_Tables_number   1
_chemical_formula_structural   Ti7Cl16
_chemical_formula_sum   'Ti14 Cl32'
_cell_volume   1006.59446882
_cell_formula_units_Z   2
loop_
 _symmetry_equiv_pos_site_id
 _symmetry_equiv_pos_as_xyz
  1  'x, y, z'
loop_
 _atom_site_type_symbol
 _atom_site_label
 _atom_site_symmetry_multiplicity
 _atom_site_fract_x
 _atom_site_fract_y
 _atom_site_fract_z
 _atom_site_occupancy
  Ti  Ti0  1  0.000000  0.000000  0.000000  1
  Ti  Ti1  1  0.500000  0.500000  0.500000  1
  Ti  Ti2  1  0.500000  0.538617  0.763061  1
  Ti  Ti3  1  0.500000  0.461383  0.236939  1
  Ti  Ti4  1  0.000000  0.038617  0.736939  1
  Ti  Ti5  1  0.000000  0.961383  0.263061  1
  Ti  Ti6  1  0.703334  0.745830  0.863484  1
  Ti  Ti7  1  0.703334  0.254170  0.136516  1
  Ti  Ti8  1  0.796666  0.245830  0.636516  1
  Ti  Ti9  1  0.796666  0.754170  0.363484  1
  Ti  Ti10  1  0.296666  0.254170  0.136516  1
  Ti  Ti11  1  0.296666  0.745830  0.863484  1
  Ti  Ti12  1  0.203334  0.754170  0.363484  1
  Ti  Ti13  1  0.203334  0.245830  0.636516  1
  Cl  Cl14  1  0.500000  0.756729  0.992984  1
  Cl  Cl15  1  0.500000  0.243271  0.007016  1
  Cl  Cl16  1  0.000000  0.256729  0.507016  1
  Cl  Cl17  1  0.000000  0.743271  0.492984  1
  Cl  Cl18  1  0.000000  0.758172  0.981447  1
  Cl  Cl19  1  0.000000  0.241828  0.018553  1
  Cl  Cl20  1  0.500000  0.258172  0.518553  1
  Cl  Cl21  1  0.500000  0.741828  0.481447  1
  Cl  Cl22  1  0.000000  0.775576  0.753805  1
  Cl  Cl23  1  0.000000  0.224424  0.246195  1
  Cl  Cl24  1  0.500000  0.275576  0.746195  1
  Cl  Cl25  1  0.500000  0.724424  0.253805  1
  Cl  Cl26  1  0.500000  0.769565  0.730424  1
  Cl  Cl27  1  0.500000  0.230435  0.269576  1
  Cl  Cl28  1  0.000000  0.269565  0.769576  1
  Cl  Cl29  1  0.000000  0.730435  0.230424  1
  Cl  Cl30  1  0.754612  0.004444  0.871666  1
  Cl  Cl31  1  0.754612  0.995556  0.128334  1
  Cl  Cl32  1  0.745388  0.504444  0.628334  1
  Cl  Cl33  1  0.745388  0.495556  0.371666  1
  Cl  Cl34  1  0.245388  0.995556  0.128334  1
  Cl  Cl35  1  0.245388  0.004444  0.871666  1
  Cl  Cl36  1  0.254612  0.495556  0.371666  1
  Cl  Cl37  1  0.254612  0.504444  0.628334  1
  Cl  Cl38  1  0.749769  0.514359  0.872425  1
  Cl  Cl39  1  0.749769  0.485641  0.127575  1
  Cl  Cl40  1  0.750231  0.014359  0.627575  1
  Cl  Cl41  1  0.750231  0.985641  0.372425  1
  Cl  Cl42  1  0.250231  0.485641  0.127575  1
  Cl  Cl43  1  0.250231  0.514359  0.872425  1
  Cl  Cl44  1  0.249769  0.985641  0.372425  1
  Cl  Cl45  1  0.249769  0.014359  0.627575  1
