# generated using pymatgen
data_BiXeF9
_symmetry_space_group_name_H-M   'P 1'
_cell_length_a   5.89189227
_cell_length_b   8.06827767
_cell_length_c   8.95751963
_cell_angle_alpha   101.51962198
_cell_angle_beta   107.47225639
_cell_angle_gamma   87.07801900
_symmetry_Int_Tables_number   1
_chemical_formula_structural   BiXeF9
_chemical_formula_sum   'Bi2 Xe2 F18'
_cell_volume   397.97107663
_cell_formula_units_Z   2
loop_
 _symmetry_equiv_pos_site_id
 _symmetry_equiv_pos_as_xyz
  1  'x, y, z'
loop_
 _atom_site_type_symbol
 _atom_site_label
 _atom_site_symmetry_multiplicity
 _atom_site_fract_x
 _atom_site_fract_y
 _atom_site_fract_z
 _atom_site_occupancy
  Bi  Bi0  1  0.786855  0.658716  0.751939  1
  Bi  Bi1  1  0.213145  0.341284  0.248061  1
  Xe  Xe2  1  0.701583  0.828818  0.215938  1
  Xe  Xe3  1  0.298417  0.171182  0.784062  1
  F  F4  1  0.107824  0.549643  0.831634  1
  F  F5  1  0.378641  0.863127  0.065683  1
  F  F6  1  0.441708  0.117517  0.606379  1
  F  F7  1  0.255511  0.438878  0.480463  1
  F  F8  1  0.849621  0.774264  0.012463  1
  F  F9  1  0.983307  0.198357  0.622073  1
  F  F10  1  0.473855  0.784954  0.718517  1
  F  F11  1  0.952996  0.874215  0.753836  1
  F  F12  1  0.526145  0.215046  0.281483  1
  F  F13  1  0.558292  0.882483  0.393621  1
  F  F14  1  0.366959  0.533779  0.196304  1
  F  F15  1  0.744489  0.561122  0.519537  1
  F  F16  1  0.150379  0.225736  0.987537  1
  F  F17  1  0.892176  0.450357  0.168366  1
  F  F18  1  0.016693  0.801643  0.377927  1
  F  F19  1  0.047004  0.125785  0.246164  1
  F  F20  1  0.633041  0.466221  0.803696  1
  F  F21  1  0.621359  0.136873  0.934317  1
