# generated using pymatgen
data_NaSrCrF6
_symmetry_space_group_name_H-M   'P 1'
_cell_length_a   5.68165112
_cell_length_b   9.36479882
_cell_length_c   9.84490999
_cell_angle_alpha   90.00000000
_cell_angle_beta   93.70223507
_cell_angle_gamma   90.00000000
_symmetry_Int_Tables_number   1
_chemical_formula_structural   NaSrCrF6
_chemical_formula_sum   'Na4 Sr4 Cr4 F24'
_cell_volume   522.73007609
_cell_formula_units_Z   4
loop_
 _symmetry_equiv_pos_site_id
 _symmetry_equiv_pos_as_xyz
  1  'x, y, z'
loop_
 _atom_site_type_symbol
 _atom_site_label
 _atom_site_symmetry_multiplicity
 _atom_site_fract_x
 _atom_site_fract_y
 _atom_site_fract_z
 _atom_site_occupancy
  Na  Na0  1  0.277390  0.047047  0.602381  1
  Na  Na1  1  0.722610  0.547047  0.897619  1
  Na  Na2  1  0.722610  0.952953  0.397619  1
  Na  Na3  1  0.277390  0.452953  0.102381  1
  Sr  Sr4  1  0.765119  0.326959  0.509358  1
  Sr  Sr5  1  0.234881  0.826959  0.990642  1
  Sr  Sr6  1  0.234881  0.673041  0.490642  1
  Sr  Sr7  1  0.765119  0.173041  0.009358  1
  Cr  Cr8  1  0.768568  0.918140  0.735758  1
  Cr  Cr9  1  0.231432  0.418140  0.764242  1
  Cr  Cr10  1  0.231432  0.081860  0.264242  1
  Cr  Cr11  1  0.768568  0.581860  0.235758  1
  F  F12  1  0.001103  0.024994  0.851425  1
  F  F13  1  0.998897  0.524994  0.648575  1
  F  F14  1  0.998897  0.975006  0.148575  1
  F  F15  1  0.001103  0.475006  0.351425  1
  F  F16  1  0.526718  0.682987  0.126316  1
  F  F17  1  0.473282  0.182987  0.373684  1
  F  F18  1  0.473282  0.317013  0.873684  1
  F  F19  1  0.526718  0.817013  0.626316  1
  F  F20  1  0.319985  0.912314  0.374252  1
  F  F21  1  0.680015  0.412314  0.125748  1
  F  F22  1  0.680015  0.087686  0.625748  1
  F  F23  1  0.319985  0.587686  0.874252  1
  F  F24  1  0.533365  0.528610  0.363089  1
  F  F25  1  0.466635  0.028610  0.136911  1
  F  F26  1  0.466635  0.471390  0.636911  1
  F  F27  1  0.533365  0.971390  0.863089  1
  F  F28  1  0.135888  0.241030  0.149868  1
  F  F29  1  0.864112  0.741030  0.350132  1
  F  F30  1  0.864112  0.758970  0.850132  1
  F  F31  1  0.135888  0.258970  0.649868  1
  F  F32  1  0.004625  0.628331  0.107699  1
  F  F33  1  0.995375  0.128331  0.392301  1
  F  F34  1  0.995375  0.371669  0.892301  1
  F  F35  1  0.004625  0.871669  0.607699  1
