# generated using pymatgen
data_Ce2Ti2SiO9
_symmetry_space_group_name_H-M   'P 1'
_cell_length_a   8.94220405
_cell_length_b   8.94220405
_cell_length_c   7.66798940
_cell_angle_alpha   69.68741272
_cell_angle_beta   110.31258728
_cell_angle_gamma   142.41908006
_symmetry_Int_Tables_number   1
_chemical_formula_structural   Ce2Ti2SiO9
_chemical_formula_sum   'Ce4 Ti4 Si2 O18'
_cell_volume   347.90452683
_cell_formula_units_Z   2
loop_
 _symmetry_equiv_pos_site_id
 _symmetry_equiv_pos_as_xyz
  1  'x, y, z'
loop_
 _atom_site_type_symbol
 _atom_site_label
 _atom_site_symmetry_multiplicity
 _atom_site_fract_x
 _atom_site_fract_y
 _atom_site_fract_z
 _atom_site_occupancy
  Ce  Ce0  1  0.103033  0.896967  0.696508  1
  Ce  Ce1  1  0.896967  0.103033  0.303492  1
  Ce  Ce2  1  0.212593  0.787407  0.316701  1
  Ce  Ce3  1  0.787407  0.212593  0.683299  1
  Ti  Ti4  1  0.417891  0.582109  0.549208  1
  Ti  Ti5  1  0.759369  0.759369  0.000000  1
  Ti  Ti6  1  0.240631  0.240631  0.000000  1
  Ti  Ti7  1  0.582109  0.417891  0.450792  1
  Si  Si8  1  0.334764  0.665236  0.015065  1
  Si  Si9  1  0.665236  0.334764  0.984935  1
  O  O10  1  0.527763  0.472237  0.190130  1
  O  O11  1  0.579403  0.906951  0.515258  1
  O  O12  1  0.656909  0.343091  0.766375  1
  O  O13  1  0.979299  0.020701  0.815630  1
  O  O14  1  0.906951  0.579403  0.484742  1
  O  O15  1  0.134505  0.376275  0.979282  1
  O  O16  1  0.728390  0.728390  0.500000  1
  O  O17  1  0.020701  0.979299  0.184370  1
  O  O18  1  0.093049  0.420597  0.515258  1
  O  O19  1  0.271610  0.271610  0.500000  1
  O  O20  1  0.343091  0.656909  0.233625  1
  O  O21  1  0.865495  0.623725  0.020718  1
  O  O22  1  0.239187  0.760813  0.862683  1
  O  O23  1  0.420597  0.093049  0.484742  1
  O  O24  1  0.623725  0.865495  0.979282  1
  O  O25  1  0.760813  0.239187  0.137317  1
  O  O26  1  0.472237  0.527763  0.809870  1
  O  O27  1  0.376275  0.134505  0.020718  1
