# generated using pymatgen
data_NiPbF6
_symmetry_space_group_name_H-M   'P 1'
_cell_length_a   5.65911558
_cell_length_b   5.65911558
_cell_length_c   5.65911558
_cell_angle_alpha   55.30386854
_cell_angle_beta   55.30386854
_cell_angle_gamma   55.30386854
_symmetry_Int_Tables_number   1
_chemical_formula_structural   NiPbF6
_chemical_formula_sum   'Ni1 Pb1 F6'
_cell_volume   114.16856118
_cell_formula_units_Z   1
loop_
 _symmetry_equiv_pos_site_id
 _symmetry_equiv_pos_as_xyz
  1  'x, y, z'
loop_
 _atom_site_type_symbol
 _atom_site_label
 _atom_site_symmetry_multiplicity
 _atom_site_fract_x
 _atom_site_fract_y
 _atom_site_fract_z
 _atom_site_occupancy
  Ni  Ni0  1  0.000000  0.000000  0.000000  1
  Pb  Pb1  1  0.500000  0.500000  0.500000  1
  F  F2  1  0.896856  0.241809  0.615908  1
  F  F3  1  0.241809  0.615908  0.896856  1
  F  F4  1  0.384092  0.103144  0.758191  1
  F  F5  1  0.758191  0.384092  0.103144  1
  F  F6  1  0.103144  0.758191  0.384092  1
  F  F7  1  0.615908  0.896856  0.241809  1
