# generated using pymatgen
data_KMnP3HO10
_symmetry_space_group_name_H-M   'P 1'
_cell_length_a   7.45295954
_cell_length_b   7.45295954
_cell_length_c   9.39454774
_cell_angle_alpha   73.28671864
_cell_angle_beta   106.71328136
_cell_angle_gamma   111.87572246
_symmetry_Int_Tables_number   1
_chemical_formula_structural   KMnP3HO10
_chemical_formula_sum   'K2 Mn2 P6 H2 O20'
_cell_volume   454.14531181
_cell_formula_units_Z   2
loop_
 _symmetry_equiv_pos_site_id
 _symmetry_equiv_pos_as_xyz
  1  'x, y, z'
loop_
 _atom_site_type_symbol
 _atom_site_label
 _atom_site_symmetry_multiplicity
 _atom_site_fract_x
 _atom_site_fract_y
 _atom_site_fract_z
 _atom_site_occupancy
  K  K0  1  0.442690  0.442690  0.250000  1
  K  K1  1  0.557310  0.557310  0.750000  1
  Mn  Mn2  1  0.000000  0.500000  0.500000  1
  Mn  Mn3  1  0.500000  0.000000  0.000000  1
  P  P4  1  0.273469  0.858751  0.294875  1
  P  P5  1  0.858751  0.273469  0.205125  1
  P  P6  1  0.726531  0.141249  0.705125  1
  P  P7  1  0.141249  0.726531  0.794875  1
  P  P8  1  0.870922  0.870922  0.250000  1
  P  P9  1  0.129078  0.129078  0.750000  1
  H  H10  1  0.500000  0.000000  0.500000  1
  H  H11  1  0.000000  0.500000  0.000000  1
  O  O12  1  0.152196  0.627713  0.678575  1
  O  O13  1  0.627713  0.152196  0.821425  1
  O  O14  1  0.847804  0.372287  0.321425  1
  O  O15  1  0.372287  0.847804  0.178575  1
  O  O16  1  0.221716  0.653333  0.400314  1
  O  O17  1  0.653333  0.221716  0.099686  1
  O  O18  1  0.778284  0.346667  0.599686  1
  O  O19  1  0.346667  0.778284  0.900314  1
  O  O20  1  0.845549  0.710900  0.390082  1
  O  O21  1  0.710900  0.845549  0.109918  1
  O  O22  1  0.154451  0.289100  0.609918  1
  O  O23  1  0.289100  0.154451  0.890082  1
  O  O24  1  0.905893  0.072007  0.300720  1
  O  O25  1  0.072007  0.905893  0.199280  1
  O  O26  1  0.094107  0.927993  0.699280  1
  O  O27  1  0.927993  0.094107  0.800720  1
  O  O28  1  0.387429  0.028024  0.380778  1
  O  O29  1  0.028024  0.387429  0.119222  1
  O  O30  1  0.612571  0.971976  0.619222  1
  O  O31  1  0.971976  0.612571  0.880778  1
