# generated using pymatgen
data_BaBi12Mo4WO34
_symmetry_space_group_name_H-M   'P 1'
_cell_length_a   11.96990825
_cell_length_b   5.92530703
_cell_length_c   25.57168749
_cell_angle_alpha   90.00000000
_cell_angle_beta   102.85562383
_cell_angle_gamma   90.00000000
_symmetry_Int_Tables_number   1
_chemical_formula_structural   BaBi12Mo4WO34
_chemical_formula_sum   'Ba2 Bi24 Mo8 W2 O68'
_cell_volume   1768.21960407
_cell_formula_units_Z   2
loop_
 _symmetry_equiv_pos_site_id
 _symmetry_equiv_pos_as_xyz
  1  'x, y, z'
loop_
 _atom_site_type_symbol
 _atom_site_label
 _atom_site_symmetry_multiplicity
 _atom_site_fract_x
 _atom_site_fract_y
 _atom_site_fract_z
 _atom_site_occupancy
  Ba  Ba0  1  0.500000  0.500000  0.500000  1
  Ba  Ba1  1  0.500000  0.500000  0.000000  1
  Bi  Bi2  1  0.638539  0.473638  0.678504  1
  Bi  Bi3  1  0.263457  0.525597  0.158665  1
  Bi  Bi4  1  0.078683  0.027956  0.093123  1
  Bi  Bi5  1  0.245015  0.965915  0.897558  1
  Bi  Bi6  1  0.736543  0.525597  0.341335  1
  Bi  Bi7  1  0.844047  0.071381  0.754910  1
  Bi  Bi8  1  0.921317  0.027956  0.406877  1
  Bi  Bi9  1  0.754985  0.034085  0.102442  1
  Bi  Bi10  1  0.042332  0.570160  0.825039  1
  Bi  Bi11  1  0.042332  0.429840  0.325039  1
  Bi  Bi12  1  0.754985  0.965915  0.602442  1
  Bi  Bi13  1  0.361461  0.526362  0.321496  1
  Bi  Bi14  1  0.361461  0.473638  0.821496  1
  Bi  Bi15  1  0.736543  0.474403  0.841335  1
  Bi  Bi16  1  0.078683  0.972044  0.593123  1
  Bi  Bi17  1  0.957668  0.429840  0.174961  1
  Bi  Bi18  1  0.921317  0.972044  0.906877  1
  Bi  Bi19  1  0.263457  0.474403  0.658665  1
  Bi  Bi20  1  0.155953  0.928619  0.245090  1
  Bi  Bi21  1  0.155953  0.071381  0.745090  1
  Bi  Bi22  1  0.245015  0.034085  0.397558  1
  Bi  Bi23  1  0.844047  0.928619  0.254910  1
  Bi  Bi24  1  0.957668  0.570160  0.674961  1
  Bi  Bi25  1  0.638539  0.526362  0.178504  1
  Mo  Mo26  1  0.845264  0.523546  0.013660  1
  Mo  Mo27  1  0.423271  0.991680  0.579927  1
  Mo  Mo28  1  0.576729  0.991680  0.920073  1
  Mo  Mo29  1  0.423271  0.008320  0.079927  1
  Mo  Mo30  1  0.154736  0.476454  0.986340  1
  Mo  Mo31  1  0.845264  0.476454  0.513660  1
  Mo  Mo32  1  0.576729  0.008320  0.420073  1
  Mo  Mo33  1  0.154736  0.523546  0.486340  1
  W  W34  1  0.500000  0.021892  0.250000  1
  W  W35  1  0.500000  0.978108  0.750000  1
  O  O36  1  0.498001  0.745886  0.414736  1
  O  O37  1  0.501999  0.745886  0.085264  1
  O  O38  1  0.269967  0.413417  0.458355  1
  O  O39  1  0.764294  0.216174  0.666248  1
  O  O40  1  0.000000  0.756112  0.750000  1
  O  O41  1  0.265216  0.623436  0.241695  1
  O  O42  1  0.133740  0.724274  0.659100  1
  O  O43  1  0.113528  0.790178  0.452810  1
  O  O44  1  0.123240  0.764748  0.155079  1
  O  O45  1  0.935347  0.910647  0.632525  1
  O  O46  1  0.265216  0.376564  0.741695  1
  O  O47  1  0.123240  0.235252  0.655079  1
  O  O48  1  0.204891  0.545215  0.558056  1
  O  O49  1  0.506895  0.158313  0.807841  1
  O  O50  1  0.958887  0.322411  0.030517  1
  O  O51  1  0.493105  0.841687  0.192159  1
  O  O52  1  0.734784  0.376564  0.758305  1
  O  O53  1  0.498001  0.254114  0.914736  1
  O  O54  1  0.493105  0.158313  0.692159  1
  O  O55  1  0.064653  0.910647  0.867475  1
  O  O56  1  0.501999  0.254114  0.585264  1
  O  O57  1  0.730033  0.413417  0.041645  1
  O  O58  1  0.958887  0.677589  0.530517  1
  O  O59  1  0.378705  0.076591  0.010462  1
  O  O60  1  0.506895  0.841687  0.307841  1
  O  O61  1  0.876760  0.764748  0.344921  1
  O  O62  1  0.269967  0.586583  0.958355  1
  O  O63  1  0.476904  0.233165  0.394190  1
  O  O64  1  0.795109  0.545215  0.941944  1
  O  O65  1  0.378705  0.923409  0.510462  1
  O  O66  1  0.228390  0.285939  0.332056  1
  O  O67  1  0.064653  0.089353  0.367475  1
  O  O68  1  0.886472  0.790178  0.047190  1
  O  O69  1  0.621295  0.076591  0.489538  1
  O  O70  1  0.000000  0.268241  0.750000  1
  O  O71  1  0.702627  0.010400  0.892259  1
  O  O72  1  0.523096  0.233165  0.105810  1
  O  O73  1  0.373648  0.203234  0.241039  1
  O  O74  1  0.621295  0.923409  0.989538  1
  O  O75  1  0.041113  0.677589  0.969483  1
  O  O76  1  0.771610  0.714061  0.667944  1
  O  O77  1  0.523096  0.766835  0.605810  1
  O  O78  1  0.000000  0.243888  0.250000  1
  O  O79  1  0.935347  0.089353  0.132525  1
  O  O80  1  0.113528  0.209822  0.952810  1
  O  O81  1  0.000000  0.731759  0.250000  1
  O  O82  1  0.764294  0.783826  0.166248  1
  O  O83  1  0.866260  0.724274  0.840900  1
  O  O84  1  0.297373  0.010400  0.607741  1
  O  O85  1  0.866260  0.275726  0.340900  1
  O  O86  1  0.204891  0.454785  0.058056  1
  O  O87  1  0.133740  0.275726  0.159100  1
  O  O88  1  0.771610  0.285939  0.167944  1
  O  O89  1  0.235706  0.216174  0.833752  1
  O  O90  1  0.730033  0.586583  0.541645  1
  O  O91  1  0.626352  0.796766  0.758961  1
  O  O92  1  0.795109  0.454785  0.441944  1
  O  O93  1  0.041113  0.322411  0.469483  1
  O  O94  1  0.702627  0.989600  0.392259  1
  O  O95  1  0.235706  0.783826  0.333752  1
  O  O96  1  0.734784  0.623436  0.258305  1
  O  O97  1  0.886472  0.209822  0.547190  1
  O  O98  1  0.626352  0.203234  0.258961  1
  O  O99  1  0.876760  0.235252  0.844921  1
  O  O100  1  0.373648  0.796766  0.741039  1
  O  O101  1  0.297373  0.989600  0.107741  1
  O  O102  1  0.476904  0.766835  0.894190  1
  O  O103  1  0.228390  0.714061  0.832056  1
