# generated using pymatgen
data_Na2TiFe5(Si3O10)2
_symmetry_space_group_name_H-M   'P 1'
_cell_length_a   9.06161119
_cell_length_b   9.84138518
_cell_length_c   10.55470144
_cell_angle_alpha   115.11618774
_cell_angle_beta   83.24148531
_cell_angle_gamma   114.19553081
_symmetry_Int_Tables_number   1
_chemical_formula_structural   Na2TiFe5(Si3O10)2
_chemical_formula_sum   'Na4 Ti2 Fe10 Si12 O40'
_cell_volume   775.58283032
_cell_formula_units_Z   2
loop_
 _symmetry_equiv_pos_site_id
 _symmetry_equiv_pos_as_xyz
  1  'x, y, z'
loop_
 _atom_site_type_symbol
 _atom_site_label
 _atom_site_symmetry_multiplicity
 _atom_site_fract_x
 _atom_site_fract_y
 _atom_site_fract_z
 _atom_site_occupancy
  Na  Na0  1  0.629216  0.385819  0.049549  1
  Na  Na1  1  0.370784  0.614181  0.950451  1
  Na  Na2  1  0.386327  0.631380  0.422161  1
  Na  Na3  1  0.613673  0.368620  0.577839  1
  Ti  Ti4  1  0.257710  0.743452  0.746374  1
  Ti  Ti5  1  0.742290  0.256548  0.253626  1
  Fe  Fe6  1  0.820993  0.147416  0.468764  1
  Fe  Fe7  1  0.847600  0.180514  0.946505  1
  Fe  Fe8  1  0.948776  0.061024  0.157507  1
  Fe  Fe9  1  0.179007  0.852584  0.531236  1
  Fe  Fe10  1  0.066374  0.942641  0.347126  1
  Fe  Fe11  1  0.500000  0.000000  0.000000  1
  Fe  Fe12  1  0.152400  0.819486  0.053495  1
  Fe  Fe13  1  0.933626  0.057359  0.652874  1
  Fe  Fe14  1  0.051224  0.938976  0.842493  1
  Fe  Fe15  1  0.000000  0.500000  0.500000  1
  Si  Si16  1  0.224166  0.336231  0.058277  1
  Si  Si17  1  0.050599  0.558891  0.206882  1
  Si  Si18  1  0.554316  0.055336  0.704473  1
  Si  Si19  1  0.949401  0.441109  0.793118  1
  Si  Si20  1  0.654497  0.764310  0.750357  1
  Si  Si21  1  0.758829  0.658966  0.449557  1
  Si  Si22  1  0.670709  0.767311  0.244771  1
  Si  Si23  1  0.445684  0.944664  0.295527  1
  Si  Si24  1  0.241171  0.341034  0.550443  1
  Si  Si25  1  0.775834  0.663769  0.941723  1
  Si  Si26  1  0.345503  0.235690  0.249643  1
  Si  Si27  1  0.329291  0.232689  0.755229  1
  O  O28  1  0.874967  0.397489  0.149114  1
  O  O29  1  0.630713  0.675024  0.576969  1
  O  O30  1  0.179550  0.068243  0.207020  1
  O  O31  1  0.701754  0.045792  0.601280  1
  O  O32  1  0.736806  0.078163  0.091487  1
  O  O33  1  0.820450  0.931757  0.792980  1
  O  O34  1  0.263194  0.921837  0.908513  1
  O  O35  1  0.508084  0.804688  0.296206  1
  O  O36  1  0.395492  0.876880  0.640287  1
  O  O37  1  0.117140  0.608017  0.364961  1
  O  O38  1  0.079322  0.738107  0.669798  1
  O  O39  1  0.936553  0.833090  0.990773  1
  O  O40  1  0.063447  0.166910  0.009227  1
  O  O41  1  0.350231  0.337873  0.929457  1
  O  O42  1  0.679266  0.636573  0.804425  1
  O  O43  1  0.186580  0.498548  0.098852  1
  O  O44  1  0.835905  0.931525  0.290170  1
  O  O45  1  0.074450  0.173321  0.507737  1
  O  O46  1  0.125033  0.602511  0.850886  1
  O  O47  1  0.608787  0.120360  0.870195  1
  O  O48  1  0.369287  0.324976  0.423031  1
  O  O49  1  0.604508  0.123120  0.359713  1
  O  O50  1  0.298246  0.954208  0.398720  1
  O  O51  1  0.813420  0.501452  0.901148  1
  O  O52  1  0.515406  0.225676  0.185231  1
  O  O53  1  0.649769  0.662127  0.070543  1
  O  O54  1  0.920678  0.261893  0.330202  1
  O  O55  1  0.225763  0.512309  0.583115  1
  O  O56  1  0.774237  0.487691  0.416885  1
  O  O57  1  0.164095  0.068475  0.709830  1
  O  O58  1  0.925550  0.826679  0.492263  1
  O  O59  1  0.491916  0.195312  0.703794  1
  O  O60  1  0.663355  0.640416  0.312494  1
  O  O61  1  0.882860  0.391983  0.635039  1
  O  O62  1  0.391213  0.879640  0.129805  1
  O  O63  1  0.958213  0.287750  0.811339  1
  O  O64  1  0.041787  0.712250  0.188661  1
  O  O65  1  0.320734  0.363427  0.195575  1
  O  O66  1  0.484594  0.774324  0.814769  1
  O  O67  1  0.336645  0.359584  0.687506  1
