# generated using pymatgen
data_Li22Si5
_symmetry_space_group_name_H-M   'P 1'
_cell_length_a   13.13891743
_cell_length_b   13.13891743
_cell_length_c   13.13891743
_cell_angle_alpha   60.00000000
_cell_angle_beta   60.00000000
_cell_angle_gamma   60.00000000
_symmetry_Int_Tables_number   1
_chemical_formula_structural   Li22Si5
_chemical_formula_sum   'Li88 Si20'
_cell_volume   1603.85001283
_cell_formula_units_Z   4
loop_
 _symmetry_equiv_pos_site_id
 _symmetry_equiv_pos_as_xyz
  1  'x, y, z'
loop_
 _atom_site_type_symbol
 _atom_site_label
 _atom_site_symmetry_multiplicity
 _atom_site_fract_x
 _atom_site_fract_y
 _atom_site_fract_z
 _atom_site_occupancy
  Li  Li0  1  0.000000  0.000000  0.000000  1
  Li  Li1  1  0.173200  0.480401  0.173200  1
  Li  Li2  1  0.173200  0.173200  0.480401  1
  Li  Li3  1  0.480401  0.173200  0.173200  1
  Li  Li4  1  0.173200  0.173200  0.173200  1
  Li  Li5  1  0.827663  0.172337  0.172337  1
  Li  Li6  1  0.172337  0.172337  0.827663  1
  Li  Li7  1  0.827663  0.172337  0.827663  1
  Li  Li8  1  0.172337  0.827663  0.172337  1
  Li  Li9  1  0.827663  0.827663  0.172337  1
  Li  Li10  1  0.172337  0.827663  0.827663  1
  Li  Li11  1  0.416931  0.083069  0.083069  1
  Li  Li12  1  0.083069  0.083069  0.416931  1
  Li  Li13  1  0.416931  0.083069  0.416931  1
  Li  Li14  1  0.083069  0.416931  0.083069  1
  Li  Li15  1  0.416931  0.416931  0.083069  1
  Li  Li16  1  0.083069  0.416931  0.416931  1
  Li  Li17  1  0.331197  0.994124  0.680555  1
  Li  Li18  1  0.680555  0.994124  0.994124  1
  Li  Li19  1  0.994124  0.994124  0.331197  1
  Li  Li20  1  0.680555  0.331197  0.994124  1
  Li  Li21  1  0.994124  0.680555  0.331197  1
  Li  Li22  1  0.331197  0.994124  0.994124  1
  Li  Li23  1  0.331197  0.680555  0.994124  1
  Li  Li24  1  0.994124  0.331197  0.680555  1
  Li  Li25  1  0.994124  0.994124  0.680555  1
  Li  Li26  1  0.994124  0.331197  0.994124  1
  Li  Li27  1  0.994124  0.680555  0.994124  1
  Li  Li28  1  0.680555  0.994124  0.331197  1
  Li  Li29  1  0.493588  0.829190  0.493588  1
  Li  Li30  1  0.493588  0.829190  0.183634  1
  Li  Li31  1  0.183634  0.829190  0.493588  1
  Li  Li32  1  0.493588  0.493588  0.829190  1
  Li  Li33  1  0.829190  0.493588  0.493588  1
  Li  Li34  1  0.493588  0.183634  0.829190  1
  Li  Li35  1  0.493588  0.493588  0.183634  1
  Li  Li36  1  0.183634  0.493588  0.493588  1
  Li  Li37  1  0.829190  0.183634  0.493588  1
  Li  Li38  1  0.829190  0.493588  0.183634  1
  Li  Li39  1  0.183634  0.493588  0.829190  1
  Li  Li40  1  0.493588  0.183634  0.493588  1
  Li  Li41  1  0.741497  0.439636  0.077371  1
  Li  Li42  1  0.077371  0.439636  0.741497  1
  Li  Li43  1  0.741497  0.439636  0.741497  1
  Li  Li44  1  0.077371  0.741497  0.439636  1
  Li  Li45  1  0.439636  0.077371  0.741497  1
  Li  Li46  1  0.741497  0.741497  0.439636  1
  Li  Li47  1  0.741497  0.077371  0.741497  1
  Li  Li48  1  0.741497  0.741497  0.077371  1
  Li  Li49  1  0.439636  0.741497  0.077371  1
  Li  Li50  1  0.439636  0.741497  0.741497  1
  Li  Li51  1  0.741497  0.077371  0.439636  1
  Li  Li52  1  0.077371  0.741497  0.741497  1
  Li  Li53  1  0.250106  0.921221  0.578567  1
  Li  Li54  1  0.578567  0.921221  0.250106  1
  Li  Li55  1  0.250106  0.921221  0.250106  1
  Li  Li56  1  0.578567  0.250106  0.921221  1
  Li  Li57  1  0.921221  0.578567  0.250106  1
  Li  Li58  1  0.250106  0.250106  0.921221  1
  Li  Li59  1  0.250106  0.578567  0.250106  1
  Li  Li60  1  0.250106  0.250106  0.578567  1
  Li  Li61  1  0.921221  0.250106  0.578567  1
  Li  Li62  1  0.921221  0.250106  0.250106  1
  Li  Li63  1  0.250106  0.578567  0.921221  1
  Li  Li64  1  0.578567  0.250106  0.250106  1
  Li  Li65  1  0.500000  0.500000  0.500000  1
  Li  Li66  1  0.750000  0.750000  0.750000  1
  Li  Li67  1  0.250000  0.250000  0.250000  1
  Li  Li68  1  0.928515  0.214456  0.928515  1
  Li  Li69  1  0.928515  0.928515  0.214456  1
  Li  Li70  1  0.214456  0.928515  0.928515  1
  Li  Li71  1  0.928515  0.928515  0.928515  1
  Li  Li72  1  0.832070  0.503789  0.832070  1
  Li  Li73  1  0.832070  0.832070  0.503789  1
  Li  Li74  1  0.503789  0.832070  0.832070  1
  Li  Li75  1  0.832070  0.832070  0.832070  1
  Li  Li76  1  0.675059  0.974824  0.675058  1
  Li  Li77  1  0.675059  0.675059  0.974824  1
  Li  Li78  1  0.974824  0.675059  0.675059  1
  Li  Li79  1  0.675059  0.675059  0.675059  1
  Li  Li80  1  0.576736  0.269793  0.576736  1
  Li  Li81  1  0.576736  0.576736  0.269793  1
  Li  Li82  1  0.269793  0.576736  0.576736  1
  Li  Li83  1  0.576736  0.576736  0.576736  1
  Li  Li84  1  0.417180  0.748460  0.417180  1
  Li  Li85  1  0.417180  0.417180  0.748460  1
  Li  Li86  1  0.748460  0.417180  0.417180  1
  Li  Li87  1  0.417180  0.417180  0.417180  1
  Si  Si88  1  0.088455  0.734634  0.088455  1
  Si  Si89  1  0.088455  0.088455  0.734634  1
  Si  Si90  1  0.734634  0.088455  0.088455  1
  Si  Si91  1  0.088455  0.088455  0.088455  1
  Si  Si92  1  0.333331  0.000006  0.333331  1
  Si  Si93  1  0.333331  0.333331  0.000006  1
  Si  Si94  1  0.000006  0.333331  0.333331  1
  Si  Si95  1  0.333331  0.333331  0.333331  1
  Si  Si96  1  0.675823  0.324177  0.324177  1
  Si  Si97  1  0.324177  0.324177  0.675823  1
  Si  Si98  1  0.675823  0.324177  0.675823  1
  Si  Si99  1  0.324177  0.675823  0.324177  1
  Si  Si100  1  0.675823  0.675823  0.324177  1
  Si  Si101  1  0.324177  0.675823  0.675823  1
  Si  Si102  1  0.925908  0.574092  0.574092  1
  Si  Si103  1  0.574092  0.574092  0.925908  1
  Si  Si104  1  0.925908  0.574092  0.925908  1
  Si  Si105  1  0.574092  0.925908  0.574092  1
  Si  Si106  1  0.925908  0.925908  0.574092  1
  Si  Si107  1  0.574092  0.925908  0.925908  1
