# generated using pymatgen
data_Nd12Co6Sn
_symmetry_space_group_name_H-M   'P 1'
_cell_length_a   8.67936497
_cell_length_b   8.67936497
_cell_length_c   8.67936497
_cell_angle_alpha   109.47122063
_cell_angle_beta   109.47122063
_cell_angle_gamma   109.47122063
_symmetry_Int_Tables_number   1
_chemical_formula_structural   Nd12Co6Sn
_chemical_formula_sum   'Nd12 Co6 Sn1'
_cell_volume   503.31742063
_cell_formula_units_Z   1
loop_
 _symmetry_equiv_pos_site_id
 _symmetry_equiv_pos_as_xyz
  1  'x, y, z'
loop_
 _atom_site_type_symbol
 _atom_site_label
 _atom_site_symmetry_multiplicity
 _atom_site_fract_x
 _atom_site_fract_y
 _atom_site_fract_z
 _atom_site_occupancy
  Nd  Nd0  1  0.887148  0.694313  0.192834  1
  Nd  Nd1  1  0.694313  0.807166  0.501479  1
  Nd  Nd2  1  0.192834  0.498521  0.305687  1
  Nd  Nd3  1  0.305687  0.807166  0.112852  1
  Nd  Nd4  1  0.807166  0.501479  0.694313  1
  Nd  Nd5  1  0.305687  0.192834  0.498521  1
  Nd  Nd6  1  0.807166  0.112852  0.305687  1
  Nd  Nd7  1  0.192834  0.887148  0.694313  1
  Nd  Nd8  1  0.694313  0.192834  0.887148  1
  Nd  Nd9  1  0.501479  0.694313  0.807166  1
  Nd  Nd10  1  0.498521  0.305687  0.192834  1
  Nd  Nd11  1  0.112852  0.305687  0.807166  1
  Co  Co12  1  0.500000  0.610692  0.110692  1
  Co  Co13  1  0.389308  0.889308  0.500000  1
  Co  Co14  1  0.889308  0.500000  0.389308  1
  Co  Co15  1  0.610692  0.110692  0.500000  1
  Co  Co16  1  0.110692  0.500000  0.610692  1
  Co  Co17  1  0.500000  0.389308  0.889308  1
  Sn  Sn18  1  0.000000  0.000000  0.000000  1
