# generated using pymatgen
data_In2Cu3(PO4)4
_symmetry_space_group_name_H-M   'P 1'
_cell_length_a   7.99886151
_cell_length_b   8.91289883
_cell_length_c   9.08343781
_cell_angle_alpha   90.00000000
_cell_angle_beta   107.66538410
_cell_angle_gamma   90.00000000
_symmetry_Int_Tables_number   1
_chemical_formula_structural   In2Cu3(PO4)4
_chemical_formula_sum   'In4 Cu6 P8 O32'
_cell_volume   617.04900663
_cell_formula_units_Z   2
loop_
 _symmetry_equiv_pos_site_id
 _symmetry_equiv_pos_as_xyz
  1  'x, y, z'
loop_
 _atom_site_type_symbol
 _atom_site_label
 _atom_site_symmetry_multiplicity
 _atom_site_fract_x
 _atom_site_fract_y
 _atom_site_fract_z
 _atom_site_occupancy
  In  In0  1  0.753373  0.499242  0.755847  1
  In  In1  1  0.246627  0.500758  0.244153  1
  In  In2  1  0.746627  0.999242  0.244153  1
  In  In3  1  0.253373  0.000758  0.755847  1
  Cu  Cu4  1  0.613636  0.872525  0.595924  1
  Cu  Cu5  1  0.113636  0.627475  0.595924  1
  Cu  Cu6  1  0.000000  0.000000  0.000000  1
  Cu  Cu7  1  0.386364  0.127475  0.404076  1
  Cu  Cu8  1  0.500000  0.500000  0.000000  1
  Cu  Cu9  1  0.886364  0.372525  0.404076  1
  P  P10  1  0.144992  0.687044  0.913613  1
  P  P11  1  0.855008  0.312956  0.086387  1
  P  P12  1  0.355008  0.187044  0.086387  1
  P  P13  1  0.158646  0.838314  0.401894  1
  P  P14  1  0.841354  0.161686  0.598106  1
  P  P15  1  0.644992  0.812956  0.913613  1
  P  P16  1  0.658646  0.661686  0.401894  1
  P  P17  1  0.341354  0.338314  0.598106  1
  O  O18  1  0.668412  0.084493  0.594997  1
  O  O19  1  0.500670  0.609965  0.270817  1
  O  O20  1  0.894697  0.360685  0.939262  1
  O  O21  1  0.621083  0.647582  0.564021  1
  O  O22  1  0.121083  0.852418  0.564021  1
  O  O23  1  0.168412  0.415507  0.594997  1
  O  O24  1  0.310781  0.162926  0.595791  1
  O  O25  1  0.999330  0.109965  0.729183  1
  O  O26  1  0.499330  0.390035  0.729183  1
  O  O27  1  0.810781  0.337074  0.595791  1
  O  O28  1  0.878917  0.147582  0.435979  1
  O  O29  1  0.605303  0.860685  0.060738  1
  O  O30  1  0.189219  0.662926  0.404209  1
  O  O31  1  0.331588  0.915507  0.405003  1
  O  O32  1  0.494427  0.867479  0.764428  1
  O  O33  1  0.005573  0.367479  0.235572  1
  O  O34  1  0.842325  0.136474  0.087274  1
  O  O35  1  0.831588  0.584493  0.405003  1
  O  O36  1  0.313201  0.625450  0.888811  1
  O  O37  1  0.689219  0.837074  0.404209  1
  O  O38  1  0.342325  0.363526  0.087274  1
  O  O39  1  0.994427  0.632521  0.764428  1
  O  O40  1  0.000670  0.890035  0.270817  1
  O  O41  1  0.186799  0.125450  0.111189  1
  O  O42  1  0.657675  0.636474  0.912726  1
  O  O43  1  0.394697  0.139315  0.939262  1
  O  O44  1  0.813201  0.874550  0.888811  1
  O  O45  1  0.105303  0.639315  0.060738  1
  O  O46  1  0.157675  0.863526  0.912726  1
  O  O47  1  0.505573  0.132521  0.235572  1
  O  O48  1  0.686799  0.374550  0.111189  1
  O  O49  1  0.378917  0.352418  0.435979  1
