# generated using pymatgen
data_Er2Te5O13
_symmetry_space_group_name_H-M   'P 1'
_cell_length_a   6.98281387
_cell_length_b   8.74079088
_cell_length_c   10.71130366
_cell_angle_alpha   89.21418728
_cell_angle_beta   87.17215488
_cell_angle_gamma   74.78582100
_symmetry_Int_Tables_number   1
_chemical_formula_structural   Er2Te5O13
_chemical_formula_sum   'Er4 Te10 O26'
_cell_volume   630.08586876
_cell_formula_units_Z   2
loop_
 _symmetry_equiv_pos_site_id
 _symmetry_equiv_pos_as_xyz
  1  'x, y, z'
loop_
 _atom_site_type_symbol
 _atom_site_label
 _atom_site_symmetry_multiplicity
 _atom_site_fract_x
 _atom_site_fract_y
 _atom_site_fract_z
 _atom_site_occupancy
  Er  Er0  1  0.552472  0.528063  0.179358  1
  Er  Er1  1  0.998293  0.738621  0.239621  1
  Er  Er2  1  0.447528  0.471937  0.820642  1
  Er  Er3  1  0.001707  0.261379  0.760379  1
  Te  Te4  1  0.157014  0.803392  0.640339  1
  Te  Te5  1  0.273357  0.393732  0.486824  1
  Te  Te6  1  0.710427  0.123787  0.023550  1
  Te  Te7  1  0.563239  0.097848  0.698377  1
  Te  Te8  1  0.877431  0.649681  0.891423  1
  Te  Te9  1  0.726643  0.606268  0.513176  1
  Te  Te10  1  0.436761  0.902152  0.301623  1
  Te  Te11  1  0.289573  0.876213  0.976450  1
  Te  Te12  1  0.842986  0.196608  0.359661  1
  Te  Te13  1  0.122569  0.350319  0.108577  1
  O  O14  1  0.661396  0.487184  0.381483  1
  O  O15  1  0.044421  0.349288  0.566451  1
  O  O16  1  0.652946  0.015945  0.875208  1
  O  O17  1  0.056631  0.819168  0.039518  1
  O  O18  1  0.874280  0.510141  0.106591  1
  O  O19  1  0.313152  0.735035  0.285604  1
  O  O20  1  0.463729  0.193035  0.518467  1
  O  O21  1  0.066716  0.264826  0.278006  1
  O  O22  1  0.327919  0.225996  0.776713  1
  O  O23  1  0.338604  0.512816  0.618517  1
  O  O24  1  0.933284  0.735174  0.721994  1
  O  O25  1  0.125720  0.489859  0.893409  1
  O  O26  1  0.668574  0.259823  0.226530  1
  O  O27  1  0.672081  0.774004  0.223287  1
  O  O28  1  0.764816  0.503363  0.811913  1
  O  O29  1  0.466202  0.669501  0.999997  1
  O  O30  1  0.536271  0.806965  0.481533  1
  O  O31  1  0.943369  0.180832  0.960482  1
  O  O32  1  0.347054  0.984055  0.124792  1
  O  O33  1  0.235184  0.496637  0.188087  1
  O  O34  1  0.934727  0.982114  0.311443  1
  O  O35  1  0.065273  0.017886  0.688557  1
  O  O36  1  0.686848  0.264965  0.714396  1
  O  O37  1  0.533798  0.330499  0.000003  1
  O  O38  1  0.331426  0.740177  0.773470  1
  O  O39  1  0.955579  0.650712  0.433549  1
