# generated using pymatgen
data_BaUO4
_symmetry_space_group_name_H-M   'P 1'
_cell_length_a   5.88355466
_cell_length_b   8.21400290
_cell_length_c   8.29527653
_cell_angle_alpha   90.00000000
_cell_angle_beta   90.00000000
_cell_angle_gamma   90.00000000
_symmetry_Int_Tables_number   1
_chemical_formula_structural   BaUO4
_chemical_formula_sum   'Ba4 U4 O16'
_cell_volume   400.89026717
_cell_formula_units_Z   4
loop_
 _symmetry_equiv_pos_site_id
 _symmetry_equiv_pos_as_xyz
  1  'x, y, z'
loop_
 _atom_site_type_symbol
 _atom_site_label
 _atom_site_symmetry_multiplicity
 _atom_site_fract_x
 _atom_site_fract_y
 _atom_site_fract_z
 _atom_site_occupancy
  Ba  Ba0  1  0.482934  0.194449  0.250000  1
  Ba  Ba1  1  0.482934  0.305551  0.750000  1
  Ba  Ba2  1  0.517066  0.694449  0.250000  1
  Ba  Ba3  1  0.517066  0.805551  0.750000  1
  U  U4  1  0.000000  0.000000  0.000000  1
  U  U5  1  0.000000  0.500000  0.000000  1
  U  U6  1  0.000000  0.500000  0.500000  1
  U  U7  1  0.000000  0.000000  0.500000  1
  O  O8  1  0.116147  0.973299  0.750000  1
  O  O9  1  0.116147  0.526701  0.250000  1
  O  O10  1  0.883853  0.473299  0.750000  1
  O  O11  1  0.883853  0.026701  0.250000  1
  O  O12  1  0.144520  0.250000  0.500000  1
  O  O13  1  0.855480  0.750000  0.000000  1
  O  O14  1  0.855480  0.750000  0.500000  1
  O  O15  1  0.144520  0.250000  0.000000  1
  O  O16  1  0.295054  0.925235  0.069112  1
  O  O17  1  0.295054  0.574765  0.930888  1
  O  O18  1  0.704946  0.425235  0.430888  1
  O  O19  1  0.704946  0.074765  0.569112  1
  O  O20  1  0.704946  0.074765  0.930888  1
  O  O21  1  0.704946  0.425235  0.069112  1
  O  O22  1  0.295054  0.574765  0.569112  1
  O  O23  1  0.295054  0.925235  0.430888  1
