# generated using pymatgen
data_Cs2AgF4
_symmetry_space_group_name_H-M   'P 1'
_cell_length_a   7.96569531
_cell_length_b   7.96569531
_cell_length_c   6.58087245
_cell_angle_alpha   90.00000000
_cell_angle_beta   90.00000000
_cell_angle_gamma   131.23710377
_symmetry_Int_Tables_number   1
_chemical_formula_structural   Cs2AgF4
_chemical_formula_sum   'Cs4 Ag2 F8'
_cell_volume   314.00884231
_cell_formula_units_Z   2
loop_
 _symmetry_equiv_pos_site_id
 _symmetry_equiv_pos_as_xyz
  1  'x, y, z'
loop_
 _atom_site_type_symbol
 _atom_site_label
 _atom_site_symmetry_multiplicity
 _atom_site_fract_x
 _atom_site_fract_y
 _atom_site_fract_z
 _atom_site_occupancy
  Cs  Cs0  1  0.357010  0.642990  1.000000  1
  Cs  Cs1  1  0.142990  0.857010  0.500000  1
  Cs  Cs2  1  0.642990  0.357010  1.000000  1
  Cs  Cs3  1  0.857010  0.142990  0.500000  1
  Ag  Ag4  1  0.000000  0.000000  0.000000  1
  Ag  Ag5  1  0.500000  0.500000  0.500000  1
  F  F6  1  0.150303  0.849697  1.000000  1
  F  F7  1  0.349698  0.650303  0.500000  1
  F  F8  1  0.849697  0.150303  0.000000  1
  F  F9  1  0.650303  0.349697  0.500000  1
  F  F10  1  0.236751  0.236751  0.773432  1
  F  F11  1  0.736751  0.736751  0.726568  1
  F  F12  1  0.263249  0.263249  0.273432  1
  F  F13  1  0.763249  0.763249  0.226568  1
