# generated using pymatgen
data_Cs2YSi4O10F
_symmetry_space_group_name_H-M   'P 1'
_cell_length_a   8.99352100
_cell_length_b   12.15111600
_cell_length_c   22.68919300
_cell_angle_alpha   90.00000000
_cell_angle_beta   90.00000000
_cell_angle_gamma   90.00000000
_symmetry_Int_Tables_number   1
_chemical_formula_structural   Cs2YSi4O10F
_chemical_formula_sum   'Cs16 Y8 Si32 O80 F8'
_cell_volume   2479.50489088
_cell_formula_units_Z   8
loop_
 _symmetry_equiv_pos_site_id
 _symmetry_equiv_pos_as_xyz
  1  'x, y, z'
loop_
 _atom_site_type_symbol
 _atom_site_label
 _atom_site_symmetry_multiplicity
 _atom_site_fract_x
 _atom_site_fract_y
 _atom_site_fract_z
 _atom_site_occupancy
  Cs  Cs0  1  0.750000  0.047714  0.016216  1
  Cs  Cs1  1  0.750000  0.443237  0.043416  1
  Cs  Cs2  1  0.750000  0.623173  0.236676  1
  Cs  Cs3  1  0.250000  0.376827  0.763324  1
  Cs  Cs4  1  0.750000  0.876827  0.736676  1
  Cs  Cs5  1  0.250000  0.547714  0.483784  1
  Cs  Cs6  1  0.250000  0.123173  0.263324  1
  Cs  Cs7  1  0.750000  0.452286  0.516216  1
  Cs  Cs8  1  0.750000  0.056763  0.543416  1
  Cs  Cs9  1  0.250000  0.943237  0.456584  1
  Cs  Cs10  1  0.250000  0.679528  0.271827  1
  Cs  Cs11  1  0.750000  0.179528  0.228173  1
  Cs  Cs12  1  0.750000  0.320472  0.728173  1
  Cs  Cs13  1  0.250000  0.952286  0.983784  1
  Cs  Cs14  1  0.250000  0.820472  0.771827  1
  Cs  Cs15  1  0.250000  0.556763  0.956584  1
  Y  Y16  1  0.000205  0.596740  0.650889  1
  Y  Y17  1  0.000205  0.903260  0.150889  1
  Y  Y18  1  0.499795  0.596740  0.650889  1
  Y  Y19  1  0.500205  0.403260  0.349111  1
  Y  Y20  1  0.999795  0.096740  0.849111  1
  Y  Y21  1  0.499795  0.903260  0.150889  1
  Y  Y22  1  0.500205  0.096740  0.849111  1
  Y  Y23  1  0.999795  0.403260  0.349111  1
  Si  Si24  1  0.931056  0.588878  0.810228  1
  Si  Si25  1  0.928943  0.122854  0.382510  1
  Si  Si26  1  0.572057  0.750214  0.020017  1
  Si  Si27  1  0.428943  0.877146  0.617490  1
  Si  Si28  1  0.568863  0.695961  0.388069  1
  Si  Si29  1  0.571057  0.122854  0.382510  1
  Si  Si30  1  0.931056  0.911122  0.310228  1
  Si  Si31  1  0.927943  0.749786  0.520017  1
  Si  Si32  1  0.068944  0.411122  0.189772  1
  Si  Si33  1  0.071057  0.877146  0.617490  1
  Si  Si34  1  0.568863  0.804039  0.888069  1
  Si  Si35  1  0.068944  0.088878  0.689772  1
  Si  Si36  1  0.427943  0.250214  0.479983  1
  Si  Si37  1  0.568944  0.588878  0.810228  1
  Si  Si38  1  0.071057  0.622854  0.117490  1
  Si  Si39  1  0.431056  0.411122  0.189772  1
  Si  Si40  1  0.431137  0.304039  0.611931  1
  Si  Si41  1  0.431056  0.088878  0.689772  1
  Si  Si42  1  0.568944  0.911122  0.310228  1
  Si  Si43  1  0.428943  0.622854  0.117490  1
  Si  Si44  1  0.928943  0.377146  0.882510  1
  Si  Si45  1  0.927943  0.750214  0.020017  1
  Si  Si46  1  0.072057  0.250214  0.479983  1
  Si  Si47  1  0.931137  0.804039  0.888069  1
  Si  Si48  1  0.931137  0.695961  0.388069  1
  Si  Si49  1  0.571057  0.377146  0.882510  1
  Si  Si50  1  0.431137  0.195961  0.111931  1
  Si  Si51  1  0.068863  0.195961  0.111931  1
  Si  Si52  1  0.068863  0.304039  0.611931  1
  Si  Si53  1  0.072057  0.249786  0.979983  1
  Si  Si54  1  0.572057  0.749786  0.520017  1
  Si  Si55  1  0.427943  0.249786  0.979983  1
  O  O56  1  0.969978  0.787662  0.336410  1
  O  O57  1  0.023557  0.782307  0.662574  1
  O  O58  1  0.989417  0.000402  0.360734  1
  O  O59  1  0.028289  0.139584  0.945852  1
  O  O60  1  0.969978  0.712338  0.836410  1
  O  O61  1  0.500687  0.137735  0.449821  1
  O  O62  1  0.509154  0.750806  0.951224  1
  O  O63  1  0.030022  0.287662  0.163590  1
  O  O64  1  0.750000  0.681888  0.391965  1
  O  O65  1  0.471711  0.360416  0.445852  1
  O  O66  1  0.999313  0.137735  0.449821  1
  O  O67  1  0.986601  0.083356  0.127860  1
  O  O68  1  0.513348  0.430319  0.251290  1
  O  O69  1  0.528289  0.639584  0.554148  1
  O  O70  1  0.000687  0.637735  0.050179  1
  O  O71  1  0.013348  0.930319  0.248710  1
  O  O72  1  0.013348  0.569681  0.748710  1
  O  O73  1  0.750000  0.576380  0.804475  1
  O  O74  1  0.000687  0.862265  0.550179  1
  O  O75  1  0.486601  0.916644  0.872140  1
  O  O76  1  0.750000  0.923620  0.304475  1
  O  O77  1  0.750000  0.818112  0.891965  1
  O  O78  1  0.530022  0.712338  0.836410  1
  O  O79  1  0.976443  0.282307  0.837426  1
  O  O80  1  0.989417  0.499598  0.860734  1
  O  O81  1  0.250000  0.276514  0.983093  1
  O  O82  1  0.999313  0.362265  0.949821  1
  O  O83  1  0.530022  0.787662  0.336410  1
  O  O84  1  0.750000  0.776514  0.516907  1
  O  O85  1  0.471711  0.139584  0.945852  1
  O  O86  1  0.499313  0.862265  0.550179  1
  O  O87  1  0.971711  0.639584  0.554148  1
  O  O88  1  0.250000  0.612068  0.106270  1
  O  O89  1  0.990846  0.749194  0.451224  1
  O  O90  1  0.250000  0.181888  0.108035  1
  O  O91  1  0.028289  0.360416  0.445852  1
  O  O92  1  0.009154  0.250806  0.548776  1
  O  O93  1  0.513348  0.069681  0.751290  1
  O  O94  1  0.010583  0.999598  0.639266  1
  O  O95  1  0.469978  0.212338  0.663590  1
  O  O96  1  0.509154  0.749194  0.451224  1
  O  O97  1  0.250000  0.318112  0.608035  1
  O  O98  1  0.486601  0.583356  0.372140  1
  O  O99  1  0.528289  0.860416  0.054148  1
  O  O100  1  0.009154  0.249194  0.048776  1
  O  O101  1  0.489417  0.500402  0.139266  1
  O  O102  1  0.010583  0.500402  0.139266  1
  O  O103  1  0.490846  0.250806  0.548776  1
  O  O104  1  0.986652  0.430319  0.251290  1
  O  O105  1  0.013399  0.916644  0.872140  1
  O  O106  1  0.486652  0.930319  0.248710  1
  O  O107  1  0.510583  0.499598  0.860734  1
  O  O108  1  0.986601  0.416644  0.627860  1
  O  O109  1  0.976443  0.217693  0.337426  1
  O  O110  1  0.513399  0.416644  0.627860  1
  O  O111  1  0.250000  0.423620  0.195525  1
  O  O112  1  0.990846  0.750806  0.951224  1
  O  O113  1  0.476443  0.717693  0.162574  1
  O  O114  1  0.250000  0.076380  0.695525  1
  O  O115  1  0.750000  0.723486  0.016907  1
  O  O116  1  0.513399  0.083356  0.127860  1
  O  O117  1  0.250000  0.887932  0.606270  1
  O  O118  1  0.490846  0.249194  0.048776  1
  O  O119  1  0.013399  0.583356  0.372140  1
  O  O120  1  0.750000  0.387932  0.893730  1
  O  O121  1  0.250000  0.223486  0.483093  1
  O  O122  1  0.971711  0.860416  0.054148  1
  O  O123  1  0.500687  0.362265  0.949821  1
  O  O124  1  0.986652  0.069681  0.751290  1
  O  O125  1  0.476443  0.782307  0.662574  1
  O  O126  1  0.499313  0.637735  0.050179  1
  O  O127  1  0.510583  0.000402  0.360734  1
  O  O128  1  0.469978  0.287662  0.163590  1
  O  O129  1  0.030022  0.212338  0.663590  1
  O  O130  1  0.023557  0.717693  0.162574  1
  O  O131  1  0.523557  0.217693  0.337426  1
  O  O132  1  0.489417  0.999598  0.639266  1
  O  O133  1  0.750000  0.112068  0.393730  1
  O  O134  1  0.486652  0.569681  0.748710  1
  O  O135  1  0.523557  0.282307  0.837426  1
  F  F136  1  0.750000  0.602297  0.659487  1
  F  F137  1  0.250000  0.584273  0.644040  1
  F  F138  1  0.250000  0.397703  0.340513  1
  F  F139  1  0.250000  0.102297  0.840513  1
  F  F140  1  0.750000  0.415727  0.355960  1
  F  F141  1  0.750000  0.084273  0.855960  1
  F  F142  1  0.750000  0.897703  0.159487  1
  F  F143  1  0.250000  0.915727  0.144040  1
