# generated using pymatgen
data_LaZn11
_symmetry_space_group_name_H-M   'P 1'
_cell_length_a   8.31292721
_cell_length_b   8.31292721
_cell_length_c   8.31292721
_cell_angle_alpha   99.87683089
_cell_angle_beta   99.87683089
_cell_angle_gamma   131.06680422
_symmetry_Int_Tables_number   1
_chemical_formula_structural   LaZn11
_chemical_formula_sum   'La2 Zn22'
_cell_volume   394.22058808
_cell_formula_units_Z   2
loop_
 _symmetry_equiv_pos_site_id
 _symmetry_equiv_pos_as_xyz
  1  'x, y, z'
loop_
 _atom_site_type_symbol
 _atom_site_label
 _atom_site_symmetry_multiplicity
 _atom_site_fract_x
 _atom_site_fract_y
 _atom_site_fract_z
 _atom_site_occupancy
  La  La0  1  0.750000  0.250000  0.500000  1
  La  La1  1  0.500000  0.500000  0.000000  1
  Zn  Zn2  1  0.924925  0.597071  0.915686  1
  Zn  Zn3  1  0.625000  0.875000  0.750000  1
  Zn  Zn4  1  0.990761  0.075075  0.672146  1
  Zn  Zn5  1  0.924925  0.009239  0.327854  1
  Zn  Zn6  1  0.402929  0.075075  0.084314  1
  Zn  Zn7  1  0.325075  0.740761  0.172146  1
  Zn  Zn8  1  0.681385  0.009239  0.084314  1
  Zn  Zn9  1  0.000000  0.000000  0.000000  1
  Zn  Zn10  1  0.568615  0.740761  0.415686  1
  Zn  Zn11  1  0.250000  0.750000  0.500000  1
  Zn  Zn12  1  0.847071  0.431385  0.172146  1
  Zn  Zn13  1  0.125000  0.375000  0.250000  1
  Zn  Zn14  1  0.325075  0.152929  0.584314  1
  Zn  Zn15  1  0.847071  0.674925  0.415686  1
  Zn  Zn16  1  0.681385  0.597071  0.672146  1
  Zn  Zn17  1  0.402929  0.318615  0.327854  1
  Zn  Zn18  1  0.259239  0.431385  0.584314  1
  Zn  Zn19  1  0.568615  0.152929  0.827854  1
  Zn  Zn20  1  0.259239  0.674925  0.827854  1
  Zn  Zn21  1  0.990761  0.318615  0.915686  1
  Zn  Zn22  1  0.125000  0.875000  0.750000  1
  Zn  Zn23  1  0.125000  0.875000  0.250000  1
