# generated using pymatgen
data_Fe9Cu9S16
_symmetry_space_group_name_H-M   'P 1'
_cell_length_a   10.56372420
_cell_length_b   10.56372420
_cell_length_c   5.21781799
_cell_angle_alpha   90.00000000
_cell_angle_beta   90.00000000
_cell_angle_gamma   90.00000000
_symmetry_Int_Tables_number   1
_chemical_formula_structural   Fe9Cu9S16
_chemical_formula_sum   'Fe9 Cu9 S16'
_cell_volume   582.26814860
_cell_formula_units_Z   1
loop_
 _symmetry_equiv_pos_site_id
 _symmetry_equiv_pos_as_xyz
  1  'x, y, z'
loop_
 _atom_site_type_symbol
 _atom_site_label
 _atom_site_symmetry_multiplicity
 _atom_site_fract_x
 _atom_site_fract_y
 _atom_site_fract_z
 _atom_site_occupancy
  Fe  Fe0  1  0.248022  0.500000  0.000000  1
  Fe  Fe1  1  0.500000  0.248022  0.000000  1
  Fe  Fe2  1  0.500000  0.751978  0.000000  1
  Fe  Fe3  1  0.751978  0.500000  0.000000  1
  Fe  Fe4  1  0.500000  0.000000  0.500000  1
  Fe  Fe5  1  0.000000  0.500000  0.500000  1
  Fe  Fe6  1  0.000000  0.000000  0.500000  1
  Fe  Fe7  1  0.000000  0.000000  0.000000  1
  Fe  Fe8  1  0.500000  0.500000  0.000000  1
  Cu  Cu9  1  0.248016  0.751984  0.487987  1
  Cu  Cu10  1  0.248016  0.248016  0.512013  1
  Cu  Cu11  1  0.751984  0.751984  0.512013  1
  Cu  Cu12  1  0.751984  0.248016  0.487987  1
  Cu  Cu13  1  0.252227  0.000000  0.000000  1
  Cu  Cu14  1  0.000000  0.252227  0.000000  1
  Cu  Cu15  1  0.000000  0.747773  0.000000  1
  Cu  Cu16  1  0.747773  0.000000  0.000000  1
  Cu  Cu17  1  0.500000  0.500000  0.500000  1
  S  S18  1  0.124952  0.624534  0.251390  1
  S  S19  1  0.375466  0.124952  0.748610  1
  S  S20  1  0.624534  0.875048  0.748610  1
  S  S21  1  0.875048  0.375466  0.251390  1
  S  S22  1  0.124952  0.375466  0.748610  1
  S  S23  1  0.875048  0.624534  0.748610  1
  S  S24  1  0.624534  0.124952  0.251390  1
  S  S25  1  0.375466  0.875048  0.251390  1
  S  S26  1  0.117144  0.882856  0.741249  1
  S  S27  1  0.117144  0.117144  0.258751  1
  S  S28  1  0.882856  0.882856  0.258751  1
  S  S29  1  0.882856  0.117144  0.741249  1
  S  S30  1  0.374519  0.625481  0.761479  1
  S  S31  1  0.374519  0.374519  0.238521  1
  S  S32  1  0.625481  0.625481  0.238521  1
  S  S33  1  0.625481  0.374519  0.761479  1
