# generated using pymatgen
data_KS2O3
_symmetry_space_group_name_H-M   'P 1'
_cell_length_a   11.99387035
_cell_length_b   11.99387035
_cell_length_c   10.31140100
_cell_angle_alpha   78.67175772
_cell_angle_beta   101.32824228
_cell_angle_gamma   139.50229612
_symmetry_Int_Tables_number   1
_chemical_formula_structural   KS2O3
_chemical_formula_sum   'K8 S16 O24'
_cell_volume   941.94764401
_cell_formula_units_Z   8
loop_
 _symmetry_equiv_pos_site_id
 _symmetry_equiv_pos_as_xyz
  1  'x, y, z'
loop_
 _atom_site_type_symbol
 _atom_site_label
 _atom_site_symmetry_multiplicity
 _atom_site_fract_x
 _atom_site_fract_y
 _atom_site_fract_z
 _atom_site_occupancy
  K  K0  1  0.144208  0.016576  0.386381  1
  K  K1  1  0.983424  0.855792  0.886381  1
  K  K2  1  0.624025  0.595125  0.262492  1
  K  K3  1  0.404875  0.375975  0.762492  1
  K  K4  1  0.651487  0.215632  0.439309  1
  K  K5  1  0.784368  0.348513  0.939309  1
  K  K6  1  0.084946  0.236974  0.050936  1
  K  K7  1  0.763026  0.915054  0.550936  1
  S  S8  1  0.399273  0.200642  0.102784  1
  S  S9  1  0.799358  0.600727  0.602784  1
  S  S10  1  0.368375  0.998214  0.098046  1
  S  S11  1  0.001786  0.631625  0.598046  1
  S  S12  1  0.254706  0.838124  0.261457  1
  S  S13  1  0.161876  0.745294  0.761457  1
  S  S14  1  0.979357  0.653244  0.205465  1
  S  S15  1  0.346756  0.020643  0.705465  1
  S  S16  1  0.274812  0.387197  0.432097  1
  S  S17  1  0.612803  0.725188  0.932097  1
  S  S18  1  0.139620  0.443143  0.422027  1
  S  S19  1  0.556857  0.860380  0.922027  1
  S  S20  1  0.194413  0.515924  0.604993  1
  S  S21  1  0.484076  0.805587  0.104993  1
  S  S22  1  0.986982  0.279272  0.722375  1
  S  S23  1  0.720728  0.013018  0.222375  1
  O  O24  1  0.233855  0.134025  0.053850  1
  O  O25  1  0.865975  0.766145  0.553850  1
  O  O26  1  0.534616  0.329141  0.010112  1
  O  O27  1  0.670859  0.465384  0.510112  1
  O  O28  1  0.450607  0.248169  0.240763  1
  O  O29  1  0.751831  0.549393  0.740763  1
  O  O30  1  0.935115  0.730320  0.236192  1
  O  O31  1  0.269680  0.064885  0.736192  1
  O  O32  1  0.906858  0.500164  0.290544  1
  O  O33  1  0.499836  0.093142  0.790544  1
  O  O34  1  0.959745  0.636847  0.063261  1
  O  O35  1  0.363153  0.040255  0.563261  1
  O  O36  1  0.262349  0.363736  0.292774  1
  O  O37  1  0.636264  0.737651  0.792774  1
  O  O38  1  0.452084  0.536775  0.484839  1
  O  O39  1  0.463225  0.547916  0.984839  1
  O  O40  1  0.181363  0.228519  0.519339  1
  O  O41  1  0.771481  0.818637  0.019339  1
  O  O42  1  0.993778  0.349685  0.829279  1
  O  O43  1  0.650315  0.006222  0.329279  1
  O  O44  1  0.036076  0.195819  0.770429  1
  O  O45  1  0.804181  0.963924  0.270429  1
  O  O46  1  0.829778  0.175563  0.633057  1
  O  O47  1  0.824437  0.170222  0.133057  1
