# generated using pymatgen
data_Gd2Mo(SeO4)3
_symmetry_space_group_name_H-M   'P 1'
_cell_length_a   6.66175322
_cell_length_b   7.21906207
_cell_length_c   10.99860812
_cell_angle_alpha   85.18584402
_cell_angle_beta   73.05095933
_cell_angle_gamma   86.42163674
_symmetry_Int_Tables_number   1
_chemical_formula_structural   Gd2Mo(SeO4)3
_chemical_formula_sum   'Gd4 Mo2 Se6 O24'
_cell_volume   503.78123816
_cell_formula_units_Z   2
loop_
 _symmetry_equiv_pos_site_id
 _symmetry_equiv_pos_as_xyz
  1  'x, y, z'
loop_
 _atom_site_type_symbol
 _atom_site_label
 _atom_site_symmetry_multiplicity
 _atom_site_fract_x
 _atom_site_fract_y
 _atom_site_fract_z
 _atom_site_occupancy
  Gd  Gd0  1  0.768063  0.861085  0.990461  1
  Gd  Gd1  1  0.293999  0.320501  0.332977  1
  Gd  Gd2  1  0.231937  0.138915  0.009539  1
  Gd  Gd3  1  0.706001  0.679499  0.667023  1
  Mo  Mo4  1  0.777989  0.608858  0.292263  1
  Mo  Mo5  1  0.222011  0.391142  0.707737  1
  Se  Se6  1  0.298930  0.840706  0.283831  1
  Se  Se7  1  0.710480  0.360372  0.007534  1
  Se  Se8  1  0.839801  0.140925  0.358541  1
  Se  Se9  1  0.701070  0.159294  0.716169  1
  Se  Se10  1  0.160199  0.859075  0.641459  1
  Se  Se11  1  0.289520  0.639628  0.992466  1
  O  O12  1  0.219397  0.461364  0.916170  1
  O  O13  1  0.677180  0.332191  0.320829  1
  O  O14  1  0.399822  0.003123  0.350338  1
  O  O15  1  0.717259  0.669366  0.452368  1
  O  O16  1  0.322820  0.667809  0.679171  1
  O  O17  1  0.047339  0.527704  0.264695  1
  O  O18  1  0.780603  0.538636  0.083830  1
  O  O19  1  0.458343  0.310577  0.107308  1
  O  O20  1  0.054900  0.767910  0.537246  1
  O  O21  1  0.282741  0.330634  0.547632  1
  O  O22  1  0.806112  0.827480  0.200703  1
  O  O23  1  0.857107  0.163499  0.040599  1
  O  O24  1  0.071661  0.152299  0.231793  1
  O  O25  1  0.557090  0.370113  0.695312  1
  O  O26  1  0.945100  0.232090  0.462754  1
  O  O27  1  0.142893  0.836501  0.959401  1
  O  O28  1  0.541657  0.689423  0.892692  1
  O  O29  1  0.442910  0.629887  0.304688  1
  O  O30  1  0.583347  0.102492  0.881369  1
  O  O31  1  0.416653  0.897508  0.118631  1
  O  O32  1  0.600178  0.996877  0.649662  1
  O  O33  1  0.952661  0.472296  0.735305  1
  O  O34  1  0.193888  0.172520  0.799297  1
  O  O35  1  0.928339  0.847701  0.768207  1
