# generated using pymatgen
data_Zn3Fe2(SeO3)6
_symmetry_space_group_name_H-M   'P 1'
_cell_length_a   7.80825899
_cell_length_b   8.53004446
_cell_length_c   12.72240096
_cell_angle_alpha   90.00000000
_cell_angle_beta   96.57018719
_cell_angle_gamma   90.00000000
_symmetry_Int_Tables_number   1
_chemical_formula_structural   Zn3Fe2(SeO3)6
_chemical_formula_sum   'Zn6 Fe4 Se12 O36'
_cell_volume   841.80774926
_cell_formula_units_Z   2
loop_
 _symmetry_equiv_pos_site_id
 _symmetry_equiv_pos_as_xyz
  1  'x, y, z'
loop_
 _atom_site_type_symbol
 _atom_site_label
 _atom_site_symmetry_multiplicity
 _atom_site_fract_x
 _atom_site_fract_y
 _atom_site_fract_z
 _atom_site_occupancy
  Zn  Zn0  1  0.383923  0.398401  0.622983  1
  Zn  Zn1  1  0.616077  0.601599  0.377017  1
  Zn  Zn2  1  0.000000  0.500000  0.500000  1
  Zn  Zn3  1  0.883923  0.101599  0.622983  1
  Zn  Zn4  1  0.500000  0.000000  0.500000  1
  Zn  Zn5  1  0.116077  0.898401  0.377017  1
  Fe  Fe6  1  0.357953  0.495042  0.171242  1
  Fe  Fe7  1  0.857953  0.004958  0.171242  1
  Fe  Fe8  1  0.642047  0.504958  0.828758  1
  Fe  Fe9  1  0.142047  0.995042  0.828758  1
  Se  Se10  1  0.941243  0.599926  0.221233  1
  Se  Se11  1  0.183600  0.820598  0.604625  1
  Se  Se12  1  0.683600  0.679402  0.604625  1
  Se  Se13  1  0.866221  0.804147  0.954775  1
  Se  Se14  1  0.816400  0.179402  0.395375  1
  Se  Se15  1  0.366221  0.695853  0.954775  1
  Se  Se16  1  0.441243  0.900074  0.221233  1
  Se  Se17  1  0.133779  0.195853  0.045225  1
  Se  Se18  1  0.058757  0.400074  0.778767  1
  Se  Se19  1  0.558757  0.099926  0.778767  1
  Se  Se20  1  0.633779  0.304147  0.045225  1
  Se  Se21  1  0.316400  0.320598  0.395375  1
  O  O22  1  0.857056  0.479442  0.752643  1
  O  O23  1  0.017132  0.199272  0.752135  1
  O  O24  1  0.740855  0.528395  0.523959  1
  O  O25  1  0.641946  0.042163  0.663706  1
  O  O26  1  0.753704  0.390320  0.952615  1
  O  O27  1  0.759145  0.028395  0.476041  1
  O  O28  1  0.800773  0.228486  0.131774  1
  O  O29  1  0.699227  0.728486  0.868226  1
  O  O30  1  0.253704  0.109680  0.952615  1
  O  O31  1  0.085041  0.030705  0.115577  1
  O  O32  1  0.642944  0.979442  0.247357  1
  O  O33  1  0.357056  0.020558  0.752643  1
  O  O34  1  0.454409  0.239479  0.499011  1
  O  O35  1  0.034095  0.912633  0.676735  1
  O  O36  1  0.141946  0.457837  0.663706  1
  O  O37  1  0.482868  0.699272  0.247865  1
  O  O38  1  0.585041  0.469295  0.115577  1
  O  O39  1  0.465905  0.412633  0.323265  1
  O  O40  1  0.858054  0.542163  0.336294  1
  O  O41  1  0.259145  0.471605  0.476041  1
  O  O42  1  0.746296  0.890320  0.047385  1
  O  O43  1  0.199227  0.771514  0.868226  1
  O  O44  1  0.965905  0.087367  0.323265  1
  O  O45  1  0.534095  0.587367  0.676735  1
  O  O46  1  0.240855  0.971605  0.523959  1
  O  O47  1  0.954409  0.260521  0.499011  1
  O  O48  1  0.517132  0.300728  0.752135  1
  O  O49  1  0.358054  0.957837  0.336294  1
  O  O50  1  0.142944  0.520558  0.247357  1
  O  O51  1  0.300773  0.271514  0.131774  1
  O  O52  1  0.246296  0.609680  0.047385  1
  O  O53  1  0.982868  0.800728  0.247865  1
  O  O54  1  0.045591  0.739479  0.500989  1
  O  O55  1  0.914959  0.969295  0.884423  1
  O  O56  1  0.545591  0.760521  0.500989  1
  O  O57  1  0.414959  0.530705  0.884423  1
