# generated using pymatgen
data_Tm2MoO6
_symmetry_space_group_name_H-M   'P 1'
_cell_length_a   9.84402200
_cell_length_b   9.84402200
_cell_length_c   5.32900908
_cell_angle_alpha   74.89254774
_cell_angle_beta   105.10745226
_cell_angle_gamma   112.14479346
_symmetry_Int_Tables_number   1
_chemical_formula_structural   Tm2MoO6
_chemical_formula_sum   'Tm8 Mo4 O24'
_cell_volume   454.10433299
_cell_formula_units_Z   4
loop_
 _symmetry_equiv_pos_site_id
 _symmetry_equiv_pos_as_xyz
  1  'x, y, z'
loop_
 _atom_site_type_symbol
 _atom_site_label
 _atom_site_symmetry_multiplicity
 _atom_site_fract_x
 _atom_site_fract_y
 _atom_site_fract_z
 _atom_site_occupancy
  Tm  Tm0  1  0.217629  0.551286  0.123448  1
  Tm  Tm1  1  0.448714  0.782371  0.623448  1
  Tm  Tm2  1  0.782371  0.448714  0.876552  1
  Tm  Tm3  1  0.551286  0.217629  0.376552  1
  Tm  Tm4  1  0.862649  0.862649  0.750000  1
  Tm  Tm5  1  0.137351  0.137351  0.250000  1
  Tm  Tm6  1  0.394753  0.394753  0.750000  1
  Tm  Tm7  1  0.605247  0.605247  0.250000  1
  Mo  Mo8  1  0.986917  0.295602  0.561270  1
  Mo  Mo9  1  0.295602  0.986917  0.938730  1
  Mo  Mo10  1  0.013083  0.704398  0.438730  1
  Mo  Mo11  1  0.704398  0.013083  0.061270  1
  O  O12  1  0.428038  0.609819  0.422314  1
  O  O13  1  0.609819  0.428038  0.077686  1
  O  O14  1  0.571962  0.390181  0.577686  1
  O  O15  1  0.390181  0.571962  0.922314  1
  O  O16  1  0.194700  0.337594  0.419331  1
  O  O17  1  0.337594  0.194700  0.080669  1
  O  O18  1  0.805300  0.662406  0.580669  1
  O  O19  1  0.662406  0.805300  0.919331  1
  O  O20  1  0.115582  0.325822  0.877021  1
  O  O21  1  0.325822  0.115582  0.622979  1
  O  O22  1  0.884418  0.674178  0.122979  1
  O  O23  1  0.674178  0.884418  0.377021  1
  O  O24  1  0.710379  0.187028  0.135618  1
  O  O25  1  0.187028  0.710379  0.364382  1
  O  O26  1  0.289621  0.812972  0.864382  1
  O  O27  1  0.812972  0.289621  0.635618  1
  O  O28  1  0.891703  0.049222  0.012566  1
  O  O29  1  0.049222  0.891703  0.487434  1
  O  O30  1  0.975862  0.433369  0.251453  1
  O  O31  1  0.950778  0.108297  0.512566  1
  O  O32  1  0.566631  0.024138  0.751453  1
  O  O33  1  0.024138  0.566631  0.748547  1
  O  O34  1  0.433369  0.975862  0.248547  1
  O  O35  1  0.108297  0.950778  0.987434  1
