# generated using pymatgen
data_SbP(OF3)2
_symmetry_space_group_name_H-M   'P 1'
_cell_length_a   5.70032516
_cell_length_b   7.55809039
_cell_length_c   7.61625712
_cell_angle_alpha   88.35251680
_cell_angle_beta   76.15580267
_cell_angle_gamma   83.42640708
_symmetry_Int_Tables_number   1
_chemical_formula_structural   SbP(OF3)2
_chemical_formula_sum   'Sb2 P2 O4 F12'
_cell_volume   316.50829896
_cell_formula_units_Z   2
loop_
 _symmetry_equiv_pos_site_id
 _symmetry_equiv_pos_as_xyz
  1  'x, y, z'
loop_
 _atom_site_type_symbol
 _atom_site_label
 _atom_site_symmetry_multiplicity
 _atom_site_fract_x
 _atom_site_fract_y
 _atom_site_fract_z
 _atom_site_occupancy
  Sb  Sb0  1  0.582489  0.230593  0.755877  1
  Sb  Sb1  1  0.417511  0.769407  0.244123  1
  P  P2  1  0.229941  0.192145  0.167373  1
  P  P3  1  0.770059  0.807855  0.832627  1
  O  O4  1  0.564739  0.736442  0.971308  1
  O  O5  1  0.782691  0.007002  0.825128  1
  O  O6  1  0.435261  0.263558  0.028692  1
  O  O7  1  0.217309  0.992998  0.174872  1
  F  F8  1  0.390664  0.439344  0.709473  1
  F  F9  1  0.241982  0.263013  0.351624  1
  F  F10  1  0.016372  0.722027  0.859109  1
  F  F11  1  0.736437  0.183401  0.510007  1
  F  F12  1  0.263563  0.816599  0.489993  1
  F  F13  1  0.609336  0.560656  0.290527  1
  F  F14  1  0.833096  0.357965  0.793702  1
  F  F15  1  0.166904  0.642035  0.206298  1
  F  F16  1  0.334298  0.081990  0.754495  1
  F  F17  1  0.665702  0.918010  0.245505  1
  F  F18  1  0.758018  0.736987  0.648376  1
  F  F19  1  0.983628  0.277973  0.140891  1
