# generated using pymatgen
data_U2Ge4Mo3
_symmetry_space_group_name_H-M   'P 1'
_cell_length_a   6.95474823
_cell_length_b   6.98952310
_cell_length_c   7.00727571
_cell_angle_alpha   90.00000000
_cell_angle_beta   110.30564095
_cell_angle_gamma   90.00000000
_symmetry_Int_Tables_number   1
_chemical_formula_structural   U2Ge4Mo3
_chemical_formula_sum   'U4 Ge8 Mo6'
_cell_volume   319.45799075
_cell_formula_units_Z   2
loop_
 _symmetry_equiv_pos_site_id
 _symmetry_equiv_pos_as_xyz
  1  'x, y, z'
loop_
 _atom_site_type_symbol
 _atom_site_label
 _atom_site_symmetry_multiplicity
 _atom_site_fract_x
 _atom_site_fract_y
 _atom_site_fract_z
 _atom_site_occupancy
  U  U0  1  0.050153  0.835323  0.186069  1
  U  U1  1  0.449847  0.335323  0.813931  1
  U  U2  1  0.949847  0.164677  0.813931  1
  U  U3  1  0.550153  0.664677  0.186069  1
  Ge  Ge4  1  0.362681  0.048859  0.094172  1
  Ge  Ge5  1  0.137319  0.548859  0.905828  1
  Ge  Ge6  1  0.637319  0.951141  0.905828  1
  Ge  Ge7  1  0.862681  0.451141  0.094172  1
  Ge  Ge8  1  0.361326  0.641137  0.505277  1
  Ge  Ge9  1  0.138674  0.141137  0.494723  1
  Ge  Ge10  1  0.638674  0.358863  0.494723  1
  Ge  Ge11  1  0.861326  0.858863  0.505277  1
  Mo  Mo12  1  0.500000  0.000000  0.500000  1
  Mo  Mo13  1  0.000000  0.500000  0.500000  1
  Mo  Mo14  1  0.255258  0.346885  0.242138  1
  Mo  Mo15  1  0.244742  0.846885  0.757862  1
  Mo  Mo16  1  0.744742  0.653115  0.757862  1
  Mo  Mo17  1  0.755258  0.153115  0.242138  1
