# generated using pymatgen
data_Ca(CuSi)2
_symmetry_space_group_name_H-M   'P 1'
_cell_length_a   5.74074069
_cell_length_b   5.74074069
_cell_length_c   5.74074069
_cell_angle_alpha   138.71632528
_cell_angle_beta   138.71632528
_cell_angle_gamma   59.80766537
_symmetry_Int_Tables_number   1
_chemical_formula_structural   Ca(CuSi)2
_chemical_formula_sum   'Ca1 Cu2 Si2'
_cell_volume   81.52568416
_cell_formula_units_Z   1
loop_
 _symmetry_equiv_pos_site_id
 _symmetry_equiv_pos_as_xyz
  1  'x, y, z'
loop_
 _atom_site_type_symbol
 _atom_site_label
 _atom_site_symmetry_multiplicity
 _atom_site_fract_x
 _atom_site_fract_y
 _atom_site_fract_z
 _atom_site_occupancy
  Ca  Ca0  1  0.000000  0.000000  0.000000  1
  Cu  Cu1  1  0.750000  0.250000  0.500000  1
  Cu  Cu2  1  0.250000  0.750000  0.500000  1
  Si  Si3  1  0.618844  0.618844  0.000000  1
  Si  Si4  1  0.381156  0.381156  0.000000  1
