# generated using pymatgen
data_Ca3Si2Ni3
_symmetry_space_group_name_H-M   'P 1'
_cell_length_a   3.94101952
_cell_length_b   9.24304222
_cell_length_c   18.05014356
_cell_angle_alpha   90.00000000
_cell_angle_beta   90.00000000
_cell_angle_gamma   90.00000000
_symmetry_Int_Tables_number   1
_chemical_formula_structural   Ca3Si2Ni3
_chemical_formula_sum   'Ca12 Si8 Ni12'
_cell_volume   657.51275659
_cell_formula_units_Z   4
loop_
 _symmetry_equiv_pos_site_id
 _symmetry_equiv_pos_as_xyz
  1  'x, y, z'
loop_
 _atom_site_type_symbol
 _atom_site_label
 _atom_site_symmetry_multiplicity
 _atom_site_fract_x
 _atom_site_fract_y
 _atom_site_fract_z
 _atom_site_occupancy
  Ca  Ca0  1  0.750000  0.892197  0.069385  1
  Ca  Ca1  1  0.250000  0.107803  0.930615  1
  Ca  Ca2  1  0.750000  0.392197  0.430615  1
  Ca  Ca3  1  0.250000  0.607803  0.569385  1
  Ca  Ca4  1  0.750000  0.857689  0.432645  1
  Ca  Ca5  1  0.250000  0.142311  0.567355  1
  Ca  Ca6  1  0.750000  0.357689  0.067355  1
  Ca  Ca7  1  0.250000  0.642311  0.932645  1
  Ca  Ca8  1  0.750000  0.874708  0.682281  1
  Ca  Ca9  1  0.250000  0.125292  0.317719  1
  Ca  Ca10  1  0.750000  0.374708  0.817719  1
  Ca  Ca11  1  0.250000  0.625292  0.182281  1
  Si  Si12  1  0.750000  0.876383  0.250307  1
  Si  Si13  1  0.250000  0.123617  0.749693  1
  Si  Si14  1  0.750000  0.376383  0.249693  1
  Si  Si15  1  0.250000  0.623617  0.750307  1
  Si  Si16  1  0.750000  0.374058  0.607208  1
  Si  Si17  1  0.250000  0.625942  0.392792  1
  Si  Si18  1  0.750000  0.874058  0.892792  1
  Si  Si19  1  0.250000  0.125942  0.107208  1
  Ni  Ni20  1  0.750000  0.555916  0.691581  1
  Ni  Ni21  1  0.250000  0.444084  0.308419  1
  Ni  Ni22  1  0.750000  0.055916  0.808419  1
  Ni  Ni23  1  0.250000  0.944084  0.191581  1
  Ni  Ni24  1  0.750000  0.691858  0.808733  1
  Ni  Ni25  1  0.250000  0.308142  0.191267  1
  Ni  Ni26  1  0.750000  0.191858  0.691267  1
  Ni  Ni27  1  0.250000  0.808142  0.308733  1
  Ni  Ni28  1  0.750000  0.126581  0.185455  1
  Ni  Ni29  1  0.250000  0.873419  0.814545  1
  Ni  Ni30  1  0.750000  0.626581  0.314545  1
  Ni  Ni31  1  0.250000  0.373419  0.685455  1
