# generated using pymatgen
data_In9Pt13
_symmetry_space_group_name_H-M   'P 1'
_cell_length_a   7.24219041
_cell_length_b   7.24219041
_cell_length_c   9.64371486
_cell_angle_alpha   62.95557611
_cell_angle_beta   117.04442389
_cell_angle_gamma   103.31004890
_symmetry_Int_Tables_number   1
_chemical_formula_structural   In9Pt13
_chemical_formula_sum   'In9 Pt13'
_cell_volume   401.06255804
_cell_formula_units_Z   1
loop_
 _symmetry_equiv_pos_site_id
 _symmetry_equiv_pos_as_xyz
  1  'x, y, z'
loop_
 _atom_site_type_symbol
 _atom_site_label
 _atom_site_symmetry_multiplicity
 _atom_site_fract_x
 _atom_site_fract_y
 _atom_site_fract_z
 _atom_site_occupancy
  In  In0  1  0.703114  0.296886  0.168096  1
  In  In1  1  0.825289  0.747102  0.310575  1
  In  In2  1  0.177574  0.822426  0.117609  1
  In  In3  1  0.822426  0.177574  0.882391  1
  In  In4  1  0.500000  0.500000  0.500000  1
  In  In5  1  0.296886  0.703114  0.831904  1
  In  In6  1  0.252898  0.174711  0.310575  1
  In  In7  1  0.747102  0.825289  0.689425  1
  In  In8  1  0.174711  0.252898  0.689425  1
  Pt  Pt9  1  0.937340  0.542691  0.659678  1
  Pt  Pt10  1  0.457309  0.062660  0.659678  1
  Pt  Pt11  1  0.453843  0.546157  0.176414  1
  Pt  Pt12  1  0.255613  0.744387  0.507158  1
  Pt  Pt13  1  0.062660  0.457309  0.340322  1
  Pt  Pt14  1  0.752272  0.752272  0.000000  1
  Pt  Pt15  1  0.744387  0.255613  0.492842  1
  Pt  Pt16  1  0.546157  0.453843  0.823586  1
  Pt  Pt17  1  0.247728  0.247728  0.000000  1
  Pt  Pt18  1  0.000000  0.000000  0.500000  1
  Pt  Pt19  1  0.542691  0.937340  0.340322  1
  Pt  Pt20  1  0.500000  0.000000  0.000000  1
  Pt  Pt21  1  0.000000  0.500000  0.000000  1
