# generated using pymatgen
data_Nd3MoO7
_symmetry_space_group_name_H-M   'P 1'
_cell_length_a   7.66161558
_cell_length_b   7.72367437
_cell_length_c   10.95126120
_cell_angle_alpha   90.00000000
_cell_angle_beta   90.00000000
_cell_angle_gamma   90.00000000
_symmetry_Int_Tables_number   1
_chemical_formula_structural   Nd3MoO7
_chemical_formula_sum   'Nd12 Mo4 O28'
_cell_volume   648.04990412
_cell_formula_units_Z   4
loop_
 _symmetry_equiv_pos_site_id
 _symmetry_equiv_pos_as_xyz
  1  'x, y, z'
loop_
 _atom_site_type_symbol
 _atom_site_label
 _atom_site_symmetry_multiplicity
 _atom_site_fract_x
 _atom_site_fract_y
 _atom_site_fract_z
 _atom_site_occupancy
  Nd  Nd0  1  0.761047  0.209349  0.494475  1
  Nd  Nd1  1  0.998486  0.037008  0.223314  1
  Nd  Nd2  1  0.498486  0.462992  0.776686  1
  Nd  Nd3  1  0.501641  0.451091  0.230991  1
  Nd  Nd4  1  0.998359  0.548909  0.730991  1
  Nd  Nd5  1  0.001514  0.537008  0.276686  1
  Nd  Nd6  1  0.001641  0.048909  0.769009  1
  Nd  Nd7  1  0.498359  0.951091  0.269009  1
  Nd  Nd8  1  0.261047  0.290651  0.505525  1
  Nd  Nd9  1  0.501514  0.962992  0.723314  1
  Nd  Nd10  1  0.738953  0.790651  0.994475  1
  Nd  Nd11  1  0.238953  0.709349  0.005525  1
  Mo  Mo12  1  0.753649  0.251901  0.001159  1
  Mo  Mo13  1  0.246351  0.751901  0.498841  1
  Mo  Mo14  1  0.253649  0.248099  0.998841  1
  Mo  Mo15  1  0.746351  0.748099  0.501159  1
  O  O16  1  0.217870  0.457747  0.880812  1
  O  O17  1  0.496805  0.813280  0.492876  1
  O  O18  1  0.282131  0.560690  0.626980  1
  O  O19  1  0.717194  0.564168  0.379588  1
  O  O20  1  0.497065  0.217954  0.366777  1
  O  O21  1  0.782131  0.939310  0.373020  1
  O  O22  1  0.997065  0.282046  0.633223  1
  O  O23  1  0.282806  0.064168  0.120412  1
  O  O24  1  0.791900  0.389521  0.146899  1
  O  O25  1  0.208100  0.889521  0.353101  1
  O  O26  1  0.217869  0.439310  0.126980  1
  O  O27  1  0.986937  0.759279  0.131946  1
  O  O28  1  0.708100  0.610479  0.646899  1
  O  O29  1  0.717869  0.060690  0.873020  1
  O  O30  1  0.996805  0.686720  0.507124  1
  O  O31  1  0.782130  0.957747  0.619188  1
  O  O32  1  0.513063  0.240721  0.631946  1
  O  O33  1  0.502935  0.717954  0.133223  1
  O  O34  1  0.782806  0.435832  0.879588  1
  O  O35  1  0.013063  0.259279  0.368054  1
  O  O36  1  0.486937  0.740721  0.868054  1
  O  O37  1  0.002935  0.782046  0.866777  1
  O  O38  1  0.282130  0.542253  0.380812  1
  O  O39  1  0.003195  0.186720  0.992876  1
  O  O40  1  0.503195  0.313280  0.007124  1
  O  O41  1  0.291900  0.110479  0.853101  1
  O  O42  1  0.217194  0.935832  0.620412  1
  O  O43  1  0.717870  0.042253  0.119188  1
