# generated using pymatgen
data_K2Mn2P2O7F2
_symmetry_space_group_name_H-M   'P 1'
_cell_length_a   6.99333493
_cell_length_b   10.81134731
_cell_length_c   11.46570120
_cell_angle_alpha   90.00000000
_cell_angle_beta   90.00000000
_cell_angle_gamma   90.00000000
_symmetry_Int_Tables_number   1
_chemical_formula_structural   K2Mn2P2O7F2
_chemical_formula_sum   'K8 Mn8 P8 O28 F8'
_cell_volume   866.89154485
_cell_formula_units_Z   4
loop_
 _symmetry_equiv_pos_site_id
 _symmetry_equiv_pos_as_xyz
  1  'x, y, z'
loop_
 _atom_site_type_symbol
 _atom_site_label
 _atom_site_symmetry_multiplicity
 _atom_site_fract_x
 _atom_site_fract_y
 _atom_site_fract_z
 _atom_site_occupancy
  K  K0  1  0.500063  0.563813  0.173258  1
  K  K1  1  0.000063  0.436187  0.326742  1
  K  K2  1  0.500063  0.063813  0.826742  1
  K  K3  1  0.499937  0.436187  0.826742  1
  K  K4  1  0.000063  0.936187  0.673258  1
  K  K5  1  0.999937  0.563813  0.673258  1
  K  K6  1  0.999937  0.063813  0.326742  1
  K  K7  1  0.499937  0.936187  0.173258  1
  Mn  Mn8  1  0.500000  0.250000  0.334495  1
  Mn  Mn9  1  0.500000  0.750000  0.665505  1
  Mn  Mn10  1  0.000000  0.500000  0.000000  1
  Mn  Mn11  1  0.000000  0.250000  0.834495  1
  Mn  Mn12  1  0.000000  0.000000  0.000000  1
  Mn  Mn13  1  0.000000  0.750000  0.165505  1
  Mn  Mn14  1  0.500000  0.000000  0.500000  1
  Mn  Mn15  1  0.500000  0.500000  0.500000  1
  P  P16  1  0.784237  0.748618  0.421742  1
  P  P17  1  0.215763  0.251382  0.578258  1
  P  P18  1  0.284237  0.251382  0.078258  1
  P  P19  1  0.715763  0.248618  0.078258  1
  P  P20  1  0.715763  0.748618  0.921742  1
  P  P21  1  0.784237  0.248618  0.578258  1
  P  P22  1  0.284237  0.751382  0.921742  1
  P  P23  1  0.215763  0.751382  0.421742  1
  O  O24  1  0.000000  0.750000  0.480349  1
  O  O25  1  0.775934  0.112891  0.084019  1
  O  O26  1  0.202472  0.689669  0.301723  1
  O  O27  1  0.674746  0.326672  0.487105  1
  O  O28  1  0.702472  0.310331  0.198277  1
  O  O29  1  0.825254  0.826672  0.012895  1
  O  O30  1  0.724066  0.112891  0.584019  1
  O  O31  1  0.674746  0.826672  0.512895  1
  O  O32  1  0.724066  0.612891  0.415981  1
  O  O33  1  0.500000  0.750000  0.980349  1
  O  O34  1  0.325254  0.673328  0.512895  1
  O  O35  1  0.275934  0.887109  0.415981  1
  O  O36  1  0.224066  0.387109  0.084019  1
  O  O37  1  0.174746  0.673328  0.012895  1
  O  O38  1  0.325254  0.173328  0.487105  1
  O  O39  1  0.702472  0.810331  0.801723  1
  O  O40  1  0.797528  0.310331  0.698277  1
  O  O41  1  0.000000  0.250000  0.519651  1
  O  O42  1  0.297528  0.189669  0.198277  1
  O  O43  1  0.297528  0.689669  0.801723  1
  O  O44  1  0.275934  0.387109  0.584019  1
  O  O45  1  0.202472  0.189669  0.698277  1
  O  O46  1  0.825254  0.326672  0.987105  1
  O  O47  1  0.500000  0.250000  0.019651  1
  O  O48  1  0.797528  0.810331  0.301723  1
  O  O49  1  0.775934  0.612891  0.915981  1
  O  O50  1  0.224066  0.887109  0.915981  1
  O  O51  1  0.174746  0.173328  0.987105  1
  F  F52  1  0.116600  0.928919  0.156427  1
  F  F53  1  0.383400  0.928919  0.656427  1
  F  F54  1  0.383400  0.428919  0.343573  1
  F  F55  1  0.883400  0.071081  0.843573  1
  F  F56  1  0.116600  0.428919  0.843573  1
  F  F57  1  0.616600  0.071081  0.343573  1
  F  F58  1  0.616600  0.571081  0.656427  1
  F  F59  1  0.883400  0.571081  0.156427  1
