# generated using pymatgen
data_NaMg2H3(SO4)2
_symmetry_space_group_name_H-M   'P 1'
_cell_length_a   7.93841657
_cell_length_b   7.93841657
_cell_length_c   9.21360986
_cell_angle_alpha   62.95351526
_cell_angle_beta   117.04648474
_cell_angle_gamma   132.49390975
_symmetry_Int_Tables_number   1
_chemical_formula_structural   NaMg2H3(SO4)2
_chemical_formula_sum   'Na2 Mg4 H6 S4 O16'
_cell_volume   371.55565240
_cell_formula_units_Z   2
loop_
 _symmetry_equiv_pos_site_id
 _symmetry_equiv_pos_as_xyz
  1  'x, y, z'
loop_
 _atom_site_type_symbol
 _atom_site_label
 _atom_site_symmetry_multiplicity
 _atom_site_fract_x
 _atom_site_fract_y
 _atom_site_fract_z
 _atom_site_occupancy
  Na  Na0  1  0.628922  0.371078  0.093986  1
  Na  Na1  1  0.371078  0.628922  0.906014  1
  Mg  Mg2  1  0.500000  1.000000  0.500000  1
  Mg  Mg3  1  0.000000  0.500000  0.500000  1
  Mg  Mg4  1  0.990066  0.009934  0.812727  1
  Mg  Mg5  1  0.009934  0.990066  0.187273  1
  H  H6  1  0.890090  0.109910  0.504321  1
  H  H7  1  0.109910  0.890090  0.495679  1
  H  H8  1  0.017477  0.737110  0.726397  1
  H  H9  1  0.982523  0.262890  0.273603  1
  H  H10  1  0.262890  0.982523  0.726397  1
  H  H11  1  0.737110  0.017477  0.273603  1
  S  S12  1  0.226292  0.773708  0.162641  1
  S  S13  1  0.773708  0.226292  0.837359  1
  S  S14  1  0.516669  0.483331  0.292342  1
  S  S15  1  0.483331  0.516669  0.707658  1
  O  O16  1  0.458003  0.938596  0.277727  1
  O  O17  1  0.541997  0.061404  0.722273  1
  O  O18  1  0.938596  0.458003  0.722273  1
  O  O19  1  0.061404  0.541997  0.277727  1
  O  O20  1  0.103520  0.896480  0.076761  1
  O  O21  1  0.896480  0.103520  0.923239  1
  O  O22  1  0.641084  0.358916  0.372315  1
  O  O23  1  0.358916  0.641084  0.627685  1
  O  O24  1  0.330389  0.306292  0.832423  1
  O  O25  1  0.669611  0.693708  0.167577  1
  O  O26  1  0.693708  0.669611  0.832423  1
  O  O27  1  0.299895  0.337964  0.171116  1
  O  O28  1  0.856409  0.143591  0.573576  1
  O  O29  1  0.143591  0.856409  0.426424  1
  O  O30  1  0.096443  0.903557  0.714610  1
  O  O31  1  0.903557  0.096443  0.285390  1
