# generated using pymatgen
data_Ge3(Te3As)2
_symmetry_space_group_name_H-M   'P 1'
_cell_length_a   20.58598830
_cell_length_b   20.58598830
_cell_length_c   20.58598830
_cell_angle_alpha   11.65284486
_cell_angle_beta   11.65284486
_cell_angle_gamma   11.65284486
_symmetry_Int_Tables_number   1
_chemical_formula_structural   Ge3(Te3As)2
_chemical_formula_sum   'Ge3 Te6 As2'
_cell_volume   309.28763899
_cell_formula_units_Z   1
loop_
 _symmetry_equiv_pos_site_id
 _symmetry_equiv_pos_as_xyz
  1  'x, y, z'
loop_
 _atom_site_type_symbol
 _atom_site_label
 _atom_site_symmetry_multiplicity
 _atom_site_fract_x
 _atom_site_fract_y
 _atom_site_fract_z
 _atom_site_occupancy
  Ge  Ge0  1  0.000000  0.000000  0.000000  1
  Ge  Ge1  1  0.725251  0.725251  0.725251  1
  Ge  Ge2  1  0.274749  0.274749  0.274749  1
  Te  Te3  1  0.913951  0.913951  0.913951  1
  Te  Te4  1  0.086049  0.086049  0.086049  1
  Te  Te5  1  0.808158  0.808158  0.808158  1
  Te  Te6  1  0.191842  0.191842  0.191842  1
  Te  Te7  1  0.638055  0.638055  0.638055  1
  Te  Te8  1  0.361945  0.361945  0.361945  1
  As  As9  1  0.549601  0.549601  0.549601  1
  As  As10  1  0.450399  0.450399  0.450399  1
