# generated using pymatgen
data_Fe(NiS2)2
_symmetry_space_group_name_H-M   'P 1'
_cell_length_a   6.63407824
_cell_length_b   6.63407824
_cell_length_c   6.63407824
_cell_angle_alpha   60.00000000
_cell_angle_beta   60.00000000
_cell_angle_gamma   60.00000000
_symmetry_Int_Tables_number   1
_chemical_formula_structural   Fe(NiS2)2
_chemical_formula_sum   'Fe2 Ni4 S8'
_cell_volume   206.45564858
_cell_formula_units_Z   2
loop_
 _symmetry_equiv_pos_site_id
 _symmetry_equiv_pos_as_xyz
  1  'x, y, z'
loop_
 _atom_site_type_symbol
 _atom_site_label
 _atom_site_symmetry_multiplicity
 _atom_site_fract_x
 _atom_site_fract_y
 _atom_site_fract_z
 _atom_site_occupancy
  Fe  Fe0  1  0.500000  0.500000  0.500000  1
  Fe  Fe1  1  0.750000  0.750000  0.750000  1
  Ni  Ni2  1  0.125000  0.625000  0.125000  1
  Ni  Ni3  1  0.125000  0.125000  0.125000  1
  Ni  Ni4  1  0.125000  0.125000  0.625000  1
  Ni  Ni5  1  0.625000  0.125000  0.125000  1
  S  S6  1  0.369840  0.890479  0.369840  1
  S  S7  1  0.880160  0.880160  0.880160  1
  S  S8  1  0.880160  0.880160  0.359521  1
  S  S9  1  0.359521  0.880160  0.880160  1
  S  S10  1  0.369840  0.369840  0.890479  1
  S  S11  1  0.890479  0.369840  0.369840  1
  S  S12  1  0.369840  0.369840  0.369840  1
  S  S13  1  0.880160  0.359521  0.880160  1
