# generated using pymatgen
data_Co21(B3Mo)2
_symmetry_space_group_name_H-M   'P 1'
_cell_length_a   7.39108968
_cell_length_b   7.39108968
_cell_length_c   7.39108968
_cell_angle_alpha   60.00000000
_cell_angle_beta   60.00000000
_cell_angle_gamma   60.00000000
_symmetry_Int_Tables_number   1
_chemical_formula_structural   Co21(B3Mo)2
_chemical_formula_sum   'Co21 B6 Mo2'
_cell_volume   285.50282962
_cell_formula_units_Z   1
loop_
 _symmetry_equiv_pos_site_id
 _symmetry_equiv_pos_as_xyz
  1  'x, y, z'
loop_
 _atom_site_type_symbol
 _atom_site_label
 _atom_site_symmetry_multiplicity
 _atom_site_fract_x
 _atom_site_fract_y
 _atom_site_fract_z
 _atom_site_occupancy
  Co  Co0  1  0.000000  0.000000  0.000000  1
  Co  Co1  1  0.617995  0.617995  0.146014  1
  Co  Co2  1  0.146014  0.617995  0.617995  1
  Co  Co3  1  0.617995  0.617995  0.617995  1
  Co  Co4  1  0.617995  0.146014  0.617995  1
  Co  Co5  1  0.382005  0.382005  0.853986  1
  Co  Co6  1  0.853986  0.382005  0.382005  1
  Co  Co7  1  0.382005  0.382005  0.382005  1
  Co  Co8  1  0.382005  0.853986  0.382005  1
  Co  Co9  1  0.000000  0.661424  0.338576  1
  Co  Co10  1  1.000000  1.000000  0.338576  1
  Co  Co11  1  0.661424  0.000000  0.338576  1
  Co  Co12  1  0.338576  0.000000  0.000000  1
  Co  Co13  1  0.338576  0.661424  1.000000  1
  Co  Co14  1  0.338576  0.000000  0.661424  1
  Co  Co15  1  0.661424  0.000000  1.000000  1
  Co  Co16  1  1.000000  0.000000  0.661424  1
  Co  Co17  1  0.000000  0.661424  1.000000  1
  Co  Co18  1  0.000000  0.338576  0.661424  1
  Co  Co19  1  0.661424  0.338576  1.000000  1
  Co  Co20  1  0.000000  0.338576  1.000000  1
  B  B21  1  0.725381  0.274619  0.274619  1
  B  B22  1  0.725381  0.725381  0.274619  1
  B  B23  1  0.274619  0.725381  0.274619  1
  B  B24  1  0.274619  0.725381  0.725381  1
  B  B25  1  0.274619  0.274619  0.725381  1
  B  B26  1  0.725381  0.274619  0.725381  1
  Mo  Mo27  1  0.750000  0.750000  0.750000  1
  Mo  Mo28  1  0.250000  0.250000  0.250000  1
