# generated using pymatgen
data_SiO2
_symmetry_space_group_name_H-M   'P 1'
_cell_length_a   10.34269472
_cell_length_b   10.34269472
_cell_length_c   10.34269472
_cell_angle_alpha   83.91047010
_cell_angle_beta   83.91047010
_cell_angle_gamma   83.91047010
_symmetry_Int_Tables_number   1
_chemical_formula_structural   SiO2
_chemical_formula_sum   'Si24 O48'
_cell_volume   1088.87855521
_cell_formula_units_Z   24
loop_
 _symmetry_equiv_pos_site_id
 _symmetry_equiv_pos_as_xyz
  1  'x, y, z'
loop_
 _atom_site_type_symbol
 _atom_site_label
 _atom_site_symmetry_multiplicity
 _atom_site_fract_x
 _atom_site_fract_y
 _atom_site_fract_z
 _atom_site_occupancy
  Si  Si0  1  0.181123  0.996664  0.235326  1
  Si  Si1  1  0.286648  0.092324  0.709663  1
  Si  Si2  1  0.359350  0.671407  0.178570  1
  Si  Si3  1  0.118972  0.637797  0.580186  1
  Si  Si4  1  0.637797  0.580186  0.118972  1
  Si  Si5  1  0.003336  0.764674  0.818877  1
  Si  Si6  1  0.818877  0.003336  0.764674  1
  Si  Si7  1  0.881028  0.362203  0.419814  1
  Si  Si8  1  0.764674  0.818877  0.003336  1
  Si  Si9  1  0.178570  0.359350  0.671407  1
  Si  Si10  1  0.671407  0.178570  0.359350  1
  Si  Si11  1  0.709663  0.286648  0.092324  1
  Si  Si12  1  0.328593  0.821430  0.640650  1
  Si  Si13  1  0.996664  0.235326  0.181123  1
  Si  Si14  1  0.580186  0.118972  0.637797  1
  Si  Si15  1  0.362203  0.419814  0.881028  1
  Si  Si16  1  0.713352  0.907676  0.290337  1
  Si  Si17  1  0.092324  0.709663  0.286648  1
  Si  Si18  1  0.235326  0.181123  0.996664  1
  Si  Si19  1  0.640650  0.328593  0.821430  1
  Si  Si20  1  0.419814  0.881028  0.362203  1
  Si  Si21  1  0.821430  0.640650  0.328593  1
  Si  Si22  1  0.907676  0.290337  0.713352  1
  Si  Si23  1  0.290337  0.713352  0.907676  1
  O  O24  1  0.736412  0.946550  0.899522  1
  O  O25  1  0.100478  0.263588  0.053450  1
  O  O26  1  0.387108  0.762610  0.779061  1
  O  O27  1  0.706127  0.445620  0.063877  1
  O  O28  1  0.857843  0.226537  0.121616  1
  O  O29  1  0.401714  0.753286  0.290066  1
  O  O30  1  0.482247  0.561073  0.153058  1
  O  O31  1  0.286688  0.980716  0.345522  1
  O  O32  1  0.663864  0.238908  0.960086  1
  O  O33  1  0.039914  0.336136  0.761092  1
  O  O34  1  0.226537  0.121616  0.857843  1
  O  O35  1  0.238908  0.960086  0.663864  1
  O  O36  1  0.654478  0.713312  0.019284  1
  O  O37  1  0.878384  0.142157  0.773463  1
  O  O38  1  0.237390  0.220939  0.612892  1
  O  O39  1  0.554380  0.936123  0.293873  1
  O  O40  1  0.980716  0.345522  0.286688  1
  O  O41  1  0.063877  0.706127  0.445620  1
  O  O42  1  0.336136  0.761092  0.039914  1
  O  O43  1  0.612892  0.237390  0.220939  1
  O  O44  1  0.220939  0.612892  0.237390  1
  O  O45  1  0.779061  0.387108  0.762610  1
  O  O46  1  0.598286  0.246714  0.709934  1
  O  O47  1  0.846942  0.517753  0.438927  1
  O  O48  1  0.936123  0.293873  0.554380  1
  O  O49  1  0.762610  0.779061  0.387108  1
  O  O50  1  0.142157  0.773463  0.878384  1
  O  O51  1  0.293873  0.554380  0.936123  1
  O  O52  1  0.290066  0.401714  0.753286  1
  O  O53  1  0.053450  0.100478  0.263588  1
  O  O54  1  0.263588  0.053450  0.100478  1
  O  O55  1  0.345522  0.286688  0.980716  1
  O  O56  1  0.153058  0.482247  0.561073  1
  O  O57  1  0.899522  0.736412  0.946550  1
  O  O58  1  0.121616  0.857843  0.226537  1
  O  O59  1  0.753286  0.290066  0.401714  1
  O  O60  1  0.761092  0.039914  0.336136  1
  O  O61  1  0.445620  0.063877  0.706127  1
  O  O62  1  0.773463  0.878384  0.142157  1
  O  O63  1  0.946550  0.899522  0.736412  1
  O  O64  1  0.019284  0.654478  0.713312  1
  O  O65  1  0.713312  0.019284  0.654478  1
  O  O66  1  0.960086  0.663864  0.238908  1
  O  O67  1  0.709934  0.598286  0.246714  1
  O  O68  1  0.246714  0.709934  0.598286  1
  O  O69  1  0.438927  0.846942  0.517753  1
  O  O70  1  0.561073  0.153058  0.482247  1
  O  O71  1  0.517753  0.438927  0.846942  1
