# generated using pymatgen
data_NbSeCl3
_symmetry_space_group_name_H-M   'P 1'
_cell_length_a   6.64875945
_cell_length_b   7.09725326
_cell_length_c   12.13807799
_cell_angle_alpha   90.00000000
_cell_angle_beta   98.33769067
_cell_angle_gamma   90.00000000
_symmetry_Int_Tables_number   1
_chemical_formula_structural   NbSeCl3
_chemical_formula_sum   'Nb4 Se4 Cl12'
_cell_volume   566.71693496
_cell_formula_units_Z   4
loop_
 _symmetry_equiv_pos_site_id
 _symmetry_equiv_pos_as_xyz
  1  'x, y, z'
loop_
 _atom_site_type_symbol
 _atom_site_label
 _atom_site_symmetry_multiplicity
 _atom_site_fract_x
 _atom_site_fract_y
 _atom_site_fract_z
 _atom_site_occupancy
  Nb  Nb0  1  0.928048  0.637953  0.353804  1
  Nb  Nb1  1  0.928048  0.362047  0.853804  1
  Nb  Nb2  1  0.071952  0.637953  0.146196  1
  Nb  Nb3  1  0.071952  0.362047  0.646196  1
  Se  Se4  1  0.837972  0.908755  0.198715  1
  Se  Se5  1  0.162028  0.908755  0.301285  1
  Se  Se6  1  0.837972  0.091245  0.698715  1
  Se  Se7  1  0.162028  0.091245  0.801285  1
  Cl  Cl8  1  0.348858  0.776055  0.072172  1
  Cl  Cl9  1  0.348858  0.223945  0.572172  1
  Cl  Cl10  1  0.764148  0.550877  0.698116  1
  Cl  Cl11  1  0.852295  0.330298  0.459094  1
  Cl  Cl12  1  0.764148  0.449123  0.198116  1
  Cl  Cl13  1  0.651142  0.223945  0.927828  1
  Cl  Cl14  1  0.147705  0.330298  0.040906  1
  Cl  Cl15  1  0.235852  0.550877  0.801884  1
  Cl  Cl16  1  0.147705  0.669702  0.540906  1
  Cl  Cl17  1  0.235852  0.449123  0.301884  1
  Cl  Cl18  1  0.651142  0.776055  0.427828  1
  Cl  Cl19  1  0.852295  0.669702  0.959094  1
