# generated using pymatgen
data_CrFe(BiO3)2
_symmetry_space_group_name_H-M   'P 1'
_cell_length_a   5.65834367
_cell_length_b   5.65834367
_cell_length_c   5.65834367
_cell_angle_alpha   59.47507548
_cell_angle_beta   59.47507548
_cell_angle_gamma   59.47507548
_symmetry_Int_Tables_number   1
_chemical_formula_structural   CrFe(BiO3)2
_chemical_formula_sum   'Cr1 Fe1 Bi2 O6'
_cell_volume   126.57160475
_cell_formula_units_Z   1
loop_
 _symmetry_equiv_pos_site_id
 _symmetry_equiv_pos_as_xyz
  1  'x, y, z'
loop_
 _atom_site_type_symbol
 _atom_site_label
 _atom_site_symmetry_multiplicity
 _atom_site_fract_x
 _atom_site_fract_y
 _atom_site_fract_z
 _atom_site_occupancy
  Cr  Cr0  1  0.774871  0.774871  0.774871  1
  Fe  Fe1  1  0.270373  0.270373  0.270373  1
  Bi  Bi2  1  0.492850  0.492850  0.492850  1
  Bi  Bi3  1  0.995911  0.995911  0.995911  1
  O  O4  1  0.451374  0.052966  0.602869  1
  O  O5  1  0.602869  0.451374  0.052966  1
  O  O6  1  0.551975  0.953254  0.099574  1
  O  O7  1  0.099574  0.551975  0.953254  1
  O  O8  1  0.052966  0.602869  0.451374  1
  O  O9  1  0.953254  0.099574  0.551975  1
