# generated using pymatgen
data_Ni2Sn4Au
_symmetry_space_group_name_H-M   'P 1'
_cell_length_a   9.33392826
_cell_length_b   9.33392826
_cell_length_c   9.33392826
_cell_angle_alpha   26.51057236
_cell_angle_beta   26.51057236
_cell_angle_gamma   26.51057236
_symmetry_Int_Tables_number   1
_chemical_formula_structural   Ni2Sn4Au
_chemical_formula_sum   'Ni2 Sn4 Au1'
_cell_volume   142.81486161
_cell_formula_units_Z   1
loop_
 _symmetry_equiv_pos_site_id
 _symmetry_equiv_pos_as_xyz
  1  'x, y, z'
loop_
 _atom_site_type_symbol
 _atom_site_label
 _atom_site_symmetry_multiplicity
 _atom_site_fract_x
 _atom_site_fract_y
 _atom_site_fract_z
 _atom_site_occupancy
  Ni  Ni0  1  0.400582  0.400582  0.400582  1
  Ni  Ni1  1  0.599418  0.599418  0.599418  1
  Sn  Sn2  1  0.299689  0.299689  0.299689  1
  Sn  Sn3  1  0.111423  0.111423  0.111423  1
  Sn  Sn4  1  0.700311  0.700311  0.700311  1
  Sn  Sn5  1  0.888577  0.888577  0.888577  1
  Au  Au6  1  0.500000  0.500000  0.500000  1
