# generated using pymatgen
data_LaSO
_symmetry_space_group_name_H-M   'P 1'
_cell_length_a   5.94638191
_cell_length_b   5.95036759
_cell_length_c   13.33152985
_cell_angle_alpha   90.00000000
_cell_angle_beta   90.00000000
_cell_angle_gamma   90.00000000
_symmetry_Int_Tables_number   1
_chemical_formula_structural   LaSO
_chemical_formula_sum   'La8 S8 O8'
_cell_volume   471.71162966
_cell_formula_units_Z   8
loop_
 _symmetry_equiv_pos_site_id
 _symmetry_equiv_pos_as_xyz
  1  'x, y, z'
loop_
 _atom_site_type_symbol
 _atom_site_label
 _atom_site_symmetry_multiplicity
 _atom_site_fract_x
 _atom_site_fract_y
 _atom_site_fract_z
 _atom_site_occupancy
  La  La0  1  0.498491  0.250051  0.088851  1
  La  La1  1  0.501509  0.749949  0.588851  1
  La  La2  1  0.001509  0.250051  0.911149  1
  La  La3  1  0.001509  0.250051  0.588851  1
  La  La4  1  0.498491  0.250051  0.411149  1
  La  La5  1  0.501509  0.749949  0.911149  1
  La  La6  1  0.998491  0.749949  0.411149  1
  La  La7  1  0.998491  0.749949  0.088851  1
  S  S8  1  0.881761  0.625485  0.750000  1
  S  S9  1  0.132803  0.876138  0.750000  1
  S  S10  1  0.618239  0.625485  0.250000  1
  S  S11  1  0.367197  0.876138  0.250000  1
  S  S12  1  0.632803  0.123862  0.750000  1
  S  S13  1  0.867197  0.123862  0.250000  1
  S  S14  1  0.118239  0.374515  0.250000  1
  S  S15  1  0.381761  0.374515  0.750000  1
  O  O16  1  0.250000  0.004892  0.000000  1
  O  O17  1  0.750000  0.995108  0.500000  1
  O  O18  1  0.250000  0.004892  0.500000  1
  O  O19  1  0.750000  0.494449  0.000000  1
  O  O20  1  0.250000  0.505551  0.500000  1
  O  O21  1  0.750000  0.494449  0.500000  1
  O  O22  1  0.750000  0.995108  0.000000  1
  O  O23  1  0.250000  0.505551  0.000000  1
