# generated using pymatgen
data_Ag3BiO3
_symmetry_space_group_name_H-M   'P 1'
_cell_length_a   11.15525521
_cell_length_b   11.15525521
_cell_length_c   11.15525521
_cell_angle_alpha   99.17646514
_cell_angle_beta   99.17646514
_cell_angle_gamma   132.92563920
_symmetry_Int_Tables_number   1
_chemical_formula_structural   Ag3BiO3
_chemical_formula_sum   'Ag24 Bi8 O24'
_cell_volume   931.89301600
_cell_formula_units_Z   8
loop_
 _symmetry_equiv_pos_site_id
 _symmetry_equiv_pos_as_xyz
  1  'x, y, z'
loop_
 _atom_site_type_symbol
 _atom_site_label
 _atom_site_symmetry_multiplicity
 _atom_site_fract_x
 _atom_site_fract_y
 _atom_site_fract_z
 _atom_site_occupancy
  Ag  Ag0  1  0.921537  0.486157  0.135061  1
  Ag  Ag1  1  0.691735  0.046823  0.537739  1
  Ag  Ag2  1  0.967597  0.489975  0.644579  1
  Ag  Ag3  1  0.316791  0.266497  0.345467  1
  Ag  Ag4  1  0.134308  0.405114  0.272435  1
  Ag  Ag5  1  0.351095  0.786476  0.864939  1
  Ag  Ag6  1  0.739975  0.595396  0.022378  1
  Ag  Ag7  1  0.178777  0.744127  0.386335  1
  Ag  Ag8  1  0.573018  0.717597  0.977622  1
  Ag  Ag9  1  0.221324  0.066791  0.550294  1
  Ag  Ag10  1  0.655114  0.882679  0.770806  1
  Ag  Ag11  1  0.042442  0.928777  0.934649  1
  Ag  Ag12  1  0.845396  0.323018  0.355421  1
  Ag  Ag13  1  0.357793  0.792442  0.613665  1
  Ag  Ag14  1  0.111873  0.884308  0.229194  1
  Ag  Ag15  1  0.403997  0.441735  0.144912  1
  Ag  Ag16  1  0.736157  0.101095  0.064619  1
  Ag  Ag17  1  0.509084  0.153997  0.462261  1
  Ag  Ag18  1  0.132679  0.861873  0.727565  1
  Ag  Ag19  1  0.296823  0.259084  0.855088  1
  Ag  Ag20  1  0.921030  0.971324  0.654533  1
  Ag  Ag21  1  0.036476  0.671537  0.935381  1
  Ag  Ag22  1  0.516497  0.671030  0.449706  1
  Ag  Ag23  1  0.994127  0.107793  0.065351  1
  Bi  Bi24  1  0.405413  0.784406  0.181491  1
  Bi  Bi25  1  0.853290  0.982099  0.326449  1
  Bi  Bi26  1  0.473922  0.155413  0.121007  1
  Bi  Bi27  1  0.232099  0.405651  0.628810  1
  Bi  Bi28  1  0.776841  0.603290  0.371190  1
  Bi  Bi29  1  0.655651  0.526841  0.673551  1
  Bi  Bi30  1  0.034406  0.352916  0.878993  1
  Bi  Bi31  1  0.602916  0.223922  0.818509  1
  O  O32  1  0.723872  0.472668  0.159126  1
  O  O33  1  0.129694  0.260089  0.386355  1
  O  O34  1  0.128237  0.509373  0.124574  1
  O  O35  1  0.517863  0.282233  0.328849  1
  O  O36  1  0.993339  0.879694  0.369606  1
  O  O37  1  0.309553  0.182585  0.054579  1
  O  O38  1  0.532233  0.703384  0.264370  1
  O  O39  1  0.814746  0.473872  0.751204  1
  O  O40  1  0.873734  0.743339  0.613645  1
  O  O41  1  0.384799  0.003663  0.875426  1
  O  O42  1  0.722668  0.063542  0.248796  1
  O  O43  1  0.830761  0.895701  0.133742  1
  O  O44  1  0.145701  0.511959  0.564941  1
  O  O45  1  0.510089  0.623734  0.630394  1
  O  O46  1  0.432585  0.878006  0.373032  1
  O  O47  1  0.953384  0.189013  0.671151  1
  O  O48  1  0.504974  0.059553  0.626968  1
  O  O49  1  0.439013  0.267862  0.735629  1
  O  O50  1  0.947019  0.580761  0.435059  1
  O  O51  1  0.313542  0.564746  0.840874  1
  O  O52  1  0.761959  0.697019  0.866258  1
  O  O53  1  0.128006  0.254974  0.945421  1
  O  O54  1  0.759373  0.134799  0.881136  1
  O  O55  1  0.253663  0.878237  0.118864  1
