# generated using pymatgen
data_K2TiOF4
_symmetry_space_group_name_H-M   'P 1'
_cell_length_a   7.49156614
_cell_length_b   13.11922627
_cell_length_c   20.41117924
_cell_angle_alpha   90.00000000
_cell_angle_beta   90.00000000
_cell_angle_gamma   90.00000000
_symmetry_Int_Tables_number   1
_chemical_formula_structural   K2TiOF4
_chemical_formula_sum   'K32 Ti16 O16 F64'
_cell_volume   2006.08318208
_cell_formula_units_Z   16
loop_
 _symmetry_equiv_pos_site_id
 _symmetry_equiv_pos_as_xyz
  1  'x, y, z'
loop_
 _atom_site_type_symbol
 _atom_site_label
 _atom_site_symmetry_multiplicity
 _atom_site_fract_x
 _atom_site_fract_y
 _atom_site_fract_z
 _atom_site_occupancy
  K  K0  1  0.672235  0.016112  0.493325  1
  K  K1  1  0.672235  0.483888  0.993325  1
  K  K2  1  0.667806  0.205694  0.749434  1
  K  K3  1  0.532197  0.546355  0.332994  1
  K  K4  1  0.656900  0.483822  0.505402  1
  K  K5  1  0.799207  0.958514  0.664918  1
  K  K6  1  0.166986  0.171854  0.751061  1
  K  K7  1  0.522431  0.763714  0.081299  1
  K  K8  1  0.156900  0.516178  0.494598  1
  K  K9  1  0.172235  0.516112  0.006675  1
  K  K10  1  0.808556  0.767505  0.416672  1
  K  K11  1  0.022431  0.263714  0.418701  1
  K  K12  1  0.522431  0.736286  0.581299  1
  K  K13  1  0.799207  0.541486  0.164918  1
  K  K14  1  0.167806  0.705694  0.750566  1
  K  K15  1  0.532197  0.953645  0.832994  1
  K  K16  1  0.167806  0.794306  0.250566  1
  K  K17  1  0.308556  0.267505  0.083328  1
  K  K18  1  0.172235  0.983888  0.506675  1
  K  K19  1  0.308556  0.232495  0.583328  1
  K  K20  1  0.808556  0.732495  0.916672  1
  K  K21  1  0.032197  0.453645  0.667006  1
  K  K22  1  0.156900  0.983822  0.994598  1
  K  K23  1  0.656900  0.016178  0.005402  1
  K  K24  1  0.666986  0.671854  0.748939  1
  K  K25  1  0.299207  0.041486  0.335082  1
  K  K26  1  0.666986  0.828146  0.248939  1
  K  K27  1  0.667806  0.294306  0.249434  1
  K  K28  1  0.022431  0.236286  0.918701  1
  K  K29  1  0.166986  0.328146  0.251061  1
  K  K30  1  0.299207  0.458514  0.835082  1
  K  K31  1  0.032197  0.046355  0.167006  1
  Ti  Ti32  1  0.801664  0.064517  0.325973  1
  Ti  Ti33  1  0.301664  0.935483  0.674027  1
  Ti  Ti34  1  0.521381  0.244578  0.423810  1
  Ti  Ti35  1  0.528463  0.063487  0.172835  1
  Ti  Ti36  1  0.528463  0.436513  0.672835  1
  Ti  Ti37  1  0.021381  0.755422  0.576190  1
  Ti  Ti38  1  0.804304  0.254720  0.575153  1
  Ti  Ti39  1  0.028463  0.563487  0.327165  1
  Ti  Ti40  1  0.304304  0.745280  0.424847  1
  Ti  Ti41  1  0.301664  0.564517  0.174027  1
  Ti  Ti42  1  0.021381  0.744578  0.076190  1
  Ti  Ti43  1  0.804304  0.245280  0.075153  1
  Ti  Ti44  1  0.304304  0.754720  0.924847  1
  Ti  Ti45  1  0.801664  0.435483  0.825973  1
  Ti  Ti46  1  0.028463  0.936513  0.827165  1
  Ti  Ti47  1  0.521381  0.255422  0.923810  1
  O  O48  1  0.158974  0.844824  0.877917  1
  O  O49  1  0.665500  0.155998  0.374487  1
  O  O50  1  0.665500  0.344002  0.874487  1
  O  O51  1  0.669042  0.427663  0.748308  1
  O  O52  1  0.667347  0.250035  0.498242  1
  O  O53  1  0.167347  0.750035  0.001758  1
  O  O54  1  0.169042  0.572337  0.251692  1
  O  O55  1  0.669042  0.072337  0.248308  1
  O  O56  1  0.658974  0.155176  0.122083  1
  O  O57  1  0.165500  0.844002  0.625513  1
  O  O58  1  0.667347  0.249965  0.998242  1
  O  O59  1  0.169042  0.927663  0.751692  1
  O  O60  1  0.167347  0.749965  0.501758  1
  O  O61  1  0.158974  0.655176  0.377917  1
  O  O62  1  0.165500  0.655998  0.125513  1
  O  O63  1  0.658974  0.344824  0.622083  1
  F  F64  1  0.355257  0.048735  0.099907  1
  F  F65  1  0.874317  0.039191  0.780146  1
  F  F66  1  0.855257  0.548735  0.400093  1
  F  F67  1  0.153763  0.051397  0.862468  1
  F  F68  1  0.468474  0.949676  0.599035  1
  F  F69  1  0.885857  0.872264  0.539298  1
  F  F70  1  0.464780  0.671302  0.203714  1
  F  F71  1  0.446344  0.630296  0.460171  1
  F  F72  1  0.374317  0.960809  0.219854  1
  F  F73  1  0.690679  0.361744  0.112043  1
  F  F74  1  0.867038  0.829364  0.796063  1
  F  F75  1  0.190679  0.861744  0.387957  1
  F  F76  1  0.342706  0.258550  0.852517  1
  F  F77  1  0.845997  0.832175  0.030865  1
  F  F78  1  0.842706  0.758550  0.647483  1
  F  F79  1  0.964780  0.171302  0.296286  1
  F  F80  1  0.374317  0.539191  0.719854  1
  F  F81  1  0.946344  0.130296  0.039829  1
  F  F82  1  0.622577  0.362877  0.384937  1
  F  F83  1  0.474283  0.754336  0.850438  1
  F  F84  1  0.673606  0.949385  0.359721  1
  F  F85  1  0.481411  0.836174  0.466644  1
  F  F86  1  0.845997  0.667825  0.530865  1
  F  F87  1  0.981411  0.163826  0.533356  1
  F  F88  1  0.190679  0.638256  0.887957  1
  F  F89  1  0.385857  0.127736  0.460702  1
  F  F90  1  0.173606  0.050615  0.640279  1
  F  F91  1  0.446344  0.869704  0.960171  1
  F  F92  1  0.960919  0.538329  0.781105  1
  F  F93  1  0.946344  0.369704  0.539829  1
  F  F94  1  0.460919  0.038329  0.718895  1
  F  F95  1  0.974283  0.245664  0.149562  1
  F  F96  1  0.367038  0.170636  0.203937  1
  F  F97  1  0.173606  0.449385  0.140279  1
  F  F98  1  0.474283  0.745664  0.350438  1
  F  F99  1  0.345997  0.332175  0.469135  1
  F  F100  1  0.653763  0.551397  0.637532  1
  F  F101  1  0.468474  0.550324  0.099035  1
  F  F102  1  0.653763  0.948603  0.137532  1
  F  F103  1  0.367038  0.329364  0.703937  1
  F  F104  1  0.345997  0.167825  0.969135  1
  F  F105  1  0.867038  0.670636  0.296063  1
  F  F106  1  0.974283  0.254336  0.649562  1
  F  F107  1  0.960919  0.961671  0.281105  1
  F  F108  1  0.460919  0.461671  0.218895  1
  F  F109  1  0.855257  0.951265  0.900093  1
  F  F110  1  0.481411  0.663826  0.966644  1
  F  F111  1  0.122577  0.862877  0.115063  1
  F  F112  1  0.153763  0.448603  0.362468  1
  F  F113  1  0.842706  0.741450  0.147483  1
  F  F114  1  0.981411  0.336174  0.033356  1
  F  F115  1  0.622577  0.137123  0.884937  1
  F  F116  1  0.964780  0.328698  0.796286  1
  F  F117  1  0.342706  0.241450  0.352517  1
  F  F118  1  0.122577  0.637123  0.615063  1
  F  F119  1  0.968474  0.050324  0.400965  1
  F  F120  1  0.673606  0.550615  0.859721  1
  F  F121  1  0.464780  0.828698  0.703714  1
  F  F122  1  0.690679  0.138256  0.612043  1
  F  F123  1  0.355257  0.451265  0.599907  1
  F  F124  1  0.968474  0.449676  0.900965  1
  F  F125  1  0.874317  0.460809  0.280146  1
  F  F126  1  0.385857  0.372264  0.960702  1
  F  F127  1  0.885857  0.627736  0.039298  1
