# generated using pymatgen
data_Ba2SnS4
_symmetry_space_group_name_H-M   'P 1'
_cell_length_a   7.51816062
_cell_length_b   12.82133858
_cell_length_c   18.07472590
_cell_angle_alpha   90.00000000
_cell_angle_beta   90.00000000
_cell_angle_gamma   90.00000000
_symmetry_Int_Tables_number   1
_chemical_formula_structural   Ba2SnS4
_chemical_formula_sum   'Ba16 Sn8 S32'
_cell_volume   1742.27493546
_cell_formula_units_Z   8
loop_
 _symmetry_equiv_pos_site_id
 _symmetry_equiv_pos_as_xyz
  1  'x, y, z'
loop_
 _atom_site_type_symbol
 _atom_site_label
 _atom_site_symmetry_multiplicity
 _atom_site_fract_x
 _atom_site_fract_y
 _atom_site_fract_z
 _atom_site_occupancy
  Ba  Ba0  1  0.717498  0.001483  0.626209  1
  Ba  Ba1  1  0.282502  0.501483  0.373791  1
  Ba  Ba2  1  0.782502  0.001483  0.126209  1
  Ba  Ba3  1  0.217498  0.501483  0.873791  1
  Ba  Ba4  1  0.698229  0.878371  0.874899  1
  Ba  Ba5  1  0.301771  0.378371  0.125101  1
  Ba  Ba6  1  0.801771  0.878371  0.374899  1
  Ba  Ba7  1  0.198229  0.378371  0.625101  1
  Ba  Ba8  1  0.698921  0.614761  0.688284  1
  Ba  Ba9  1  0.301079  0.114761  0.311716  1
  Ba  Ba10  1  0.801079  0.614761  0.188284  1
  Ba  Ba11  1  0.198921  0.114761  0.811716  1
  Ba  Ba12  1  0.725426  0.261315  0.944591  1
  Ba  Ba13  1  0.274574  0.761315  0.055409  1
  Ba  Ba14  1  0.774574  0.261315  0.444591  1
  Ba  Ba15  1  0.225426  0.761315  0.555409  1
  Sn  Sn16  1  0.771076  0.608123  0.975856  1
  Sn  Sn17  1  0.228924  0.108123  0.024144  1
  Sn  Sn18  1  0.728924  0.608123  0.475856  1
  Sn  Sn19  1  0.271076  0.108123  0.524144  1
  Sn  Sn20  1  0.715157  0.272698  0.733541  1
  Sn  Sn21  1  0.284843  0.772698  0.266459  1
  Sn  Sn22  1  0.784843  0.272698  0.233541  1
  Sn  Sn23  1  0.215157  0.772698  0.766459  1
  S  S24  1  0.999969  0.909369  0.751423  1
  S  S25  1  0.000031  0.409369  0.248577  1
  S  S26  1  0.500031  0.909369  0.251423  1
  S  S27  1  0.499969  0.409369  0.748577  1
  S  S28  1  0.960210  0.483177  0.492542  1
  S  S29  1  0.039790  0.983177  0.507458  1
  S  S30  1  0.539790  0.483177  0.992542  1
  S  S31  1  0.460210  0.983177  0.007458  1
  S  S32  1  0.981992  0.325125  0.800809  1
  S  S33  1  0.018008  0.825125  0.199191  1
  S  S34  1  0.518008  0.325125  0.300809  1
  S  S35  1  0.481992  0.825125  0.699191  1
  S  S36  1  0.960685  0.044907  0.963152  1
  S  S37  1  0.039315  0.544907  0.036848  1
  S  S38  1  0.539315  0.044907  0.463152  1
  S  S39  1  0.460685  0.544907  0.536848  1
  S  S40  1  0.854399  0.647695  0.851480  1
  S  S41  1  0.145601  0.147695  0.148520  1
  S  S42  1  0.645601  0.647695  0.351480  1
  S  S43  1  0.354399  0.147695  0.648520  1
  S  S44  1  0.840703  0.236385  0.614817  1
  S  S45  1  0.159297  0.736385  0.385183  1
  S  S46  1  0.659297  0.236385  0.114817  1
  S  S47  1  0.340703  0.736385  0.885183  1
  S  S48  1  0.797189  0.767264  0.542546  1
  S  S49  1  0.202811  0.267264  0.457454  1
  S  S50  1  0.702811  0.767264  0.042546  1
  S  S51  1  0.297189  0.267264  0.957454  1
  S  S52  1  0.633624  0.115126  0.801290  1
  S  S53  1  0.366376  0.615126  0.198710  1
  S  S54  1  0.866376  0.115126  0.301290  1
  S  S55  1  0.133624  0.615126  0.698710  1
