# generated using pymatgen
data_Na4Th(MoO4)4
_symmetry_space_group_name_H-M   'P 1'
_cell_length_a   10.18177082
_cell_length_b   10.18177082
_cell_length_c   10.18177082
_cell_angle_alpha   110.81801892
_cell_angle_beta   110.81801892
_cell_angle_gamma   106.80995501
_symmetry_Int_Tables_number   1
_chemical_formula_structural   Na4Th(MoO4)4
_chemical_formula_sum   'Na8 Th2 Mo8 O32'
_cell_volume   811.23915048
_cell_formula_units_Z   2
loop_
 _symmetry_equiv_pos_site_id
 _symmetry_equiv_pos_as_xyz
  1  'x, y, z'
loop_
 _atom_site_type_symbol
 _atom_site_label
 _atom_site_symmetry_multiplicity
 _atom_site_fract_x
 _atom_site_fract_y
 _atom_site_fract_z
 _atom_site_occupancy
  Na  Na0  1  0.504296  0.400262  0.340850  1
  Na  Na1  1  0.150262  0.309412  0.395966  1
  Na  Na2  1  0.690588  0.086554  0.840850  1
  Na  Na3  1  0.913446  0.754296  0.604034  1
  Na  Na4  1  0.245704  0.849738  0.159150  1
  Na  Na5  1  0.599738  0.940588  0.104034  1
  Na  Na6  1  0.059412  0.163446  0.659150  1
  Na  Na7  1  0.836554  0.495704  0.895966  1
  Th  Th8  1  0.500000  0.500000  0.000000  1
  Th  Th9  1  0.250000  0.750000  0.500000  1
  Mo  Mo10  1  0.935566  0.847780  0.270161  1
  Mo  Mo11  1  0.172382  0.584596  0.770161  1
  Mo  Mo12  1  0.577618  0.665404  0.729839  1
  Mo  Mo13  1  0.152220  0.422382  0.087786  1
  Mo  Mo14  1  0.814434  0.402220  0.229839  1
  Mo  Mo15  1  0.334595  0.064434  0.912214  1
  Mo  Mo16  1  0.415404  0.185566  0.587786  1
  Mo  Mo17  1  0.597780  0.827618  0.412214  1
  O  O18  1  0.534080  0.919237  0.302622  1
  O  O19  1  0.680912  0.645703  0.621860  1
  O  O20  1  0.151479  0.703603  0.672612  1
  O  O21  1  0.740314  0.472571  0.088659  1
  O  O22  1  0.401655  0.990314  0.767744  1
  O  O23  1  0.228867  0.401479  0.947876  1
  O  O24  1  0.981458  0.784080  0.114843  1
  O  O25  1  0.616616  0.231458  0.697378  1
  O  O26  1  0.726157  0.190948  0.121860  1
  O  O27  1  0.598521  0.546397  0.827388  1
  O  O28  1  0.521133  0.848521  0.552124  1
  O  O29  1  0.030991  0.478867  0.327388  1
  O  O30  1  0.719009  0.771133  0.172612  1
  O  O31  1  0.296397  0.969009  0.447876  1
  O  O32  1  0.768542  0.465920  0.385157  1
  O  O33  1  0.080763  0.383384  0.614843  1
  O  O34  1  0.222571  0.633912  0.232256  1
  O  O35  1  0.069088  0.604297  0.878140  1
  O  O36  1  0.940948  0.319088  0.964791  1
  O  O37  1  0.215920  0.330763  0.197378  1
  O  O38  1  0.023843  0.059052  0.378140  1
  O  O39  1  0.669237  0.866616  0.885157  1
  O  O40  1  0.348345  0.259686  0.732256  1
  O  O41  1  0.809052  0.930912  0.535209  1
  O  O42  1  0.527429  0.616088  0.267744  1
  O  O43  1  0.453603  0.280991  0.052124  1
  O  O44  1  0.395703  0.273843  0.464791  1
  O  O45  1  0.354297  0.976157  0.035209  1
  O  O46  1  0.383912  0.651655  0.911341  1
  O  O47  1  0.366088  0.598345  0.588659  1
  O  O48  1  0.009686  0.777429  0.411341  1
  O  O49  1  0.133384  0.018542  0.802622  1
