# generated using pymatgen
data_Tl2HgGeTe4
_symmetry_space_group_name_H-M   'P 1'
_cell_length_a   7.06736258
_cell_length_b   7.06736258
_cell_length_c   7.06736258
_cell_angle_alpha   105.06986026
_cell_angle_beta   105.06986026
_cell_angle_gamma   118.68584644
_symmetry_Int_Tables_number   1
_chemical_formula_structural   Tl2HgGeTe4
_chemical_formula_sum   'Tl2 Hg1 Ge1 Te4'
_cell_volume   266.39106970
_cell_formula_units_Z   1
loop_
 _symmetry_equiv_pos_site_id
 _symmetry_equiv_pos_as_xyz
  1  'x, y, z'
loop_
 _atom_site_type_symbol
 _atom_site_label
 _atom_site_symmetry_multiplicity
 _atom_site_fract_x
 _atom_site_fract_y
 _atom_site_fract_z
 _atom_site_occupancy
  Tl  Tl0  1  0.500000  0.000000  0.500000  1
  Tl  Tl1  1  1.000000  0.500000  0.500000  1
  Hg  Hg2  1  0.500000  0.500000  0.000000  1
  Ge  Ge3  1  0.000000  0.000000  0.000000  1
  Te  Te4  1  0.602976  0.951698  0.000000  1
  Te  Te5  1  0.397024  0.397024  0.348723  1
  Te  Te6  1  0.048302  0.048302  0.651277  1
  Te  Te7  1  0.951698  0.602976  1.000000  1
