# generated using pymatgen
data_KClO3
_symmetry_space_group_name_H-M   'P 1'
_cell_length_a   4.73665857
_cell_length_b   5.71955706
_cell_length_c   13.66505079
_cell_angle_alpha   90.00000000
_cell_angle_beta   90.00000000
_cell_angle_gamma   90.00000000
_symmetry_Int_Tables_number   1
_chemical_formula_structural   KClO3
_chemical_formula_sum   'K4 Cl4 O12'
_cell_volume   370.20793919
_cell_formula_units_Z   4
loop_
 _symmetry_equiv_pos_site_id
 _symmetry_equiv_pos_as_xyz
  1  'x, y, z'
loop_
 _atom_site_type_symbol
 _atom_site_label
 _atom_site_symmetry_multiplicity
 _atom_site_fract_x
 _atom_site_fract_y
 _atom_site_fract_z
 _atom_site_occupancy
  K  K0  1  0.996419  0.250000  0.353412  1
  K  K1  1  0.003581  0.750000  0.646588  1
  K  K2  1  0.496419  0.750000  0.146588  1
  K  K3  1  0.503581  0.250000  0.853412  1
  Cl  Cl4  1  0.534315  0.750000  0.413044  1
  Cl  Cl5  1  0.965685  0.750000  0.913044  1
  Cl  Cl6  1  0.034315  0.250000  0.086956  1
  Cl  Cl7  1  0.465685  0.250000  0.586956  1
  O  O8  1  0.006576  0.538345  0.848756  1
  O  O9  1  0.493424  0.538345  0.348756  1
  O  O10  1  0.161397  0.250000  0.555432  1
  O  O11  1  0.006576  0.961655  0.848756  1
  O  O12  1  0.838603  0.750000  0.444568  1
  O  O13  1  0.506576  0.038345  0.651244  1
  O  O14  1  0.338603  0.250000  0.055432  1
  O  O15  1  0.993424  0.038345  0.151244  1
  O  O16  1  0.661397  0.750000  0.944568  1
  O  O17  1  0.506576  0.461655  0.651244  1
  O  O18  1  0.493424  0.961655  0.348756  1
  O  O19  1  0.993424  0.461655  0.151244  1
