# generated using pymatgen
data_Tl3(FeS2)2
_symmetry_space_group_name_H-M   'P 1'
_cell_length_a   7.48230117
_cell_length_b   10.64281473
_cell_length_c   11.30913675
_cell_angle_alpha   90.00000000
_cell_angle_beta   90.00000000
_cell_angle_gamma   90.00000000
_symmetry_Int_Tables_number   1
_chemical_formula_structural   Tl3(FeS2)2
_chemical_formula_sum   'Tl12 Fe8 S16'
_cell_volume   900.57760419
_cell_formula_units_Z   4
loop_
 _symmetry_equiv_pos_site_id
 _symmetry_equiv_pos_as_xyz
  1  'x, y, z'
loop_
 _atom_site_type_symbol
 _atom_site_label
 _atom_site_symmetry_multiplicity
 _atom_site_fract_x
 _atom_site_fract_y
 _atom_site_fract_z
 _atom_site_occupancy
  Tl  Tl0  1  0.451940  0.077056  0.637322  1
  Tl  Tl1  1  0.451940  0.422944  0.637322  1
  Tl  Tl2  1  0.910594  0.250000  0.225112  1
  Tl  Tl3  1  0.410594  0.250000  0.274888  1
  Tl  Tl4  1  0.951940  0.077056  0.862678  1
  Tl  Tl5  1  0.089406  0.750000  0.774888  1
  Tl  Tl6  1  0.951940  0.422944  0.862678  1
  Tl  Tl7  1  0.048060  0.577056  0.137322  1
  Tl  Tl8  1  0.589406  0.750000  0.725112  1
  Tl  Tl9  1  0.048060  0.922944  0.137322  1
  Tl  Tl10  1  0.548060  0.922944  0.362678  1
  Tl  Tl11  1  0.548060  0.577056  0.362678  1
  Fe  Fe12  1  0.033562  0.872754  0.467334  1
  Fe  Fe13  1  0.466438  0.372754  0.967334  1
  Fe  Fe14  1  0.966438  0.372754  0.532666  1
  Fe  Fe15  1  0.033562  0.627246  0.467334  1
  Fe  Fe16  1  0.533562  0.627246  0.032666  1
  Fe  Fe17  1  0.966438  0.127246  0.532666  1
  Fe  Fe18  1  0.533562  0.872754  0.032666  1
  Fe  Fe19  1  0.466438  0.127246  0.967334  1
  S  S20  1  0.765676  0.750000  0.973498  1
  S  S21  1  0.234324  0.250000  0.026502  1
  S  S22  1  0.134624  0.448777  0.382925  1
  S  S23  1  0.384354  0.750000  0.166093  1
  S  S24  1  0.634624  0.448777  0.117075  1
  S  S25  1  0.615646  0.250000  0.833907  1
  S  S26  1  0.884354  0.750000  0.333907  1
  S  S27  1  0.115646  0.250000  0.666093  1
  S  S28  1  0.734324  0.250000  0.473498  1
  S  S29  1  0.365376  0.948777  0.882925  1
  S  S30  1  0.365376  0.551223  0.882925  1
  S  S31  1  0.865376  0.551223  0.617075  1
  S  S32  1  0.134624  0.051223  0.382925  1
  S  S33  1  0.265676  0.750000  0.526502  1
  S  S34  1  0.865376  0.948777  0.617075  1
  S  S35  1  0.634624  0.051223  0.117075  1
