# generated using pymatgen
data_NaNd4I7N2
_symmetry_space_group_name_H-M   'P 1'
_cell_length_a   11.20904411
_cell_length_b   12.11780998
_cell_length_c   14.48376495
_cell_angle_alpha   90.00000000
_cell_angle_beta   90.00000000
_cell_angle_gamma   90.00000000
_symmetry_Int_Tables_number   1
_chemical_formula_structural   NaNd4I7N2
_chemical_formula_sum   'Na4 Nd16 I28 N8'
_cell_volume   1967.31627376
_cell_formula_units_Z   4
loop_
 _symmetry_equiv_pos_site_id
 _symmetry_equiv_pos_as_xyz
  1  'x, y, z'
loop_
 _atom_site_type_symbol
 _atom_site_label
 _atom_site_symmetry_multiplicity
 _atom_site_fract_x
 _atom_site_fract_y
 _atom_site_fract_z
 _atom_site_occupancy
  Na  Na0  1  0.048755  0.254099  0.902884  1
  Na  Na1  1  0.548755  0.754099  0.597116  1
  Na  Na2  1  0.451245  0.254099  0.402884  1
  Na  Na3  1  0.951245  0.754099  0.097116  1
  Nd  Nd4  1  0.916999  0.325340  0.400001  1
  Nd  Nd5  1  0.121975  0.318393  0.584063  1
  Nd  Nd6  1  0.398348  0.062368  0.913268  1
  Nd  Nd7  1  0.123124  0.583892  0.418290  1
  Nd  Nd8  1  0.378025  0.318393  0.084063  1
  Nd  Nd9  1  0.623124  0.083892  0.081710  1
  Nd  Nd10  1  0.376876  0.583892  0.918290  1
  Nd  Nd11  1  0.621975  0.818393  0.915937  1
  Nd  Nd12  1  0.878025  0.818393  0.415937  1
  Nd  Nd13  1  0.416999  0.825340  0.099999  1
  Nd  Nd14  1  0.083001  0.825340  0.599999  1
  Nd  Nd15  1  0.101652  0.062368  0.413268  1
  Nd  Nd16  1  0.876876  0.083892  0.581710  1
  Nd  Nd17  1  0.583001  0.325340  0.900001  1
  Nd  Nd18  1  0.601652  0.562368  0.086732  1
  Nd  Nd19  1  0.898348  0.562368  0.586732  1
  I  I20  1  0.187113  0.294918  0.295253  1
  I  I21  1  0.652914  0.960616  0.485785  1
  I  I22  1  0.435725  0.037967  0.245487  1
  I  I23  1  0.690217  0.291379  0.522542  1
  I  I24  1  0.809783  0.291379  0.022542  1
  I  I25  1  0.935725  0.537967  0.254513  1
  I  I26  1  0.190217  0.791379  0.977458  1
  I  I27  1  0.152914  0.460616  0.014215  1
  I  I28  1  0.368483  0.598770  0.223916  1
  I  I29  1  0.847086  0.960616  0.985785  1
  I  I30  1  0.868483  0.098770  0.276084  1
  I  I31  1  0.092201  0.837249  0.269668  1
  I  I32  1  0.131517  0.598770  0.723916  1
  I  I33  1  0.347086  0.460616  0.514215  1
  I  I34  1  0.316425  0.115488  0.546892  1
  I  I35  1  0.812887  0.794918  0.704747  1
  I  I36  1  0.631517  0.098770  0.776084  1
  I  I37  1  0.183575  0.115488  0.046892  1
  I  I38  1  0.592201  0.337249  0.230332  1
  I  I39  1  0.312887  0.294918  0.795253  1
  I  I40  1  0.407799  0.837249  0.769668  1
  I  I41  1  0.683575  0.615488  0.453108  1
  I  I42  1  0.687113  0.794918  0.204747  1
  I  I43  1  0.064275  0.037967  0.745487  1
  I  I44  1  0.816425  0.615488  0.953108  1
  I  I45  1  0.309783  0.791379  0.477458  1
  I  I46  1  0.907799  0.337249  0.730332  1
  I  I47  1  0.564275  0.537967  0.754513  1
  N  N48  1  0.995241  0.697110  0.502770  1
  N  N49  1  0.515668  0.947821  0.002995  1
  N  N50  1  0.484332  0.447821  0.997005  1
  N  N51  1  0.504759  0.697110  0.002770  1
  N  N52  1  0.015668  0.447821  0.497005  1
  N  N53  1  0.984332  0.947821  0.502995  1
  N  N54  1  0.004759  0.197110  0.497230  1
  N  N55  1  0.495241  0.197110  0.997230  1
