# generated using pymatgen
data_Cs2CdI4
_symmetry_space_group_name_H-M   'P 1'
_cell_length_a   8.74763242
_cell_length_b   11.09988947
_cell_length_c   15.40484053
_cell_angle_alpha   90.00000000
_cell_angle_beta   90.00000000
_cell_angle_gamma   90.00000000
_symmetry_Int_Tables_number   1
_chemical_formula_structural   Cs2CdI4
_chemical_formula_sum   'Cs8 Cd4 I16'
_cell_volume   1495.77540057
_cell_formula_units_Z   4
loop_
 _symmetry_equiv_pos_site_id
 _symmetry_equiv_pos_as_xyz
  1  'x, y, z'
loop_
 _atom_site_type_symbol
 _atom_site_label
 _atom_site_symmetry_multiplicity
 _atom_site_fract_x
 _atom_site_fract_y
 _atom_site_fract_z
 _atom_site_occupancy
  Cs  Cs0  1  0.250000  0.983799  0.332410  1
  Cs  Cs1  1  0.250000  0.117561  0.898702  1
  Cs  Cs2  1  0.750000  0.882439  0.101298  1
  Cs  Cs3  1  0.250000  0.617561  0.601298  1
  Cs  Cs4  1  0.250000  0.483799  0.167590  1
  Cs  Cs5  1  0.750000  0.016201  0.667590  1
  Cs  Cs6  1  0.750000  0.382439  0.398702  1
  Cs  Cs7  1  0.750000  0.516201  0.832410  1
  Cd  Cd8  1  0.250000  0.224768  0.578840  1
  Cd  Cd9  1  0.250000  0.724768  0.921160  1
  Cd  Cd10  1  0.750000  0.775232  0.421160  1
  Cd  Cd11  1  0.750000  0.275232  0.078840  1
  I  I12  1  0.489054  0.679853  0.338992  1
  I  I13  1  0.989054  0.820147  0.838992  1
  I  I14  1  0.750000  0.676668  0.590500  1
  I  I15  1  0.250000  0.972033  0.587919  1
  I  I16  1  0.010946  0.179853  0.161008  1
  I  I17  1  0.250000  0.323332  0.409500  1
  I  I18  1  0.989054  0.320147  0.661008  1
  I  I19  1  0.750000  0.176668  0.909500  1
  I  I20  1  0.750000  0.527967  0.087919  1
  I  I21  1  0.750000  0.027967  0.412081  1
  I  I22  1  0.010946  0.679853  0.338992  1
  I  I23  1  0.510946  0.820147  0.838992  1
  I  I24  1  0.250000  0.823332  0.090500  1
  I  I25  1  0.510946  0.320147  0.661008  1
  I  I26  1  0.250000  0.472033  0.912081  1
  I  I27  1  0.489054  0.179853  0.161008  1
