# generated using pymatgen
data_K2Ag4Pt3(NO2)12
_symmetry_space_group_name_H-M   'P 1'
_cell_length_a   7.28633229
_cell_length_b   24.14078636
_cell_length_c   9.82806575
_cell_angle_alpha   90.00000000
_cell_angle_beta   127.91696689
_cell_angle_gamma   90.00000000
_symmetry_Int_Tables_number   1
_chemical_formula_structural   K2Ag4Pt3(NO2)12
_chemical_formula_sum   'K4 Ag8 Pt6 N24 O48'
_cell_volume   1363.80278994
_cell_formula_units_Z   2
loop_
 _symmetry_equiv_pos_site_id
 _symmetry_equiv_pos_as_xyz
  1  'x, y, z'
loop_
 _atom_site_type_symbol
 _atom_site_label
 _atom_site_symmetry_multiplicity
 _atom_site_fract_x
 _atom_site_fract_y
 _atom_site_fract_z
 _atom_site_occupancy
  K  K0  1  0.668803  0.634038  0.564230  1
  K  K1  1  0.668803  0.865962  0.064230  1
  K  K2  1  0.331197  0.365962  0.435770  1
  K  K3  1  0.331197  0.134038  0.935770  1
  Ag  Ag4  1  0.234050  0.526161  0.106008  1
  Ag  Ag5  1  0.426648  0.817363  0.316239  1
  Ag  Ag6  1  0.765950  0.473839  0.893992  1
  Ag  Ag7  1  0.573352  0.317363  0.183761  1
  Ag  Ag8  1  0.426648  0.682637  0.816239  1
  Ag  Ag9  1  0.573352  0.182637  0.683761  1
  Ag  Ag10  1  0.765950  0.026161  0.393992  1
  Ag  Ag11  1  0.234050  0.973839  0.606008  1
  Pt  Pt12  1  0.178114  0.323979  0.792936  1
  Pt  Pt13  1  0.000000  0.000000  0.000000  1
  Pt  Pt14  1  0.821886  0.823979  0.707064  1
  Pt  Pt15  1  0.821886  0.676021  0.207064  1
  Pt  Pt16  1  0.000000  0.500000  0.500000  1
  Pt  Pt17  1  0.178114  0.176021  0.292936  1
  N  N18  1  0.927667  0.266500  0.721019  1
  N  N19  1  0.072333  0.766500  0.778981  1
  N  N20  1  0.022940  0.377304  0.857684  1
  N  N21  1  0.332829  0.270483  0.731463  1
  N  N22  1  0.332829  0.229517  0.231463  1
  N  N23  1  0.423869  0.382948  0.855690  1
  N  N24  1  0.213209  0.568020  0.595973  1
  N  N25  1  0.423869  0.117052  0.355690  1
  N  N26  1  0.786791  0.068020  0.904027  1
  N  N27  1  0.213209  0.931980  0.095973  1
  N  N28  1  0.977060  0.622696  0.142316  1
  N  N29  1  0.988595  0.005225  0.786647  1
  N  N30  1  0.072333  0.733500  0.278981  1
  N  N31  1  0.576131  0.617052  0.144310  1
  N  N32  1  0.011405  0.505225  0.713353  1
  N  N33  1  0.022940  0.122696  0.357684  1
  N  N34  1  0.988595  0.494775  0.286647  1
  N  N35  1  0.786791  0.431980  0.404027  1
  N  N36  1  0.977060  0.877304  0.642316  1
  N  N37  1  0.927667  0.233500  0.221019  1
  N  N38  1  0.667171  0.729517  0.268537  1
  N  N39  1  0.576131  0.882948  0.644310  1
  N  N40  1  0.011405  0.994775  0.213353  1
  N  N41  1  0.667171  0.770483  0.768537  1
  O  O42  1  0.162651  0.022239  0.801427  1
  O  O43  1  0.409791  0.410734  0.742221  1
  O  O44  1  0.407054  0.609792  0.988815  1
  O  O45  1  0.407054  0.890208  0.488815  1
  O  O46  1  0.409791  0.089266  0.242221  1
  O  O47  1  0.734246  0.227756  0.078426  1
  O  O48  1  0.592946  0.390208  0.011185  1
  O  O49  1  0.194536  0.492309  0.858473  1
  O  O50  1  0.194536  0.007691  0.358473  1
  O  O51  1  0.416610  0.935181  0.146508  1
  O  O52  1  0.172555  0.897545  0.759794  1
  O  O53  1  0.837349  0.977761  0.198573  1
  O  O54  1  0.299525  0.280894  0.226016  1
  O  O55  1  0.466596  0.288085  0.702520  1
  O  O56  1  0.533404  0.788085  0.797480  1
  O  O57  1  0.734246  0.272244  0.578426  1
  O  O58  1  0.583390  0.435181  0.353492  1
  O  O59  1  0.590209  0.589266  0.257779  1
  O  O60  1  0.700475  0.719106  0.773984  1
  O  O61  1  0.592946  0.109792  0.511185  1
  O  O62  1  0.837349  0.522239  0.698573  1
  O  O63  1  0.172555  0.602455  0.259794  1
  O  O64  1  0.865633  0.387213  0.393201  1
  O  O65  1  0.416610  0.564819  0.646508  1
  O  O66  1  0.700475  0.780894  0.273984  1
  O  O67  1  0.967631  0.273604  0.316888  1
  O  O68  1  0.299525  0.219106  0.726016  1
  O  O69  1  0.875690  0.890602  0.489278  1
  O  O70  1  0.827445  0.397545  0.740206  1
  O  O71  1  0.590209  0.910734  0.757779  1
  O  O72  1  0.827445  0.102455  0.240206  1
  O  O73  1  0.466596  0.211915  0.202520  1
  O  O74  1  0.805464  0.992309  0.641527  1
  O  O75  1  0.124310  0.109398  0.510722  1
  O  O76  1  0.032369  0.773604  0.183112  1
  O  O77  1  0.967631  0.226396  0.816888  1
  O  O78  1  0.583390  0.064819  0.853492  1
  O  O79  1  0.134367  0.887213  0.106799  1
  O  O80  1  0.124310  0.390602  0.010722  1
  O  O81  1  0.134367  0.612787  0.606799  1
  O  O82  1  0.265754  0.772244  0.921574  1
  O  O83  1  0.865633  0.112787  0.893201  1
  O  O84  1  0.533404  0.711915  0.297480  1
  O  O85  1  0.162651  0.477761  0.301427  1
  O  O86  1  0.265754  0.727756  0.421574  1
  O  O87  1  0.805464  0.507691  0.141527  1
  O  O88  1  0.032369  0.726396  0.683112  1
  O  O89  1  0.875690  0.609398  0.989278  1
