# generated using pymatgen
data_Ca5Pb3
_symmetry_space_group_name_H-M   'P 1'
_cell_length_a   16.44440218
_cell_length_b   16.44440218
_cell_length_c   6.91977838
_cell_angle_alpha   90.00000000
_cell_angle_beta   90.00000000
_cell_angle_gamma   120.00000000
_symmetry_Int_Tables_number   1
_chemical_formula_structural   Ca5Pb3
_chemical_formula_sum   'Ca30 Pb18'
_cell_volume   1620.53716999
_cell_formula_units_Z   6
loop_
 _symmetry_equiv_pos_site_id
 _symmetry_equiv_pos_as_xyz
  1  'x, y, z'
loop_
 _atom_site_type_symbol
 _atom_site_label
 _atom_site_symmetry_multiplicity
 _atom_site_fract_x
 _atom_site_fract_y
 _atom_site_fract_z
 _atom_site_occupancy
  Ca  Ca0  1  0.488449  0.244225  0.256851  1
  Ca  Ca1  1  0.089359  0.910641  0.255862  1
  Ca  Ca2  1  0.002303  0.667371  0.009327  1
  Ca  Ca3  1  0.845947  0.422973  0.765601  1
  Ca  Ca4  1  0.244225  0.755775  0.756851  1
  Ca  Ca5  1  0.422973  0.577027  0.265601  1
  Ca  Ca6  1  0.577027  0.154053  0.765601  1
  Ca  Ca7  1  0.667371  0.665068  0.509327  1
  Ca  Ca8  1  0.755775  0.511551  0.256851  1
  Ca  Ca9  1  0.089359  0.178718  0.255862  1
  Ca  Ca10  1  0.244225  0.488449  0.756851  1
  Ca  Ca11  1  0.577027  0.422973  0.765601  1
  Ca  Ca12  1  0.334932  0.332629  0.509327  1
  Ca  Ca13  1  0.002303  0.334932  0.009327  1
  Ca  Ca14  1  0.665068  0.997697  0.009327  1
  Ca  Ca15  1  0.997697  0.665068  0.509327  1
  Ca  Ca16  1  0.422973  0.845947  0.265601  1
  Ca  Ca17  1  0.332629  0.334932  0.009327  1
  Ca  Ca18  1  0.154053  0.577027  0.265601  1
  Ca  Ca19  1  0.821282  0.910641  0.255862  1
  Ca  Ca20  1  0.997697  0.332629  0.509327  1
  Ca  Ca21  1  0.332629  0.997697  0.009327  1
  Ca  Ca22  1  0.910641  0.089359  0.755862  1
  Ca  Ca23  1  0.755775  0.244225  0.256851  1
  Ca  Ca24  1  0.667371  0.002303  0.509327  1
  Ca  Ca25  1  0.910641  0.821282  0.755862  1
  Ca  Ca26  1  0.665068  0.667371  0.009327  1
  Ca  Ca27  1  0.511551  0.755775  0.756851  1
  Ca  Ca28  1  0.178718  0.089359  0.755862  1
  Ca  Ca29  1  0.334932  0.002303  0.509327  1
  Pb  Pb30  1  0.923164  0.461582  0.261983  1
  Pb  Pb31  1  0.128883  0.871117  0.745995  1
  Pb  Pb32  1  0.871117  0.742233  0.245995  1
  Pb  Pb33  1  0.871117  0.128883  0.245995  1
  Pb  Pb34  1  0.204305  0.408609  0.269053  1
  Pb  Pb35  1  0.742233  0.871117  0.745995  1
  Pb  Pb36  1  0.128883  0.257767  0.745995  1
  Pb  Pb37  1  0.204305  0.795695  0.269053  1
  Pb  Pb38  1  0.538418  0.461582  0.261983  1
  Pb  Pb39  1  0.795695  0.204305  0.769053  1
  Pb  Pb40  1  0.076836  0.538418  0.761983  1
  Pb  Pb41  1  0.257767  0.128883  0.245995  1
  Pb  Pb42  1  0.591391  0.795695  0.269053  1
  Pb  Pb43  1  0.795695  0.591391  0.769053  1
  Pb  Pb44  1  0.408609  0.204305  0.769053  1
  Pb  Pb45  1  0.461582  0.538418  0.761983  1
  Pb  Pb46  1  0.538418  0.076836  0.261983  1
  Pb  Pb47  1  0.461582  0.923164  0.761983  1
