# generated using pymatgen
data_Li3TaO4
_symmetry_space_group_name_H-M   'P 1'
_cell_length_a   6.08017695
_cell_length_b   6.05772102
_cell_length_c   12.95621987
_cell_angle_alpha   90.00000000
_cell_angle_beta   103.44460101
_cell_angle_gamma   90.00000000
_symmetry_Int_Tables_number   1
_chemical_formula_structural   Li3TaO4
_chemical_formula_sum   'Li18 Ta6 O24'
_cell_volume   464.12601369
_cell_formula_units_Z   6
loop_
 _symmetry_equiv_pos_site_id
 _symmetry_equiv_pos_as_xyz
  1  'x, y, z'
loop_
 _atom_site_type_symbol
 _atom_site_label
 _atom_site_symmetry_multiplicity
 _atom_site_fract_x
 _atom_site_fract_y
 _atom_site_fract_z
 _atom_site_occupancy
  Li  Li0  1  0.827349  0.122154  0.909200  1
  Li  Li1  1  0.128602  0.624105  0.582955  1
  Li  Li2  1  0.172651  0.877846  0.090800  1
  Li  Li3  1  0.674361  0.625143  0.576427  1
  Li  Li4  1  0.172651  0.122154  0.590800  1
  Li  Li5  1  0.000000  0.611543  0.250000  1
  Li  Li6  1  0.871398  0.375895  0.417045  1
  Li  Li7  1  0.871398  0.624105  0.917045  1
  Li  Li8  1  0.325639  0.625143  0.923573  1
  Li  Li9  1  0.000000  0.164248  0.250000  1
  Li  Li10  1  0.325639  0.374857  0.423573  1
  Li  Li11  1  0.674361  0.374857  0.076427  1
  Li  Li12  1  0.000000  0.388457  0.750000  1
  Li  Li13  1  0.128602  0.375895  0.082955  1
  Li  Li14  1  0.827349  0.877846  0.409200  1
  Li  Li15  1  0.500000  0.877609  0.750000  1
  Li  Li16  1  0.000000  0.835752  0.750000  1
  Li  Li17  1  0.500000  0.122391  0.250000  1
  Ta  Ta18  1  0.302116  0.877309  0.416508  1
  Ta  Ta19  1  0.500000  0.407143  0.750000  1
  Ta  Ta20  1  0.697884  0.122691  0.583492  1
  Ta  Ta21  1  0.302116  0.122691  0.916508  1
  Ta  Ta22  1  0.500000  0.592857  0.250000  1
  Ta  Ta23  1  0.697884  0.877309  0.083492  1
  O  O24  1  0.097951  0.640105  0.420857  1
  O  O25  1  0.434798  0.357621  0.592585  1
  O  O26  1  0.093585  0.886946  0.911762  1
  O  O27  1  0.565202  0.642379  0.407415  1
  O  O28  1  0.271799  0.137441  0.759099  1
  O  O29  1  0.428955  0.887104  0.573920  1
  O  O30  1  0.097951  0.359895  0.920857  1
  O  O31  1  0.565202  0.357621  0.907415  1
  O  O32  1  0.902049  0.640105  0.079143  1
  O  O33  1  0.902049  0.359895  0.579143  1
  O  O34  1  0.260641  0.611598  0.745077  1
  O  O35  1  0.260641  0.388402  0.245077  1
  O  O36  1  0.428955  0.112896  0.073920  1
  O  O37  1  0.728201  0.137441  0.740901  1
  O  O38  1  0.739359  0.611598  0.754923  1
  O  O39  1  0.906415  0.113054  0.088238  1
  O  O40  1  0.271799  0.862559  0.259099  1
  O  O41  1  0.571045  0.887104  0.926080  1
  O  O42  1  0.434798  0.642379  0.092585  1
  O  O43  1  0.093585  0.113054  0.411762  1
  O  O44  1  0.571045  0.112896  0.426080  1
  O  O45  1  0.906415  0.886946  0.588238  1
  O  O46  1  0.739359  0.388402  0.254923  1
  O  O47  1  0.728201  0.862559  0.240901  1
