# generated using pymatgen
data_LiEr(PO3)4
_symmetry_space_group_name_H-M   'P 1'
_cell_length_a   9.01452409
_cell_length_b   9.01452409
_cell_length_c   9.72553978
_cell_angle_alpha   57.78070641
_cell_angle_beta   122.21929359
_cell_angle_gamma   132.96460442
_symmetry_Int_Tables_number   1
_chemical_formula_structural   LiEr(PO3)4
_chemical_formula_sum   'Li2 Er2 P8 O24'
_cell_volume   470.51642848
_cell_formula_units_Z   2
loop_
 _symmetry_equiv_pos_site_id
 _symmetry_equiv_pos_as_xyz
  1  'x, y, z'
loop_
 _atom_site_type_symbol
 _atom_site_label
 _atom_site_symmetry_multiplicity
 _atom_site_fract_x
 _atom_site_fract_y
 _atom_site_fract_z
 _atom_site_occupancy
  Li  Li0  1  0.000000  0.000000  0.000000  1
  Li  Li1  1  0.000000  1.000000  0.500000  1
  Er  Er2  1  0.235293  0.235293  0.750000  1
  Er  Er3  1  0.764707  0.764707  0.250000  1
  P  P4  1  0.317389  0.586532  0.343670  1
  P  P5  1  0.009316  0.307990  0.908601  1
  P  P6  1  0.307990  0.009316  0.591399  1
  P  P7  1  0.586532  0.317389  0.156330  1
  P  P8  1  0.692010  0.990684  0.408601  1
  P  P9  1  0.682611  0.413468  0.656330  1
  P  P10  1  0.413468  0.682611  0.843670  1
  P  P11  1  0.990684  0.692010  0.091399  1
  O  O12  1  0.761240  0.992716  0.294658  1
  O  O13  1  0.152215  0.991807  0.420294  1
  O  O14  1  0.008193  0.847785  0.920294  1
  O  O15  1  0.605784  0.814104  0.962669  1
  O  O16  1  0.347532  0.829312  0.668852  1
  O  O17  1  0.218070  0.539080  0.921848  1
  O  O18  1  0.581659  0.444515  0.205996  1
  O  O19  1  0.991807  0.152215  0.079706  1
  O  O20  1  0.394216  0.185896  0.037331  1
  O  O21  1  0.238760  0.007284  0.705342  1
  O  O22  1  0.652468  0.170688  0.331148  1
  O  O23  1  0.814104  0.605784  0.537331  1
  O  O24  1  0.418341  0.555485  0.794004  1
  O  O25  1  0.185896  0.394216  0.462669  1
  O  O26  1  0.992716  0.761240  0.205342  1
  O  O27  1  0.781930  0.460920  0.078152  1
  O  O28  1  0.555485  0.418341  0.705996  1
  O  O29  1  0.170688  0.652468  0.168852  1
  O  O30  1  0.444515  0.581659  0.294004  1
  O  O31  1  0.847785  0.008193  0.579706  1
  O  O32  1  0.539080  0.218070  0.578152  1
  O  O33  1  0.460920  0.781930  0.421848  1
  O  O34  1  0.829312  0.347532  0.831148  1
  O  O35  1  0.007284  0.238760  0.794658  1
