# generated using pymatgen
data_GdRuC2
_symmetry_space_group_name_H-M   'P 1'
_cell_length_a   5.14161155
_cell_length_b   5.14161155
_cell_length_c   5.25034931
_cell_angle_alpha   90.00000000
_cell_angle_beta   90.00000000
_cell_angle_gamma   129.62213539
_symmetry_Int_Tables_number   1
_chemical_formula_structural   GdRuC2
_chemical_formula_sum   'Gd2 Ru2 C4'
_cell_volume   106.91237417
_cell_formula_units_Z   2
loop_
 _symmetry_equiv_pos_site_id
 _symmetry_equiv_pos_as_xyz
  1  'x, y, z'
loop_
 _atom_site_type_symbol
 _atom_site_label
 _atom_site_symmetry_multiplicity
 _atom_site_fract_x
 _atom_site_fract_y
 _atom_site_fract_z
 _atom_site_occupancy
  Gd  Gd0  1  0.683032  0.316968  0.250000  1
  Gd  Gd1  1  0.316968  0.683032  0.750000  1
  Ru  Ru2  1  0.000000  0.000000  0.000000  1
  Ru  Ru3  1  0.000000  0.000000  0.500000  1
  C  C4  1  0.427385  0.258142  0.750000  1
  C  C5  1  0.258142  0.427385  0.250000  1
  C  C6  1  0.572615  0.741858  0.250000  1
  C  C7  1  0.741858  0.572615  0.750000  1
