# generated using pymatgen
data_Yb8Ge3Sb5
_symmetry_space_group_name_H-M   'P 1'
_cell_length_a   11.93623684
_cell_length_b   11.93623684
_cell_length_c   11.93623684
_cell_angle_alpha   94.67832380
_cell_angle_beta   94.67832380
_cell_angle_gamma   146.81180278
_symmetry_Int_Tables_number   1
_chemical_formula_structural   Yb8Ge3Sb5
_chemical_formula_sum   'Yb16 Ge6 Sb10'
_cell_volume   892.12325471
_cell_formula_units_Z   2
loop_
 _symmetry_equiv_pos_site_id
 _symmetry_equiv_pos_as_xyz
  1  'x, y, z'
loop_
 _atom_site_type_symbol
 _atom_site_label
 _atom_site_symmetry_multiplicity
 _atom_site_fract_x
 _atom_site_fract_y
 _atom_site_fract_z
 _atom_site_occupancy
  Yb  Yb0  1  0.898019  0.101981  0.500000  1
  Yb  Yb1  1  0.371375  0.371375  0.742750  1
  Yb  Yb2  1  0.601981  0.398019  0.500000  1
  Yb  Yb3  1  0.371375  0.628625  0.000000  1
  Yb  Yb4  1  0.398019  0.898019  0.796037  1
  Yb  Yb5  1  0.185799  0.000000  0.185799  1
  Yb  Yb6  1  0.101981  0.601981  0.203963  1
  Yb  Yb7  1  0.898019  0.398019  0.796037  1
  Yb  Yb8  1  0.601981  0.101981  0.203963  1
  Yb  Yb9  1  0.000000  0.185799  0.185799  1
  Yb  Yb10  1  0.101981  0.898019  0.500000  1
  Yb  Yb11  1  0.814201  0.000000  0.814201  1
  Yb  Yb12  1  0.000000  0.814201  0.814201  1
  Yb  Yb13  1  0.628625  0.628625  0.257250  1
  Yb  Yb14  1  0.398019  0.601981  0.500000  1
  Yb  Yb15  1  0.628625  0.371375  0.000000  1
  Ge  Ge16  1  0.382088  0.000000  0.382088  1
  Ge  Ge17  1  0.000000  0.617912  0.617912  1
  Ge  Ge18  1  0.000000  0.382088  0.382088  1
  Ge  Ge19  1  0.617912  0.000000  0.617912  1
  Ge  Ge20  1  0.250000  0.750000  0.500000  1
  Ge  Ge21  1  0.750000  0.250000  0.500000  1
  Sb  Sb22  1  0.229303  0.500000  0.729303  1
  Sb  Sb23  1  0.805658  0.194342  0.000000  1
  Sb  Sb24  1  0.194342  0.805658  0.000000  1
  Sb  Sb25  1  0.194342  0.194342  0.388684  1
  Sb  Sb26  1  0.500000  0.770697  0.270697  1
  Sb  Sb27  1  0.805658  0.805658  0.611316  1
  Sb  Sb28  1  0.500000  0.229303  0.729303  1
  Sb  Sb29  1  0.239563  0.239563  0.000000  1
  Sb  Sb30  1  0.770697  0.500000  0.270697  1
  Sb  Sb31  1  0.760437  0.760437  0.000000  1
