# generated using pymatgen
data_Na3TmSi2O7
_symmetry_space_group_name_H-M   'P 1'
_cell_length_a   9.45910714
_cell_length_b   9.45910714
_cell_length_c   13.83395300
_cell_angle_alpha   90.00000000
_cell_angle_beta   90.00000000
_cell_angle_gamma   120.00000000
_symmetry_Int_Tables_number   1
_chemical_formula_structural   Na3TmSi2O7
_chemical_formula_sum   'Na18 Tm6 Si12 O42'
_cell_volume   1071.95663564
_cell_formula_units_Z   6
loop_
 _symmetry_equiv_pos_site_id
 _symmetry_equiv_pos_as_xyz
  1  'x, y, z'
loop_
 _atom_site_type_symbol
 _atom_site_label
 _atom_site_symmetry_multiplicity
 _atom_site_fract_x
 _atom_site_fract_y
 _atom_site_fract_z
 _atom_site_occupancy
  Na  Na0  1  0.331942  0.015585  0.392790  1
  Na  Na1  1  0.668058  0.984415  0.892790  1
  Na  Na2  1  0.000000  0.000000  0.481392  1
  Na  Na3  1  0.315681  0.331002  0.569867  1
  Na  Na4  1  0.683643  0.668058  0.392790  1
  Na  Na5  1  0.984415  0.316357  0.392790  1
  Na  Na6  1  0.668998  0.984679  0.569867  1
  Na  Na7  1  0.666667  0.333333  0.231584  1
  Na  Na8  1  0.316357  0.331942  0.892790  1
  Na  Na9  1  0.984679  0.315681  0.069867  1
  Na  Na10  1  0.015321  0.684319  0.569867  1
  Na  Na11  1  0.015585  0.683643  0.892790  1
  Na  Na12  1  0.684319  0.668998  0.069867  1
  Na  Na13  1  0.000000  0.000000  0.981392  1
  Na  Na14  1  0.333333  0.666667  0.731584  1
  Na  Na15  1  0.666667  0.333333  0.714559  1
  Na  Na16  1  0.331002  0.015321  0.069867  1
  Na  Na17  1  0.333333  0.666667  0.214559  1
  Tm  Tm18  1  0.666667  0.333333  0.462898  1
  Tm  Tm19  1  0.000000  0.000000  0.231845  1
  Tm  Tm20  1  0.000000  0.000000  0.731845  1
  Tm  Tm21  1  0.666667  0.333333  0.999920  1
  Tm  Tm22  1  0.333333  0.666667  0.962898  1
  Tm  Tm23  1  0.333333  0.666667  0.499920  1
  Si  Si24  1  0.018826  0.672050  0.342003  1
  Si  Si25  1  0.652791  0.981976  0.123138  1
  Si  Si26  1  0.670815  0.652791  0.623138  1
  Si  Si27  1  0.346776  0.018826  0.842003  1
  Si  Si28  1  0.329185  0.347209  0.123138  1
  Si  Si29  1  0.981976  0.329185  0.623138  1
  Si  Si30  1  0.327950  0.346776  0.342003  1
  Si  Si31  1  0.981174  0.327950  0.842003  1
  Si  Si32  1  0.018024  0.670815  0.123138  1
  Si  Si33  1  0.672050  0.653224  0.842003  1
  Si  Si34  1  0.347209  0.018024  0.623138  1
  Si  Si35  1  0.653224  0.981174  0.342003  1
  O  O36  1  0.151268  0.954261  0.622933  1
  O  O37  1  0.554851  0.827192  0.048814  1
  O  O38  1  0.272341  0.445149  0.048814  1
  O  O39  1  0.727659  0.554851  0.548814  1
  O  O40  1  0.900795  0.323553  0.732666  1
  O  O41  1  0.829100  0.269637  0.918295  1
  O  O42  1  0.802993  0.848732  0.622933  1
  O  O43  1  0.045739  0.197007  0.622933  1
  O  O44  1  0.484755  0.612346  0.601470  1
  O  O45  1  0.099205  0.676447  0.232666  1
  O  O46  1  0.872409  0.484755  0.101470  1
  O  O47  1  0.872901  0.485848  0.363625  1
  O  O48  1  0.802749  0.849705  0.840667  1
  O  O49  1  0.514152  0.387053  0.363625  1
  O  O50  1  0.848732  0.045739  0.122933  1
  O  O51  1  0.730363  0.559463  0.918295  1
  O  O52  1  0.612346  0.127591  0.101470  1
  O  O53  1  0.422758  0.099205  0.732666  1
  O  O54  1  0.612947  0.127099  0.363625  1
  O  O55  1  0.440537  0.170900  0.918295  1
  O  O56  1  0.046956  0.197251  0.840667  1
  O  O57  1  0.676447  0.577242  0.732666  1
  O  O58  1  0.387654  0.872409  0.601470  1
  O  O59  1  0.849705  0.046956  0.340667  1
  O  O60  1  0.170900  0.730363  0.418295  1
  O  O61  1  0.827192  0.272341  0.548814  1
  O  O62  1  0.387053  0.872901  0.863625  1
  O  O63  1  0.127591  0.515245  0.601470  1
  O  O64  1  0.197007  0.151268  0.122933  1
  O  O65  1  0.172808  0.727659  0.048814  1
  O  O66  1  0.515245  0.387654  0.101470  1
  O  O67  1  0.269637  0.440537  0.418295  1
  O  O68  1  0.559463  0.829100  0.418295  1
  O  O69  1  0.953044  0.802749  0.340667  1
  O  O70  1  0.577242  0.900795  0.232666  1
  O  O71  1  0.445149  0.172808  0.548814  1
  O  O72  1  0.485848  0.612947  0.863625  1
  O  O73  1  0.197251  0.150295  0.340667  1
  O  O74  1  0.127099  0.514152  0.863625  1
  O  O75  1  0.323553  0.422758  0.232666  1
  O  O76  1  0.954261  0.802993  0.122933  1
  O  O77  1  0.150295  0.953044  0.840667  1
