# generated using pymatgen
data_SrGaH4
_symmetry_space_group_name_H-M   'P 1'
_cell_length_a   4.73560064
_cell_length_b   7.46079754
_cell_length_c   8.78654425
_cell_angle_alpha   90.00000000
_cell_angle_beta   90.00000000
_cell_angle_gamma   90.00000000
_symmetry_Int_Tables_number   1
_chemical_formula_structural   SrGaH4
_chemical_formula_sum   'Sr4 Ga4 H16'
_cell_volume   310.44053701
_cell_formula_units_Z   4
loop_
 _symmetry_equiv_pos_site_id
 _symmetry_equiv_pos_as_xyz
  1  'x, y, z'
loop_
 _atom_site_type_symbol
 _atom_site_label
 _atom_site_symmetry_multiplicity
 _atom_site_fract_x
 _atom_site_fract_y
 _atom_site_fract_z
 _atom_site_occupancy
  Sr  Sr0  1  0.750000  0.248581  0.004704  1
  Sr  Sr1  1  0.250000  0.751419  0.995296  1
  Sr  Sr2  1  0.250000  0.748581  0.495296  1
  Sr  Sr3  1  0.750000  0.251419  0.504704  1
  Ga  Ga4  1  0.750000  0.604197  0.242607  1
  Ga  Ga5  1  0.250000  0.395803  0.757393  1
  Ga  Ga6  1  0.250000  0.104197  0.257393  1
  Ga  Ga7  1  0.750000  0.895803  0.742607  1
  H  H8  1  0.485789  0.751543  0.743906  1
  H  H9  1  0.985789  0.248457  0.256094  1
  H  H10  1  0.985789  0.251543  0.756094  1
  H  H11  1  0.485789  0.748457  0.243906  1
  H  H12  1  0.750000  0.578452  0.038996  1
  H  H13  1  0.250000  0.421548  0.961004  1
  H  H14  1  0.250000  0.078452  0.461004  1
  H  H15  1  0.750000  0.921548  0.538996  1
  H  H16  1  0.750000  0.919948  0.946101  1
  H  H17  1  0.250000  0.080052  0.053899  1
  H  H18  1  0.250000  0.419948  0.553899  1
  H  H19  1  0.750000  0.580052  0.446101  1
  H  H20  1  0.514211  0.251543  0.756094  1
  H  H21  1  0.014211  0.748457  0.243906  1
  H  H22  1  0.014211  0.751543  0.743906  1
  H  H23  1  0.514211  0.248457  0.256094  1
