# generated using pymatgen
data_WO3
_symmetry_space_group_name_H-M   'P 1'
_cell_length_a   3.88495203
_cell_length_b   7.68868627
_cell_length_c   7.74975516
_cell_angle_alpha   90.00000000
_cell_angle_beta   90.00000000
_cell_angle_gamma   90.00000000
_symmetry_Int_Tables_number   1
_chemical_formula_structural   WO3
_chemical_formula_sum   'W4 O12'
_cell_volume   231.48656121
_cell_formula_units_Z   4
loop_
 _symmetry_equiv_pos_site_id
 _symmetry_equiv_pos_as_xyz
  1  'x, y, z'
loop_
 _atom_site_type_symbol
 _atom_site_label
 _atom_site_symmetry_multiplicity
 _atom_site_fract_x
 _atom_site_fract_y
 _atom_site_fract_z
 _atom_site_occupancy
  W  W0  1  0.970361  0.750000  0.016308  1
  W  W1  1  0.029639  0.750000  0.516308  1
  W  W2  1  0.970361  0.250000  0.483692  1
  W  W3  1  0.029639  0.250000  0.983692  1
  O  O4  1  0.998394  0.250000  0.244044  1
  O  O5  1  0.506488  0.250000  0.993453  1
  O  O6  1  0.000000  0.500000  0.000000  1
  O  O7  1  0.001606  0.250000  0.744044  1
  O  O8  1  0.506488  0.750000  0.506547  1
  O  O9  1  0.000000  0.000000  0.000000  1
  O  O10  1  0.001606  0.750000  0.755956  1
  O  O11  1  0.493512  0.750000  0.006547  1
  O  O12  1  0.998394  0.750000  0.255956  1
  O  O13  1  0.000000  0.500000  0.500000  1
  O  O14  1  0.493512  0.250000  0.493453  1
  O  O15  1  0.000000  0.000000  0.500000  1
