# generated using pymatgen
data_Ca3GaAs3
_symmetry_space_group_name_H-M   'P 1'
_cell_length_a   4.22232304
_cell_length_b   12.28719616
_cell_length_c   13.52907406
_cell_angle_alpha   90.00000000
_cell_angle_beta   90.00000000
_cell_angle_gamma   90.00000000
_symmetry_Int_Tables_number   1
_chemical_formula_structural   Ca3GaAs3
_chemical_formula_sum   'Ca12 Ga4 As12'
_cell_volume   701.89528159
_cell_formula_units_Z   4
loop_
 _symmetry_equiv_pos_site_id
 _symmetry_equiv_pos_as_xyz
  1  'x, y, z'
loop_
 _atom_site_type_symbol
 _atom_site_label
 _atom_site_symmetry_multiplicity
 _atom_site_fract_x
 _atom_site_fract_y
 _atom_site_fract_z
 _atom_site_occupancy
  Ca  Ca0  1  0.750000  0.727482  0.283999  1
  Ca  Ca1  1  0.250000  0.272518  0.716001  1
  Ca  Ca2  1  0.750000  0.227482  0.216001  1
  Ca  Ca3  1  0.250000  0.772518  0.783999  1
  Ca  Ca4  1  0.750000  0.437352  0.391278  1
  Ca  Ca5  1  0.250000  0.562648  0.608722  1
  Ca  Ca6  1  0.750000  0.937352  0.108722  1
  Ca  Ca7  1  0.250000  0.062648  0.891278  1
  Ca  Ca8  1  0.750000  0.648531  0.999207  1
  Ca  Ca9  1  0.250000  0.351469  0.000793  1
  Ca  Ca10  1  0.750000  0.148531  0.500793  1
  Ca  Ca11  1  0.250000  0.851469  0.499207  1
  Ga  Ga12  1  0.750000  0.436831  0.797923  1
  Ga  Ga13  1  0.250000  0.563169  0.202077  1
  Ga  Ga14  1  0.750000  0.936831  0.702077  1
  Ga  Ga15  1  0.250000  0.063169  0.297923  1
  As  As16  1  0.750000  0.392237  0.612655  1
  As  As17  1  0.250000  0.607763  0.387345  1
  As  As18  1  0.750000  0.892237  0.887345  1
  As  As19  1  0.250000  0.107763  0.112655  1
  As  As20  1  0.750000  0.249441  0.878438  1
  As  As21  1  0.250000  0.750559  0.121562  1
  As  As22  1  0.750000  0.749441  0.621562  1
  As  As23  1  0.250000  0.250559  0.378438  1
  As  As24  1  0.750000  0.957935  0.351475  1
  As  As25  1  0.250000  0.042065  0.648525  1
  As  As26  1  0.750000  0.457935  0.148525  1
  As  As27  1  0.250000  0.542065  0.851475  1
