# generated using pymatgen
data_NaAuCl4
_symmetry_space_group_name_H-M   'P 1'
_cell_length_a   11.60806736
_cell_length_b   11.58488094
_cell_length_c   21.40548037
_cell_angle_alpha   90.00000000
_cell_angle_beta   106.98900904
_cell_angle_gamma   90.00000000
_symmetry_Int_Tables_number   1
_chemical_formula_structural   NaAuCl4
_chemical_formula_sum   'Na16 Au16 Cl64'
_cell_volume   2752.94953513
_cell_formula_units_Z   16
loop_
 _symmetry_equiv_pos_site_id
 _symmetry_equiv_pos_as_xyz
  1  'x, y, z'
loop_
 _atom_site_type_symbol
 _atom_site_label
 _atom_site_symmetry_multiplicity
 _atom_site_fract_x
 _atom_site_fract_y
 _atom_site_fract_z
 _atom_site_occupancy
  Na  Na0  1  0.885666  0.881946  0.305069  1
  Na  Na1  1  0.199981  0.884767  0.944328  1
  Na  Na2  1  0.199981  0.615233  0.444328  1
  Na  Na3  1  0.237695  0.371397  0.945912  1
  Na  Na4  1  0.885666  0.618054  0.805069  1
  Na  Na5  1  0.114334  0.381946  0.194931  1
  Na  Na6  1  0.762305  0.871397  0.554088  1
  Na  Na7  1  0.800019  0.384767  0.555672  1
  Na  Na8  1  0.762305  0.628603  0.054088  1
  Na  Na9  1  0.114334  0.118054  0.694931  1
  Na  Na10  1  0.399393  0.668866  0.803615  1
  Na  Na11  1  0.399393  0.831134  0.303615  1
  Na  Na12  1  0.800019  0.115233  0.055672  1
  Na  Na13  1  0.600607  0.168866  0.696385  1
  Na  Na14  1  0.237695  0.128603  0.445912  1
  Na  Na15  1  0.600607  0.331134  0.196385  1
  Au  Au16  1  0.408448  0.210687  0.311500  1
  Au  Au17  1  0.125410  0.873730  0.552813  1
  Au  Au18  1  0.429411  0.110861  0.057613  1
  Au  Au19  1  0.107462  0.486172  0.701631  1
  Au  Au20  1  0.125410  0.626270  0.052813  1
  Au  Au21  1  0.107462  0.013828  0.201631  1
  Au  Au22  1  0.892538  0.513828  0.298369  1
  Au  Au23  1  0.408448  0.289313  0.811500  1
  Au  Au24  1  0.591552  0.789313  0.688500  1
  Au  Au25  1  0.570589  0.889139  0.942387  1
  Au  Au26  1  0.892538  0.986172  0.798369  1
  Au  Au27  1  0.570589  0.610861  0.442387  1
  Au  Au28  1  0.874590  0.126270  0.447187  1
  Au  Au29  1  0.874590  0.373730  0.947187  1
  Au  Au30  1  0.429411  0.389139  0.557613  1
  Au  Au31  1  0.591552  0.710687  0.188500  1
  Cl  Cl32  1  0.843203  0.927544  0.437886  1
  Cl  Cl33  1  0.693209  0.002879  0.797305  1
  Cl  Cl34  1  0.237831  0.376359  0.483698  1
  Cl  Cl35  1  0.620451  0.103956  0.132680  1
  Cl  Cl36  1  0.237831  0.123641  0.983698  1
  Cl  Cl37  1  0.923578  0.658920  0.376406  1
  Cl  Cl38  1  0.905182  0.323831  0.453578  1
  Cl  Cl39  1  0.864845  0.129756  0.718941  1
  Cl  Cl40  1  0.212466  0.261763  0.816492  1
  Cl  Cl41  1  0.583488  0.089065  0.944813  1
  Cl  Cl42  1  0.094914  0.971028  0.803821  1
  Cl  Cl43  1  0.972220  0.385025  0.866852  1
  Cl  Cl44  1  0.566200  0.567599  0.109334  1
  Cl  Cl45  1  0.027780  0.885025  0.633148  1
  Cl  Cl46  1  0.416512  0.910935  0.055187  1
  Cl  Cl47  1  0.433800  0.067599  0.390666  1
  Cl  Cl48  1  0.094818  0.823831  0.046422  1
  Cl  Cl49  1  0.156797  0.072456  0.562114  1
  Cl  Cl50  1  0.905086  0.028972  0.196179  1
  Cl  Cl51  1  0.566200  0.932401  0.609334  1
  Cl  Cl52  1  0.379549  0.896044  0.867320  1
  Cl  Cl53  1  0.397161  0.818876  0.693898  1
  Cl  Cl54  1  0.416512  0.589065  0.555187  1
  Cl  Cl55  1  0.602839  0.318876  0.806102  1
  Cl  Cl56  1  0.972220  0.114975  0.366852  1
  Cl  Cl57  1  0.905182  0.176169  0.953578  1
  Cl  Cl58  1  0.027780  0.614975  0.133148  1
  Cl  Cl59  1  0.787534  0.738237  0.183508  1
  Cl  Cl60  1  0.762169  0.876359  0.016302  1
  Cl  Cl61  1  0.781493  0.133499  0.530046  1
  Cl  Cl62  1  0.443919  0.310950  0.060741  1
  Cl  Cl63  1  0.621510  0.646344  0.768150  1
  Cl  Cl64  1  0.156797  0.427544  0.062114  1
  Cl  Cl65  1  0.762169  0.623641  0.516302  1
  Cl  Cl66  1  0.556081  0.689050  0.939259  1
  Cl  Cl67  1  0.781493  0.366501  0.030046  1
  Cl  Cl68  1  0.864845  0.370244  0.218941  1
  Cl  Cl69  1  0.135155  0.629756  0.781059  1
  Cl  Cl70  1  0.378490  0.353656  0.231850  1
  Cl  Cl71  1  0.306791  0.997121  0.202695  1
  Cl  Cl72  1  0.905086  0.471028  0.696179  1
  Cl  Cl73  1  0.135155  0.870244  0.281059  1
  Cl  Cl74  1  0.397161  0.681124  0.193898  1
  Cl  Cl75  1  0.620451  0.396044  0.632680  1
  Cl  Cl76  1  0.076422  0.158920  0.123594  1
  Cl  Cl77  1  0.378490  0.146344  0.731850  1
  Cl  Cl78  1  0.787534  0.761763  0.683508  1
  Cl  Cl79  1  0.094914  0.528972  0.303821  1
  Cl  Cl80  1  0.433800  0.432401  0.890666  1
  Cl  Cl81  1  0.556081  0.810950  0.439259  1
  Cl  Cl82  1  0.212466  0.238237  0.316492  1
  Cl  Cl83  1  0.094818  0.676169  0.546422  1
  Cl  Cl84  1  0.583488  0.410935  0.444813  1
  Cl  Cl85  1  0.621510  0.853656  0.268150  1
  Cl  Cl86  1  0.218507  0.866501  0.469954  1
  Cl  Cl87  1  0.843203  0.572456  0.937886  1
  Cl  Cl88  1  0.923578  0.841080  0.876406  1
  Cl  Cl89  1  0.076422  0.341080  0.623594  1
  Cl  Cl90  1  0.443919  0.189050  0.560741  1
  Cl  Cl91  1  0.379549  0.603956  0.367320  1
  Cl  Cl92  1  0.693209  0.497121  0.297305  1
  Cl  Cl93  1  0.218507  0.633499  0.969954  1
  Cl  Cl94  1  0.306791  0.502879  0.702695  1
  Cl  Cl95  1  0.602839  0.181124  0.306102  1
