# generated using pymatgen
data_TiCl3
_symmetry_space_group_name_H-M   'P 1'
_cell_length_a   6.11256604
_cell_length_b   6.11256604
_cell_length_c   12.55353255
_cell_angle_alpha   90.00000000
_cell_angle_beta   90.00000000
_cell_angle_gamma   120.00000000
_symmetry_Int_Tables_number   1
_chemical_formula_structural   TiCl3
_chemical_formula_sum   'Ti4 Cl12'
_cell_volume   406.20354849
_cell_formula_units_Z   4
loop_
 _symmetry_equiv_pos_site_id
 _symmetry_equiv_pos_as_xyz
  1  'x, y, z'
loop_
 _atom_site_type_symbol
 _atom_site_label
 _atom_site_symmetry_multiplicity
 _atom_site_fract_x
 _atom_site_fract_y
 _atom_site_fract_z
 _atom_site_occupancy
  Ti  Ti0  1  0.000000  0.000000  0.750000  1
  Ti  Ti1  1  0.666667  0.333333  0.750000  1
  Ti  Ti2  1  0.000000  0.000000  0.250000  1
  Ti  Ti3  1  0.333333  0.666667  0.250000  1
  Cl  Cl4  1  0.666549  0.686076  0.138150  1
  Cl  Cl5  1  0.019527  0.333451  0.138150  1
  Cl  Cl6  1  0.313924  0.333451  0.361850  1
  Cl  Cl7  1  0.333451  0.019527  0.638150  1
  Cl  Cl8  1  0.313924  0.980473  0.138150  1
  Cl  Cl9  1  0.333451  0.313924  0.861850  1
  Cl  Cl10  1  0.686076  0.019527  0.861850  1
  Cl  Cl11  1  0.980473  0.666549  0.861850  1
  Cl  Cl12  1  0.980473  0.313924  0.638150  1
  Cl  Cl13  1  0.666549  0.980473  0.361850  1
  Cl  Cl14  1  0.686076  0.666549  0.638150  1
  Cl  Cl15  1  0.019527  0.686076  0.361850  1
