# generated using pymatgen
data_Mn7(PbO5)3
_symmetry_space_group_name_H-M   'P 1'
_cell_length_a   10.25478520
_cell_length_b   10.25478520
_cell_length_c   13.89429924
_cell_angle_alpha   90.00000000
_cell_angle_beta   90.00000000
_cell_angle_gamma   120.00000000
_symmetry_Int_Tables_number   1
_chemical_formula_structural   Mn7(PbO5)3
_chemical_formula_sum   'Mn28 Pb12 O60'
_cell_volume   1265.37839628
_cell_formula_units_Z   4
loop_
 _symmetry_equiv_pos_site_id
 _symmetry_equiv_pos_as_xyz
  1  'x, y, z'
loop_
 _atom_site_type_symbol
 _atom_site_label
 _atom_site_symmetry_multiplicity
 _atom_site_fract_x
 _atom_site_fract_y
 _atom_site_fract_z
 _atom_site_occupancy
  Mn  Mn0  1  0.333333  0.666667  0.146406  1
  Mn  Mn1  1  0.832882  0.167118  0.500000  1
  Mn  Mn2  1  0.500000  0.000000  0.000000  1
  Mn  Mn3  1  0.832882  0.665764  0.500000  1
  Mn  Mn4  1  0.333333  0.666667  0.353594  1
  Mn  Mn5  1  0.333333  0.666667  0.853594  1
  Mn  Mn6  1  0.333333  0.666667  0.646406  1
  Mn  Mn7  1  0.665764  0.832882  0.000000  1
  Mn  Mn8  1  0.832882  0.665764  0.000000  1
  Mn  Mn9  1  0.500000  0.000000  0.500000  1
  Mn  Mn10  1  0.832882  0.167118  0.000000  1
  Mn  Mn11  1  0.000000  0.000000  0.000000  1
  Mn  Mn12  1  0.000000  0.000000  0.500000  1
  Mn  Mn13  1  0.167118  0.832882  0.500000  1
  Mn  Mn14  1  0.334236  0.167118  0.000000  1
  Mn  Mn15  1  0.666667  0.333333  0.853594  1
  Mn  Mn16  1  0.167118  0.334236  0.000000  1
  Mn  Mn17  1  0.665764  0.832882  0.500000  1
  Mn  Mn18  1  0.500000  0.500000  0.500000  1
  Mn  Mn19  1  0.500000  0.500000  0.000000  1
  Mn  Mn20  1  0.334236  0.167118  0.500000  1
  Mn  Mn21  1  0.666667  0.333333  0.646406  1
  Mn  Mn22  1  0.666667  0.333333  0.353594  1
  Mn  Mn23  1  0.167118  0.334236  0.500000  1
  Mn  Mn24  1  0.000000  0.500000  0.500000  1
  Mn  Mn25  1  0.167118  0.832882  0.000000  1
  Mn  Mn26  1  0.000000  0.500000  0.000000  1
  Mn  Mn27  1  0.666667  0.333333  0.146406  1
  Pb  Pb28  1  0.269339  0.269339  0.750000  1
  Pb  Pb29  1  0.730661  0.730661  0.250000  1
  Pb  Pb30  1  0.390181  0.000000  0.750000  1
  Pb  Pb31  1  0.609819  0.609819  0.750000  1
  Pb  Pb32  1  0.000000  0.390181  0.750000  1
  Pb  Pb33  1  0.000000  0.730661  0.750000  1
  Pb  Pb34  1  0.000000  0.269339  0.250000  1
  Pb  Pb35  1  0.730661  0.000000  0.750000  1
  Pb  Pb36  1  0.390181  0.390181  0.250000  1
  Pb  Pb37  1  0.000000  0.609819  0.250000  1
  Pb  Pb38  1  0.269339  0.000000  0.250000  1
  Pb  Pb39  1  0.609819  0.000000  0.250000  1
  O  O40  1  0.328465  0.328465  0.926472  1
  O  O41  1  0.477803  0.648434  0.250000  1
  O  O42  1  0.836127  0.836127  0.571493  1
  O  O43  1  0.486564  0.329620  0.423164  1
  O  O44  1  0.648434  0.477803  0.250000  1
  O  O45  1  0.163873  0.163873  0.071493  1
  O  O46  1  0.329620  0.843056  0.923164  1
  O  O47  1  0.328465  0.000000  0.426472  1
  O  O48  1  0.513436  0.843056  0.076836  1
  O  O49  1  0.836127  0.000000  0.071493  1
  O  O50  1  0.170631  0.522197  0.250000  1
  O  O51  1  0.829369  0.477803  0.750000  1
  O  O52  1  0.328465  0.328465  0.573528  1
  O  O53  1  0.329620  0.486564  0.423164  1
  O  O54  1  0.671535  0.671535  0.073528  1
  O  O55  1  0.000000  0.671535  0.926472  1
  O  O56  1  0.329620  0.843056  0.576836  1
  O  O57  1  0.671535  0.000000  0.573528  1
  O  O58  1  0.836127  0.836127  0.928507  1
  O  O59  1  0.329620  0.486564  0.076836  1
  O  O60  1  0.351566  0.522197  0.750000  1
  O  O61  1  0.163873  0.163873  0.428507  1
  O  O62  1  0.163873  0.000000  0.571493  1
  O  O63  1  0.486564  0.329620  0.076836  1
  O  O64  1  0.829369  0.351566  0.250000  1
  O  O65  1  0.671535  0.000000  0.926472  1
  O  O66  1  0.513436  0.843056  0.423164  1
  O  O67  1  0.836127  0.000000  0.428507  1
  O  O68  1  0.843056  0.329620  0.576836  1
  O  O69  1  0.486564  0.156944  0.923164  1
  O  O70  1  0.000000  0.328465  0.426472  1
  O  O71  1  0.000000  0.836127  0.071493  1
  O  O72  1  0.843056  0.513436  0.423164  1
  O  O73  1  0.670380  0.513436  0.576836  1
  O  O74  1  0.170631  0.648434  0.750000  1
  O  O75  1  0.000000  0.163873  0.571493  1
  O  O76  1  0.156944  0.670380  0.076836  1
  O  O77  1  0.000000  0.671535  0.573528  1
  O  O78  1  0.477803  0.829369  0.750000  1
  O  O79  1  0.000000  0.328465  0.073528  1
  O  O80  1  0.648434  0.170631  0.750000  1
  O  O81  1  0.670380  0.156944  0.076836  1
  O  O82  1  0.513436  0.670380  0.923164  1
  O  O83  1  0.156944  0.486564  0.576836  1
  O  O84  1  0.843056  0.513436  0.076836  1
  O  O85  1  0.351566  0.829369  0.250000  1
  O  O86  1  0.522197  0.170631  0.250000  1
  O  O87  1  0.163873  0.000000  0.928507  1
  O  O88  1  0.156944  0.670380  0.423164  1
  O  O89  1  0.671535  0.671535  0.426472  1
  O  O90  1  0.156944  0.486564  0.923164  1
  O  O91  1  0.513436  0.670380  0.576836  1
  O  O92  1  0.522197  0.351566  0.750000  1
  O  O93  1  0.670380  0.156944  0.423164  1
  O  O94  1  0.000000  0.163873  0.928507  1
  O  O95  1  0.670380  0.513436  0.923164  1
  O  O96  1  0.328465  0.000000  0.073528  1
  O  O97  1  0.486564  0.156944  0.576836  1
  O  O98  1  0.843056  0.329620  0.923164  1
  O  O99  1  0.000000  0.836127  0.428507  1
