# generated using pymatgen
data_Na3CrF6
_symmetry_space_group_name_H-M   'P 1'
_cell_length_a   5.57048778
_cell_length_b   5.80622632
_cell_length_c   9.76482487
_cell_angle_alpha   90.00000000
_cell_angle_beta   124.39873595
_cell_angle_gamma   90.00000000
_symmetry_Int_Tables_number   1
_chemical_formula_structural   Na3CrF6
_chemical_formula_sum   'Na6 Cr2 F12'
_cell_volume   260.59849124
_cell_formula_units_Z   2
loop_
 _symmetry_equiv_pos_site_id
 _symmetry_equiv_pos_as_xyz
  1  'x, y, z'
loop_
 _atom_site_type_symbol
 _atom_site_label
 _atom_site_symmetry_multiplicity
 _atom_site_fract_x
 _atom_site_fract_y
 _atom_site_fract_z
 _atom_site_occupancy
  Na  Na0  1  0.727095  0.557337  0.744381  1
  Na  Na1  1  0.272905  0.057337  0.755619  1
  Na  Na2  1  0.272905  0.442663  0.255619  1
  Na  Na3  1  0.727095  0.942663  0.244381  1
  Na  Na4  1  0.500000  0.500000  0.000000  1
  Na  Na5  1  0.500000  0.000000  0.500000  1
  Cr  Cr6  1  0.000000  0.500000  0.500000  1
  Cr  Cr7  1  0.000000  0.000000  0.000000  1
  F  F8  1  0.758736  0.222353  0.427064  1
  F  F9  1  0.241264  0.722353  0.072936  1
  F  F10  1  0.241264  0.777647  0.572936  1
  F  F11  1  0.758736  0.277647  0.927064  1
  F  F12  1  0.337777  0.321356  0.552607  1
  F  F13  1  0.662223  0.821356  0.947393  1
  F  F14  1  0.662223  0.678644  0.447393  1
  F  F15  1  0.337777  0.178644  0.052607  1
  F  F16  1  0.107032  0.057396  0.225420  1
  F  F17  1  0.892968  0.557396  0.274580  1
  F  F18  1  0.892968  0.942604  0.774580  1
  F  F19  1  0.107032  0.442604  0.725420  1
