# generated using pymatgen
data_KCrCuF6
_symmetry_space_group_name_H-M   'P 1'
_cell_length_a   6.84503716
_cell_length_b   10.18761776
_cell_length_c   7.42913156
_cell_angle_alpha   90.00000000
_cell_angle_beta   94.12133510
_cell_angle_gamma   90.00000000
_symmetry_Int_Tables_number   1
_chemical_formula_structural   KCrCuF6
_chemical_formula_sum   'K4 Cr4 Cu4 F24'
_cell_volume   516.72800634
_cell_formula_units_Z   4
loop_
 _symmetry_equiv_pos_site_id
 _symmetry_equiv_pos_as_xyz
  1  'x, y, z'
loop_
 _atom_site_type_symbol
 _atom_site_label
 _atom_site_symmetry_multiplicity
 _atom_site_fract_x
 _atom_site_fract_y
 _atom_site_fract_z
 _atom_site_occupancy
  K  K0  1  0.501867  0.115299  0.757304  1
  K  K1  1  0.998133  0.615299  0.242696  1
  K  K2  1  0.498133  0.884701  0.242696  1
  K  K3  1  0.001867  0.384701  0.757304  1
  Cr  Cr4  1  0.000000  0.000000  0.500000  1
  Cr  Cr5  1  0.500000  0.500000  0.500000  1
  Cr  Cr6  1  0.000000  0.000000  0.000000  1
  Cr  Cr7  1  0.500000  0.500000  0.000000  1
  Cu  Cu8  1  0.181241  0.732763  0.745022  1
  Cu  Cu9  1  0.318759  0.232763  0.254978  1
  Cu  Cu10  1  0.818759  0.267237  0.254978  1
  Cu  Cu11  1  0.681241  0.767237  0.745022  1
  F  F12  1  0.135200  0.834979  0.026837  1
  F  F13  1  0.364800  0.334979  0.973163  1
  F  F14  1  0.864800  0.165021  0.973163  1
  F  F15  1  0.635200  0.665021  0.026837  1
  F  F16  1  0.900771  0.180516  0.488030  1
  F  F17  1  0.599229  0.680516  0.511970  1
  F  F18  1  0.099229  0.819484  0.511970  1
  F  F19  1  0.400771  0.319484  0.488030  1
  F  F20  1  0.920007  0.669527  0.755863  1
  F  F21  1  0.579993  0.169527  0.244137  1
  F  F22  1  0.079993  0.330473  0.244137  1
  F  F23  1  0.420007  0.830473  0.755863  1
  F  F24  1  0.913285  0.977432  0.244954  1
  F  F25  1  0.586715  0.477432  0.755046  1
  F  F26  1  0.086715  0.022568  0.755046  1
  F  F27  1  0.413285  0.522568  0.244954  1
  F  F28  1  0.755597  0.910616  0.922914  1
  F  F29  1  0.744403  0.410616  0.077086  1
  F  F30  1  0.244403  0.089384  0.077086  1
  F  F31  1  0.255597  0.589384  0.922914  1
  F  F32  1  0.756591  0.441711  0.445967  1
  F  F33  1  0.743409  0.941711  0.554033  1
  F  F34  1  0.243409  0.558289  0.554033  1
  F  F35  1  0.256591  0.058289  0.445967  1
