# generated using pymatgen
data_Fe2Cu3(SeO3)6
_symmetry_space_group_name_H-M   'P 1'
_cell_length_a   5.48442688
_cell_length_b   19.35901165
_cell_length_c   9.25406987
_cell_angle_alpha   90.00000000
_cell_angle_beta   123.93454067
_cell_angle_gamma   90.00000000
_symmetry_Int_Tables_number   1
_chemical_formula_structural   Fe2Cu3(SeO3)6
_chemical_formula_sum   'Fe4 Cu6 Se12 O36'
_cell_volume   815.18406289
_cell_formula_units_Z   2
loop_
 _symmetry_equiv_pos_site_id
 _symmetry_equiv_pos_as_xyz
  1  'x, y, z'
loop_
 _atom_site_type_symbol
 _atom_site_label
 _atom_site_symmetry_multiplicity
 _atom_site_fract_x
 _atom_site_fract_y
 _atom_site_fract_z
 _atom_site_occupancy
  Fe  Fe0  1  0.229542  0.343465  0.761946  1
  Fe  Fe1  1  0.770458  0.656535  0.238054  1
  Fe  Fe2  1  0.229542  0.156535  0.261946  1
  Fe  Fe3  1  0.770458  0.843465  0.738054  1
  Cu  Cu4  1  0.207858  0.486667  0.323325  1
  Cu  Cu5  1  0.792142  0.513333  0.676675  1
  Cu  Cu6  1  0.792142  0.986667  0.176675  1
  Cu  Cu7  1  0.500000  0.000000  0.500000  1
  Cu  Cu8  1  0.207858  0.013333  0.823325  1
  Cu  Cu9  1  0.500000  0.500000  0.000000  1
  Se  Se10  1  0.463693  0.779474  0.939634  1
  Se  Se11  1  0.262801  0.596181  0.641309  1
  Se  Se12  1  0.075014  0.882622  0.526354  1
  Se  Se13  1  0.924986  0.117378  0.473646  1
  Se  Se14  1  0.536307  0.220526  0.060366  1
  Se  Se15  1  0.463693  0.720526  0.439634  1
  Se  Se16  1  0.924986  0.382622  0.973646  1
  Se  Se17  1  0.737199  0.096181  0.858691  1
  Se  Se18  1  0.536307  0.279474  0.560366  1
  Se  Se19  1  0.737199  0.403819  0.358691  1
  Se  Se20  1  0.262801  0.903819  0.141309  1
  Se  Se21  1  0.075014  0.617378  0.026354  1
  O  O22  1  0.199868  0.962880  0.263011  1
  O  O23  1  0.199868  0.537120  0.763011  1
  O  O24  1  0.426376  0.194420  0.507846  1
  O  O25  1  0.375212  0.959266  0.039411  1
  O  O26  1  0.911871  0.229107  0.159187  1
  O  O27  1  0.979465  0.405982  0.811037  1
  O  O28  1  0.911871  0.270893  0.659187  1
  O  O29  1  0.020535  0.905982  0.688963  1
  O  O30  1  0.092779  0.110040  0.028358  1
  O  O31  1  0.425702  0.578778  0.110647  1
  O  O32  1  0.375212  0.540734  0.539411  1
  O  O33  1  0.516257  0.287246  0.741279  1
  O  O34  1  0.907221  0.889960  0.971642  1
  O  O35  1  0.483743  0.787246  0.758721  1
  O  O36  1  0.088129  0.770893  0.840813  1
  O  O37  1  0.800132  0.037120  0.736989  1
  O  O38  1  0.574298  0.078778  0.389353  1
  O  O39  1  0.088129  0.729107  0.340813  1
  O  O40  1  0.828133  0.557728  0.875434  1
  O  O41  1  0.907221  0.610040  0.471642  1
  O  O42  1  0.573624  0.694420  0.992154  1
  O  O43  1  0.979465  0.094018  0.311037  1
  O  O44  1  0.425702  0.921222  0.610647  1
  O  O45  1  0.426376  0.305580  0.007846  1
  O  O46  1  0.574298  0.421222  0.889353  1
  O  O47  1  0.516257  0.212754  0.241279  1
  O  O48  1  0.483743  0.712754  0.258721  1
  O  O49  1  0.020535  0.594018  0.188963  1
  O  O50  1  0.828133  0.942272  0.375434  1
  O  O51  1  0.573624  0.805580  0.492154  1
  O  O52  1  0.800132  0.462880  0.236989  1
  O  O53  1  0.624788  0.040734  0.960589  1
  O  O54  1  0.171867  0.057728  0.624566  1
  O  O55  1  0.092779  0.389960  0.528358  1
  O  O56  1  0.171867  0.442272  0.124566  1
  O  O57  1  0.624788  0.459266  0.460589  1
