# generated using pymatgen
data_KHo(PO3)4
_symmetry_space_group_name_H-M   'P 1'
_cell_length_a   7.39837776
_cell_length_b   7.39837776
_cell_length_c   10.51728958
_cell_angle_alpha   78.93951763
_cell_angle_beta   101.06048237
_cell_angle_gamma   64.67686171
_symmetry_Int_Tables_number   1
_chemical_formula_structural   KHo(PO3)4
_chemical_formula_sum   'K2 Ho2 P8 O24'
_cell_volume   485.74075519
_cell_formula_units_Z   2
loop_
 _symmetry_equiv_pos_site_id
 _symmetry_equiv_pos_as_xyz
  1  'x, y, z'
loop_
 _atom_site_type_symbol
 _atom_site_label
 _atom_site_symmetry_multiplicity
 _atom_site_fract_x
 _atom_site_fract_y
 _atom_site_fract_z
 _atom_site_occupancy
  K  K0  1  0.815801  0.815801  0.250000  1
  K  K1  1  0.184199  0.184199  0.750000  1
  Ho  Ho2  1  0.880166  0.880166  0.750000  1
  Ho  Ho3  1  0.119834  0.119834  0.250000  1
  P  P4  1  0.302641  0.745218  0.057099  1
  P  P5  1  0.254782  0.697359  0.557099  1
  P  P6  1  0.745218  0.302641  0.442901  1
  P  P7  1  0.714897  0.626204  0.996669  1
  P  P8  1  0.626204  0.714897  0.503331  1
  P  P9  1  0.285103  0.373796  0.003331  1
  P  P10  1  0.373796  0.285103  0.496669  1
  P  P11  1  0.697359  0.254782  0.942901  1
  O  O12  1  0.728483  0.529196  0.436229  1
  O  O13  1  0.156250  0.863968  0.914026  1
  O  O14  1  0.753249  0.183945  0.825907  1
  O  O15  1  0.843750  0.136032  0.085974  1
  O  O16  1  0.183945  0.753249  0.674093  1
  O  O17  1  0.910257  0.486036  0.115352  1
  O  O18  1  0.136032  0.843750  0.414026  1
  O  O19  1  0.641908  0.499461  0.910021  1
  O  O20  1  0.246751  0.816055  0.174093  1
  O  O21  1  0.358092  0.500539  0.089979  1
  O  O22  1  0.863968  0.156250  0.585974  1
  O  O23  1  0.089743  0.513964  0.884648  1
  O  O24  1  0.513964  0.089743  0.615352  1
  O  O25  1  0.191134  0.295424  0.397621  1
  O  O26  1  0.529196  0.728483  0.063771  1
  O  O27  1  0.808866  0.704576  0.602379  1
  O  O28  1  0.271517  0.470804  0.563771  1
  O  O29  1  0.704576  0.808866  0.897621  1
  O  O30  1  0.295424  0.191134  0.102379  1
  O  O31  1  0.470804  0.271517  0.936229  1
  O  O32  1  0.500539  0.358092  0.410021  1
  O  O33  1  0.499461  0.641908  0.589979  1
  O  O34  1  0.486036  0.910257  0.384648  1
  O  O35  1  0.816055  0.246751  0.325907  1
