# generated using pymatgen
data_Rb5Tl3O
_symmetry_space_group_name_H-M   'P 1'
_cell_length_a   17.85418146
_cell_length_b   17.85418146
_cell_length_c   9.43854426
_cell_angle_alpha   90.00000000
_cell_angle_beta   90.00000000
_cell_angle_gamma   151.14800768
_symmetry_Int_Tables_number   1
_chemical_formula_structural   Rb5Tl3O
_chemical_formula_sum   'Rb20 Tl12 O4'
_cell_volume   1451.86430279
_cell_formula_units_Z   4
loop_
 _symmetry_equiv_pos_site_id
 _symmetry_equiv_pos_as_xyz
  1  'x, y, z'
loop_
 _atom_site_type_symbol
 _atom_site_label
 _atom_site_symmetry_multiplicity
 _atom_site_fract_x
 _atom_site_fract_y
 _atom_site_fract_z
 _atom_site_occupancy
  Rb  Rb0  1  0.551958  0.448042  0.465874  1
  Rb  Rb1  1  0.508229  0.041826  0.750000  1
  Rb  Rb2  1  0.551958  0.448042  0.034126  1
  Rb  Rb3  1  0.371643  0.120517  0.750000  1
  Rb  Rb4  1  0.491771  0.958174  0.250000  1
  Rb  Rb5  1  0.448042  0.551958  0.534126  1
  Rb  Rb6  1  0.194221  0.208228  0.250000  1
  Rb  Rb7  1  0.120517  0.371643  0.250000  1
  Rb  Rb8  1  0.208228  0.194221  0.750000  1
  Rb  Rb9  1  0.448042  0.551958  0.965874  1
  Rb  Rb10  1  0.679883  0.320117  0.466488  1
  Rb  Rb11  1  0.320117  0.679883  0.533512  1
  Rb  Rb12  1  0.879483  0.628357  0.750000  1
  Rb  Rb13  1  0.320117  0.679883  0.966488  1
  Rb  Rb14  1  0.041826  0.508229  0.250000  1
  Rb  Rb15  1  0.628357  0.879483  0.250000  1
  Rb  Rb16  1  0.791772  0.805779  0.250000  1
  Rb  Rb17  1  0.679883  0.320117  0.033512  1
  Rb  Rb18  1  0.805779  0.791772  0.750000  1
  Rb  Rb19  1  0.958174  0.491771  0.750000  1
  Tl  Tl20  1  0.331504  0.076639  0.250000  1
  Tl  Tl21  1  0.183772  0.816228  0.437395  1
  Tl  Tl22  1  0.668496  0.923361  0.750000  1
  Tl  Tl23  1  0.921636  0.078364  0.548601  1
  Tl  Tl24  1  0.076639  0.331504  0.750000  1
  Tl  Tl25  1  0.816228  0.183772  0.937395  1
  Tl  Tl26  1  0.816228  0.183772  0.562605  1
  Tl  Tl27  1  0.078364  0.921636  0.048601  1
  Tl  Tl28  1  0.921636  0.078364  0.951399  1
  Tl  Tl29  1  0.078364  0.921636  0.451399  1
  Tl  Tl30  1  0.183772  0.816228  0.062605  1
  Tl  Tl31  1  0.923361  0.668496  0.250000  1
  O  O32  1  0.326035  0.673965  0.250000  1
  O  O33  1  0.513712  0.486288  0.750000  1
  O  O34  1  0.673965  0.326035  0.750000  1
  O  O35  1  0.486288  0.513712  0.250000  1
