# generated using pymatgen
data_CeBr3
_symmetry_space_group_name_H-M   'P 1'
_cell_length_a   8.17500785
_cell_length_b   8.17500785
_cell_length_c   4.35700231
_cell_angle_alpha   90.00000000
_cell_angle_beta   90.00000000
_cell_angle_gamma   120.00000000
_symmetry_Int_Tables_number   1
_chemical_formula_structural   CeBr3
_chemical_formula_sum   'Ce2 Br6'
_cell_volume   252.17078951
_cell_formula_units_Z   2
loop_
 _symmetry_equiv_pos_site_id
 _symmetry_equiv_pos_as_xyz
  1  'x, y, z'
loop_
 _atom_site_type_symbol
 _atom_site_label
 _atom_site_symmetry_multiplicity
 _atom_site_fract_x
 _atom_site_fract_y
 _atom_site_fract_z
 _atom_site_occupancy
  Ce  Ce0  1  0.666667  0.333333  0.750000  1
  Ce  Ce1  1  0.333333  0.666667  0.250000  1
  Br  Br2  1  0.910805  0.610302  0.250000  1
  Br  Br3  1  0.089195  0.389698  0.750000  1
  Br  Br4  1  0.610302  0.699497  0.750000  1
  Br  Br5  1  0.389698  0.300503  0.250000  1
  Br  Br6  1  0.300503  0.910805  0.750000  1
  Br  Br7  1  0.699497  0.089195  0.250000  1
