# generated using pymatgen
data_LiV(PO3)4
_symmetry_space_group_name_H-M   'P 1'
_cell_length_a   7.01761879
_cell_length_b   7.01761879
_cell_length_c   9.66947768
_cell_angle_alpha   88.83151744
_cell_angle_beta   91.16848256
_cell_angle_gamma   70.55282060
_symmetry_Int_Tables_number   1
_chemical_formula_structural   LiV(PO3)4
_chemical_formula_sum   'Li2 V2 P8 O24'
_cell_volume   448.74515451
_cell_formula_units_Z   2
loop_
 _symmetry_equiv_pos_site_id
 _symmetry_equiv_pos_as_xyz
  1  'x, y, z'
loop_
 _atom_site_type_symbol
 _atom_site_label
 _atom_site_symmetry_multiplicity
 _atom_site_fract_x
 _atom_site_fract_y
 _atom_site_fract_z
 _atom_site_occupancy
  Li  Li0  1  0.331947  0.331947  0.250000  1
  Li  Li1  1  0.668053  0.668053  0.750000  1
  V  V2  1  0.610642  0.610642  0.250000  1
  V  V3  1  0.389358  0.389358  0.750000  1
  P  P4  1  0.124949  0.230038  0.966414  1
  P  P5  1  0.875051  0.769962  0.033586  1
  P  P6  1  0.230038  0.124949  0.533586  1
  P  P7  1  0.769962  0.875051  0.466414  1
  P  P8  1  0.220209  0.702495  0.471429  1
  P  P9  1  0.702495  0.220209  0.028571  1
  P  P10  1  0.779791  0.297505  0.528571  1
  P  P11  1  0.297505  0.779791  0.971429  1
  O  O12  1  0.217740  0.228198  0.104425  1
  O  O13  1  0.606936  0.351044  0.148995  1
  O  O14  1  0.228198  0.217740  0.395575  1
  O  O15  1  0.881823  0.285954  0.969747  1
  O  O16  1  0.631781  0.852373  0.350887  1
  O  O17  1  0.393064  0.648956  0.851005  1
  O  O18  1  0.219902  0.564202  0.592230  1
  O  O19  1  0.771802  0.782260  0.604425  1
  O  O20  1  0.192308  0.001629  0.906391  1
  O  O21  1  0.998371  0.807692  0.406391  1
  O  O22  1  0.564202  0.219902  0.907770  1
  O  O23  1  0.285954  0.881823  0.530253  1
  O  O24  1  0.368219  0.147627  0.649113  1
  O  O25  1  0.852373  0.631781  0.149113  1
  O  O26  1  0.807692  0.998371  0.093609  1
  O  O27  1  0.118177  0.714046  0.030253  1
  O  O28  1  0.780098  0.435798  0.407770  1
  O  O29  1  0.147627  0.368219  0.850887  1
  O  O30  1  0.351044  0.606936  0.351005  1
  O  O31  1  0.001629  0.192308  0.593609  1
  O  O32  1  0.782260  0.771802  0.895575  1
  O  O33  1  0.648956  0.393064  0.648995  1
  O  O34  1  0.714046  0.118177  0.469747  1
  O  O35  1  0.435798  0.780098  0.092230  1
