# generated using pymatgen
data_Sr3Fe2(SeO3)6
_symmetry_space_group_name_H-M   'P 1'
_cell_length_a   14.35921079
_cell_length_b   14.35921079
_cell_length_c   14.35921079
_cell_angle_alpha   36.19376930
_cell_angle_beta   36.19376930
_cell_angle_gamma   36.19376930
_symmetry_Int_Tables_number   1
_chemical_formula_structural   Sr3Fe2(SeO3)6
_chemical_formula_sum   'Sr6 Fe4 Se12 O36'
_cell_volume   923.74197755
_cell_formula_units_Z   2
loop_
 _symmetry_equiv_pos_site_id
 _symmetry_equiv_pos_as_xyz
  1  'x, y, z'
loop_
 _atom_site_type_symbol
 _atom_site_label
 _atom_site_symmetry_multiplicity
 _atom_site_fract_x
 _atom_site_fract_y
 _atom_site_fract_z
 _atom_site_occupancy
  Sr  Sr0  1  0.161654  0.750000  0.338346  1
  Sr  Sr1  1  0.750000  0.338346  0.161654  1
  Sr  Sr2  1  0.838346  0.250000  0.661654  1
  Sr  Sr3  1  0.250000  0.661654  0.838346  1
  Sr  Sr4  1  0.661654  0.838346  0.250000  1
  Sr  Sr5  1  0.338346  0.161654  0.750000  1
  Fe  Fe6  1  0.500000  0.500000  0.500000  1
  Fe  Fe7  1  0.000000  0.000000  0.000000  1
  Fe  Fe8  1  0.750000  0.750000  0.750000  1
  Fe  Fe9  1  0.250000  0.250000  0.250000  1
  Se  Se10  1  0.087956  0.517003  0.806604  1
  Se  Se11  1  0.193396  0.912044  0.482997  1
  Se  Se12  1  0.982997  0.412044  0.693396  1
  Se  Se13  1  0.806604  0.087956  0.517003  1
  Se  Se14  1  0.412044  0.693396  0.982997  1
  Se  Se15  1  0.517003  0.806604  0.087956  1
  Se  Se16  1  0.017003  0.587956  0.306604  1
  Se  Se17  1  0.482997  0.193396  0.912044  1
  Se  Se18  1  0.306604  0.017003  0.587956  1
  Se  Se19  1  0.912044  0.482997  0.193396  1
  Se  Se20  1  0.587956  0.306604  0.017003  1
  Se  Se21  1  0.693396  0.982997  0.412044  1
  O  O22  1  0.448682  0.562822  0.153360  1
  O  O23  1  0.337547  0.005376  0.316437  1
  O  O24  1  0.846640  0.551318  0.437178  1
  O  O25  1  0.062822  0.948682  0.653360  1
  O  O26  1  0.667104  0.311989  0.427668  1
  O  O27  1  0.188011  0.832896  0.072332  1
  O  O28  1  0.937178  0.051318  0.346640  1
  O  O29  1  0.994624  0.683563  0.662453  1
  O  O30  1  0.051318  0.346640  0.937178  1
  O  O31  1  0.927668  0.811989  0.167104  1
  O  O32  1  0.183563  0.494624  0.162453  1
  O  O33  1  0.837547  0.816437  0.505376  1
  O  O34  1  0.688011  0.572332  0.332896  1
  O  O35  1  0.005376  0.316437  0.337547  1
  O  O36  1  0.311989  0.427668  0.667104  1
  O  O37  1  0.494624  0.162453  0.183563  1
  O  O38  1  0.551318  0.437178  0.846640  1
  O  O39  1  0.427668  0.667104  0.311989  1
  O  O40  1  0.332896  0.688011  0.572332  1
  O  O41  1  0.153360  0.448682  0.562822  1
  O  O42  1  0.948682  0.653360  0.062822  1
  O  O43  1  0.683563  0.662453  0.994624  1
  O  O44  1  0.437178  0.846640  0.551318  1
  O  O45  1  0.653360  0.062822  0.948682  1
  O  O46  1  0.816437  0.505376  0.837547  1
  O  O47  1  0.505376  0.837547  0.816437  1
  O  O48  1  0.662453  0.994624  0.683563  1
  O  O49  1  0.072332  0.188011  0.832896  1
  O  O50  1  0.562822  0.153360  0.448682  1
  O  O51  1  0.167104  0.927668  0.811989  1
  O  O52  1  0.346640  0.937178  0.051318  1
  O  O53  1  0.811989  0.167104  0.927668  1
  O  O54  1  0.162453  0.183563  0.494624  1
  O  O55  1  0.316437  0.337547  0.005376  1
  O  O56  1  0.832896  0.072332  0.188011  1
  O  O57  1  0.572332  0.332896  0.688011  1
