# generated using pymatgen
data_K5U2O4F9
_symmetry_space_group_name_H-M   'P 1'
_cell_length_a   10.47210016
_cell_length_b   10.47210016
_cell_length_c   11.71758230
_cell_angle_alpha   78.82069879
_cell_angle_beta   101.17930121
_cell_angle_gamma   145.22758122
_symmetry_Int_Tables_number   1
_chemical_formula_structural   K5U2O4F9
_chemical_formula_sum   'K10 U4 O8 F18'
_cell_volume   717.57930307
_cell_formula_units_Z   2
loop_
 _symmetry_equiv_pos_site_id
 _symmetry_equiv_pos_as_xyz
  1  'x, y, z'
loop_
 _atom_site_type_symbol
 _atom_site_label
 _atom_site_symmetry_multiplicity
 _atom_site_fract_x
 _atom_site_fract_y
 _atom_site_fract_z
 _atom_site_occupancy
  K  K0  1  0.421729  0.060452  0.633465  1
  K  K1  1  0.769618  0.724269  0.418929  1
  K  K2  1  0.230382  0.275731  0.581071  1
  K  K3  1  0.578271  0.939548  0.366535  1
  K  K4  1  0.939548  0.578271  0.133465  1
  K  K5  1  0.724269  0.769618  0.081071  1
  K  K6  1  0.000000  0.500000  0.500000  1
  K  K7  1  0.275731  0.230382  0.918929  1
  K  K8  1  0.060452  0.421729  0.866535  1
  K  K9  1  0.500000  0.000000  0.000000  1
  U  U10  1  0.369883  0.144678  0.284416  1
  U  U11  1  0.630117  0.855322  0.715584  1
  U  U12  1  0.855322  0.630117  0.784416  1
  U  U13  1  0.144678  0.369883  0.215584  1
  O  O14  1  0.339585  0.628119  0.649511  1
  O  O15  1  0.371881  0.660415  0.149511  1
  O  O16  1  0.628119  0.339585  0.850489  1
  O  O17  1  0.078531  0.919476  0.219613  1
  O  O18  1  0.660415  0.371881  0.350489  1
  O  O19  1  0.080524  0.921469  0.719613  1
  O  O20  1  0.921469  0.080524  0.780387  1
  O  O21  1  0.919476  0.078531  0.280387  1
  F  F22  1  0.588156  0.588156  0.750000  1
  F  F23  1  0.763076  0.896232  0.561112  1
  F  F24  1  0.341179  0.521562  0.388291  1
  F  F25  1  0.697683  0.091564  0.581682  1
  F  F26  1  0.411844  0.411844  0.250000  1
  F  F27  1  0.404499  0.997984  0.198314  1
  F  F28  1  0.908436  0.302317  0.081682  1
  F  F29  1  0.091564  0.697683  0.918318  1
  F  F30  1  0.896232  0.763076  0.938888  1
  F  F31  1  0.103768  0.236924  0.061112  1
  F  F32  1  0.478438  0.658821  0.888291  1
  F  F33  1  0.521562  0.341179  0.111709  1
  F  F34  1  0.595501  0.002016  0.801686  1
  F  F35  1  0.302317  0.908436  0.418318  1
  F  F36  1  0.658821  0.478438  0.611709  1
  F  F37  1  0.236924  0.103768  0.438888  1
  F  F38  1  0.997984  0.404499  0.301686  1
  F  F39  1  0.002016  0.595501  0.698314  1
