# generated using pymatgen
data_NaLaP2O7
_symmetry_space_group_name_H-M   'P 1'
_cell_length_a   5.36282698
_cell_length_b   8.75664182
_cell_length_c   12.82193985
_cell_angle_alpha   90.00000000
_cell_angle_beta   90.00000000
_cell_angle_gamma   90.00000000
_symmetry_Int_Tables_number   1
_chemical_formula_structural   NaLaP2O7
_chemical_formula_sum   'Na4 La4 P8 O28'
_cell_volume   602.12284723
_cell_formula_units_Z   4
loop_
 _symmetry_equiv_pos_site_id
 _symmetry_equiv_pos_as_xyz
  1  'x, y, z'
loop_
 _atom_site_type_symbol
 _atom_site_label
 _atom_site_symmetry_multiplicity
 _atom_site_fract_x
 _atom_site_fract_y
 _atom_site_fract_z
 _atom_site_occupancy
  Na  Na0  1  0.750000  0.378892  0.579125  1
  Na  Na1  1  0.250000  0.121108  0.079125  1
  Na  Na2  1  0.250000  0.621108  0.420875  1
  Na  Na3  1  0.750000  0.878892  0.920875  1
  La  La4  1  0.750000  0.816958  0.235853  1
  La  La5  1  0.750000  0.316958  0.264147  1
  La  La6  1  0.250000  0.183042  0.764147  1
  La  La7  1  0.250000  0.683042  0.735853  1
  P  P8  1  0.750000  0.483308  0.818913  1
  P  P9  1  0.250000  0.516692  0.181087  1
  P  P10  1  0.750000  0.733717  0.533161  1
  P  P11  1  0.250000  0.766283  0.033161  1
  P  P12  1  0.750000  0.983308  0.681087  1
  P  P13  1  0.250000  0.266283  0.466839  1
  P  P14  1  0.750000  0.233717  0.966839  1
  P  P15  1  0.250000  0.016692  0.318913  1
  O  O16  1  0.250000  0.843739  0.324954  1
  O  O17  1  0.250000  0.267527  0.585397  1
  O  O18  1  0.750000  0.156261  0.675046  1
  O  O19  1  0.991590  0.927839  0.734511  1
  O  O20  1  0.008410  0.072161  0.265489  1
  O  O21  1  0.008410  0.572161  0.234511  1
  O  O22  1  0.485729  0.839573  0.078986  1
  O  O23  1  0.508410  0.927839  0.734511  1
  O  O24  1  0.508410  0.427839  0.765489  1
  O  O25  1  0.991590  0.427839  0.765489  1
  O  O26  1  0.750000  0.656261  0.824954  1
  O  O27  1  0.014271  0.339573  0.421014  1
  O  O28  1  0.014271  0.839573  0.078986  1
  O  O29  1  0.750000  0.914691  0.563890  1
  O  O30  1  0.514271  0.660427  0.578986  1
  O  O31  1  0.250000  0.585309  0.063890  1
  O  O32  1  0.985729  0.160427  0.921014  1
  O  O33  1  0.750000  0.414691  0.936110  1
  O  O34  1  0.491590  0.072161  0.265489  1
  O  O35  1  0.514271  0.160427  0.921014  1
  O  O36  1  0.750000  0.732473  0.414603  1
  O  O37  1  0.485729  0.339573  0.421014  1
  O  O38  1  0.250000  0.085309  0.436110  1
  O  O39  1  0.250000  0.767527  0.914603  1
  O  O40  1  0.250000  0.343739  0.175046  1
  O  O41  1  0.491590  0.572161  0.234511  1
  O  O42  1  0.750000  0.232473  0.085397  1
  O  O43  1  0.985729  0.660427  0.578986  1
