# generated using pymatgen
data_Ba2MnNiClF7
_symmetry_space_group_name_H-M   'P 1'
_cell_length_a   7.84473858
_cell_length_b   5.91770354
_cell_length_c   9.06925751
_cell_angle_alpha   90.00000000
_cell_angle_beta   106.08593419
_cell_angle_gamma   90.00000000
_symmetry_Int_Tables_number   1
_chemical_formula_structural   Ba2MnNiClF7
_chemical_formula_sum   'Ba4 Mn2 Ni2 Cl2 F14'
_cell_volume   404.53652961
_cell_formula_units_Z   2
loop_
 _symmetry_equiv_pos_site_id
 _symmetry_equiv_pos_as_xyz
  1  'x, y, z'
loop_
 _atom_site_type_symbol
 _atom_site_label
 _atom_site_symmetry_multiplicity
 _atom_site_fract_x
 _atom_site_fract_y
 _atom_site_fract_z
 _atom_site_occupancy
  Ba  Ba0  1  0.191371  0.250000  0.925928  1
  Ba  Ba1  1  0.808629  0.750000  0.074072  1
  Ba  Ba2  1  0.834029  0.750000  0.588458  1
  Ba  Ba3  1  0.165971  0.250000  0.411542  1
  Mn  Mn4  1  0.669387  0.250000  0.265788  1
  Mn  Mn5  1  0.330613  0.750000  0.734212  1
  Ni  Ni6  1  0.314806  0.750000  0.170567  1
  Ni  Ni7  1  0.685194  0.250000  0.829433  1
  Cl  Cl8  1  0.615677  0.250000  0.540622  1
  Cl  Cl9  1  0.384323  0.750000  0.459378  1
  F  F10  1  0.134089  0.001826  0.653231  1
  F  F11  1  0.491612  0.506432  0.166493  1
  F  F12  1  0.868054  0.492028  0.838800  1
  F  F13  1  0.131946  0.992028  0.161200  1
  F  F14  1  0.491612  0.993568  0.166493  1
  F  F15  1  0.131946  0.507972  0.161200  1
  F  F16  1  0.508388  0.493568  0.833507  1
  F  F17  1  0.134089  0.498174  0.653231  1
  F  F18  1  0.508388  0.006432  0.833507  1
  F  F19  1  0.239045  0.750000  0.937120  1
  F  F20  1  0.865911  0.501826  0.346769  1
  F  F21  1  0.865911  0.998174  0.346769  1
  F  F22  1  0.760955  0.250000  0.062880  1
  F  F23  1  0.868054  0.007972  0.838800  1
