# generated using pymatgen
data_Co(PO3)4
_symmetry_space_group_name_H-M   'P 1'
_cell_length_a   7.06335879
_cell_length_b   7.06335879
_cell_length_c   9.47421946
_cell_angle_alpha   88.09354392
_cell_angle_beta   91.90645608
_cell_angle_gamma   70.90546716
_symmetry_Int_Tables_number   1
_chemical_formula_structural   Co(PO3)4
_chemical_formula_sum   'Co2 P8 O24'
_cell_volume   445.93662581
_cell_formula_units_Z   2
loop_
 _symmetry_equiv_pos_site_id
 _symmetry_equiv_pos_as_xyz
  1  'x, y, z'
loop_
 _atom_site_type_symbol
 _atom_site_label
 _atom_site_symmetry_multiplicity
 _atom_site_fract_x
 _atom_site_fract_y
 _atom_site_fract_z
 _atom_site_occupancy
  Co  Co0  1  0.387826  0.387826  0.750000  1
  Co  Co1  1  0.612174  0.612174  0.250000  1
  P  P2  1  0.773519  0.293965  0.529834  1
  P  P3  1  0.706035  0.226481  0.029834  1
  P  P4  1  0.129724  0.218247  0.964330  1
  P  P5  1  0.218247  0.129724  0.535670  1
  P  P6  1  0.781753  0.870276  0.464330  1
  P  P7  1  0.870276  0.781753  0.035670  1
  P  P8  1  0.293965  0.773519  0.970166  1
  P  P9  1  0.226481  0.706035  0.470166  1
  O  O10  1  0.778349  0.432897  0.407307  1
  O  O11  1  0.637803  0.373523  0.647509  1
  O  O12  1  0.891995  0.275942  0.963825  1
  O  O13  1  0.626477  0.362197  0.147509  1
  O  O14  1  0.997066  0.194202  0.599941  1
  O  O15  1  0.161297  0.365420  0.853591  1
  O  O16  1  0.567103  0.221651  0.907307  1
  O  O17  1  0.724058  0.108005  0.463825  1
  O  O18  1  0.220909  0.228938  0.394904  1
  O  O19  1  0.228938  0.220909  0.105096  1
  O  O20  1  0.365420  0.161297  0.646409  1
  O  O21  1  0.805798  0.002934  0.099941  1
  O  O22  1  0.194202  0.997066  0.900059  1
  O  O23  1  0.634580  0.838703  0.353591  1
  O  O24  1  0.771062  0.779091  0.894904  1
  O  O25  1  0.779091  0.771062  0.605096  1
  O  O26  1  0.275942  0.891995  0.536175  1
  O  O27  1  0.432897  0.778349  0.092693  1
  O  O28  1  0.838703  0.634580  0.146409  1
  O  O29  1  0.002934  0.805798  0.400059  1
  O  O30  1  0.373523  0.637803  0.852491  1
  O  O31  1  0.108005  0.724058  0.036175  1
  O  O32  1  0.362197  0.626477  0.352491  1
  O  O33  1  0.221651  0.567103  0.592693  1
