# generated using pymatgen
data_RbAu(SeO4)2
_symmetry_space_group_name_H-M   'P 1'
_cell_length_a   6.26364227
_cell_length_b   6.26364227
_cell_length_c   7.74295474
_cell_angle_alpha   64.86889531
_cell_angle_beta   115.13110469
_cell_angle_gamma   129.24516889
_symmetry_Int_Tables_number   1
_chemical_formula_structural   RbAu(SeO4)2
_chemical_formula_sum   'Rb1 Au1 Se2 O8'
_cell_volume   207.65175376
_cell_formula_units_Z   1
loop_
 _symmetry_equiv_pos_site_id
 _symmetry_equiv_pos_as_xyz
  1  'x, y, z'
loop_
 _atom_site_type_symbol
 _atom_site_label
 _atom_site_symmetry_multiplicity
 _atom_site_fract_x
 _atom_site_fract_y
 _atom_site_fract_z
 _atom_site_occupancy
  Rb  Rb0  1  0.500000  0.500000  0.000000  1
  Au  Au1  1  0.000000  0.000000  0.500000  1
  Se  Se2  1  0.696472  0.303528  0.654249  1
  Se  Se3  1  0.303528  0.696472  0.345751  1
  O  O4  1  0.149687  0.850313  0.167172  1
  O  O5  1  0.328942  0.671058  0.571865  1
  O  O6  1  0.850313  0.149687  0.832828  1
  O  O7  1  0.671058  0.328942  0.428135  1
  O  O8  1  0.867654  0.631711  0.705363  1
  O  O9  1  0.132346  0.368289  0.294637  1
  O  O10  1  0.368289  0.132346  0.705363  1
  O  O11  1  0.631711  0.867654  0.294637  1
