# generated using pymatgen
data_KVH6SO9
_symmetry_space_group_name_H-M   'P 1'
_cell_length_a   6.28131220
_cell_length_b   9.95093412
_cell_length_c   6.62436929
_cell_angle_alpha   90.00000000
_cell_angle_beta   107.11459912
_cell_angle_gamma   90.00000000
_symmetry_Int_Tables_number   1
_chemical_formula_structural   KVH6SO9
_chemical_formula_sum   'K2 V2 H12 S2 O18'
_cell_volume   395.72050932
_cell_formula_units_Z   2
loop_
 _symmetry_equiv_pos_site_id
 _symmetry_equiv_pos_as_xyz
  1  'x, y, z'
loop_
 _atom_site_type_symbol
 _atom_site_label
 _atom_site_symmetry_multiplicity
 _atom_site_fract_x
 _atom_site_fract_y
 _atom_site_fract_z
 _atom_site_occupancy
  K  K0  1  0.300010  0.153151  0.812845  1
  K  K1  1  0.699990  0.653151  0.187155  1
  V  V2  1  0.611484  0.002411  0.377495  1
  V  V3  1  0.388516  0.502411  0.622505  1
  H  H4  1  0.762544  0.216018  0.693238  1
  H  H5  1  0.199704  0.582464  0.179673  1
  H  H6  1  0.463754  0.266251  0.337131  1
  H  H7  1  0.536246  0.766251  0.662869  1
  H  H8  1  0.030441  0.356037  0.313185  1
  H  H9  1  0.969559  0.856037  0.686815  1
  H  H10  1  0.887216  0.352055  0.077205  1
  H  H11  1  0.237456  0.716018  0.306762  1
  H  H12  1  0.314126  0.766485  0.741633  1
  H  H13  1  0.800296  0.082464  0.820327  1
  H  H14  1  0.685874  0.266485  0.258367  1
  H  H15  1  0.112784  0.852055  0.922795  1
  S  S16  1  0.075206  0.002519  0.263344  1
  S  S17  1  0.924794  0.502519  0.736656  1
  O  O18  1  0.030695  0.081270  0.069038  1
  O  O19  1  0.928015  0.049710  0.394483  1
  O  O20  1  0.071985  0.549710  0.605517  1
  O  O21  1  0.536648  0.940937  0.136289  1
  O  O22  1  0.693740  0.533170  0.590205  1
  O  O23  1  0.949223  0.356883  0.777681  1
  O  O24  1  0.969305  0.581270  0.930962  1
  O  O25  1  0.555875  0.209691  0.270332  1
  O  O26  1  0.699788  0.124831  0.692780  1
  O  O27  1  0.463352  0.440937  0.863711  1
  O  O28  1  0.306260  0.033170  0.409795  1
  O  O29  1  0.050777  0.856883  0.222319  1
  O  O30  1  0.124457  0.864882  0.779846  1
  O  O31  1  0.677359  0.865732  0.534840  1
  O  O32  1  0.875543  0.364882  0.220154  1
  O  O33  1  0.444125  0.709691  0.729668  1
  O  O34  1  0.300212  0.624831  0.307220  1
  O  O35  1  0.322641  0.365732  0.465160  1
