# generated using pymatgen
data_Sc4Si7Ni12
_symmetry_space_group_name_H-M   'P 1'
_cell_length_a   11.56454623
_cell_length_b   11.56454623
_cell_length_c   11.56454623
_cell_angle_alpha   139.51958382
_cell_angle_beta   116.13449490
_cell_angle_gamma   78.39826107
_symmetry_Int_Tables_number   1
_chemical_formula_structural   Sc4Si7Ni12
_chemical_formula_sum   'Sc12 Si21 Ni36'
_cell_volume   877.27634929
_cell_formula_units_Z   3
loop_
 _symmetry_equiv_pos_site_id
 _symmetry_equiv_pos_as_xyz
  1  'x, y, z'
loop_
 _atom_site_type_symbol
 _atom_site_label
 _atom_site_symmetry_multiplicity
 _atom_site_fract_x
 _atom_site_fract_y
 _atom_site_fract_z
 _atom_site_occupancy
  Sc  Sc0  1  0.190966  0.190966  0.000000  1
  Sc  Sc1  1  0.809034  0.809034  0.000000  1
  Sc  Sc2  1  0.898447  0.214498  0.683949  1
  Sc  Sc3  1  0.629182  0.629182  0.000000  1
  Sc  Sc4  1  0.101553  0.785502  0.316051  1
  Sc  Sc5  1  0.370818  0.370818  0.000000  1
  Sc  Sc6  1  0.181403  0.704167  0.885570  1
  Sc  Sc7  1  0.469452  0.785502  0.683949  1
  Sc  Sc8  1  0.818597  0.295833  0.114430  1
  Sc  Sc9  1  0.530548  0.214498  0.316051  1
  Sc  Sc10  1  0.181403  0.295833  0.477236  1
  Sc  Sc11  1  0.818597  0.704167  0.522764  1
  Si  Si12  1  0.668476  0.990958  0.322482  1
  Si  Si13  1  0.500000  0.732383  0.232383  1
  Si  Si14  1  0.989665  0.397784  0.074577  1
  Si  Si15  1  0.674102  0.000000  0.674102  1
  Si  Si16  1  0.399471  0.616584  0.782887  1
  Si  Si17  1  0.668476  0.345994  0.677518  1
  Si  Si18  1  0.323207  0.397784  0.408119  1
  Si  Si19  1  0.833697  0.616584  0.217113  1
  Si  Si20  1  0.010335  0.084912  0.408119  1
  Si  Si21  1  0.166303  0.383416  0.782887  1
  Si  Si22  1  0.331524  0.009042  0.677518  1
  Si  Si23  1  0.500000  0.267617  0.767617  1
  Si  Si24  1  0.989665  0.915088  0.591881  1
  Si  Si25  1  0.000000  0.500000  0.500000  1
  Si  Si26  1  0.010335  0.602216  0.925423  1
  Si  Si27  1  0.676793  0.084912  0.074577  1
  Si  Si28  1  0.600529  0.383416  0.217113  1
  Si  Si29  1  0.331524  0.654006  0.322482  1
  Si  Si30  1  0.676793  0.602216  0.591881  1
  Si  Si31  1  0.323207  0.915088  0.925423  1
  Si  Si32  1  0.325898  0.000000  0.325898  1
  Ni  Ni33  1  0.436445  0.860415  0.128820  1
  Ni  Ni34  1  0.268404  0.692375  0.128820  1
  Ni  Ni35  1  0.212375  0.612773  0.599602  1
  Ni  Ni36  1  0.986829  0.387227  0.599602  1
  Ni  Ni37  1  0.563555  0.692375  0.423971  1
  Ni  Ni38  1  0.268404  0.139585  0.576029  1
  Ni  Ni39  1  0.790196  0.122643  0.332446  1
  Ni  Ni40  1  0.731596  0.860415  0.423971  1
  Ni  Ni41  1  0.790196  0.457750  0.667554  1
  Ni  Ni42  1  0.618341  0.500000  0.118341  1
  Ni  Ni43  1  0.787625  0.387227  0.400398  1
  Ni  Ni44  1  0.256240  0.080469  0.175771  1
  Ni  Ni45  1  0.925315  0.705179  0.779864  1
  Ni  Ni46  1  0.431211  0.931211  0.500000  1
  Ni  Ni47  1  0.561753  0.887926  0.014007  1
  Ni  Ni48  1  0.436445  0.307625  0.576029  1
  Ni  Ni49  1  0.381659  0.500000  0.881659  1
  Ni  Ni50  1  0.743760  0.919531  0.824229  1
  Ni  Ni51  1  0.209804  0.877357  0.667554  1
  Ni  Ni52  1  0.013171  0.612773  0.400398  1
  Ni  Ni53  1  0.873919  0.887926  0.326173  1
  Ni  Ni54  1  0.095302  0.919531  0.175771  1
  Ni  Ni55  1  0.873919  0.547746  0.985993  1
  Ni  Ni56  1  0.209804  0.542250  0.332446  1
  Ni  Ni57  1  0.568789  0.068789  0.500000  1
  Ni  Ni58  1  0.438247  0.452254  0.326173  1
  Ni  Ni59  1  0.074685  0.294821  0.220136  1
  Ni  Ni60  1  0.731596  0.307625  0.871180  1
  Ni  Ni61  1  0.126081  0.452254  0.014007  1
  Ni  Ni62  1  0.126081  0.112074  0.673827  1
  Ni  Ni63  1  0.563555  0.139585  0.871180  1
  Ni  Ni64  1  0.561753  0.547746  0.673827  1
  Ni  Ni65  1  0.925315  0.145451  0.220136  1
  Ni  Ni66  1  0.438247  0.112074  0.985993  1
  Ni  Ni67  1  0.904698  0.080469  0.824229  1
  Ni  Ni68  1  0.074685  0.854549  0.779864  1
