# generated using pymatgen
data_V2ZnPbO7
_symmetry_space_group_name_H-M   'P 1'
_cell_length_a   7.02697545
_cell_length_b   15.07179957
_cell_length_c   11.56438105
_cell_angle_alpha   90.00000000
_cell_angle_beta   99.66646385
_cell_angle_gamma   90.00000000
_symmetry_Int_Tables_number   1
_chemical_formula_structural   V2ZnPbO7
_chemical_formula_sum   'V16 Zn8 Pb8 O56'
_cell_volume   1207.38450831
_cell_formula_units_Z   8
loop_
 _symmetry_equiv_pos_site_id
 _symmetry_equiv_pos_as_xyz
  1  'x, y, z'
loop_
 _atom_site_type_symbol
 _atom_site_label
 _atom_site_symmetry_multiplicity
 _atom_site_fract_x
 _atom_site_fract_y
 _atom_site_fract_z
 _atom_site_occupancy
  V  V0  1  0.476192  0.703581  0.199440  1
  V  V1  1  0.407918  0.986361  0.677313  1
  V  V2  1  0.133654  0.361070  0.017456  1
  V  V3  1  0.151240  0.638000  0.522360  1
  V  V4  1  0.848760  0.362000  0.477640  1
  V  V5  1  0.523808  0.296419  0.800560  1
  V  V6  1  0.151240  0.862000  0.022360  1
  V  V7  1  0.476192  0.796419  0.699440  1
  V  V8  1  0.592082  0.013639  0.322687  1
  V  V9  1  0.592082  0.486361  0.822687  1
  V  V10  1  0.523808  0.203581  0.300560  1
  V  V11  1  0.848760  0.138000  0.977640  1
  V  V12  1  0.866346  0.638930  0.982544  1
  V  V13  1  0.133654  0.138930  0.517456  1
  V  V14  1  0.866346  0.861070  0.482544  1
  V  V15  1  0.407918  0.513639  0.177313  1
  Zn  Zn16  1  0.988556  0.754225  0.753158  1
  Zn  Zn17  1  0.649313  0.328536  0.078597  1
  Zn  Zn18  1  0.350687  0.828536  0.421403  1
  Zn  Zn19  1  0.011444  0.245775  0.246842  1
  Zn  Zn20  1  0.988556  0.745775  0.253158  1
  Zn  Zn21  1  0.011444  0.254225  0.746842  1
  Zn  Zn22  1  0.350687  0.671464  0.921403  1
  Zn  Zn23  1  0.649313  0.171464  0.578597  1
  Pb  Pb24  1  0.920247  0.513612  0.264031  1
  Pb  Pb25  1  0.079753  0.486388  0.735969  1
  Pb  Pb26  1  0.341503  0.371069  0.467321  1
  Pb  Pb27  1  0.341503  0.128931  0.967321  1
  Pb  Pb28  1  0.658497  0.628931  0.532679  1
  Pb  Pb29  1  0.079753  0.013612  0.235969  1
  Pb  Pb30  1  0.920247  0.986388  0.764031  1
  Pb  Pb31  1  0.658497  0.871069  0.032679  1
  O  O32  1  0.563995  0.604199  0.278778  1
  O  O33  1  0.436005  0.104199  0.221222  1
  O  O34  1  0.676025  0.788677  0.456576  1
  O  O35  1  0.998209  0.653283  0.626370  1
  O  O36  1  0.238252  0.532917  0.544837  1
  O  O37  1  0.993878  0.356134  0.616877  1
  O  O38  1  0.962500  0.858221  0.632496  1
  O  O39  1  0.407384  0.558840  0.831141  1
  O  O40  1  0.001791  0.153283  0.873630  1
  O  O41  1  0.652895  0.214740  0.955029  1
  O  O42  1  0.772822  0.968581  0.450055  1
  O  O43  1  0.761748  0.467083  0.455163  1
  O  O44  1  0.681443  0.766411  0.205147  1
  O  O45  1  0.962500  0.641779  0.132496  1
  O  O46  1  0.310239  0.752782  0.779752  1
  O  O47  1  0.960697  0.164275  0.608028  1
  O  O48  1  0.318557  0.233589  0.794853  1
  O  O49  1  0.689761  0.252782  0.720248  1
  O  O50  1  0.761748  0.032917  0.955163  1
  O  O51  1  0.039303  0.835725  0.391972  1
  O  O52  1  0.718754  0.983664  0.214741  1
  O  O53  1  0.614010  0.380016  0.916021  1
  O  O54  1  0.998209  0.846717  0.126370  1
  O  O55  1  0.323975  0.288677  0.043424  1
  O  O56  1  0.563995  0.895801  0.778778  1
  O  O57  1  0.006122  0.643866  0.383123  1
  O  O58  1  0.281246  0.016336  0.785259  1
  O  O59  1  0.772822  0.531419  0.950055  1
  O  O60  1  0.407384  0.941160  0.331141  1
  O  O61  1  0.960697  0.335725  0.108028  1
  O  O62  1  0.385990  0.619984  0.083979  1
  O  O63  1  0.037500  0.358221  0.867504  1
  O  O64  1  0.689761  0.247218  0.220248  1
  O  O65  1  0.323975  0.211323  0.543424  1
  O  O66  1  0.310239  0.747218  0.279752  1
  O  O67  1  0.281246  0.483664  0.285259  1
  O  O68  1  0.227178  0.468581  0.049945  1
  O  O69  1  0.385990  0.880016  0.583979  1
  O  O70  1  0.318557  0.266411  0.294853  1
  O  O71  1  0.718754  0.516336  0.714741  1
  O  O72  1  0.238252  0.967083  0.044837  1
  O  O73  1  0.436005  0.395801  0.721222  1
  O  O74  1  0.006122  0.856134  0.883123  1
  O  O75  1  0.037500  0.141779  0.367504  1
  O  O76  1  0.652895  0.285260  0.455029  1
  O  O77  1  0.347105  0.785260  0.044971  1
  O  O78  1  0.681443  0.733589  0.705147  1
  O  O79  1  0.039303  0.664275  0.891972  1
  O  O80  1  0.592616  0.058840  0.668859  1
  O  O81  1  0.676025  0.711323  0.956576  1
  O  O82  1  0.347105  0.714740  0.544971  1
  O  O83  1  0.001791  0.346717  0.373630  1
  O  O84  1  0.227178  0.031419  0.549945  1
  O  O85  1  0.993878  0.143866  0.116877  1
  O  O86  1  0.592616  0.441160  0.168859  1
  O  O87  1  0.614010  0.119984  0.416021  1
