# generated using pymatgen
data_Sr4GaN3O
_symmetry_space_group_name_H-M   'P 1'
_cell_length_a   7.42017386
_cell_length_b   7.44376341
_cell_length_c   23.86221398
_cell_angle_alpha   90.00000000
_cell_angle_beta   90.00000000
_cell_angle_gamma   90.00000000
_symmetry_Int_Tables_number   1
_chemical_formula_structural   Sr4GaN3O
_chemical_formula_sum   'Sr32 Ga8 N24 O8'
_cell_volume   1318.00597260
_cell_formula_units_Z   8
loop_
 _symmetry_equiv_pos_site_id
 _symmetry_equiv_pos_as_xyz
  1  'x, y, z'
loop_
 _atom_site_type_symbol
 _atom_site_label
 _atom_site_symmetry_multiplicity
 _atom_site_fract_x
 _atom_site_fract_y
 _atom_site_fract_z
 _atom_site_occupancy
  Sr  Sr0  1  0.760197  0.960225  0.245771  1
  Sr  Sr1  1  0.357541  0.532538  0.061571  1
  Sr  Sr2  1  0.659540  0.636234  0.561220  1
  Sr  Sr3  1  0.760197  0.539775  0.745771  1
  Sr  Sr4  1  0.142459  0.467462  0.561571  1
  Sr  Sr5  1  0.840460  0.363766  0.061220  1
  Sr  Sr6  1  0.739803  0.039775  0.745771  1
  Sr  Sr7  1  0.491186  0.204027  0.145369  1
  Sr  Sr8  1  0.508814  0.795973  0.854631  1
  Sr  Sr9  1  0.840460  0.136234  0.561220  1
  Sr  Sr10  1  0.508814  0.704027  0.354631  1
  Sr  Sr11  1  0.260197  0.960225  0.254229  1
  Sr  Sr12  1  0.491186  0.295973  0.645369  1
  Sr  Sr13  1  0.991186  0.204027  0.354631  1
  Sr  Sr14  1  0.739803  0.460225  0.245771  1
  Sr  Sr15  1  0.642459  0.032538  0.438429  1
  Sr  Sr16  1  0.659540  0.863766  0.061220  1
  Sr  Sr17  1  0.142459  0.032538  0.061571  1
  Sr  Sr18  1  0.239803  0.039775  0.754229  1
  Sr  Sr19  1  0.008814  0.795973  0.645369  1
  Sr  Sr20  1  0.159540  0.636234  0.938780  1
  Sr  Sr21  1  0.008814  0.704027  0.145369  1
  Sr  Sr22  1  0.857541  0.532538  0.438429  1
  Sr  Sr23  1  0.159540  0.863766  0.438780  1
  Sr  Sr24  1  0.357541  0.967462  0.561571  1
  Sr  Sr25  1  0.857541  0.967462  0.938429  1
  Sr  Sr26  1  0.991186  0.295973  0.854631  1
  Sr  Sr27  1  0.340460  0.363766  0.438780  1
  Sr  Sr28  1  0.239803  0.460225  0.254229  1
  Sr  Sr29  1  0.340460  0.136234  0.938780  1
  Sr  Sr30  1  0.642459  0.467462  0.938429  1
  Sr  Sr31  1  0.260197  0.539775  0.754229  1
  Ga  Ga32  1  0.005095  0.212205  0.171428  1
  Ga  Ga33  1  0.994905  0.787795  0.828572  1
  Ga  Ga34  1  0.005095  0.287795  0.671428  1
  Ga  Ga35  1  0.994905  0.712205  0.328572  1
  Ga  Ga36  1  0.505095  0.287795  0.828572  1
  Ga  Ga37  1  0.494905  0.787795  0.671428  1
  Ga  Ga38  1  0.494905  0.712205  0.171428  1
  Ga  Ga39  1  0.505095  0.212205  0.328572  1
  N  N40  1  0.653336  0.564348  0.126921  1
  N  N41  1  0.501741  0.292277  0.749144  1
  N  N42  1  0.346218  0.869491  0.127940  1
  N  N43  1  0.153782  0.130509  0.627940  1
  N  N44  1  0.998259  0.792277  0.749144  1
  N  N45  1  0.498259  0.707723  0.250856  1
  N  N46  1  0.653782  0.369491  0.372060  1
  N  N47  1  0.001741  0.207723  0.250856  1
  N  N48  1  0.001741  0.292277  0.750856  1
  N  N49  1  0.346218  0.630509  0.627940  1
  N  N50  1  0.498259  0.792277  0.750856  1
  N  N51  1  0.346664  0.064348  0.373079  1
  N  N52  1  0.501741  0.207723  0.249144  1
  N  N53  1  0.653336  0.935652  0.626921  1
  N  N54  1  0.998259  0.707723  0.249144  1
  N  N55  1  0.153782  0.369491  0.127940  1
  N  N56  1  0.346664  0.435652  0.873079  1
  N  N57  1  0.846664  0.064348  0.126921  1
  N  N58  1  0.653782  0.130509  0.872060  1
  N  N59  1  0.846664  0.435652  0.626921  1
  N  N60  1  0.846218  0.869491  0.372060  1
  N  N61  1  0.153336  0.935652  0.873079  1
  N  N62  1  0.846218  0.630509  0.872060  1
  N  N63  1  0.153336  0.564348  0.373079  1
  O  O64  1  0.022735  0.237560  0.975556  1
  O  O65  1  0.477265  0.737560  0.975556  1
  O  O66  1  0.977265  0.762440  0.024444  1
  O  O67  1  0.522735  0.262440  0.024444  1
  O  O68  1  0.022735  0.262440  0.475556  1
  O  O69  1  0.522735  0.237560  0.524444  1
  O  O70  1  0.477265  0.762440  0.475556  1
  O  O71  1  0.977265  0.737560  0.524444  1
