# generated using pymatgen
data_K3ZnNCl4O3
_symmetry_space_group_name_H-M   'P 1'
_cell_length_a   9.47903091
_cell_length_b   9.86352368
_cell_length_c   12.28748747
_cell_angle_alpha   90.00000000
_cell_angle_beta   90.00000000
_cell_angle_gamma   90.00000000
_symmetry_Int_Tables_number   1
_chemical_formula_structural   K3ZnNCl4O3
_chemical_formula_sum   'K12 Zn4 N4 Cl16 O12'
_cell_volume   1148.83886430
_cell_formula_units_Z   4
loop_
 _symmetry_equiv_pos_site_id
 _symmetry_equiv_pos_as_xyz
  1  'x, y, z'
loop_
 _atom_site_type_symbol
 _atom_site_label
 _atom_site_symmetry_multiplicity
 _atom_site_fract_x
 _atom_site_fract_y
 _atom_site_fract_z
 _atom_site_occupancy
  K  K0  1  0.876274  0.995314  0.683119  1
  K  K1  1  0.876274  0.504686  0.683119  1
  K  K2  1  0.123726  0.495314  0.316881  1
  K  K3  1  0.123726  0.004686  0.316881  1
  K  K4  1  0.580921  0.750000  0.461498  1
  K  K5  1  0.623726  0.495314  0.183119  1
  K  K6  1  0.376274  0.504686  0.816881  1
  K  K7  1  0.919079  0.250000  0.961498  1
  K  K8  1  0.419079  0.250000  0.538502  1
  K  K9  1  0.623726  0.004686  0.183119  1
  K  K10  1  0.080921  0.750000  0.038502  1
  K  K11  1  0.376274  0.995314  0.816881  1
  Zn  Zn12  1  0.179455  0.750000  0.592241  1
  Zn  Zn13  1  0.320545  0.250000  0.092241  1
  Zn  Zn14  1  0.679455  0.750000  0.907759  1
  Zn  Zn15  1  0.820545  0.250000  0.407759  1
  N  N16  1  0.342957  0.750000  0.271103  1
  N  N17  1  0.842957  0.750000  0.228897  1
  N  N18  1  0.657043  0.250000  0.728897  1
  N  N19  1  0.157043  0.250000  0.771103  1
  Cl  Cl20  1  0.127777  0.750000  0.775652  1
  Cl  Cl21  1  0.307099  0.561126  0.550566  1
  Cl  Cl22  1  0.531736  0.250000  0.002096  1
  Cl  Cl23  1  0.192901  0.438874  0.050566  1
  Cl  Cl24  1  0.627777  0.750000  0.724348  1
  Cl  Cl25  1  0.807099  0.938874  0.949434  1
  Cl  Cl26  1  0.872223  0.250000  0.224348  1
  Cl  Cl27  1  0.192901  0.061126  0.050566  1
  Cl  Cl28  1  0.807099  0.561126  0.949434  1
  Cl  Cl29  1  0.692901  0.438874  0.449434  1
  Cl  Cl30  1  0.031736  0.250000  0.497904  1
  Cl  Cl31  1  0.468264  0.750000  0.997904  1
  Cl  Cl32  1  0.372223  0.250000  0.275652  1
  Cl  Cl33  1  0.968264  0.750000  0.502096  1
  Cl  Cl34  1  0.692901  0.061126  0.449434  1
  Cl  Cl35  1  0.307099  0.938874  0.550566  1
  O  O36  1  0.405331  0.638341  0.287574  1
  O  O37  1  0.594669  0.138341  0.712426  1
  O  O38  1  0.405331  0.861659  0.287574  1
  O  O39  1  0.714237  0.750000  0.258564  1
  O  O40  1  0.285763  0.250000  0.741436  1
  O  O41  1  0.785763  0.250000  0.758564  1
  O  O42  1  0.094669  0.361659  0.787574  1
  O  O43  1  0.094669  0.138341  0.787574  1
  O  O44  1  0.905331  0.638341  0.212426  1
  O  O45  1  0.594669  0.361659  0.712426  1
  O  O46  1  0.214237  0.750000  0.241436  1
  O  O47  1  0.905331  0.861659  0.212426  1
