# generated using pymatgen
data_Na2TeSe3
_symmetry_space_group_name_H-M   'P 1'
_cell_length_a   11.41421370
_cell_length_b   11.41421370
_cell_length_c   12.17095101
_cell_angle_alpha   60.08950417
_cell_angle_beta   119.91049583
_cell_angle_gamma   149.19422270
_symmetry_Int_Tables_number   1
_chemical_formula_structural   Na2TeSe3
_chemical_formula_sum   'Na8 Te4 Se12'
_cell_volume   695.01457878
_cell_formula_units_Z   4
loop_
 _symmetry_equiv_pos_site_id
 _symmetry_equiv_pos_as_xyz
  1  'x, y, z'
loop_
 _atom_site_type_symbol
 _atom_site_label
 _atom_site_symmetry_multiplicity
 _atom_site_fract_x
 _atom_site_fract_y
 _atom_site_fract_z
 _atom_site_occupancy
  Na  Na0  1  0.259434  0.763138  0.875850  1
  Na  Na1  1  0.537107  0.393326  0.190707  1
  Na  Na2  1  0.236862  0.740566  0.375850  1
  Na  Na3  1  0.763138  0.259434  0.624150  1
  Na  Na4  1  0.393326  0.537107  0.309293  1
  Na  Na5  1  0.740566  0.236862  0.124150  1
  Na  Na6  1  0.606674  0.462893  0.690707  1
  Na  Na7  1  0.462893  0.606674  0.809293  1
  Te  Te8  1  0.056093  0.842758  0.007652  1
  Te  Te9  1  0.943907  0.157242  0.992348  1
  Te  Te10  1  0.842758  0.056093  0.492348  1
  Te  Te11  1  0.157242  0.943907  0.507652  1
  Se  Se12  1  0.249199  0.768907  0.616711  1
  Se  Se13  1  0.626389  0.447138  0.957373  1
  Se  Se14  1  0.750801  0.231093  0.383289  1
  Se  Se15  1  0.373611  0.552862  0.042627  1
  Se  Se16  1  0.947202  0.118344  0.806013  1
  Se  Se17  1  0.231093  0.750801  0.116711  1
  Se  Se18  1  0.552862  0.373611  0.457373  1
  Se  Se19  1  0.447138  0.626389  0.542627  1
  Se  Se20  1  0.881656  0.052798  0.306013  1
  Se  Se21  1  0.768907  0.249199  0.883289  1
  Se  Se22  1  0.052798  0.881656  0.193987  1
  Se  Se23  1  0.118344  0.947202  0.693987  1
