# generated using pymatgen
data_K2Zn(GeO3)2
_symmetry_space_group_name_H-M   'P 1'
_cell_length_a   5.92702542
_cell_length_b   5.92702542
_cell_length_c   11.06502854
_cell_angle_alpha   90.00000000
_cell_angle_beta   90.00000000
_cell_angle_gamma   113.36988137
_symmetry_Int_Tables_number   1
_chemical_formula_structural   K2Zn(GeO3)2
_chemical_formula_sum   'K4 Zn2 Ge4 O12'
_cell_volume   356.82183457
_cell_formula_units_Z   2
loop_
 _symmetry_equiv_pos_site_id
 _symmetry_equiv_pos_as_xyz
  1  'x, y, z'
loop_
 _atom_site_type_symbol
 _atom_site_label
 _atom_site_symmetry_multiplicity
 _atom_site_fract_x
 _atom_site_fract_y
 _atom_site_fract_z
 _atom_site_occupancy
  K  K0  1  0.430338  0.783711  0.073008  1
  K  K1  1  0.216289  0.569662  0.426992  1
  K  K2  1  0.569662  0.216289  0.573008  1
  K  K3  1  0.783711  0.430338  0.926992  1
  Zn  Zn4  1  0.308806  0.691194  0.750000  1
  Zn  Zn5  1  0.691194  0.308806  0.250000  1
  Ge  Ge6  1  0.862028  0.825847  0.637749  1
  Ge  Ge7  1  0.174153  0.137972  0.862251  1
  Ge  Ge8  1  0.137972  0.174153  0.137749  1
  Ge  Ge9  1  0.825847  0.862028  0.362251  1
  O  O10  1  0.984340  0.607370  0.667662  1
  O  O11  1  0.704746  0.541350  0.380186  1
  O  O12  1  0.541350  0.704746  0.619814  1
  O  O13  1  0.015660  0.392630  0.167662  1
  O  O14  1  0.997004  0.997004  0.500000  1
  O  O15  1  0.295254  0.458650  0.880186  1
  O  O16  1  0.937865  0.062135  0.750000  1
  O  O17  1  0.458650  0.295254  0.119814  1
  O  O18  1  0.002996  0.002996  0.000000  1
  O  O19  1  0.062135  0.937865  0.250000  1
  O  O20  1  0.392630  0.015660  0.832338  1
  O  O21  1  0.607370  0.984340  0.332338  1
