# generated using pymatgen
data_RbLa9(IrO6)4
_symmetry_space_group_name_H-M   'P 1'
_cell_length_a   10.51170211
_cell_length_b   10.51170211
_cell_length_c   10.51170211
_cell_angle_alpha   136.30180237
_cell_angle_beta   136.30180237
_cell_angle_gamma   63.51408760
_symmetry_Int_Tables_number   1
_chemical_formula_structural   RbLa9(IrO6)4
_chemical_formula_sum   'Rb1 La9 Ir4 O24'
_cell_volume   547.15723216
_cell_formula_units_Z   1
loop_
 _symmetry_equiv_pos_site_id
 _symmetry_equiv_pos_as_xyz
  1  'x, y, z'
loop_
 _atom_site_type_symbol
 _atom_site_label
 _atom_site_symmetry_multiplicity
 _atom_site_fract_x
 _atom_site_fract_y
 _atom_site_fract_z
 _atom_site_occupancy
  Rb  Rb0  1  0.500000  0.500000  0.000000  1
  La  La1  1  0.674923  0.540860  0.505029  1
  La  La2  1  0.540860  0.035831  0.865937  1
  La  La3  1  0.169894  0.674923  0.134063  1
  La  La4  1  0.459140  0.964169  0.134063  1
  La  La5  1  0.325077  0.459140  0.494971  1
  La  La6  1  0.830106  0.325077  0.865937  1
  La  La7  1  0.035831  0.169894  0.494971  1
  La  La8  1  0.000000  0.000000  0.000000  1
  La  La9  1  0.964169  0.830106  0.505029  1
  Ir  Ir10  1  0.000000  0.500000  0.500000  1
  Ir  Ir11  1  0.240510  0.240510  0.000000  1
  Ir  Ir12  1  0.759490  0.759490  0.000000  1
  Ir  Ir13  1  0.500000  1.000000  0.500000  1
  O  O14  1  0.046557  0.508405  0.731501  1
  O  O15  1  0.315056  0.046557  0.538153  1
  O  O16  1  0.295956  0.989188  0.816101  1
  O  O17  1  0.010812  0.826913  0.306768  1
  O  O18  1  0.712712  0.130947  0.843659  1
  O  O19  1  0.479855  0.295956  0.306768  1
  O  O20  1  0.508405  0.776904  0.461847  1
  O  O21  1  0.130947  0.287288  0.418235  1
  O  O22  1  0.826913  0.520145  0.816101  1
  O  O23  1  0.223096  0.684944  0.731501  1
  O  O24  1  0.776904  0.315056  0.268499  1
  O  O25  1  0.127605  0.127605  0.000000  1
  O  O26  1  0.684944  0.953443  0.461847  1
  O  O27  1  0.704044  0.010812  0.183899  1
  O  O28  1  0.953443  0.491595  0.268499  1
  O  O29  1  0.872395  0.872395  0.000000  1
  O  O30  1  0.869053  0.712712  0.581765  1
  O  O31  1  0.287288  0.869053  0.156341  1
  O  O32  1  0.989188  0.173087  0.693232  1
  O  O33  1  0.520145  0.704044  0.693232  1
  O  O34  1  0.650306  0.650306  0.000000  1
  O  O35  1  0.349694  0.349694  0.000000  1
  O  O36  1  0.491595  0.223096  0.538153  1
  O  O37  1  0.173087  0.479855  0.183899  1
