# generated using pymatgen
data_Rb6Si10O23
_symmetry_space_group_name_H-M   'P 1'
_cell_length_a   9.65899897
_cell_length_b   9.65899897
_cell_length_c   8.29981447
_cell_angle_alpha   90.00000000
_cell_angle_beta   90.00000000
_cell_angle_gamma   120.00000000
_symmetry_Int_Tables_number   1
_chemical_formula_structural   Rb6Si10O23
_chemical_formula_sum   'Rb6 Si10 O23'
_cell_volume   670.59954669
_cell_formula_units_Z   1
loop_
 _symmetry_equiv_pos_site_id
 _symmetry_equiv_pos_as_xyz
  1  'x, y, z'
loop_
 _atom_site_type_symbol
 _atom_site_label
 _atom_site_symmetry_multiplicity
 _atom_site_fract_x
 _atom_site_fract_y
 _atom_site_fract_z
 _atom_site_occupancy
  Rb  Rb0  1  0.250521  0.000000  0.500000  1
  Rb  Rb1  1  0.749479  0.749479  0.500000  1
  Rb  Rb2  1  0.000000  0.236700  0.000000  1
  Rb  Rb3  1  0.236700  0.000000  0.000000  1
  Rb  Rb4  1  0.763300  0.763300  0.000000  1
  Rb  Rb5  1  0.000000  0.250521  0.500000  1
  Si  Si6  1  0.000000  0.605550  0.302430  1
  Si  Si7  1  0.666667  0.333333  0.195727  1
  Si  Si8  1  0.333333  0.666667  0.195727  1
  Si  Si9  1  0.394450  0.394450  0.302430  1
  Si  Si10  1  0.666667  0.333333  0.804273  1
  Si  Si11  1  0.394450  0.394450  0.697570  1
  Si  Si12  1  0.000000  0.605550  0.697570  1
  Si  Si13  1  0.605550  0.000000  0.302430  1
  Si  Si14  1  0.605550  0.000000  0.697570  1
  Si  Si15  1  0.333333  0.666667  0.804273  1
  O  O16  1  0.333333  0.666667  0.000000  1
  O  O17  1  0.246448  0.246448  0.221428  1
  O  O18  1  0.000000  0.753552  0.778572  1
  O  O19  1  0.380896  0.380896  0.500000  1
  O  O20  1  0.150299  0.573052  0.739597  1
  O  O21  1  0.753552  0.000000  0.778572  1
  O  O22  1  0.577247  0.426948  0.739597  1
  O  O23  1  0.577247  0.426948  0.260403  1
  O  O24  1  0.849701  0.422753  0.260403  1
  O  O25  1  0.849701  0.422753  0.739597  1
  O  O26  1  0.666667  0.333333  0.000000  1
  O  O27  1  0.422753  0.849701  0.260403  1
  O  O28  1  0.573052  0.150299  0.260403  1
  O  O29  1  0.753552  0.000000  0.221428  1
  O  O30  1  0.619104  0.000000  0.500000  1
  O  O31  1  0.000000  0.753552  0.221428  1
  O  O32  1  0.422753  0.849701  0.739597  1
  O  O33  1  0.000000  0.619104  0.500000  1
  O  O34  1  0.426948  0.577247  0.739597  1
  O  O35  1  0.573052  0.150299  0.739597  1
  O  O36  1  0.246448  0.246448  0.778572  1
  O  O37  1  0.426948  0.577247  0.260403  1
  O  O38  1  0.150299  0.573052  0.260403  1
