# generated using pymatgen
data_HfGa
_symmetry_space_group_name_H-M   'P 1'
_cell_length_a   5.67772318
_cell_length_b   8.55330020
_cell_length_c   9.21113967
_cell_angle_alpha   90.00000000
_cell_angle_beta   90.00000000
_cell_angle_gamma   90.00000000
_symmetry_Int_Tables_number   1
_chemical_formula_structural   HfGa
_chemical_formula_sum   'Hf12 Ga12'
_cell_volume   447.32307027
_cell_formula_units_Z   12
loop_
 _symmetry_equiv_pos_site_id
 _symmetry_equiv_pos_as_xyz
  1  'x, y, z'
loop_
 _atom_site_type_symbol
 _atom_site_label
 _atom_site_symmetry_multiplicity
 _atom_site_fract_x
 _atom_site_fract_y
 _atom_site_fract_z
 _atom_site_occupancy
  Hf  Hf0  1  0.000000  0.750000  0.111230  1
  Hf  Hf1  1  0.500000  0.250000  0.888770  1
  Hf  Hf2  1  0.000000  0.250000  0.888770  1
  Hf  Hf3  1  0.500000  0.750000  0.111230  1
  Hf  Hf4  1  0.750000  0.473401  0.617376  1
  Hf  Hf5  1  0.250000  0.526599  0.382624  1
  Hf  Hf6  1  0.750000  0.973401  0.382624  1
  Hf  Hf7  1  0.250000  0.026599  0.617376  1
  Hf  Hf8  1  0.750000  0.363478  0.192309  1
  Hf  Hf9  1  0.250000  0.636522  0.807691  1
  Hf  Hf10  1  0.750000  0.863478  0.807691  1
  Hf  Hf11  1  0.250000  0.136522  0.192309  1
  Ga  Ga12  1  0.000000  0.750000  0.565446  1
  Ga  Ga13  1  0.500000  0.250000  0.434554  1
  Ga  Ga14  1  0.000000  0.250000  0.434554  1
  Ga  Ga15  1  0.500000  0.750000  0.565446  1
  Ga  Ga16  1  0.750000  0.048058  0.085794  1
  Ga  Ga17  1  0.250000  0.951942  0.914206  1
  Ga  Ga18  1  0.750000  0.548058  0.914206  1
  Ga  Ga19  1  0.250000  0.451942  0.085794  1
  Ga  Ga20  1  0.750000  0.132078  0.650993  1
  Ga  Ga21  1  0.250000  0.867922  0.349007  1
  Ga  Ga22  1  0.750000  0.632078  0.349007  1
  Ga  Ga23  1  0.250000  0.367922  0.650993  1
