# generated using pymatgen
data_Ba2V5(PO6)4
_symmetry_space_group_name_H-M   'P 1'
_cell_length_a   13.27209783
_cell_length_b   13.27209783
_cell_length_c   7.81630526
_cell_angle_alpha   79.10020442
_cell_angle_beta   100.89979558
_cell_angle_gamma   56.23590102
_symmetry_Int_Tables_number   1
_chemical_formula_structural   Ba2V5(PO6)4
_chemical_formula_sum   'Ba4 V10 P8 O48'
_cell_volume   1048.43541727
_cell_formula_units_Z   2
loop_
 _symmetry_equiv_pos_site_id
 _symmetry_equiv_pos_as_xyz
  1  'x, y, z'
loop_
 _atom_site_type_symbol
 _atom_site_label
 _atom_site_symmetry_multiplicity
 _atom_site_fract_x
 _atom_site_fract_y
 _atom_site_fract_z
 _atom_site_occupancy
  Ba  Ba0  1  0.969900  0.526246  0.468354  1
  Ba  Ba1  1  0.266560  0.733440  0.004831  1
  Ba  Ba2  1  0.120006  0.879994  0.425470  1
  Ba  Ba3  1  0.473754  0.030100  0.468354  1
  V  V4  1  0.592342  0.770795  0.206030  1
  V  V5  1  0.388551  0.335350  0.676104  1
  V  V6  1  0.784264  0.929762  0.265856  1
  V  V7  1  0.227827  0.145768  0.731532  1
  V  V8  1  0.664650  0.611449  0.676104  1
  V  V9  1  0.571757  0.428243  0.179546  1
  V  V10  1  0.070238  0.215736  0.265856  1
  V  V11  1  0.229205  0.407658  0.206030  1
  V  V12  1  0.915727  0.084273  0.797210  1
  V  V13  1  0.854232  0.772173  0.731532  1
  P  P14  1  0.516963  0.222758  0.153994  1
  P  P15  1  0.685467  0.058561  0.785858  1
  P  P16  1  0.287803  0.977450  0.152339  1
  P  P17  1  0.426568  0.835969  0.782882  1
  P  P18  1  0.941439  0.314533  0.785858  1
  P  P19  1  0.022550  0.712197  0.152339  1
  P  P20  1  0.777242  0.483037  0.153994  1
  P  P21  1  0.164031  0.573432  0.782882  1
  O  O22  1  0.834157  0.464361  0.684186  1
  O  O23  1  0.155526  0.349545  0.137579  1
  O  O24  1  0.125628  0.728048  0.220977  1
  O  O25  1  0.291986  0.344531  0.459340  1
  O  O26  1  0.482202  0.517798  0.958347  1
  O  O27  1  0.080698  0.564129  0.208185  1
  O  O28  1  0.176186  0.678712  0.712816  1
  O  O29  1  0.377592  0.979377  0.730593  1
  O  O30  1  0.029530  0.128700  0.358570  1
  O  O31  1  0.052065  0.290268  0.714105  1
  O  O32  1  0.589983  0.273208  0.231797  1
  O  O33  1  0.020623  0.622408  0.730593  1
  O  O34  1  0.483600  0.516400  0.290453  1
  O  O35  1  0.790876  0.824305  0.488067  1
  O  O36  1  0.025594  0.974406  0.727258  1
  O  O37  1  0.470063  0.274220  0.940633  1
  O  O38  1  0.223981  0.040626  0.934714  1
  O  O39  1  0.974133  0.025867  0.026168  1
  O  O40  1  0.757675  0.109132  0.716249  1
  O  O41  1  0.271952  0.874372  0.220977  1
  O  O42  1  0.983243  0.273950  0.995639  1
  O  O43  1  0.308927  0.195210  0.809595  1
  O  O44  1  0.709732  0.947935  0.714105  1
  O  O45  1  0.804790  0.691073  0.809595  1
  O  O46  1  0.321288  0.823814  0.712816  1
  O  O47  1  0.230759  0.512967  0.003133  1
  O  O48  1  0.726050  0.016757  0.995639  1
  O  O49  1  0.401037  0.266235  0.221907  1
  O  O50  1  0.535639  0.165843  0.684186  1
  O  O51  1  0.574685  0.572814  0.603645  1
  O  O52  1  0.435871  0.919302  0.208185  1
  O  O53  1  0.239445  0.080450  0.246814  1
  O  O54  1  0.536710  0.776839  0.699856  1
  O  O55  1  0.650455  0.844474  0.137579  1
  O  O56  1  0.733765  0.598963  0.221907  1
  O  O57  1  0.427186  0.425315  0.603645  1
  O  O58  1  0.871300  0.970470  0.358570  1
  O  O59  1  0.919550  0.760555  0.246814  1
  O  O60  1  0.223161  0.463290  0.699856  1
  O  O61  1  0.175695  0.209124  0.488067  1
  O  O62  1  0.655469  0.708014  0.459340  1
  O  O63  1  0.926308  0.396035  0.244865  1
  O  O64  1  0.890868  0.242325  0.716249  1
  O  O65  1  0.487033  0.769241  0.003133  1
  O  O66  1  0.726792  0.410017  0.231797  1
  O  O67  1  0.603965  0.073692  0.244865  1
  O  O68  1  0.959374  0.776019  0.934714  1
  O  O69  1  0.725780  0.529937  0.940633  1
