# generated using pymatgen
data_SiO2
_symmetry_space_group_name_H-M   'P 1'
_cell_length_a   14.86942594
_cell_length_b   14.86942594
_cell_length_c   14.86942594
_cell_angle_alpha   149.36206932
_cell_angle_beta   149.36206932
_cell_angle_gamma   43.87862950
_symmetry_Int_Tables_number   1
_chemical_formula_structural   SiO2
_chemical_formula_sum   'Si16 O32'
_cell_volume   851.40141968
_cell_formula_units_Z   16
loop_
 _symmetry_equiv_pos_site_id
 _symmetry_equiv_pos_as_xyz
  1  'x, y, z'
loop_
 _atom_site_type_symbol
 _atom_site_label
 _atom_site_symmetry_multiplicity
 _atom_site_fract_x
 _atom_site_fract_y
 _atom_site_fract_z
 _atom_site_occupancy
  Si  Si0  1  0.885345  0.181870  0.703475  1
  Si  Si1  1  0.818130  0.114655  0.296525  1
  Si  Si2  1  0.931870  0.135345  0.203475  1
  Si  Si3  1  0.271605  0.068130  0.203475  1
  Si  Si4  1  0.692416  0.692416  0.384832  1
  Si  Si5  1  0.442416  0.557584  0.500000  1
  Si  Si6  1  0.818130  0.521605  0.703475  1
  Si  Si7  1  0.307584  0.307584  0.615168  1
  Si  Si8  1  0.307584  0.692416  0.000000  1
  Si  Si9  1  0.864655  0.068130  0.796525  1
  Si  Si10  1  0.057584  0.557584  0.115168  1
  Si  Si11  1  0.692416  0.307584  1.000000  1
  Si  Si12  1  0.478395  0.181870  0.296525  1
  Si  Si13  1  0.057584  0.942416  0.500000  1
  Si  Si14  1  0.442416  0.942416  0.884832  1
  Si  Si15  1  0.931870  0.728395  0.796525  1
  O  O16  1  0.964930  0.013160  0.390975  1
  O  O17  1  0.622185  0.573955  0.609025  1
  O  O18  1  0.785070  0.676045  0.548230  1
  O  O19  1  0.271717  0.987008  0.715290  1
  O  O20  1  0.478283  0.693573  0.215290  1
  O  O21  1  0.127815  0.676045  0.890975  1
  O  O22  1  0.810555  0.310555  0.500000  1
  O  O23  1  0.763160  0.214930  0.890975  1
  O  O24  1  0.060555  0.060555  0.000000  1
  O  O25  1  0.689445  0.189445  0.500000  1
  O  O26  1  0.763160  0.872185  0.548230  1
  O  O27  1  0.785070  0.236840  0.109025  1
  O  O28  1  0.964930  0.573955  0.951770  1
  O  O29  1  0.271717  0.556427  0.284710  1
  O  O30  1  0.986840  0.035070  0.609025  1
  O  O31  1  0.443573  0.728283  0.715290  1
  O  O32  1  0.012992  0.728283  0.284710  1
  O  O33  1  0.426045  0.035070  0.048230  1
  O  O34  1  0.323955  0.872185  0.109025  1
  O  O35  1  0.306427  0.521717  0.784710  1
  O  O36  1  0.875000  0.125000  0.250000  1
  O  O37  1  0.478283  0.262992  0.784710  1
  O  O38  1  0.127815  0.236840  0.451770  1
  O  O39  1  0.622185  0.013160  0.048230  1
  O  O40  1  0.737008  0.521717  0.215290  1
  O  O41  1  0.939445  0.939445  0.000000  1
  O  O42  1  0.323955  0.214930  0.451770  1
  O  O43  1  0.875000  0.125000  0.750000  1
  O  O44  1  0.426045  0.377815  0.390975  1
  O  O45  1  0.875000  0.625000  0.750000  1
  O  O46  1  0.375000  0.125000  0.250000  1
  O  O47  1  0.986840  0.377815  0.951770  1
