# generated using pymatgen
data_Cs2As4Pd3O14
_symmetry_space_group_name_H-M   'P 1'
_cell_length_a   16.56039614
_cell_length_b   16.56039614
_cell_length_c   6.17352048
_cell_angle_alpha   90.00000000
_cell_angle_beta   90.00000000
_cell_angle_gamma   90.00000000
_symmetry_Int_Tables_number   1
_chemical_formula_structural   Cs2As4Pd3O14
_chemical_formula_sum   'Cs8 As16 Pd12 O56'
_cell_volume   1693.06774443
_cell_formula_units_Z   4
loop_
 _symmetry_equiv_pos_site_id
 _symmetry_equiv_pos_as_xyz
  1  'x, y, z'
loop_
 _atom_site_type_symbol
 _atom_site_label
 _atom_site_symmetry_multiplicity
 _atom_site_fract_x
 _atom_site_fract_y
 _atom_site_fract_z
 _atom_site_occupancy
  Cs  Cs0  1  0.762623  0.918463  0.472496  1
  Cs  Cs1  1  0.581537  0.262623  0.472496  1
  Cs  Cs2  1  0.737377  0.581537  0.527504  1
  Cs  Cs3  1  0.418463  0.737377  0.472496  1
  Cs  Cs4  1  0.918463  0.237377  0.527504  1
  Cs  Cs5  1  0.262623  0.418463  0.527504  1
  Cs  Cs6  1  0.081537  0.762623  0.527504  1
  Cs  Cs7  1  0.237377  0.081537  0.472496  1
  As  As8  1  0.651480  0.082018  0.920191  1
  As  As9  1  0.571654  0.657119  0.002629  1
  As  As10  1  0.071654  0.157119  0.997371  1
  As  As11  1  0.417982  0.151480  0.920191  1
  As  As12  1  0.657119  0.428346  0.997371  1
  As  As13  1  0.348520  0.917982  0.920191  1
  As  As14  1  0.342881  0.571654  0.997371  1
  As  As15  1  0.082018  0.348520  0.079809  1
  As  As16  1  0.157119  0.928346  0.002629  1
  As  As17  1  0.928346  0.842881  0.997371  1
  As  As18  1  0.151480  0.582018  0.079809  1
  As  As19  1  0.848520  0.417982  0.079809  1
  As  As20  1  0.842881  0.071654  0.002629  1
  As  As21  1  0.917982  0.651480  0.079809  1
  As  As22  1  0.428346  0.342881  0.002629  1
  As  As23  1  0.582018  0.848520  0.920191  1
  Pd  Pd24  1  0.000000  0.500000  0.305635  1
  Pd  Pd25  1  0.000000  0.500000  0.848474  1
  Pd  Pd26  1  0.500000  0.500000  0.764108  1
  Pd  Pd27  1  0.500000  0.000000  0.694365  1
  Pd  Pd28  1  0.750000  0.750000  0.000000  1
  Pd  Pd29  1  0.500000  0.000000  0.151526  1
  Pd  Pd30  1  0.000000  0.000000  0.764108  1
  Pd  Pd31  1  0.500000  0.500000  0.235892  1
  Pd  Pd32  1  0.250000  0.250000  0.000000  1
  Pd  Pd33  1  0.250000  0.750000  0.000000  1
  Pd  Pd34  1  0.750000  0.250000  0.000000  1
  Pd  Pd35  1  0.000000  0.000000  0.235892  1
  O  O36  1  0.912162  0.411068  0.860086  1
  O  O37  1  0.258599  0.965641  0.026509  1
  O  O38  1  0.033220  0.118558  0.759998  1
  O  O39  1  0.675469  0.653085  0.004482  1
  O  O40  1  0.684095  0.172646  0.815168  1
  O  O41  1  0.153085  0.824531  0.004482  1
  O  O42  1  0.120404  0.966953  0.763179  1
  O  O43  1  0.175469  0.153085  0.995518  1
  O  O44  1  0.741401  0.034359  0.026509  1
  O  O45  1  0.466953  0.379596  0.763179  1
  O  O46  1  0.827354  0.684095  0.184832  1
  O  O47  1  0.118558  0.966780  0.240002  1
  O  O48  1  0.465641  0.241401  0.026509  1
  O  O49  1  0.533220  0.618558  0.240002  1
  O  O50  1  0.478797  0.122479  0.707240  1
  O  O51  1  0.911068  0.587838  0.860086  1
  O  O52  1  0.978797  0.622479  0.292760  1
  O  O53  1  0.966780  0.881442  0.759998  1
  O  O54  1  0.965641  0.741401  0.973491  1
  O  O55  1  0.881442  0.033220  0.240002  1
  O  O56  1  0.088932  0.412162  0.860086  1
  O  O57  1  0.033047  0.120404  0.236821  1
  O  O58  1  0.618558  0.466780  0.759998  1
  O  O59  1  0.758599  0.465641  0.973491  1
  O  O60  1  0.966953  0.879596  0.236821  1
  O  O61  1  0.122479  0.521203  0.292760  1
  O  O62  1  0.377521  0.978797  0.707240  1
  O  O63  1  0.815905  0.327354  0.184832  1
  O  O64  1  0.034359  0.258599  0.973491  1
  O  O65  1  0.846915  0.175469  0.004482  1
  O  O66  1  0.412162  0.911068  0.139914  1
  O  O67  1  0.879596  0.033047  0.763179  1
  O  O68  1  0.411068  0.087838  0.139914  1
  O  O69  1  0.087838  0.588932  0.860086  1
  O  O70  1  0.533047  0.620404  0.763179  1
  O  O71  1  0.241401  0.534359  0.973491  1
  O  O72  1  0.672646  0.815905  0.815168  1
  O  O73  1  0.653085  0.324531  0.995518  1
  O  O74  1  0.324531  0.346915  0.004482  1
  O  O75  1  0.184095  0.672646  0.184832  1
  O  O76  1  0.534359  0.758599  0.026509  1
  O  O77  1  0.466780  0.381442  0.240002  1
  O  O78  1  0.622479  0.021203  0.707240  1
  O  O79  1  0.587838  0.088932  0.139914  1
  O  O80  1  0.381442  0.533220  0.759998  1
  O  O81  1  0.021203  0.377521  0.292760  1
  O  O82  1  0.588932  0.912162  0.139914  1
  O  O83  1  0.172646  0.315905  0.184832  1
  O  O84  1  0.327354  0.184095  0.815168  1
  O  O85  1  0.379596  0.533047  0.236821  1
  O  O86  1  0.346915  0.675469  0.995518  1
  O  O87  1  0.521203  0.877521  0.707240  1
  O  O88  1  0.620404  0.466953  0.236821  1
  O  O89  1  0.877521  0.478797  0.292760  1
  O  O90  1  0.824531  0.846915  0.995518  1
  O  O91  1  0.315905  0.827354  0.815168  1
