# generated using pymatgen
data_CuAg5As3O11
_symmetry_space_group_name_H-M   'P 1'
_cell_length_a   5.99100339
_cell_length_b   9.14941141
_cell_length_c   10.54016176
_cell_angle_alpha   96.92508093
_cell_angle_beta   91.22713971
_cell_angle_gamma   92.10421369
_symmetry_Int_Tables_number   1
_chemical_formula_structural   CuAg5As3O11
_chemical_formula_sum   'Cu2 Ag10 As6 O22'
_cell_volume   572.95392579
_cell_formula_units_Z   2
loop_
 _symmetry_equiv_pos_site_id
 _symmetry_equiv_pos_as_xyz
  1  'x, y, z'
loop_
 _atom_site_type_symbol
 _atom_site_label
 _atom_site_symmetry_multiplicity
 _atom_site_fract_x
 _atom_site_fract_y
 _atom_site_fract_z
 _atom_site_occupancy
  Cu  Cu0  1  0.500000  0.000000  0.500000  1
  Cu  Cu1  1  0.000000  0.000000  0.000000  1
  Ag  Ag2  1  0.791682  0.323306  0.655571  1
  Ag  Ag3  1  0.711270  0.341112  0.310451  1
  Ag  Ag4  1  0.450240  0.990941  0.831719  1
  Ag  Ag5  1  0.745722  0.676210  0.168373  1
  Ag  Ag6  1  0.746877  0.645627  0.869855  1
  Ag  Ag7  1  0.208318  0.676694  0.344429  1
  Ag  Ag8  1  0.288730  0.658888  0.689549  1
  Ag  Ag9  1  0.549760  0.009059  0.168281  1
  Ag  Ag10  1  0.253123  0.354373  0.130145  1
  Ag  Ag11  1  0.254278  0.323790  0.831627  1
  As  As12  1  0.728298  0.682641  0.522765  1
  As  As13  1  0.255094  0.704611  0.012159  1
  As  As14  1  0.954521  0.965857  0.690733  1
  As  As15  1  0.045479  0.034143  0.309267  1
  As  As16  1  0.271702  0.317359  0.477235  1
  As  As17  1  0.744906  0.295389  0.987841  1
  O  O18  1  0.351640  0.610006  0.133001  1
  O  O19  1  0.504747  0.210344  0.481135  1
  O  O20  1  0.321994  0.431015  0.363868  1
  O  O21  1  0.495253  0.789656  0.518865  1
  O  O22  1  0.966191  0.188227  0.929017  1
  O  O23  1  0.717763  0.054495  0.650660  1
  O  O24  1  0.282237  0.945505  0.349340  1
  O  O25  1  0.031180  0.197152  0.423638  1
  O  O26  1  0.473767  0.821263  0.975547  1
  O  O27  1  0.033809  0.811773  0.070983  1
  O  O28  1  0.158445  0.588433  0.879930  1
  O  O29  1  0.526233  0.178737  0.024453  1
  O  O30  1  0.820015  0.600253  0.381230  1
  O  O31  1  0.204491  0.054496  0.675016  1
  O  O32  1  0.968820  0.802848  0.576362  1
  O  O33  1  0.841555  0.411567  0.120070  1
  O  O34  1  0.924445  0.891533  0.832938  1
  O  O35  1  0.179985  0.399747  0.618770  1
  O  O36  1  0.648360  0.389994  0.866999  1
  O  O37  1  0.678006  0.568985  0.636132  1
  O  O38  1  0.795509  0.945504  0.324984  1
  O  O39  1  0.075555  0.108467  0.167062  1
