# generated using pymatgen
data_Cs3Sm(PS4)2
_symmetry_space_group_name_H-M   'P 1'
_cell_length_a   15.65281155
_cell_length_b   7.02327450
_cell_length_c   20.27238508
_cell_angle_alpha   90.00000000
_cell_angle_beta   129.73399912
_cell_angle_gamma   90.00000000
_symmetry_Int_Tables_number   1
_chemical_formula_structural   Cs3Sm(PS4)2
_chemical_formula_sum   'Cs12 Sm4 P8 S32'
_cell_volume   1713.85744106
_cell_formula_units_Z   4
loop_
 _symmetry_equiv_pos_site_id
 _symmetry_equiv_pos_as_xyz
  1  'x, y, z'
loop_
 _atom_site_type_symbol
 _atom_site_label
 _atom_site_symmetry_multiplicity
 _atom_site_fract_x
 _atom_site_fract_y
 _atom_site_fract_z
 _atom_site_occupancy
  Cs  Cs0  1  0.155342  0.741625  0.878306  1
  Cs  Cs1  1  0.063498  0.746369  0.610417  1
  Cs  Cs2  1  0.936502  0.246369  0.889583  1
  Cs  Cs3  1  0.844658  0.241625  0.621694  1
  Cs  Cs4  1  0.417097  0.244440  0.024891  1
  Cs  Cs5  1  0.936502  0.253631  0.389583  1
  Cs  Cs6  1  0.582903  0.755560  0.975109  1
  Cs  Cs7  1  0.155342  0.758375  0.378306  1
  Cs  Cs8  1  0.582903  0.744440  0.475109  1
  Cs  Cs9  1  0.417097  0.255560  0.524891  1
  Cs  Cs10  1  0.063498  0.753631  0.110417  1
  Cs  Cs11  1  0.844658  0.258375  0.121694  1
  Sm  Sm12  1  0.646553  0.768394  0.770120  1
  Sm  Sm13  1  0.353447  0.268394  0.729880  1
  Sm  Sm14  1  0.646553  0.731606  0.270120  1
  Sm  Sm15  1  0.353447  0.231606  0.229880  1
  P  P16  1  0.806771  0.744916  0.725086  1
  P  P17  1  0.651052  0.274459  0.368659  1
  P  P18  1  0.806771  0.755084  0.225086  1
  P  P19  1  0.348948  0.725541  0.631341  1
  P  P20  1  0.193229  0.244916  0.774914  1
  P  P21  1  0.348948  0.774459  0.131341  1
  P  P22  1  0.193229  0.255084  0.274914  1
  P  P23  1  0.651052  0.225541  0.868659  1
  S  S24  1  0.703578  0.986196  0.187770  1
  S  S25  1  0.556044  0.248976  0.405529  1
  S  S26  1  0.755789  0.505980  0.425316  1
  S  S27  1  0.540970  0.339435  0.239408  1
  S  S28  1  0.296422  0.486196  0.312230  1
  S  S29  1  0.115714  0.261274  0.325097  1
  S  S30  1  0.244211  0.494020  0.574684  1
  S  S31  1  0.291614  0.014030  0.313841  1
  S  S32  1  0.094112  0.251430  0.143332  1
  S  S33  1  0.743982  0.467506  0.901268  1
  S  S34  1  0.244211  0.005980  0.074684  1
  S  S35  1  0.291614  0.485970  0.813841  1
  S  S36  1  0.703578  0.513804  0.687770  1
  S  S37  1  0.256018  0.532494  0.098732  1
  S  S38  1  0.884286  0.738726  0.674903  1
  S  S39  1  0.459030  0.660565  0.760592  1
  S  S40  1  0.708386  0.985970  0.686159  1
  S  S41  1  0.708386  0.514030  0.186159  1
  S  S42  1  0.459030  0.839435  0.260592  1
  S  S43  1  0.743982  0.032494  0.401268  1
  S  S44  1  0.256018  0.967506  0.598732  1
  S  S45  1  0.540970  0.160565  0.739408  1
  S  S46  1  0.443956  0.748976  0.094471  1
  S  S47  1  0.884286  0.761274  0.174903  1
  S  S48  1  0.556044  0.251024  0.905529  1
  S  S49  1  0.094112  0.248570  0.643332  1
  S  S50  1  0.296422  0.013804  0.812230  1
  S  S51  1  0.905888  0.751430  0.356668  1
  S  S52  1  0.755789  0.994020  0.925316  1
  S  S53  1  0.115714  0.238726  0.825097  1
  S  S54  1  0.905888  0.748570  0.856668  1
  S  S55  1  0.443956  0.751024  0.594471  1
