# generated using pymatgen
data_Sr(InAu)2
_symmetry_space_group_name_H-M   'P 1'
_cell_length_a   4.75122402
_cell_length_b   8.69026778
_cell_length_c   12.47522113
_cell_angle_alpha   90.00000000
_cell_angle_beta   90.00000000
_cell_angle_gamma   90.00000000
_symmetry_Int_Tables_number   1
_chemical_formula_structural   Sr(InAu)2
_chemical_formula_sum   'Sr4 In8 Au8'
_cell_volume   515.09450781
_cell_formula_units_Z   4
loop_
 _symmetry_equiv_pos_site_id
 _symmetry_equiv_pos_as_xyz
  1  'x, y, z'
loop_
 _atom_site_type_symbol
 _atom_site_label
 _atom_site_symmetry_multiplicity
 _atom_site_fract_x
 _atom_site_fract_y
 _atom_site_fract_z
 _atom_site_occupancy
  Sr  Sr0  1  0.250000  0.289480  0.667600  1
  Sr  Sr1  1  0.250000  0.789480  0.832400  1
  Sr  Sr2  1  0.750000  0.710520  0.332400  1
  Sr  Sr3  1  0.750000  0.210520  0.167600  1
  In  In4  1  0.250000  0.906135  0.553231  1
  In  In5  1  0.750000  0.093865  0.446769  1
  In  In6  1  0.750000  0.593865  0.053231  1
  In  In7  1  0.250000  0.406135  0.946769  1
  In  In8  1  0.250000  0.346209  0.360995  1
  In  In9  1  0.750000  0.153791  0.860995  1
  In  In10  1  0.750000  0.653791  0.639005  1
  In  In11  1  0.250000  0.846209  0.139005  1
  Au  Au12  1  0.250000  0.009505  0.330884  1
  Au  Au13  1  0.250000  0.593405  0.515916  1
  Au  Au14  1  0.750000  0.490495  0.830884  1
  Au  Au15  1  0.750000  0.406595  0.484084  1
  Au  Au16  1  0.250000  0.509505  0.169116  1
  Au  Au17  1  0.750000  0.906595  0.015916  1
  Au  Au18  1  0.250000  0.093405  0.984084  1
  Au  Au19  1  0.750000  0.990495  0.669116  1
