# generated using pymatgen
data_V3O5
_symmetry_space_group_name_H-M   'P 1'
_cell_length_a   5.71623188
_cell_length_b   5.71623188
_cell_length_c   7.08837825
_cell_angle_alpha   70.11437540
_cell_angle_beta   109.88562460
_cell_angle_gamma   125.86577329
_symmetry_Int_Tables_number   1
_chemical_formula_structural   V3O5
_chemical_formula_sum   'V6 O10'
_cell_volume   173.46571870
_cell_formula_units_Z   2
loop_
 _symmetry_equiv_pos_site_id
 _symmetry_equiv_pos_as_xyz
  1  'x, y, z'
loop_
 _atom_site_type_symbol
 _atom_site_label
 _atom_site_symmetry_multiplicity
 _atom_site_fract_x
 _atom_site_fract_y
 _atom_site_fract_z
 _atom_site_occupancy
  V  V0  1  0.628164  0.367942  0.221653  1
  V  V1  1  0.632058  0.371836  0.721653  1
  V  V2  1  0.371836  0.632058  0.778347  1
  V  V3  1  0.367942  0.628164  0.278347  1
  V  V4  1  0.000000  0.000000  0.000000  1
  V  V5  1  1.000000  0.000000  0.500000  1
  O  O6  1  0.037144  0.649242  0.663728  1
  O  O7  1  0.350758  0.962856  0.163728  1
  O  O8  1  0.962856  0.350758  0.336272  1
  O  O9  1  0.649242  0.037144  0.836272  1
  O  O10  1  0.730718  0.572376  0.942746  1
  O  O11  1  0.427624  0.269282  0.442746  1
  O  O12  1  0.269282  0.427624  0.057254  1
  O  O13  1  0.572376  0.730718  0.557254  1
  O  O14  1  0.193757  0.193757  0.750000  1
  O  O15  1  0.806243  0.806243  0.250000  1
