# generated using pymatgen
data_Sr2TbGaCu2O7
_symmetry_space_group_name_H-M   'P 1'
_cell_length_a   12.22917441
_cell_length_b   12.22917441
_cell_length_c   12.22917441
_cell_angle_alpha   154.41175504
_cell_angle_beta   153.83495470
_cell_angle_gamma   36.92250975
_symmetry_Int_Tables_number   1
_chemical_formula_structural   Sr2TbGaCu2O7
_chemical_formula_sum   'Sr4 Tb2 Ga2 Cu4 O14'
_cell_volume   347.83026789
_cell_formula_units_Z   2
loop_
 _symmetry_equiv_pos_site_id
 _symmetry_equiv_pos_as_xyz
  1  'x, y, z'
loop_
 _atom_site_type_symbol
 _atom_site_label
 _atom_site_symmetry_multiplicity
 _atom_site_fract_x
 _atom_site_fract_y
 _atom_site_fract_z
 _atom_site_occupancy
  Sr  Sr0  1  0.669841  0.650029  0.016733  1
  Sr  Sr1  1  0.330159  0.346892  0.980188  1
  Sr  Sr2  1  0.133296  0.150029  0.980188  1
  Sr  Sr3  1  0.866704  0.846892  0.016733  1
  Tb  Tb4  1  0.500000  0.500476  0.000476  1
  Tb  Tb5  1  0.000000  0.000476  0.000476  1
  Ga  Ga6  1  0.680857  0.211962  0.392819  1
  Ga  Ga7  1  0.319143  0.711962  0.531105  1
  Cu  Cu8  1  0.570590  0.072456  0.499776  1
  Cu  Cu9  1  0.429410  0.929186  0.501865  1
  Cu  Cu10  1  0.072679  0.572456  0.501865  1
  Cu  Cu11  1  0.927321  0.429186  0.499776  1
  O  O12  1  0.366509  0.359648  0.226157  1
  O  O13  1  0.633491  0.859648  0.993139  1
  O  O14  1  0.314013  0.315000  0.500861  1
  O  O15  1  0.685987  0.186848  0.000987  1
  O  O16  1  0.314139  0.815000  0.000987  1
  O  O17  1  0.685861  0.686848  0.500861  1
  O  O18  1  0.810462  0.811579  0.498243  1
  O  O19  1  0.189538  0.687781  0.001117  1
  O  O20  1  0.813336  0.311579  0.001117  1
  O  O21  1  0.186664  0.187781  0.498243  1
  O  O22  1  0.130191  0.706155  0.482348  1
  O  O23  1  0.869809  0.352157  0.575964  1
  O  O24  1  0.723807  0.206155  0.575964  1
  O  O25  1  0.276193  0.852157  0.482348  1
