# generated using pymatgen
data_CuHgSBr
_symmetry_space_group_name_H-M   'P 1'
_cell_length_a   4.09921924
_cell_length_b   10.16259971
_cell_length_c   19.05441351
_cell_angle_alpha   90.00000000
_cell_angle_beta   90.00000000
_cell_angle_gamma   90.00000000
_symmetry_Int_Tables_number   1
_chemical_formula_structural   CuHgSBr
_chemical_formula_sum   'Cu8 Hg8 S8 Br8'
_cell_volume   793.78255834
_cell_formula_units_Z   8
loop_
 _symmetry_equiv_pos_site_id
 _symmetry_equiv_pos_as_xyz
  1  'x, y, z'
loop_
 _atom_site_type_symbol
 _atom_site_label
 _atom_site_symmetry_multiplicity
 _atom_site_fract_x
 _atom_site_fract_y
 _atom_site_fract_z
 _atom_site_occupancy
  Cu  Cu0  1  0.000000  0.935640  0.088558  1
  Cu  Cu1  1  0.000000  0.564360  0.588558  1
  Cu  Cu2  1  0.000000  0.417446  0.884944  1
  Cu  Cu3  1  0.000000  0.582554  0.115056  1
  Cu  Cu4  1  0.000000  0.917446  0.615056  1
  Cu  Cu5  1  0.000000  0.082554  0.384944  1
  Cu  Cu6  1  0.000000  0.435640  0.411442  1
  Cu  Cu7  1  0.000000  0.064360  0.911442  1
  Hg  Hg8  1  0.500000  0.014536  0.757629  1
  Hg  Hg9  1  0.500000  0.247135  0.610253  1
  Hg  Hg10  1  0.500000  0.985464  0.242371  1
  Hg  Hg11  1  0.500000  0.485464  0.257629  1
  Hg  Hg12  1  0.500000  0.514536  0.742371  1
  Hg  Hg13  1  0.500000  0.747135  0.889747  1
  Hg  Hg14  1  0.500000  0.252865  0.110253  1
  Hg  Hg15  1  0.500000  0.752865  0.389747  1
  S  S16  1  0.500000  0.488061  0.614629  1
  S  S17  1  0.500000  0.009665  0.629454  1
  S  S18  1  0.500000  0.990335  0.370546  1
  S  S19  1  0.500000  0.988061  0.885371  1
  S  S20  1  0.500000  0.490335  0.129454  1
  S  S21  1  0.500000  0.509665  0.870546  1
  S  S22  1  0.500000  0.011939  0.114629  1
  S  S23  1  0.500000  0.511939  0.385371  1
  Br  Br24  1  0.000000  0.739748  0.015123  1
  Br  Br25  1  0.000000  0.744834  0.226424  1
  Br  Br26  1  0.000000  0.755166  0.726424  1
  Br  Br27  1  0.000000  0.260252  0.984877  1
  Br  Br28  1  0.000000  0.760252  0.515123  1
  Br  Br29  1  0.000000  0.255166  0.773576  1
  Br  Br30  1  0.000000  0.244834  0.273576  1
  Br  Br31  1  0.000000  0.239748  0.484877  1
