# generated using pymatgen
data_NaBi2Sb3O11
_symmetry_space_group_name_H-M   'P 1'
_cell_length_a   9.64539740
_cell_length_b   9.64539740
_cell_length_c   9.64539740
_cell_angle_alpha   90.00000000
_cell_angle_beta   90.00000000
_cell_angle_gamma   90.00000000
_symmetry_Int_Tables_number   1
_chemical_formula_structural   NaBi2Sb3O11
_chemical_formula_sum   'Na4 Bi8 Sb12 O44'
_cell_volume   897.34692132
_cell_formula_units_Z   4
loop_
 _symmetry_equiv_pos_site_id
 _symmetry_equiv_pos_as_xyz
  1  'x, y, z'
loop_
 _atom_site_type_symbol
 _atom_site_label
 _atom_site_symmetry_multiplicity
 _atom_site_fract_x
 _atom_site_fract_y
 _atom_site_fract_z
 _atom_site_occupancy
  Na  Na0  1  0.250000  0.250000  0.750000  1
  Na  Na1  1  0.750000  0.750000  0.750000  1
  Na  Na2  1  0.750000  0.250000  0.250000  1
  Na  Na3  1  0.250000  0.750000  0.250000  1
  Bi  Bi4  1  0.873970  0.873970  0.126030  1
  Bi  Bi5  1  0.373970  0.626030  0.626030  1
  Bi  Bi6  1  0.373970  0.373970  0.373970  1
  Bi  Bi7  1  0.873970  0.126030  0.873970  1
  Bi  Bi8  1  0.626030  0.373970  0.626030  1
  Bi  Bi9  1  0.126030  0.126030  0.126030  1
  Bi  Bi10  1  0.126030  0.873970  0.873970  1
  Bi  Bi11  1  0.626030  0.626030  0.373970  1
  Sb  Sb12  1  0.500000  0.839363  0.000000  1
  Sb  Sb13  1  0.000000  0.339363  0.500000  1
  Sb  Sb14  1  0.339363  0.500000  0.000000  1
  Sb  Sb15  1  0.500000  0.000000  0.660637  1
  Sb  Sb16  1  0.660637  0.500000  0.000000  1
  Sb  Sb17  1  0.160637  0.000000  0.500000  1
  Sb  Sb18  1  0.000000  0.660637  0.500000  1
  Sb  Sb19  1  0.500000  0.000000  0.339363  1
  Sb  Sb20  1  0.000000  0.500000  0.160637  1
  Sb  Sb21  1  0.000000  0.500000  0.839363  1
  Sb  Sb22  1  0.839363  0.000000  0.500000  1
  Sb  Sb23  1  0.500000  0.160637  0.000000  1
  O  O24  1  0.000000  0.637088  0.000000  1
  O  O25  1  0.838507  0.210910  0.500108  1
  O  O26  1  0.710910  0.999892  0.338507  1
  O  O27  1  0.500000  0.862912  0.500000  1
  O  O28  1  0.000000  0.000000  0.637088  1
  O  O29  1  0.661493  0.710910  0.000108  1
  O  O30  1  0.289090  0.999892  0.661493  1
  O  O31  1  0.862912  0.500000  0.500000  1
  O  O32  1  0.789090  0.500108  0.161493  1
  O  O33  1  0.500000  0.500000  0.137088  1
  O  O34  1  0.210910  0.500108  0.838507  1
  O  O35  1  0.999892  0.661493  0.289090  1
  O  O36  1  0.637088  0.000000  0.000000  1
  O  O37  1  0.838507  0.789090  0.499892  1
  O  O38  1  0.397165  0.602835  0.397165  1
  O  O39  1  0.500000  0.137088  0.500000  1
  O  O40  1  0.500108  0.838507  0.210910  1
  O  O41  1  0.897165  0.102835  0.102835  1
  O  O42  1  0.137088  0.500000  0.500000  1
  O  O43  1  0.500000  0.500000  0.862912  1
  O  O44  1  0.338507  0.289090  0.000108  1
  O  O45  1  0.000108  0.338507  0.289090  1
  O  O46  1  0.362912  0.000000  0.000000  1
  O  O47  1  0.661493  0.289090  0.999892  1
  O  O48  1  0.102835  0.897165  0.102835  1
  O  O49  1  0.289090  0.000108  0.338507  1
  O  O50  1  0.710910  0.000108  0.661493  1
  O  O51  1  0.338507  0.710910  0.999892  1
  O  O52  1  0.897165  0.897165  0.897165  1
  O  O53  1  0.999892  0.338507  0.710910  1
  O  O54  1  0.602835  0.397165  0.397165  1
  O  O55  1  0.161493  0.210910  0.499892  1
  O  O56  1  0.161493  0.789090  0.500108  1
  O  O57  1  0.499892  0.838507  0.789090  1
  O  O58  1  0.000000  0.362912  0.000000  1
  O  O59  1  0.500108  0.161493  0.789090  1
  O  O60  1  0.000108  0.661493  0.710910  1
  O  O61  1  0.210910  0.499892  0.161493  1
  O  O62  1  0.789090  0.499892  0.838507  1
  O  O63  1  0.397165  0.397165  0.602835  1
  O  O64  1  0.602835  0.602835  0.602835  1
  O  O65  1  0.102835  0.102835  0.897165  1
  O  O66  1  0.000000  0.000000  0.362912  1
  O  O67  1  0.499892  0.161493  0.210910  1
