# generated using pymatgen
data_Cs11O3
_symmetry_space_group_name_H-M   'P 1'
_cell_length_a   17.82712016
_cell_length_b   9.34977427
_cell_length_c   24.33323432
_cell_angle_alpha   90.00000000
_cell_angle_beta   100.20009364
_cell_angle_gamma   90.00000000
_symmetry_Int_Tables_number   1
_chemical_formula_structural   Cs11O3
_chemical_formula_sum   'Cs44 O12'
_cell_volume   3991.75107438
_cell_formula_units_Z   4
loop_
 _symmetry_equiv_pos_site_id
 _symmetry_equiv_pos_as_xyz
  1  'x, y, z'
loop_
 _atom_site_type_symbol
 _atom_site_label
 _atom_site_symmetry_multiplicity
 _atom_site_fract_x
 _atom_site_fract_y
 _atom_site_fract_z
 _atom_site_occupancy
  Cs  Cs0  1  0.220054  0.885844  0.323060  1
  Cs  Cs1  1  0.934055  0.196858  0.568206  1
  Cs  Cs2  1  0.684067  0.263185  0.031057  1
  Cs  Cs3  1  0.435842  0.070312  0.382210  1
  Cs  Cs4  1  0.848711  0.329286  0.349114  1
  Cs  Cs5  1  0.779946  0.385844  0.176940  1
  Cs  Cs6  1  0.761129  0.580909  0.831030  1
  Cs  Cs7  1  0.838371  0.604692  0.545971  1
  Cs  Cs8  1  0.303250  0.980722  0.840907  1
  Cs  Cs9  1  0.564158  0.929688  0.617790  1
  Cs  Cs10  1  0.838371  0.895308  0.045971  1
  Cs  Cs11  1  0.684067  0.236815  0.531057  1
  Cs  Cs12  1  0.065945  0.803142  0.431794  1
  Cs  Cs13  1  0.315933  0.763185  0.468943  1
  Cs  Cs14  1  0.065945  0.696858  0.931794  1
  Cs  Cs15  1  0.525850  0.667262  0.401458  1
  Cs  Cs16  1  0.161629  0.104692  0.954029  1
  Cs  Cs17  1  0.696750  0.019278  0.159093  1
  Cs  Cs18  1  0.091393  0.557543  0.283248  1
  Cs  Cs19  1  0.779946  0.114156  0.676940  1
  Cs  Cs20  1  0.151289  0.670714  0.650886  1
  Cs  Cs21  1  0.525850  0.832738  0.901458  1
  Cs  Cs22  1  0.934055  0.303142  0.068206  1
  Cs  Cs23  1  0.315933  0.736815  0.968943  1
  Cs  Cs24  1  0.908607  0.442457  0.716752  1
  Cs  Cs25  1  0.161629  0.395308  0.454029  1
  Cs  Cs26  1  0.619975  0.220184  0.756578  1
  Cs  Cs27  1  0.474150  0.167262  0.098542  1
  Cs  Cs28  1  0.238871  0.419091  0.168970  1
  Cs  Cs29  1  0.435842  0.429688  0.882210  1
  Cs  Cs30  1  0.848711  0.170714  0.849114  1
  Cs  Cs31  1  0.220054  0.614156  0.823060  1
  Cs  Cs32  1  0.151289  0.829286  0.150886  1
  Cs  Cs33  1  0.908607  0.057543  0.216752  1
  Cs  Cs34  1  0.380025  0.779816  0.243422  1
  Cs  Cs35  1  0.474150  0.332738  0.598542  1
  Cs  Cs36  1  0.303250  0.519278  0.340907  1
  Cs  Cs37  1  0.696750  0.480722  0.659093  1
  Cs  Cs38  1  0.619975  0.279816  0.256578  1
  Cs  Cs39  1  0.380025  0.720184  0.743422  1
  Cs  Cs40  1  0.564158  0.570312  0.117790  1
  Cs  Cs41  1  0.091393  0.942457  0.783248  1
  Cs  Cs42  1  0.238871  0.080909  0.668970  1
  Cs  Cs43  1  0.761129  0.919091  0.331030  1
  O  O44  1  0.776378  0.341562  0.764196  1
  O  O45  1  0.383335  0.704666  0.865388  1
  O  O46  1  0.820385  0.145279  0.104864  1
  O  O47  1  0.820385  0.354721  0.604864  1
  O  O48  1  0.383335  0.795334  0.365388  1
  O  O49  1  0.616665  0.295334  0.134612  1
  O  O50  1  0.776378  0.158438  0.264196  1
  O  O51  1  0.179615  0.854721  0.895136  1
  O  O52  1  0.223622  0.658438  0.235804  1
  O  O53  1  0.179615  0.645279  0.395136  1
  O  O54  1  0.223622  0.841562  0.735804  1
  O  O55  1  0.616665  0.204666  0.634612  1
