# generated using pymatgen
data_BiB2O4F
_symmetry_space_group_name_H-M   'P 1'
_cell_length_a   6.79458921
_cell_length_b   6.79458921
_cell_length_c   6.52522022
_cell_angle_alpha   90.00000000
_cell_angle_beta   90.00000000
_cell_angle_gamma   120.00000000
_symmetry_Int_Tables_number   1
_chemical_formula_structural   BiB2O4F
_chemical_formula_sum   'Bi3 B6 O12 F3'
_cell_volume   260.88686548
_cell_formula_units_Z   3
loop_
 _symmetry_equiv_pos_site_id
 _symmetry_equiv_pos_as_xyz
  1  'x, y, z'
loop_
 _atom_site_type_symbol
 _atom_site_label
 _atom_site_symmetry_multiplicity
 _atom_site_fract_x
 _atom_site_fract_y
 _atom_site_fract_z
 _atom_site_occupancy
  Bi  Bi0  1  0.901152  0.626788  0.784887  1
  Bi  Bi1  1  0.725636  0.098848  0.118221  1
  Bi  Bi2  1  0.373212  0.274364  0.451554  1
  B  B3  1  0.430552  0.644287  0.783918  1
  B  B4  1  0.351382  0.289097  0.999820  1
  B  B5  1  0.213735  0.569448  0.117251  1
  B  B6  1  0.937715  0.648618  0.333154  1
  B  B7  1  0.355713  0.786265  0.450585  1
  B  B8  1  0.710903  0.062285  0.666487  1
  O  O9  1  0.981440  0.511355  0.185182  1
  O  O10  1  0.645630  0.869013  0.809798  1
  O  O11  1  0.368871  0.609672  0.567506  1
  O  O12  1  0.390328  0.759199  0.234173  1
  O  O13  1  0.130987  0.776617  0.476465  1
  O  O14  1  0.488645  0.470085  0.851849  1
  O  O15  1  0.775521  0.256116  0.802322  1
  O  O16  1  0.223383  0.354370  0.143132  1
  O  O17  1  0.480595  0.224479  0.135655  1
  O  O18  1  0.529915  0.018560  0.518515  1
  O  O19  1  0.240801  0.631129  0.900839  1
  O  O20  1  0.743884  0.519405  0.468989  1
  F  F21  1  0.902435  0.808157  0.209300  1
  F  F22  1  0.191843  0.094278  0.875967  1
  F  F23  1  0.905722  0.097565  0.542633  1
