# generated using pymatgen
data_Al2AgCl5O
_symmetry_space_group_name_H-M   'P 1'
_cell_length_a   11.54482675
_cell_length_b   12.58842799
_cell_length_c   13.31928361
_cell_angle_alpha   90.00000000
_cell_angle_beta   90.00000000
_cell_angle_gamma   90.00000000
_symmetry_Int_Tables_number   1
_chemical_formula_structural   Al2AgCl5O
_chemical_formula_sum   'Al16 Ag8 Cl40 O8'
_cell_volume   1935.70773922
_cell_formula_units_Z   8
loop_
 _symmetry_equiv_pos_site_id
 _symmetry_equiv_pos_as_xyz
  1  'x, y, z'
loop_
 _atom_site_type_symbol
 _atom_site_label
 _atom_site_symmetry_multiplicity
 _atom_site_fract_x
 _atom_site_fract_y
 _atom_site_fract_z
 _atom_site_occupancy
  Al  Al0  1  0.794270  0.540973  0.864534  1
  Al  Al1  1  0.514678  0.895198  0.997549  1
  Al  Al2  1  0.014678  0.604802  0.002451  1
  Al  Al3  1  0.705730  0.040973  0.864534  1
  Al  Al4  1  0.985322  0.395198  0.997549  1
  Al  Al5  1  0.205730  0.459027  0.135466  1
  Al  Al6  1  0.514678  0.604802  0.497549  1
  Al  Al7  1  0.985322  0.104802  0.497549  1
  Al  Al8  1  0.485322  0.395198  0.502451  1
  Al  Al9  1  0.294270  0.540973  0.635466  1
  Al  Al10  1  0.205730  0.040973  0.635466  1
  Al  Al11  1  0.705730  0.459027  0.364534  1
  Al  Al12  1  0.014678  0.895198  0.502451  1
  Al  Al13  1  0.294270  0.959027  0.135466  1
  Al  Al14  1  0.485322  0.104802  0.002451  1
  Al  Al15  1  0.794270  0.959027  0.364534  1
  Ag  Ag16  1  0.017932  0.348760  0.691700  1
  Ag  Ag17  1  0.982068  0.651240  0.308300  1
  Ag  Ag18  1  0.517932  0.348760  0.808300  1
  Ag  Ag19  1  0.517932  0.151240  0.308300  1
  Ag  Ag20  1  0.482068  0.651240  0.191700  1
  Ag  Ag21  1  0.982068  0.848760  0.808300  1
  Ag  Ag22  1  0.017932  0.151240  0.191700  1
  Ag  Ag23  1  0.482068  0.848760  0.691700  1
  Cl  Cl24  1  0.212353  0.288485  0.143181  1
  Cl  Cl25  1  0.632508  0.016661  0.425749  1
  Cl  Cl26  1  0.613850  0.689962  0.606510  1
  Cl  Cl27  1  0.287647  0.711515  0.643181  1
  Cl  Cl28  1  0.113850  0.689962  0.893490  1
  Cl  Cl29  1  0.132508  0.016661  0.074251  1
  Cl  Cl30  1  0.886150  0.189962  0.606510  1
  Cl  Cl31  1  0.712353  0.288485  0.356819  1
  Cl  Cl32  1  0.712353  0.211515  0.856819  1
  Cl  Cl33  1  0.787647  0.788485  0.356819  1
  Cl  Cl34  1  0.675399  0.970472  0.719365  1
  Cl  Cl35  1  0.287647  0.788485  0.143181  1
  Cl  Cl36  1  0.113850  0.810038  0.393490  1
  Cl  Cl37  1  0.445812  0.793191  0.883923  1
  Cl  Cl38  1  0.886150  0.310038  0.106510  1
  Cl  Cl39  1  0.367492  0.983339  0.574251  1
  Cl  Cl40  1  0.367492  0.516661  0.074251  1
  Cl  Cl41  1  0.824601  0.470472  0.719365  1
  Cl  Cl42  1  0.787647  0.711515  0.856819  1
  Cl  Cl43  1  0.054188  0.293191  0.883923  1
  Cl  Cl44  1  0.554188  0.206809  0.116077  1
  Cl  Cl45  1  0.945812  0.793191  0.616077  1
  Cl  Cl46  1  0.212353  0.211515  0.643181  1
  Cl  Cl47  1  0.613850  0.810038  0.106510  1
  Cl  Cl48  1  0.445812  0.706809  0.383923  1
  Cl  Cl49  1  0.945812  0.706809  0.116077  1
  Cl  Cl50  1  0.132508  0.483339  0.574251  1
  Cl  Cl51  1  0.324601  0.470472  0.780635  1
  Cl  Cl52  1  0.175399  0.529528  0.280635  1
  Cl  Cl53  1  0.386150  0.310038  0.393490  1
  Cl  Cl54  1  0.554188  0.293191  0.616077  1
  Cl  Cl55  1  0.386150  0.189962  0.893490  1
  Cl  Cl56  1  0.867492  0.983339  0.925749  1
  Cl  Cl57  1  0.324601  0.029528  0.280635  1
  Cl  Cl58  1  0.054188  0.206809  0.383923  1
  Cl  Cl59  1  0.175399  0.970472  0.780635  1
  Cl  Cl60  1  0.632508  0.483339  0.925749  1
  Cl  Cl61  1  0.824601  0.029528  0.219365  1
  Cl  Cl62  1  0.867492  0.516661  0.425749  1
  Cl  Cl63  1  0.675399  0.529528  0.219365  1
  O  O64  1  0.412000  0.988643  0.052668  1
  O  O65  1  0.912000  0.988643  0.447332  1
  O  O66  1  0.912000  0.511357  0.947332  1
  O  O67  1  0.088000  0.488643  0.052668  1
  O  O68  1  0.588000  0.011357  0.947332  1
  O  O69  1  0.412000  0.511357  0.552668  1
  O  O70  1  0.088000  0.011357  0.552668  1
  O  O71  1  0.588000  0.488643  0.447332  1
