# generated using pymatgen
data_Na2PtO3
_symmetry_space_group_name_H-M   'P 1'
_cell_length_a   10.55739283
_cell_length_b   10.06295105
_cell_length_c   5.57787211
_cell_angle_alpha   79.26144767
_cell_angle_beta   69.46761801
_cell_angle_gamma   31.27093432
_symmetry_Int_Tables_number   1
_chemical_formula_structural   Na2PtO3
_chemical_formula_sum   'Na8 Pt4 O12'
_cell_volume   280.10603503
_cell_formula_units_Z   4
loop_
 _symmetry_equiv_pos_site_id
 _symmetry_equiv_pos_as_xyz
  1  'x, y, z'
loop_
 _atom_site_type_symbol
 _atom_site_label
 _atom_site_symmetry_multiplicity
 _atom_site_fract_x
 _atom_site_fract_y
 _atom_site_fract_z
 _atom_site_occupancy
  Na  Na0  1  0.244190  0.244190  0.755810  1
  Na  Na1  1  0.920184  0.920184  0.079816  1
  Na  Na2  1  0.005810  0.005810  0.494190  1
  Na  Na3  1  0.494190  0.494190  0.005810  1
  Na  Na4  1  0.170184  0.170184  0.329816  1
  Na  Na5  1  0.329816  0.329816  0.170184  1
  Na  Na6  1  0.755810  0.755810  0.244190  1
  Na  Na7  1  0.079816  0.079816  0.920184  1
  Pt  Pt8  1  0.583570  0.583570  0.416430  1
  Pt  Pt9  1  0.666430  0.666430  0.833570  1
  Pt  Pt10  1  0.416430  0.416430  0.583570  1
  Pt  Pt11  1  0.833570  0.833570  0.666430  1
  O  O12  1  0.291274  0.708726  0.708726  1
  O  O13  1  0.663110  0.157573  0.794971  1
  O  O14  1  0.157573  0.663110  0.384346  1
  O  O15  1  0.794971  0.384346  0.663110  1
  O  O16  1  0.092427  0.586890  0.865654  1
  O  O17  1  0.384346  0.794971  0.157573  1
  O  O18  1  0.586890  0.092427  0.455029  1
  O  O19  1  0.541274  0.958726  0.958726  1
  O  O20  1  0.455029  0.865654  0.586890  1
  O  O21  1  0.865654  0.455029  0.092427  1
  O  O22  1  0.958726  0.541274  0.541274  1
  O  O23  1  0.708726  0.291274  0.291274  1
