# generated using pymatgen
data_TiH2SO6
_symmetry_space_group_name_H-M   'P 1'
_cell_length_a   5.15117719
_cell_length_b   8.78034422
_cell_length_c   10.01118911
_cell_angle_alpha   90.00000000
_cell_angle_beta   90.00000000
_cell_angle_gamma   90.00000000
_symmetry_Int_Tables_number   1
_chemical_formula_structural   TiH2SO6
_chemical_formula_sum   'Ti4 H8 S4 O24'
_cell_volume   452.79716214
_cell_formula_units_Z   4
loop_
 _symmetry_equiv_pos_site_id
 _symmetry_equiv_pos_as_xyz
  1  'x, y, z'
loop_
 _atom_site_type_symbol
 _atom_site_label
 _atom_site_symmetry_multiplicity
 _atom_site_fract_x
 _atom_site_fract_y
 _atom_site_fract_z
 _atom_site_occupancy
  Ti  Ti0  1  0.240760  0.711616  0.378397  1
  Ti  Ti1  1  0.740760  0.788384  0.621603  1
  Ti  Ti2  1  0.759240  0.211616  0.121603  1
  Ti  Ti3  1  0.259240  0.288384  0.878397  1
  H  H4  1  0.884834  0.929502  0.027929  1
  H  H5  1  0.384834  0.570498  0.972071  1
  H  H6  1  0.115166  0.429502  0.472071  1
  H  H7  1  0.615166  0.070498  0.527929  1
  H  H8  1  0.570793  0.929993  0.045639  1
  H  H9  1  0.070793  0.570007  0.954360  1
  H  H10  1  0.429207  0.429993  0.454361  1
  H  H11  1  0.929207  0.070007  0.545640  1
  S  S12  1  0.762825  0.583660  0.176554  1
  S  S13  1  0.262825  0.916340  0.823446  1
  S  S14  1  0.237175  0.083660  0.323446  1
  S  S15  1  0.737175  0.416340  0.676554  1
  O  O16  1  0.965861  0.736597  0.481201  1
  O  O17  1  0.465861  0.763403  0.518799  1
  O  O18  1  0.034139  0.236597  0.018799  1
  O  O19  1  0.534139  0.263403  0.981201  1
  O  O20  1  0.722221  0.612154  0.033600  1
  O  O21  1  0.222221  0.887846  0.966400  1
  O  O22  1  0.277779  0.112154  0.466400  1
  O  O23  1  0.777779  0.387846  0.533600  1
  O  O24  1  0.252773  0.914928  0.293929  1
  O  O25  1  0.752773  0.585072  0.706071  1
  O  O26  1  0.747227  0.414928  0.206071  1
  O  O27  1  0.247227  0.085072  0.793929  1
  O  O28  1  0.566096  0.660119  0.259797  1
  O  O29  1  0.066096  0.839881  0.740203  1
  O  O30  1  0.433904  0.160119  0.240203  1
  O  O31  1  0.933904  0.339881  0.759797  1
  O  O32  1  0.027781  0.636008  0.215021  1
  O  O33  1  0.527781  0.863992  0.784979  1
  O  O34  1  0.972219  0.136008  0.284979  1
  O  O35  1  0.472219  0.363992  0.715021  1
  O  O36  1  0.734970  0.979537  0.071691  1
  O  O37  1  0.234970  0.520463  0.928309  1
  O  O38  1  0.265030  0.479537  0.428309  1
  O  O39  1  0.765030  0.020463  0.571691  1
