# generated using pymatgen
data_Sr5(ReO6)2
_symmetry_space_group_name_H-M   'P 1'
_cell_length_a   20.01019393
_cell_length_b   20.01019393
_cell_length_c   20.01019393
_cell_angle_alpha   29.20252522
_cell_angle_beta   29.20252522
_cell_angle_gamma   29.20252522
_symmetry_Int_Tables_number   1
_chemical_formula_structural   Sr5(ReO6)2
_chemical_formula_sum   'Sr30 Re12 O72'
_cell_volume   1687.45430368
_cell_formula_units_Z   6
loop_
 _symmetry_equiv_pos_site_id
 _symmetry_equiv_pos_as_xyz
  1  'x, y, z'
loop_
 _atom_site_type_symbol
 _atom_site_label
 _atom_site_symmetry_multiplicity
 _atom_site_fract_x
 _atom_site_fract_y
 _atom_site_fract_z
 _atom_site_occupancy
  Sr  Sr0  1  0.303218  0.670539  0.965118  1
  Sr  Sr1  1  0.221923  0.915677  0.509988  1
  Sr  Sr2  1  0.034882  0.696782  0.329461  1
  Sr  Sr3  1  0.329461  0.034882  0.696782  1
  Sr  Sr4  1  0.084323  0.490012  0.778077  1
  Sr  Sr5  1  0.778077  0.084323  0.490012  1
  Sr  Sr6  1  0.534882  0.829461  0.196782  1
  Sr  Sr7  1  0.415677  0.721923  0.009988  1
  Sr  Sr8  1  0.915677  0.509988  0.221923  1
  Sr  Sr9  1  0.603818  0.603818  0.603818  1
  Sr  Sr10  1  0.803218  0.465118  0.170539  1
  Sr  Sr11  1  0.965118  0.303218  0.670539  1
  Sr  Sr12  1  0.829461  0.196782  0.534882  1
  Sr  Sr13  1  0.396182  0.396182  0.396182  1
  Sr  Sr14  1  0.509988  0.221923  0.915677  1
  Sr  Sr15  1  0.250000  0.250000  0.250000  1
  Sr  Sr16  1  0.696782  0.329461  0.034882  1
  Sr  Sr17  1  0.670539  0.965118  0.303218  1
  Sr  Sr18  1  0.490012  0.778077  0.084323  1
  Sr  Sr19  1  0.009988  0.415677  0.721923  1
  Sr  Sr20  1  0.170539  0.803218  0.465118  1
  Sr  Sr21  1  0.990012  0.584323  0.278077  1
  Sr  Sr22  1  0.465118  0.170539  0.803218  1
  Sr  Sr23  1  0.278077  0.990012  0.584323  1
  Sr  Sr24  1  0.103818  0.103818  0.103818  1
  Sr  Sr25  1  0.196782  0.534882  0.829461  1
  Sr  Sr26  1  0.584323  0.278077  0.990012  1
  Sr  Sr27  1  0.750000  0.750000  0.750000  1
  Sr  Sr28  1  0.896182  0.896182  0.896182  1
  Sr  Sr29  1  0.721923  0.009988  0.415677  1
  Re  Re30  1  0.338267  0.338267  0.338267  1
  Re  Re31  1  0.917882  0.250000  0.582118  1
  Re  Re32  1  0.417882  0.082118  0.750000  1
  Re  Re33  1  0.661733  0.661733  0.661733  1
  Re  Re34  1  0.082118  0.750000  0.417882  1
  Re  Re35  1  0.838267  0.838267  0.838267  1
  Re  Re36  1  0.250000  0.582118  0.917882  1
  Re  Re37  1  0.000000  1.000000  0.000000  1
  Re  Re38  1  0.500000  0.500000  0.500000  1
  Re  Re39  1  0.750000  0.417882  0.082118  1
  Re  Re40  1  0.161733  0.161733  0.161733  1
  Re  Re41  1  0.582118  0.917882  0.250000  1
  O  O42  1  0.208829  0.696937  0.775541  1
  O  O43  1  0.523166  0.815008  0.585199  1
  O  O44  1  0.837166  0.463940  0.447093  1
  O  O45  1  0.998948  0.696546  0.768331  1
  O  O46  1  0.036060  0.662834  0.052907  1
  O  O47  1  0.708829  0.275541  0.196937  1
  O  O48  1  0.978763  0.825595  0.139813  1
  O  O49  1  0.521237  0.360187  0.674405  1
  O  O50  1  0.914801  0.684992  0.976834  1
  O  O51  1  0.684992  0.976834  0.914801  1
  O  O52  1  0.552907  0.162834  0.536060  1
  O  O53  1  0.414801  0.476834  0.184992  1
  O  O54  1  0.815008  0.585199  0.523166  1
  O  O55  1  0.501052  0.731669  0.803454  1
  O  O56  1  0.585199  0.523166  0.815008  1
  O  O57  1  0.447093  0.837166  0.463940  1
  O  O58  1  0.476834  0.184992  0.414801  1
  O  O59  1  0.078087  0.274264  0.472925  1
  O  O60  1  0.527075  0.921913  0.725736  1
  O  O61  1  0.337166  0.947093  0.963940  1
  O  O62  1  0.303454  0.231669  0.001052  1
  O  O63  1  0.774264  0.578087  0.972925  1
  O  O64  1  0.662834  0.052907  0.036060  1
  O  O65  1  0.303063  0.224459  0.791171  1
  O  O66  1  0.027075  0.225736  0.421913  1
  O  O67  1  0.196546  0.498948  0.268331  1
  O  O68  1  0.174405  0.860187  0.021237  1
  O  O69  1  0.463940  0.447093  0.837166  1
  O  O70  1  0.639813  0.325595  0.478763  1
  O  O71  1  0.315008  0.023166  0.085199  1
  O  O72  1  0.725736  0.527075  0.921913  1
  O  O73  1  0.224459  0.791171  0.303063  1
  O  O74  1  0.231669  0.001052  0.303454  1
  O  O75  1  0.085199  0.315008  0.023166  1
  O  O76  1  0.860187  0.021237  0.174405  1
  O  O77  1  0.972925  0.774264  0.578087  1
  O  O78  1  0.768331  0.998948  0.696546  1
  O  O79  1  0.360187  0.674405  0.521237  1
  O  O80  1  0.775541  0.208829  0.696937  1
  O  O81  1  0.803454  0.501052  0.731669  1
  O  O82  1  0.825595  0.139813  0.978763  1
  O  O83  1  0.731669  0.803454  0.501052  1
  O  O84  1  0.674405  0.521237  0.360187  1
  O  O85  1  0.498948  0.268331  0.196546  1
  O  O86  1  0.921913  0.725736  0.527075  1
  O  O87  1  0.275541  0.196937  0.708829  1
  O  O88  1  0.268331  0.196546  0.498948  1
  O  O89  1  0.696546  0.768331  0.998948  1
  O  O90  1  0.021237  0.174405  0.860187  1
  O  O91  1  0.472925  0.078087  0.274264  1
  O  O92  1  0.225736  0.421913  0.027075  1
  O  O93  1  0.162834  0.536060  0.552907  1
  O  O94  1  0.052907  0.036060  0.662834  1
  O  O95  1  0.724459  0.803063  0.291171  1
  O  O96  1  0.536060  0.552907  0.162834  1
  O  O97  1  0.803063  0.291171  0.724459  1
  O  O98  1  0.274264  0.472925  0.078087  1
  O  O99  1  0.947093  0.963940  0.337166  1
  O  O100  1  0.421913  0.027075  0.225736  1
  O  O101  1  0.976834  0.914801  0.684992  1
  O  O102  1  0.291171  0.724459  0.803063  1
  O  O103  1  0.023166  0.085199  0.315008  1
  O  O104  1  0.578087  0.972925  0.774264  1
  O  O105  1  0.196937  0.708829  0.275541  1
  O  O106  1  0.325595  0.478763  0.639813  1
  O  O107  1  0.696937  0.775541  0.208829  1
  O  O108  1  0.139813  0.978763  0.825595  1
  O  O109  1  0.791171  0.303063  0.224459  1
  O  O110  1  0.001052  0.303454  0.231669  1
  O  O111  1  0.963940  0.337166  0.947093  1
  O  O112  1  0.184992  0.414801  0.476834  1
  O  O113  1  0.478763  0.639813  0.325595  1
