# generated using pymatgen
data_Tb2In16Pt7
_symmetry_space_group_name_H-M   'P 1'
_cell_length_a   11.87147427
_cell_length_b   11.87147427
_cell_length_c   4.46614996
_cell_angle_alpha   90.00000000
_cell_angle_beta   90.00000000
_cell_angle_gamma   117.25660491
_symmetry_Int_Tables_number   1
_chemical_formula_structural   Tb2In16Pt7
_chemical_formula_sum   'Tb2 In16 Pt7'
_cell_volume   559.53461484
_cell_formula_units_Z   1
loop_
 _symmetry_equiv_pos_site_id
 _symmetry_equiv_pos_as_xyz
  1  'x, y, z'
loop_
 _atom_site_type_symbol
 _atom_site_label
 _atom_site_symmetry_multiplicity
 _atom_site_fract_x
 _atom_site_fract_y
 _atom_site_fract_z
 _atom_site_occupancy
  Tb  Tb0  1  0.831186  0.831186  0.500000  1
  Tb  Tb1  1  0.168814  0.168814  0.500000  1
  In  In2  1  0.141292  0.588303  1.000000  1
  In  In3  1  0.367834  0.367834  0.000000  1
  In  In4  1  0.588303  0.141292  0.000000  1
  In  In5  1  0.256534  0.482857  0.500000  1
  In  In6  1  0.743466  0.517143  0.500000  1
  In  In7  1  0.858708  0.411697  1.000000  1
  In  In8  1  0.961669  0.287221  0.500000  1
  In  In9  1  0.287221  0.961669  0.500000  1
  In  In10  1  0.712779  0.038331  0.500000  1
  In  In11  1  0.632166  0.632166  0.000000  1
  In  In12  1  0.482857  0.256534  0.500000  1
  In  In13  1  0.926914  0.073086  0.000000  1
  In  In14  1  0.517143  0.743466  0.500000  1
  In  In15  1  0.038331  0.712779  0.500000  1
  In  In16  1  0.073086  0.926914  1.000000  1
  In  In17  1  0.411697  0.858708  0.000000  1
  Pt  Pt18  1  0.884372  0.666640  1.000000  1
  Pt  Pt19  1  0.666640  0.884372  0.000000  1
  Pt  Pt20  1  0.115628  0.333360  0.000000  1
  Pt  Pt21  1  0.275665  0.724335  0.500000  1
  Pt  Pt22  1  0.724335  0.275665  0.500000  1
  Pt  Pt23  1  0.500000  0.500000  0.500000  1
  Pt  Pt24  1  0.333360  0.115628  1.000000  1
