# generated using pymatgen
data_NbCoTe2
_symmetry_space_group_name_H-M   'P 1'
_cell_length_a   8.60677607
_cell_length_b   8.60677607
_cell_length_c   6.37525627
_cell_angle_alpha   90.00000000
_cell_angle_beta   90.00000000
_cell_angle_gamma   126.14715213
_symmetry_Int_Tables_number   1
_chemical_formula_structural   NbCoTe2
_chemical_formula_sum   'Nb4 Co4 Te8'
_cell_volume   381.34997929
_cell_formula_units_Z   4
loop_
 _symmetry_equiv_pos_site_id
 _symmetry_equiv_pos_as_xyz
  1  'x, y, z'
loop_
 _atom_site_type_symbol
 _atom_site_label
 _atom_site_symmetry_multiplicity
 _atom_site_fract_x
 _atom_site_fract_y
 _atom_site_fract_z
 _atom_site_occupancy
  Nb  Nb0  1  0.706496  0.706496  0.500000  1
  Nb  Nb1  1  0.793504  0.793504  1.000000  1
  Nb  Nb2  1  0.293504  0.293504  0.500000  1
  Nb  Nb3  1  0.206496  0.206496  1.000000  1
  Co  Co4  1  0.055544  0.944456  0.644110  1
  Co  Co5  1  0.444456  0.555544  0.144110  1
  Co  Co6  1  0.944456  0.055544  0.355890  1
  Co  Co7  1  0.555544  0.444456  0.855890  1
  Te  Te8  1  0.403323  0.096677  0.750000  1
  Te  Te9  1  0.096677  0.403323  0.250000  1
  Te  Te10  1  0.596677  0.903323  0.250000  1
  Te  Te11  1  0.903323  0.596677  0.750000  1
  Te  Te12  1  0.891883  0.108117  0.743995  1
  Te  Te13  1  0.608117  0.391883  0.243995  1
  Te  Te14  1  0.108117  0.891883  0.256005  1
  Te  Te15  1  0.391883  0.608117  0.756005  1
