# generated using pymatgen
data_Dy5C2I9
_symmetry_space_group_name_H-M   'P 1'
_cell_length_a   10.92481437
_cell_length_b   17.45651604
_cell_length_c   14.28130111
_cell_angle_alpha   90.00000000
_cell_angle_beta   121.65824510
_cell_angle_gamma   90.00000000
_symmetry_Int_Tables_number   1
_chemical_formula_structural   Dy5C2I9
_chemical_formula_sum   'Dy20 C8 I36'
_cell_volume   2318.29062621
_cell_formula_units_Z   4
loop_
 _symmetry_equiv_pos_site_id
 _symmetry_equiv_pos_as_xyz
  1  'x, y, z'
loop_
 _atom_site_type_symbol
 _atom_site_label
 _atom_site_symmetry_multiplicity
 _atom_site_fract_x
 _atom_site_fract_y
 _atom_site_fract_z
 _atom_site_occupancy
  Dy  Dy0  1  0.512877  0.446584  0.252510  1
  Dy  Dy1  1  0.301777  0.179031  0.446143  1
  Dy  Dy2  1  0.516894  0.654948  0.216205  1
  Dy  Dy3  1  0.349744  0.539391  0.966258  1
  Dy  Dy4  1  0.487123  0.946584  0.247490  1
  Dy  Dy5  1  0.698223  0.820969  0.553857  1
  Dy  Dy6  1  0.650256  0.039391  0.533742  1
  Dy  Dy7  1  0.650256  0.460609  0.033742  1
  Dy  Dy8  1  0.162542  0.057659  0.199451  1
  Dy  Dy9  1  0.698223  0.679031  0.053857  1
  Dy  Dy10  1  0.162542  0.442341  0.699451  1
  Dy  Dy11  1  0.516894  0.845052  0.716205  1
  Dy  Dy12  1  0.483106  0.154948  0.283795  1
  Dy  Dy13  1  0.837458  0.557659  0.300549  1
  Dy  Dy14  1  0.837458  0.942341  0.800549  1
  Dy  Dy15  1  0.487123  0.553416  0.747490  1
  Dy  Dy16  1  0.301777  0.320969  0.946143  1
  Dy  Dy17  1  0.483106  0.345052  0.783795  1
  Dy  Dy18  1  0.349744  0.960609  0.466258  1
  Dy  Dy19  1  0.512877  0.053416  0.752510  1
  C  C20  1  0.430415  0.469566  0.837401  1
  C  C21  1  0.377331  0.084288  0.383352  1
  C  C22  1  0.569585  0.530434  0.162599  1
  C  C23  1  0.622669  0.584288  0.116648  1
  C  C24  1  0.430415  0.030434  0.337401  1
  C  C25  1  0.377331  0.415712  0.883352  1
  C  C26  1  0.569585  0.969566  0.662599  1
  C  C27  1  0.622669  0.915712  0.616648  1
  I  I28  1  0.588999  0.434796  0.654822  1
  I  I29  1  0.004549  0.180775  0.250304  1
  I  I30  1  0.815821  0.058459  0.956873  1
  I  I31  1  0.594015  0.807129  0.142076  1
  I  I32  1  0.594954  0.303058  0.167346  1
  I  I33  1  0.594015  0.692871  0.642076  1
  I  I34  1  0.799464  0.682955  0.439477  1
  I  I35  1  0.201490  0.433791  0.056244  1
  I  I36  1  0.200536  0.317045  0.560523  1
  I  I37  1  0.405985  0.192871  0.857924  1
  I  I38  1  0.815821  0.441541  0.456873  1
  I  I39  1  0.594954  0.196942  0.667346  1
  I  I40  1  0.219081  0.826617  0.533521  1
  I  I41  1  0.405046  0.803058  0.332654  1
  I  I42  1  0.219081  0.673383  0.033521  1
  I  I43  1  0.184179  0.941541  0.043127  1
  I  I44  1  0.036258  0.937363  0.265710  1
  I  I45  1  0.411001  0.934796  0.845178  1
  I  I46  1  0.963742  0.062637  0.734290  1
  I  I47  1  0.780919  0.173383  0.466479  1
  I  I48  1  0.036258  0.562637  0.765710  1
  I  I49  1  0.799464  0.817045  0.939477  1
  I  I50  1  0.780919  0.326617  0.966479  1
  I  I51  1  0.405985  0.307129  0.357924  1
  I  I52  1  0.200536  0.182955  0.060523  1
  I  I53  1  0.411001  0.565204  0.345178  1
  I  I54  1  0.004549  0.319225  0.750304  1
  I  I55  1  0.184179  0.558459  0.543127  1
  I  I56  1  0.798510  0.566209  0.943756  1
  I  I57  1  0.798510  0.933791  0.443756  1
  I  I58  1  0.995451  0.680775  0.249696  1
  I  I59  1  0.201490  0.066209  0.556244  1
  I  I60  1  0.588999  0.065204  0.154822  1
  I  I61  1  0.995451  0.819225  0.749696  1
  I  I62  1  0.963742  0.437363  0.234290  1
  I  I63  1  0.405046  0.696942  0.832654  1
