# generated using pymatgen
data_Ba6(NiO3)5
_symmetry_space_group_name_H-M   'P 1'
_cell_length_a   7.20944883
_cell_length_b   7.20944883
_cell_length_c   7.20944883
_cell_angle_alpha   88.24341025
_cell_angle_beta   88.24341025
_cell_angle_gamma   88.24341025
_symmetry_Int_Tables_number   1
_chemical_formula_structural   Ba6(NiO3)5
_chemical_formula_sum   'Ba6 Ni5 O15'
_cell_volume   374.20169736
_cell_formula_units_Z   1
loop_
 _symmetry_equiv_pos_site_id
 _symmetry_equiv_pos_as_xyz
  1  'x, y, z'
loop_
 _atom_site_type_symbol
 _atom_site_label
 _atom_site_symmetry_multiplicity
 _atom_site_fract_x
 _atom_site_fract_y
 _atom_site_fract_z
 _atom_site_occupancy
  Ba  Ba0  1  0.663509  0.336491  0.000000  1
  Ba  Ba1  1  0.000000  0.663509  0.336491  1
  Ba  Ba2  1  0.336491  0.000000  0.663509  1
  Ba  Ba3  1  0.851115  0.148885  0.500000  1
  Ba  Ba4  1  0.500000  0.851115  0.148885  1
  Ba  Ba5  1  0.148885  0.500000  0.851115  1
  Ni  Ni6  1  0.905002  0.905002  0.905002  1
  Ni  Ni7  1  0.094998  0.094998  0.094998  1
  Ni  Ni8  1  0.710141  0.710141  0.710141  1
  Ni  Ni9  1  0.289859  0.289859  0.289859  1
  Ni  Ni10  1  0.500000  0.500000  0.500000  1
  O  O11  1  0.963165  0.807338  0.670891  1
  O  O12  1  0.670891  0.963165  0.807338  1
  O  O13  1  0.807338  0.670891  0.963165  1
  O  O14  1  0.192662  0.036835  0.329109  1
  O  O15  1  0.329109  0.192662  0.036835  1
  O  O16  1  0.036835  0.329109  0.192662  1
  O  O17  1  0.856513  0.000000  0.143487  1
  O  O18  1  0.143487  0.856513  0.000000  1
  O  O19  1  0.000000  0.143487  0.856513  1
  O  O20  1  0.634082  0.766380  0.471556  1
  O  O21  1  0.471556  0.634082  0.766380  1
  O  O22  1  0.766380  0.471556  0.634082  1
  O  O23  1  0.233620  0.365918  0.528444  1
  O  O24  1  0.528444  0.233620  0.365918  1
  O  O25  1  0.365918  0.528444  0.233620  1
