# generated using pymatgen
data_SiO2
_symmetry_space_group_name_H-M   'P 1'
_cell_length_a   8.19112755
_cell_length_b   8.19112755
_cell_length_c   14.16308836
_cell_angle_alpha   90.00000000
_cell_angle_beta   90.00000000
_cell_angle_gamma   101.98011156
_symmetry_Int_Tables_number   1
_chemical_formula_structural   SiO2
_chemical_formula_sum   'Si16 O32'
_cell_volume   929.56925565
_cell_formula_units_Z   16
loop_
 _symmetry_equiv_pos_site_id
 _symmetry_equiv_pos_as_xyz
  1  'x, y, z'
loop_
 _atom_site_type_symbol
 _atom_site_label
 _atom_site_symmetry_multiplicity
 _atom_site_fract_x
 _atom_site_fract_y
 _atom_site_fract_z
 _atom_site_occupancy
  Si  Si0  1  0.662562  0.337438  0.000000  1
  Si  Si1  1  0.500000  0.500000  0.863427  1
  Si  Si2  1  0.910265  0.313437  0.683726  1
  Si  Si3  1  0.686563  0.089735  0.316274  1
  Si  Si4  1  0.162562  0.837438  0.500000  1
  Si  Si5  1  0.186563  0.589735  0.183726  1
  Si  Si6  1  0.000000  0.000000  0.636573  1
  Si  Si7  1  0.337438  0.662562  0.000000  1
  Si  Si8  1  0.313437  0.910265  0.316274  1
  Si  Si9  1  0.089735  0.686563  0.683726  1
  Si  Si10  1  0.500000  0.500000  0.136573  1
  Si  Si11  1  0.813437  0.410265  0.183726  1
  Si  Si12  1  0.589735  0.186563  0.816274  1
  Si  Si13  1  0.410265  0.813437  0.816274  1
  Si  Si14  1  0.837438  0.162562  0.500000  1
  Si  Si15  1  0.000000  0.000000  0.363427  1
  O  O16  1  0.999555  0.166392  0.428562  1
  O  O17  1  0.500000  0.000000  0.783007  1
  O  O18  1  0.750000  0.250000  0.750000  1
  O  O19  1  0.676025  0.531978  0.195918  1
  O  O20  1  0.531978  0.676025  0.804082  1
  O  O21  1  0.000445  0.833608  0.428562  1
  O  O22  1  0.750000  0.250000  0.250000  1
  O  O23  1  0.176025  0.031978  0.304082  1
  O  O24  1  0.968022  0.823975  0.695918  1
  O  O25  1  0.859250  0.321801  0.570905  1
  O  O26  1  0.000000  0.500000  0.716993  1
  O  O27  1  0.140750  0.678199  0.570905  1
  O  O28  1  0.821801  0.359250  0.070905  1
  O  O29  1  0.323975  0.468022  0.195918  1
  O  O30  1  0.640750  0.178199  0.929095  1
  O  O31  1  0.823975  0.968022  0.304082  1
  O  O32  1  0.000000  0.500000  0.216993  1
  O  O33  1  0.359250  0.821801  0.929095  1
  O  O34  1  0.333608  0.500445  0.928562  1
  O  O35  1  0.166392  0.999555  0.571438  1
  O  O36  1  0.321801  0.859250  0.429095  1
  O  O37  1  0.678199  0.140750  0.429095  1
  O  O38  1  0.499555  0.666392  0.071438  1
  O  O39  1  0.666392  0.499555  0.928562  1
  O  O40  1  0.031978  0.176025  0.695918  1
  O  O41  1  0.500445  0.333608  0.071438  1
  O  O42  1  0.250000  0.750000  0.750000  1
  O  O43  1  0.500000  0.000000  0.283007  1
  O  O44  1  0.833608  0.000445  0.571438  1
  O  O45  1  0.468022  0.323975  0.804082  1
  O  O46  1  0.178199  0.640750  0.070905  1
  O  O47  1  0.250000  0.750000  0.250000  1
