# generated using pymatgen
data_Sr7Nb6O21
_symmetry_space_group_name_H-M   'P 1'
_cell_length_a   16.73547097
_cell_length_b   16.73547097
_cell_length_c   16.73547097
_cell_angle_alpha   19.78359968
_cell_angle_beta   19.78359968
_cell_angle_gamma   19.78359968
_symmetry_Int_Tables_number   1
_chemical_formula_structural   Sr7Nb6O21
_chemical_formula_sum   'Sr7 Nb6 O21'
_cell_volume   469.64925838
_cell_formula_units_Z   1
loop_
 _symmetry_equiv_pos_site_id
 _symmetry_equiv_pos_as_xyz
  1  'x, y, z'
loop_
 _atom_site_type_symbol
 _atom_site_label
 _atom_site_symmetry_multiplicity
 _atom_site_fract_x
 _atom_site_fract_y
 _atom_site_fract_z
 _atom_site_occupancy
  Sr  Sr0  1  0.152672  0.152672  0.152672  1
  Sr  Sr1  1  0.232317  0.232317  0.232317  1
  Sr  Sr2  1  0.767683  0.767683  0.767683  1
  Sr  Sr3  1  0.847328  0.847328  0.847328  1
  Sr  Sr4  1  0.615545  0.615545  0.615545  1
  Sr  Sr5  1  0.384455  0.384455  0.384455  1
  Sr  Sr6  1  0.000000  0.000000  0.000000  1
  Nb  Nb7  1  0.072707  0.072707  0.072707  1
  Nb  Nb8  1  0.542936  0.542936  0.542936  1
  Nb  Nb9  1  0.690457  0.690457  0.690457  1
  Nb  Nb10  1  0.927293  0.927293  0.927293  1
  Nb  Nb11  1  0.309543  0.309543  0.309543  1
  Nb  Nb12  1  0.457064  0.457064  0.457064  1
  O  O13  1  0.245181  0.780074  0.693741  1
  O  O14  1  0.295693  0.422920  0.859530  1
  O  O15  1  0.422920  0.859530  0.295693  1
  O  O16  1  0.375041  0.908214  0.858013  1
  O  O17  1  0.859530  0.295693  0.422920  1
  O  O18  1  0.754819  0.219926  0.306259  1
  O  O19  1  0.219926  0.306259  0.754819  1
  O  O20  1  0.693741  0.245181  0.780074  1
  O  O21  1  0.091786  0.141987  0.624959  1
  O  O22  1  0.704307  0.577080  0.140470  1
  O  O23  1  0.500000  0.000000  0.500000  1
  O  O24  1  0.858013  0.375041  0.908214  1
  O  O25  1  0.577080  0.140470  0.704307  1
  O  O26  1  0.624959  0.091786  0.141987  1
  O  O27  1  0.780074  0.693741  0.245181  1
  O  O28  1  0.140470  0.704307  0.577080  1
  O  O29  1  0.908214  0.858013  0.375041  1
  O  O30  1  0.141987  0.624959  0.091786  1
  O  O31  1  0.306259  0.754819  0.219926  1
  O  O32  1  0.500000  0.500000  0.000000  1
  O  O33  1  0.000000  0.500000  0.500000  1
