# generated using pymatgen
data_MnH4S2O9
_symmetry_space_group_name_H-M   'P 1'
_cell_length_a   8.86206872
_cell_length_b   5.12911947
_cell_length_c   16.87453057
_cell_angle_alpha   90.00000000
_cell_angle_beta   109.61759732
_cell_angle_gamma   90.00000000
_symmetry_Int_Tables_number   1
_chemical_formula_structural   MnH4S2O9
_chemical_formula_sum   'Mn4 H16 S8 O36'
_cell_volume   722.50274095
_cell_formula_units_Z   4
loop_
 _symmetry_equiv_pos_site_id
 _symmetry_equiv_pos_as_xyz
  1  'x, y, z'
loop_
 _atom_site_type_symbol
 _atom_site_label
 _atom_site_symmetry_multiplicity
 _atom_site_fract_x
 _atom_site_fract_y
 _atom_site_fract_z
 _atom_site_occupancy
  Mn  Mn0  1  0.757196  0.250238  0.512174  1
  Mn  Mn1  1  0.242804  0.750238  0.987826  1
  Mn  Mn2  1  0.242804  0.749762  0.487826  1
  Mn  Mn3  1  0.757196  0.249762  0.012174  1
  H  H4  1  0.591802  0.729773  0.282594  1
  H  H5  1  0.408198  0.229773  0.217406  1
  H  H6  1  0.408198  0.270227  0.717406  1
  H  H7  1  0.591802  0.770227  0.782594  1
  H  H8  1  0.844709  0.427174  0.272621  1
  H  H9  1  0.155291  0.927174  0.227379  1
  H  H10  1  0.155291  0.572826  0.727379  1
  H  H11  1  0.844709  0.072826  0.772621  1
  H  H12  1  0.705644  0.719009  0.185111  1
  H  H13  1  0.294356  0.219009  0.314889  1
  H  H14  1  0.294356  0.280991  0.814889  1
  H  H15  1  0.705644  0.780991  0.685111  1
  H  H16  1  0.814188  0.867254  0.264955  1
  H  H17  1  0.185812  0.367254  0.235045  1
  H  H18  1  0.185812  0.132746  0.735045  1
  H  H19  1  0.814188  0.632746  0.764955  1
  S  S20  1  0.531927  0.741771  0.397587  1
  S  S21  1  0.468073  0.241771  0.102413  1
  S  S22  1  0.468073  0.258229  0.602413  1
  S  S23  1  0.531927  0.758229  0.897587  1
  S  S24  1  0.000385  0.252976  0.388069  1
  S  S25  1  0.999615  0.752976  0.111931  1
  S  S26  1  0.999615  0.747024  0.611931  1
  S  S27  1  0.000385  0.247024  0.888069  1
  O  O28  1  0.675635  0.900220  0.435937  1
  O  O29  1  0.324365  0.400220  0.064063  1
  O  O30  1  0.324365  0.099780  0.564063  1
  O  O31  1  0.675635  0.599780  0.935937  1
  O  O32  1  0.556236  0.466746  0.423619  1
  O  O33  1  0.443764  0.966746  0.076381  1
  O  O34  1  0.443764  0.533254  0.576381  1
  O  O35  1  0.556236  0.033254  0.923619  1
  O  O36  1  0.385934  0.851657  0.407509  1
  O  O37  1  0.614066  0.351657  0.092491  1
  O  O38  1  0.614066  0.148343  0.592491  1
  O  O39  1  0.385934  0.648343  0.907509  1
  O  O40  1  0.492655  0.751245  0.299502  1
  O  O41  1  0.507345  0.251245  0.200498  1
  O  O42  1  0.507345  0.248755  0.700498  1
  O  O43  1  0.492655  0.748755  0.799502  1
  O  O44  1  0.041409  0.976668  0.403196  1
  O  O45  1  0.958591  0.476668  0.096804  1
  O  O46  1  0.958591  0.023332  0.596804  1
  O  O47  1  0.041409  0.523332  0.903196  1
  O  O48  1  0.142020  0.420366  0.402133  1
  O  O49  1  0.857980  0.920366  0.097867  1
  O  O50  1  0.857980  0.579634  0.597867  1
  O  O51  1  0.142020  0.079634  0.902133  1
  O  O52  1  0.891372  0.352500  0.429442  1
  O  O53  1  0.108628  0.852500  0.070558  1
  O  O54  1  0.108628  0.647500  0.570558  1
  O  O55  1  0.891372  0.147500  0.929442  1
  O  O56  1  0.904082  0.255251  0.289721  1
  O  O57  1  0.095918  0.755251  0.210279  1
  O  O58  1  0.095918  0.744749  0.710279  1
  O  O59  1  0.904082  0.244749  0.789721  1
  O  O60  1  0.746273  0.711716  0.246832  1
  O  O61  1  0.253727  0.211716  0.253168  1
  O  O62  1  0.253727  0.288284  0.753168  1
  O  O63  1  0.746273  0.788284  0.746832  1
