# generated using pymatgen
data_Li3CrP2O9
_symmetry_space_group_name_H-M   'P 1'
_cell_length_a   6.84060067
_cell_length_b   7.13406974
_cell_length_c   8.00594712
_cell_angle_alpha   88.99659319
_cell_angle_beta   115.22790280
_cell_angle_gamma   92.76082219
_symmetry_Int_Tables_number   1
_chemical_formula_structural   Li3CrP2O9
_chemical_formula_sum   'Li6 Cr2 P4 O18'
_cell_volume   353.02340348
_cell_formula_units_Z   2
loop_
 _symmetry_equiv_pos_site_id
 _symmetry_equiv_pos_as_xyz
  1  'x, y, z'
loop_
 _atom_site_type_symbol
 _atom_site_label
 _atom_site_symmetry_multiplicity
 _atom_site_fract_x
 _atom_site_fract_y
 _atom_site_fract_z
 _atom_site_occupancy
  Li  Li0  1  0.917665  0.758421  0.805597  1
  Li  Li1  1  0.999962  0.500130  0.501914  1
  Li  Li2  1  0.379859  0.307062  0.748501  1
  Li  Li3  1  0.603544  0.691615  0.250038  1
  Li  Li4  1  0.755743  0.996632  0.002853  1
  Li  Li5  1  0.121499  0.244279  0.195819  1
  Cr  Cr6  1  0.003566  0.995100  0.506152  1
  Cr  Cr7  1  0.497857  0.002571  0.497304  1
  P  P8  1  0.875889  0.293250  0.748899  1
  P  P9  1  0.391756  0.756605  0.794759  1
  P  P10  1  0.616094  0.240695  0.204497  1
  P  P11  1  0.113092  0.707191  0.250724  1
  O  O12  1  0.887553  0.505273  0.740549  1
  O  O13  1  0.357876  0.784315  0.344948  1
  O  O14  1  0.819835  0.115725  0.263327  1
  O  O15  1  0.224757  0.089755  0.474747  1
  O  O16  1  0.767819  0.913914  0.522599  1
  O  O17  1  0.629509  0.222121  0.641440  1
  O  O18  1  0.549710  0.869169  0.724688  1
  O  O19  1  0.327823  0.564494  0.704064  1
  O  O20  1  0.511435  0.237750  0.996130  1
  O  O21  1  0.009530  0.229736  0.640039  1
  O  O22  1  0.992825  0.763253  0.372898  1
  O  O23  1  0.450646  0.145464  0.274699  1
  O  O24  1  0.179484  0.871793  0.735365  1
  O  O25  1  0.114433  0.495073  0.258331  1
  O  O26  1  0.004678  0.799499  0.062736  1
  O  O27  1  0.681414  0.434218  0.296159  1
  O  O28  1  0.514625  0.764190  0.003022  1
  O  O29  1  0.949048  0.200710  0.937206  1
