# generated using pymatgen
data_H4CN2O
_symmetry_space_group_name_H-M   'P 1'
_cell_length_a   5.16188849
_cell_length_b   5.16188849
_cell_length_c   5.66413933
_cell_angle_alpha   90.00000000
_cell_angle_beta   90.00000000
_cell_angle_gamma   90.00000000
_symmetry_Int_Tables_number   1
_chemical_formula_structural   H4CN2O
_chemical_formula_sum   'H8 C2 N4 O2'
_cell_volume   150.92151798
_cell_formula_units_Z   2
loop_
 _symmetry_equiv_pos_site_id
 _symmetry_equiv_pos_as_xyz
  1  'x, y, z'
loop_
 _atom_site_type_symbol
 _atom_site_label
 _atom_site_symmetry_multiplicity
 _atom_site_fract_x
 _atom_site_fract_y
 _atom_site_fract_z
 _atom_site_occupancy
  H  H0  1  0.334201  0.500000  0.105625  1
  H  H1  1  0.000000  0.165799  0.105625  1
  H  H2  1  0.165799  0.000000  0.894375  1
  H  H3  1  0.500000  0.665799  0.894375  1
  H  H4  1  0.834201  0.000000  0.894375  1
  H  H5  1  0.665799  0.500000  0.105625  1
  H  H6  1  0.000000  0.834201  0.105625  1
  H  H7  1  0.500000  0.334201  0.894375  1
  C  C8  1  0.000000  0.500000  0.477620  1
  C  C9  1  0.500000  0.000000  0.522380  1
  N  N10  1  0.500000  0.000000  0.735837  1
  N  N11  1  0.000000  0.500000  0.264163  1
  N  N12  1  0.500000  0.500000  0.000000  1
  N  N13  1  0.000000  0.000000  0.000000  1
  O  O14  1  0.500000  0.000000  0.308978  1
  O  O15  1  0.000000  0.500000  0.691022  1
