# generated using pymatgen
data_Mn2O3
_symmetry_space_group_name_H-M   'P 1'
_cell_length_a   8.32822577
_cell_length_b   8.32822577
_cell_length_c   8.32822577
_cell_angle_alpha   109.47122063
_cell_angle_beta   109.47122063
_cell_angle_gamma   109.47122063
_symmetry_Int_Tables_number   1
_chemical_formula_structural   Mn2O3
_chemical_formula_sum   'Mn16 O24'
_cell_volume   444.66769486
_cell_formula_units_Z   8
loop_
 _symmetry_equiv_pos_site_id
 _symmetry_equiv_pos_as_xyz
  1  'x, y, z'
loop_
 _atom_site_type_symbol
 _atom_site_label
 _atom_site_symmetry_multiplicity
 _atom_site_fract_x
 _atom_site_fract_y
 _atom_site_fract_z
 _atom_site_occupancy
  Mn  Mn0  1  0.500000  1.000000  0.000000  1
  Mn  Mn1  1  1.000000  0.500000  0.000000  1
  Mn  Mn2  1  1.000000  1.000000  0.500000  1
  Mn  Mn3  1  0.500000  0.500000  0.500000  1
  Mn  Mn4  1  0.250000  0.714266  0.464266  1
  Mn  Mn5  1  0.750000  0.785734  0.035734  1
  Mn  Mn6  1  0.714266  0.464266  0.250000  1
  Mn  Mn7  1  0.785734  0.035734  0.750000  1
  Mn  Mn8  1  0.464266  0.250000  0.714266  1
  Mn  Mn9  1  0.035734  0.750000  0.785734  1
  Mn  Mn10  1  0.750000  0.285734  0.535734  1
  Mn  Mn11  1  0.250000  0.214266  0.964266  1
  Mn  Mn12  1  0.285734  0.535734  0.750000  1
  Mn  Mn13  1  0.214266  0.964266  0.250000  1
  Mn  Mn14  1  0.535734  0.750000  0.285734  1
  Mn  Mn15  1  0.964266  0.250000  0.214266  1
  O  O16  1  0.284688  0.769979  0.725622  1
  O  O17  1  0.955643  0.730021  0.014709  1
  O  O18  1  0.215312  0.940934  0.485291  1
  O  O19  1  0.544357  0.559066  0.774378  1
  O  O20  1  0.769979  0.725622  0.284688  1
  O  O21  1  0.730021  0.014709  0.955643  1
  O  O22  1  0.940934  0.485291  0.215312  1
  O  O23  1  0.559066  0.774378  0.544357  1
  O  O24  1  0.725622  0.284688  0.769979  1
  O  O25  1  0.014709  0.955643  0.730021  1
  O  O26  1  0.485291  0.215312  0.940934  1
  O  O27  1  0.774378  0.544357  0.559066  1
  O  O28  1  0.715312  0.230021  0.274378  1
  O  O29  1  0.044357  0.269979  0.985291  1
  O  O30  1  0.784688  0.059066  0.514709  1
  O  O31  1  0.455643  0.440934  0.225622  1
  O  O32  1  0.230021  0.274378  0.715312  1
  O  O33  1  0.269979  0.985291  0.044357  1
  O  O34  1  0.059066  0.514709  0.784688  1
  O  O35  1  0.440934  0.225622  0.455643  1
  O  O36  1  0.274378  0.715312  0.230021  1
  O  O37  1  0.985291  0.044357  0.269979  1
  O  O38  1  0.514709  0.784688  0.059066  1
  O  O39  1  0.225622  0.455643  0.440934  1
