# generated using pymatgen
data_In2Si(AgS3)2
_symmetry_space_group_name_H-M   'P 1'
_cell_length_a   7.16928373
_cell_length_b   7.16928373
_cell_length_c   12.32027234
_cell_angle_alpha   73.38228296
_cell_angle_beta   106.61771704
_cell_angle_gamma   118.76821287
_symmetry_Int_Tables_number   1
_chemical_formula_structural   In2Si(AgS3)2
_chemical_formula_sum   'In4 Si2 Ag4 S12'
_cell_volume   523.54101712
_cell_formula_units_Z   2
loop_
 _symmetry_equiv_pos_site_id
 _symmetry_equiv_pos_as_xyz
  1  'x, y, z'
loop_
 _atom_site_type_symbol
 _atom_site_label
 _atom_site_symmetry_multiplicity
 _atom_site_fract_x
 _atom_site_fract_y
 _atom_site_fract_z
 _atom_site_occupancy
  In  In0  1  0.825932  0.303704  0.232912  1
  In  In1  1  0.674557  0.514307  0.430596  1
  In  In2  1  0.485693  0.325443  0.930596  1
  In  In3  1  0.696296  0.174068  0.732912  1
  Si  Si4  1  0.596764  0.941024  0.489738  1
  Si  Si5  1  0.058976  0.403236  0.989738  1
  Ag  Ag6  1  0.610778  0.811680  0.078703  1
  Ag  Ag7  1  0.194290  0.986578  0.236821  1
  Ag  Ag8  1  0.188320  0.389222  0.578703  1
  Ag  Ag9  1  0.013422  0.805710  0.736821  1
  S  S10  1  0.829943  0.648993  0.249102  1
  S  S11  1  0.403374  0.652145  0.415733  1
  S  S12  1  0.481688  0.066215  0.118207  1
  S  S13  1  0.900586  0.103681  0.433892  1
  S  S14  1  0.347855  0.596626  0.915733  1
  S  S15  1  0.351007  0.170057  0.749102  1
  S  S16  1  0.405830  0.115427  0.440082  1
  S  S17  1  0.933785  0.518312  0.618207  1
  S  S18  1  0.154908  0.354695  0.172514  1
  S  S19  1  0.645305  0.845092  0.672514  1
  S  S20  1  0.896319  0.099414  0.933892  1
  S  S21  1  0.884573  0.594170  0.940082  1
