# generated using pymatgen
data_Cs2Nb6PbCl18
_symmetry_space_group_name_H-M   'P 1'
_cell_length_a   10.54475660
_cell_length_b   10.54475660
_cell_length_c   10.54475660
_cell_angle_alpha   54.77681235
_cell_angle_beta   54.77681235
_cell_angle_gamma   54.77681235
_symmetry_Int_Tables_number   1
_chemical_formula_structural   Cs2Nb6PbCl18
_chemical_formula_sum   'Cs2 Nb6 Pb1 Cl18'
_cell_volume   728.22970807
_cell_formula_units_Z   1
loop_
 _symmetry_equiv_pos_site_id
 _symmetry_equiv_pos_as_xyz
  1  'x, y, z'
loop_
 _atom_site_type_symbol
 _atom_site_label
 _atom_site_symmetry_multiplicity
 _atom_site_fract_x
 _atom_site_fract_y
 _atom_site_fract_z
 _atom_site_occupancy
  Cs  Cs0  1  0.276995  0.276995  0.276995  1
  Cs  Cs1  1  0.723005  0.723005  0.723005  1
  Nb  Nb2  1  0.420215  0.299621  0.645825  1
  Nb  Nb3  1  0.645825  0.420215  0.299621  1
  Nb  Nb4  1  0.299621  0.645825  0.420215  1
  Nb  Nb5  1  0.354175  0.579785  0.700379  1
  Nb  Nb6  1  0.579785  0.700379  0.354175  1
  Nb  Nb7  1  0.700379  0.354175  0.579785  1
  Pb  Pb8  1  0.000000  0.000000  0.000000  1
  Cl  Cl9  1  0.094303  0.766257  0.640754  1
  Cl  Cl10  1  0.170010  0.435064  0.577836  1
  Cl  Cl11  1  0.233743  0.359246  0.905697  1
  Cl  Cl12  1  0.905697  0.233743  0.359246  1
  Cl  Cl13  1  0.323808  0.041151  0.826878  1
  Cl  Cl14  1  0.766257  0.640754  0.094303  1
  Cl  Cl15  1  0.564936  0.422164  0.829990  1
  Cl  Cl16  1  0.359246  0.905697  0.233743  1
  Cl  Cl17  1  0.422164  0.829990  0.564936  1
  Cl  Cl18  1  0.958849  0.173122  0.676192  1
  Cl  Cl19  1  0.435064  0.577836  0.170010  1
  Cl  Cl20  1  0.640754  0.094303  0.766257  1
  Cl  Cl21  1  0.041151  0.826878  0.323808  1
  Cl  Cl22  1  0.829990  0.564936  0.422164  1
  Cl  Cl23  1  0.173122  0.676192  0.958849  1
  Cl  Cl24  1  0.577836  0.170010  0.435064  1
  Cl  Cl25  1  0.826878  0.323808  0.041151  1
  Cl  Cl26  1  0.676192  0.958849  0.173122  1
