# generated using pymatgen
data_Na3La2(BO3)3
_symmetry_space_group_name_H-M   'P 1'
_cell_length_a   6.77767482
_cell_length_b   6.77767482
_cell_length_c   5.18312452
_cell_angle_alpha   90.00000000
_cell_angle_beta   90.00000000
_cell_angle_gamma   114.28024964
_symmetry_Int_Tables_number   1
_chemical_formula_structural   Na3La2(BO3)3
_chemical_formula_sum   'Na3 La2 B3 O9'
_cell_volume   217.03573591
_cell_formula_units_Z   1
loop_
 _symmetry_equiv_pos_site_id
 _symmetry_equiv_pos_as_xyz
  1  'x, y, z'
loop_
 _atom_site_type_symbol
 _atom_site_label
 _atom_site_symmetry_multiplicity
 _atom_site_fract_x
 _atom_site_fract_y
 _atom_site_fract_z
 _atom_site_occupancy
  Na  Na0  1  0.542431  0.542431  0.000000  1
  Na  Na1  1  0.870918  0.870918  0.500000  1
  Na  Na2  1  0.288543  0.288543  0.500000  1
  La  La3  1  0.956749  0.383122  0.000000  1
  La  La4  1  0.383122  0.956749  1.000000  1
  B  B5  1  0.708143  0.278439  0.500000  1
  B  B6  1  0.941994  0.941994  0.000000  1
  B  B7  1  0.278439  0.708143  0.500000  1
  O  O8  1  0.132274  0.132274  0.000000  1
  O  O9  1  0.744581  0.954843  0.000000  1
  O  O10  1  0.250266  0.900300  0.500000  1
  O  O11  1  0.617097  0.299351  0.266376  1
  O  O12  1  0.954843  0.744581  0.000000  1
  O  O13  1  0.900300  0.250266  0.500000  1
  O  O14  1  0.299351  0.617097  0.266376  1
  O  O15  1  0.617097  0.299351  0.733624  1
  O  O16  1  0.299351  0.617097  0.733624  1
