# generated using pymatgen
data_TeCl4
_symmetry_space_group_name_H-M   'P 1'
_cell_length_a   10.54100385
_cell_length_b   10.54100385
_cell_length_c   16.21800109
_cell_angle_alpha   67.26420881
_cell_angle_beta   112.73579119
_cell_angle_gamma   117.26627430
_symmetry_Int_Tables_number   1
_chemical_formula_structural   TeCl4
_chemical_formula_sum   'Te8 Cl32'
_cell_volume   1428.31801321
_cell_formula_units_Z   8
loop_
 _symmetry_equiv_pos_site_id
 _symmetry_equiv_pos_as_xyz
  1  'x, y, z'
loop_
 _atom_site_type_symbol
 _atom_site_label
 _atom_site_symmetry_multiplicity
 _atom_site_fract_x
 _atom_site_fract_y
 _atom_site_fract_z
 _atom_site_occupancy
  Te  Te0  1  0.113923  0.840575  0.816193  1
  Te  Te1  1  0.264354  0.259801  0.886591  1
  Te  Te2  1  0.259801  0.264354  0.613409  1
  Te  Te3  1  0.740199  0.735646  0.386591  1
  Te  Te4  1  0.159425  0.886077  0.316193  1
  Te  Te5  1  0.735646  0.740199  0.113409  1
  Te  Te6  1  0.840575  0.113923  0.683807  1
  Te  Te7  1  0.886077  0.159425  0.183807  1
  Cl  Cl8  1  0.993427  0.995935  0.629684  1
  Cl  Cl9  1  0.632247  0.858041  0.961986  1
  Cl  Cl10  1  0.111210  0.365458  0.192037  1
  Cl  Cl11  1  0.756755  0.225718  0.743361  1
  Cl  Cl12  1  0.141959  0.367753  0.461986  1
  Cl  Cl13  1  0.995935  0.993427  0.870316  1
  Cl  Cl14  1  0.478654  0.475632  0.873820  1
  Cl  Cl15  1  0.004065  0.006573  0.129684  1
  Cl  Cl16  1  0.255131  0.781313  0.473798  1
  Cl  Cl17  1  0.365608  0.121091  0.810005  1
  Cl  Cl18  1  0.524368  0.521346  0.373820  1
  Cl  Cl19  1  0.218687  0.744869  0.973798  1
  Cl  Cl20  1  0.121091  0.365608  0.689995  1
  Cl  Cl21  1  0.006573  0.004065  0.370316  1
  Cl  Cl22  1  0.878909  0.634392  0.310005  1
  Cl  Cl23  1  0.634542  0.888790  0.692037  1
  Cl  Cl24  1  0.634392  0.878909  0.189995  1
  Cl  Cl25  1  0.149919  0.358205  0.933729  1
  Cl  Cl26  1  0.641795  0.850081  0.433729  1
  Cl  Cl27  1  0.774282  0.243245  0.243361  1
  Cl  Cl28  1  0.781313  0.255131  0.026202  1
  Cl  Cl29  1  0.358205  0.149919  0.566271  1
  Cl  Cl30  1  0.858041  0.632247  0.538014  1
  Cl  Cl31  1  0.365458  0.111210  0.307963  1
  Cl  Cl32  1  0.888790  0.634542  0.807963  1
  Cl  Cl33  1  0.367753  0.141959  0.038014  1
  Cl  Cl34  1  0.521346  0.524368  0.126180  1
  Cl  Cl35  1  0.225718  0.756755  0.756639  1
  Cl  Cl36  1  0.475632  0.478654  0.626180  1
  Cl  Cl37  1  0.243245  0.774282  0.256639  1
  Cl  Cl38  1  0.744869  0.218687  0.526202  1
  Cl  Cl39  1  0.850081  0.641795  0.066271  1
