# generated using pymatgen
data_Mg3Ga7Co2
_symmetry_space_group_name_H-M   'P 1'
_cell_length_a   6.54746601
_cell_length_b   6.54746601
_cell_length_c   9.43177162
_cell_angle_alpha   87.57706173
_cell_angle_beta   92.42293827
_cell_angle_gamma   87.80633251
_symmetry_Int_Tables_number   1
_chemical_formula_structural   Mg3Ga7Co2
_chemical_formula_sum   'Mg6 Ga14 Co4'
_cell_volume   403.28569037
_cell_formula_units_Z   2
loop_
 _symmetry_equiv_pos_site_id
 _symmetry_equiv_pos_as_xyz
  1  'x, y, z'
loop_
 _atom_site_type_symbol
 _atom_site_label
 _atom_site_symmetry_multiplicity
 _atom_site_fract_x
 _atom_site_fract_y
 _atom_site_fract_z
 _atom_site_occupancy
  Mg  Mg0  1  0.639689  0.255119  0.802388  1
  Mg  Mg1  1  0.147825  0.147825  0.750000  1
  Mg  Mg2  1  0.255119  0.639689  0.697612  1
  Mg  Mg3  1  0.852175  0.852175  0.250000  1
  Mg  Mg4  1  0.744881  0.360311  0.302388  1
  Mg  Mg5  1  0.360311  0.744881  0.197612  1
  Ga  Ga6  1  0.771662  0.771662  0.750000  1
  Ga  Ga7  1  0.693165  0.563420  0.018513  1
  Ga  Ga8  1  0.891029  0.444863  0.602871  1
  Ga  Ga9  1  0.555137  0.108971  0.102871  1
  Ga  Ga10  1  0.436580  0.306835  0.518513  1
  Ga  Ga11  1  0.809498  0.054448  0.525935  1
  Ga  Ga12  1  0.054448  0.809498  0.974065  1
  Ga  Ga13  1  0.444863  0.891029  0.897129  1
  Ga  Ga14  1  0.108971  0.555137  0.397129  1
  Ga  Ga15  1  0.945552  0.190502  0.025935  1
  Ga  Ga16  1  0.190502  0.945552  0.474065  1
  Ga  Ga17  1  0.306835  0.436580  0.981487  1
  Ga  Ga18  1  0.563420  0.693165  0.481487  1
  Ga  Ga19  1  0.228338  0.228338  0.250000  1
  Co  Co20  1  0.031251  0.515911  0.144969  1
  Co  Co21  1  0.515911  0.031251  0.355031  1
  Co  Co22  1  0.968749  0.484089  0.855031  1
  Co  Co23  1  0.484089  0.968749  0.644969  1
