# generated using pymatgen
data_Ba2ScCl7
_symmetry_space_group_name_H-M   'P 1'
_cell_length_a   7.02761951
_cell_length_b   13.60670138
_cell_length_c   12.36932980
_cell_angle_alpha   90.00000000
_cell_angle_beta   96.27033859
_cell_angle_gamma   90.00000000
_symmetry_Int_Tables_number   1
_chemical_formula_structural   Ba2ScCl7
_chemical_formula_sum   'Ba8 Sc4 Cl28'
_cell_volume   1175.71308159
_cell_formula_units_Z   4
loop_
 _symmetry_equiv_pos_site_id
 _symmetry_equiv_pos_as_xyz
  1  'x, y, z'
loop_
 _atom_site_type_symbol
 _atom_site_label
 _atom_site_symmetry_multiplicity
 _atom_site_fract_x
 _atom_site_fract_y
 _atom_site_fract_z
 _atom_site_occupancy
  Ba  Ba0  1  0.237820  0.546576  0.744027  1
  Ba  Ba1  1  0.738037  0.636799  0.378091  1
  Ba  Ba2  1  0.706074  0.868124  0.766562  1
  Ba  Ba3  1  0.293926  0.368124  0.233438  1
  Ba  Ba4  1  0.250626  0.784554  0.122773  1
  Ba  Ba5  1  0.749374  0.284554  0.877227  1
  Ba  Ba6  1  0.762180  0.046576  0.255973  1
  Ba  Ba7  1  0.261963  0.136799  0.621909  1
  Sc  Sc8  1  0.811811  0.344398  0.453286  1
  Sc  Sc9  1  0.188189  0.844398  0.546714  1
  Sc  Sc10  1  0.205767  0.077081  0.044195  1
  Sc  Sc11  1  0.794233  0.577081  0.955805  1
  Cl  Cl12  1  0.118023  0.775972  0.362897  1
  Cl  Cl13  1  0.972985  0.202753  0.107166  1
  Cl  Cl14  1  0.466230  0.948886  0.522747  1
  Cl  Cl15  1  0.236374  0.016955  0.236799  1
  Cl  Cl16  1  0.623111  0.835384  0.267516  1
  Cl  Cl17  1  0.039191  0.485470  0.500880  1
  Cl  Cl18  1  0.370800  0.586666  0.229924  1
  Cl  Cl19  1  0.452262  0.958545  0.006386  1
  Cl  Cl20  1  0.874649  0.644961  0.138065  1
  Cl  Cl21  1  0.073696  0.233643  0.396037  1
  Cl  Cl22  1  0.572462  0.208813  0.397578  1
  Cl  Cl23  1  0.547738  0.458545  0.993614  1
  Cl  Cl24  1  0.527675  0.701140  0.908844  1
  Cl  Cl25  1  0.472325  0.201140  0.091156  1
  Cl  Cl26  1  0.533770  0.448886  0.477253  1
  Cl  Cl27  1  0.926304  0.733643  0.603963  1
  Cl  Cl28  1  0.376889  0.335384  0.732484  1
  Cl  Cl29  1  0.960809  0.985470  0.499120  1
  Cl  Cl30  1  0.027015  0.702753  0.892834  1
  Cl  Cl31  1  0.881977  0.275972  0.637103  1
  Cl  Cl32  1  0.790041  0.408516  0.263059  1
  Cl  Cl33  1  0.125351  0.144961  0.861935  1
  Cl  Cl34  1  0.427538  0.708813  0.602422  1
  Cl  Cl35  1  0.945790  0.948116  0.016452  1
  Cl  Cl36  1  0.054210  0.448116  0.983548  1
  Cl  Cl37  1  0.209959  0.908516  0.736941  1
  Cl  Cl38  1  0.629200  0.086666  0.770076  1
  Cl  Cl39  1  0.763626  0.516955  0.763201  1
