# generated using pymatgen
data_RbSn2Br5
_symmetry_space_group_name_H-M   'P 1'
_cell_length_a   9.73425356
_cell_length_b   9.73425356
_cell_length_c   9.73425356
_cell_angle_alpha   127.96982472
_cell_angle_beta   127.96982472
_cell_angle_gamma   76.67391594
_symmetry_Int_Tables_number   1
_chemical_formula_structural   RbSn2Br5
_chemical_formula_sum   'Rb2 Sn4 Br10'
_cell_volume   556.73075045
_cell_formula_units_Z   2
loop_
 _symmetry_equiv_pos_site_id
 _symmetry_equiv_pos_as_xyz
  1  'x, y, z'
loop_
 _atom_site_type_symbol
 _atom_site_label
 _atom_site_symmetry_multiplicity
 _atom_site_fract_x
 _atom_site_fract_y
 _atom_site_fract_z
 _atom_site_occupancy
  Rb  Rb0  1  0.250000  0.250000  0.000000  1
  Rb  Rb1  1  0.750000  0.750000  0.000000  1
  Sn  Sn2  1  0.179224  0.320776  0.500000  1
  Sn  Sn3  1  0.320776  0.820776  0.141551  1
  Sn  Sn4  1  0.820776  0.679224  0.500000  1
  Sn  Sn5  1  0.679224  0.179224  0.858449  1
  Br  Br6  1  0.470437  0.292150  0.500000  1
  Br  Br7  1  0.292150  0.792150  0.821714  1
  Br  Br8  1  0.529563  0.707850  0.500000  1
  Br  Br9  1  0.792150  0.970437  0.500000  1
  Br  Br10  1  0.970437  0.470437  0.178286  1
  Br  Br11  1  0.707850  0.207850  0.178286  1
  Br  Br12  1  0.207850  0.029563  0.500000  1
  Br  Br13  1  0.000000  0.000000  0.000000  1
  Br  Br14  1  0.029563  0.529563  0.821714  1
  Br  Br15  1  0.500000  0.500000  0.000000  1
