# generated using pymatgen
data_Cd2PO4F
_symmetry_space_group_name_H-M   'P 1'
_cell_length_a   7.85938593
_cell_length_b   7.85938593
_cell_length_c   10.73329588
_cell_angle_alpha   62.00757092
_cell_angle_beta   117.99242908
_cell_angle_gamma   128.63484950
_symmetry_Int_Tables_number   1
_chemical_formula_structural   Cd2PO4F
_chemical_formula_sum   'Cd8 P4 O16 F4'
_cell_volume   442.11201164
_cell_formula_units_Z   4
loop_
 _symmetry_equiv_pos_site_id
 _symmetry_equiv_pos_as_xyz
  1  'x, y, z'
loop_
 _atom_site_type_symbol
 _atom_site_label
 _atom_site_symmetry_multiplicity
 _atom_site_fract_x
 _atom_site_fract_y
 _atom_site_fract_z
 _atom_site_occupancy
  Cd  Cd0  1  0.940519  0.257834  0.652951  1
  Cd  Cd1  1  0.742166  0.059481  0.152951  1
  Cd  Cd2  1  0.313771  0.208641  0.485587  1
  Cd  Cd3  1  0.791359  0.686229  0.985587  1
  Cd  Cd4  1  0.686229  0.791359  0.514413  1
  Cd  Cd5  1  0.059481  0.742166  0.347049  1
  Cd  Cd6  1  0.208641  0.313771  0.014413  1
  Cd  Cd7  1  0.257834  0.940519  0.847049  1
  P  P8  1  0.587367  0.234938  0.305462  1
  P  P9  1  0.765062  0.412633  0.805462  1
  P  P10  1  0.234938  0.587367  0.194538  1
  P  P11  1  0.412633  0.765062  0.694538  1
  O  O12  1  0.771416  0.389482  0.411779  1
  O  O13  1  0.389482  0.771416  0.088221  1
  O  O14  1  0.926299  0.350332  0.818152  1
  O  O15  1  0.649668  0.073701  0.318152  1
  O  O16  1  0.610518  0.228584  0.911779  1
  O  O17  1  0.442822  0.621605  0.854971  1
  O  O18  1  0.073701  0.649668  0.181848  1
  O  O19  1  0.557178  0.378395  0.145029  1
  O  O20  1  0.904113  0.639000  0.848191  1
  O  O21  1  0.639000  0.904113  0.651809  1
  O  O22  1  0.378395  0.557178  0.354971  1
  O  O23  1  0.228584  0.610518  0.588221  1
  O  O24  1  0.361000  0.095887  0.348191  1
  O  O25  1  0.095887  0.361000  0.151809  1
  O  O26  1  0.350332  0.926299  0.681848  1
  O  O27  1  0.621605  0.442822  0.645029  1
  F  F28  1  0.901614  0.929196  0.108903  1
  F  F29  1  0.098386  0.070804  0.891097  1
  F  F30  1  0.070804  0.098386  0.608903  1
  F  F31  1  0.929196  0.901614  0.391097  1
