# generated using pymatgen
data_Sr4Li(BO3)3
_symmetry_space_group_name_H-M   'P 1'
_cell_length_a   13.08396322
_cell_length_b   13.08396322
_cell_length_c   13.08396322
_cell_angle_alpha   109.47122063
_cell_angle_beta   109.47122063
_cell_angle_gamma   109.47122063
_symmetry_Int_Tables_number   1
_chemical_formula_structural   Sr4Li(BO3)3
_chemical_formula_sum   'Sr32 Li8 B24 O72'
_cell_volume   1724.23339661
_cell_formula_units_Z   8
loop_
 _symmetry_equiv_pos_site_id
 _symmetry_equiv_pos_as_xyz
  1  'x, y, z'
loop_
 _atom_site_type_symbol
 _atom_site_label
 _atom_site_symmetry_multiplicity
 _atom_site_fract_x
 _atom_site_fract_y
 _atom_site_fract_z
 _atom_site_occupancy
  Sr  Sr0  1  0.996581  0.746581  0.250000  1
  Sr  Sr1  1  0.753419  0.503419  0.250000  1
  Sr  Sr2  1  0.250000  0.496581  0.246581  1
  Sr  Sr3  1  0.246581  0.496581  0.750000  1
  Sr  Sr4  1  0.003419  0.253419  0.750000  1
  Sr  Sr5  1  0.250000  0.996581  0.746581  1
  Sr  Sr6  1  0.750000  0.003419  0.253419  1
  Sr  Sr7  1  0.746581  0.996581  0.750000  1
  Sr  Sr8  1  0.746581  0.250000  0.996581  1
  Sr  Sr9  1  0.996581  0.750000  0.746581  1
  Sr  Sr10  1  0.496581  0.246581  0.250000  1
  Sr  Sr11  1  0.000000  0.000000  0.000000  1
  Sr  Sr12  1  0.000000  0.500000  0.500000  1
  Sr  Sr13  1  0.750000  0.746581  0.996581  1
  Sr  Sr14  1  0.000000  0.000000  0.500000  1
  Sr  Sr15  1  0.750000  0.503419  0.753419  1
  Sr  Sr16  1  0.253419  0.003419  0.250000  1
  Sr  Sr17  1  0.750000  0.246581  0.496581  1
  Sr  Sr18  1  0.253419  0.750000  0.003419  1
  Sr  Sr19  1  0.250000  0.753419  0.503419  1
  Sr  Sr20  1  0.496581  0.750000  0.246581  1
  Sr  Sr21  1  0.503419  0.250000  0.753419  1
  Sr  Sr22  1  0.003419  0.250000  0.253419  1
  Sr  Sr23  1  0.500000  0.000000  1.000000  1
  Sr  Sr24  1  0.000000  0.500000  1.000000  1
  Sr  Sr25  1  0.500000  0.500000  0.000000  1
  Sr  Sr26  1  0.753419  0.750000  0.503419  1
  Sr  Sr27  1  0.250000  0.253419  0.003419  1
  Sr  Sr28  1  0.500000  0.500000  0.500000  1
  Sr  Sr29  1  0.500000  0.000000  0.500000  1
  Sr  Sr30  1  0.246581  0.250000  0.496581  1
  Sr  Sr31  1  0.503419  0.753419  0.750000  1
  Li  Li32  1  0.250000  0.250000  0.250000  1
  Li  Li33  1  0.500000  0.000000  0.750000  1
  Li  Li34  1  0.250000  0.500000  0.000000  1
  Li  Li35  1  0.750000  0.750000  0.750000  1
  Li  Li36  1  0.500000  0.000000  0.250000  1
  Li  Li37  1  0.000000  0.250000  0.500000  1
  Li  Li38  1  0.000000  0.750000  0.500000  1
  Li  Li39  1  0.750000  0.500000  1.000000  1
  B  B40  1  0.764901  0.735099  0.250000  1
  B  B41  1  0.029803  0.264901  0.014901  1
  B  B42  1  0.485099  0.235099  0.470197  1
  B  B43  1  0.264901  0.014901  0.029803  1
  B  B44  1  0.470197  0.485099  0.235099  1
  B  B45  1  0.264901  0.750000  0.235099  1
  B  B46  1  0.514901  0.250000  0.985099  1
  B  B47  1  0.235099  0.264901  0.750000  1
  B  B48  1  0.970197  0.735099  0.985099  1
  B  B49  1  0.764901  0.529803  0.514901  1
  B  B50  1  0.235099  0.470197  0.485099  1
  B  B51  1  0.985099  0.970197  0.735099  1
  B  B52  1  0.014901  0.485099  0.750000  1
  B  B53  1  0.514901  0.764901  0.529803  1
  B  B54  1  0.014901  0.029803  0.264901  1
  B  B55  1  0.750000  0.014901  0.485099  1
  B  B56  1  0.735099  0.985099  0.970197  1
  B  B57  1  0.250000  0.985099  0.514901  1
  B  B58  1  0.485099  0.750000  0.014901  1
  B  B59  1  0.735099  0.250000  0.764901  1
  B  B60  1  0.750000  0.235099  0.264901  1
  B  B61  1  0.985099  0.514901  0.250000  1
  B  B62  1  0.529803  0.514901  0.764901  1
  B  B63  1  0.250000  0.764901  0.735099  1
  O  O64  1  0.200566  0.950566  0.901132  1
  O  O65  1  0.049434  0.450566  0.250000  1
  O  O66  1  0.897885  0.901080  0.759537  1
  O  O67  1  0.641543  0.003195  0.901080  1
  O  O68  1  0.641543  0.138348  0.740463  1
  O  O69  1  0.450566  0.700566  0.401132  1
  O  O70  1  0.141543  0.240463  0.638348  1
  O  O71  1  0.602115  0.740463  0.598920  1
  O  O72  1  0.503195  0.141543  0.401080  1
  O  O73  1  0.361652  0.858457  0.759537  1
  O  O74  1  0.259537  0.358457  0.861652  1
  O  O75  1  0.638348  0.141543  0.240463  1
  O  O76  1  0.750000  0.950566  0.549434  1
  O  O77  1  0.358457  0.996805  0.098920  1
  O  O78  1  0.950566  0.901132  0.200566  1
  O  O79  1  0.496805  0.858457  0.598920  1
  O  O80  1  0.897885  0.496805  0.138348  1
  O  O81  1  0.401132  0.450566  0.700566  1
  O  O82  1  0.361652  0.003195  0.602115  1
  O  O83  1  0.549434  0.299434  0.598868  1
  O  O84  1  0.858457  0.759537  0.361652  1
  O  O85  1  0.759537  0.897885  0.901080  1
  O  O86  1  0.003195  0.602115  0.361652  1
  O  O87  1  0.003195  0.901080  0.641543  1
  O  O88  1  0.299434  0.598868  0.549434  1
  O  O89  1  0.401080  0.503195  0.141543  1
  O  O90  1  0.740463  0.641543  0.138348  1
  O  O91  1  0.996805  0.098920  0.358457  1
  O  O92  1  0.401080  0.397885  0.259537  1
  O  O93  1  0.503195  0.861652  0.102115  1
  O  O94  1  0.450566  0.250000  0.049434  1
  O  O95  1  0.861652  0.259537  0.358457  1
  O  O96  1  0.549434  0.750000  0.950566  1
  O  O97  1  0.901080  0.641543  0.003195  1
  O  O98  1  0.049434  0.098868  0.799434  1
  O  O99  1  0.638348  0.996805  0.397885  1
  O  O100  1  0.858457  0.598920  0.496805  1
  O  O101  1  0.138348  0.740463  0.641543  1
  O  O102  1  0.098920  0.240463  0.102115  1
  O  O103  1  0.397885  0.638348  0.996805  1
  O  O104  1  0.740463  0.598920  0.602115  1
  O  O105  1  0.759537  0.361652  0.858457  1
  O  O106  1  0.700566  0.799434  0.250000  1
  O  O107  1  0.102115  0.098920  0.240463  1
  O  O108  1  0.240463  0.638348  0.141543  1
  O  O109  1  0.598920  0.602115  0.740463  1
  O  O110  1  0.200566  0.750000  0.299434  1
  O  O111  1  0.250000  0.049434  0.450566  1
  O  O112  1  0.598920  0.496805  0.858457  1
  O  O113  1  0.299434  0.200566  0.750000  1
  O  O114  1  0.138348  0.897885  0.496805  1
  O  O115  1  0.799434  0.250000  0.700566  1
  O  O116  1  0.598868  0.549434  0.299434  1
  O  O117  1  0.901080  0.759537  0.897885  1
  O  O118  1  0.799434  0.049434  0.098868  1
  O  O119  1  0.141543  0.401080  0.503195  1
  O  O120  1  0.496805  0.138348  0.897885  1
  O  O121  1  0.358457  0.861652  0.259537  1
  O  O122  1  0.901132  0.200566  0.950566  1
  O  O123  1  0.750000  0.299434  0.200566  1
  O  O124  1  0.102115  0.503195  0.861652  1
  O  O125  1  0.098920  0.358457  0.996805  1
  O  O126  1  0.861652  0.102115  0.503195  1
  O  O127  1  0.996805  0.397885  0.638348  1
  O  O128  1  0.397885  0.259537  0.401080  1
  O  O129  1  0.700566  0.401132  0.450566  1
  O  O130  1  0.250000  0.700566  0.799434  1
  O  O131  1  0.259537  0.401080  0.397885  1
  O  O132  1  0.240463  0.102115  0.098920  1
  O  O133  1  0.950566  0.549434  0.750000  1
  O  O134  1  0.098868  0.799434  0.049434  1
  O  O135  1  0.602115  0.361652  0.003195  1
