# generated using pymatgen
data_Fe3O4
_symmetry_space_group_name_H-M   'P 1'
_cell_length_a   3.01278024
_cell_length_b   10.05688607
_cell_length_c   10.46110320
_cell_angle_alpha   90.00000000
_cell_angle_beta   90.00000000
_cell_angle_gamma   90.00000000
_symmetry_Int_Tables_number   1
_chemical_formula_structural   Fe3O4
_chemical_formula_sum   'Fe12 O16'
_cell_volume   316.96292824
_cell_formula_units_Z   4
loop_
 _symmetry_equiv_pos_site_id
 _symmetry_equiv_pos_as_xyz
  1  'x, y, z'
loop_
 _atom_site_type_symbol
 _atom_site_label
 _atom_site_symmetry_multiplicity
 _atom_site_fract_x
 _atom_site_fract_y
 _atom_site_fract_z
 _atom_site_occupancy
  Fe  Fe0  1  0.275631  0.376577  0.250000  1
  Fe  Fe1  1  0.275631  0.123423  0.750000  1
  Fe  Fe2  1  0.724369  0.876577  0.250000  1
  Fe  Fe3  1  0.724369  0.623423  0.750000  1
  Fe  Fe4  1  0.242841  0.120475  0.072493  1
  Fe  Fe5  1  0.757159  0.620475  0.427507  1
  Fe  Fe6  1  0.242841  0.379525  0.927507  1
  Fe  Fe7  1  0.757159  0.879525  0.572493  1
  Fe  Fe8  1  0.757159  0.879525  0.927507  1
  Fe  Fe9  1  0.757159  0.620475  0.072493  1
  Fe  Fe10  1  0.242841  0.379525  0.572493  1
  Fe  Fe11  1  0.242841  0.120475  0.427507  1
  O  O12  1  0.249332  0.185736  0.250000  1
  O  O13  1  0.249332  0.314264  0.750000  1
  O  O14  1  0.750668  0.685736  0.250000  1
  O  O15  1  0.750668  0.814264  0.750000  1
  O  O16  1  0.249247  0.486756  0.101200  1
  O  O17  1  0.249247  0.013244  0.898800  1
  O  O18  1  0.750753  0.986756  0.398800  1
  O  O19  1  0.750753  0.513244  0.601200  1
  O  O20  1  0.750753  0.513244  0.898800  1
  O  O21  1  0.750753  0.986756  0.101200  1
  O  O22  1  0.249247  0.013244  0.601200  1
  O  O23  1  0.249247  0.486756  0.398800  1
  O  O24  1  0.746448  0.250000  0.000000  1
  O  O25  1  0.253552  0.750000  0.500000  1
  O  O26  1  0.253552  0.750000  0.000000  1
  O  O27  1  0.746448  0.250000  0.500000  1
