# generated using pymatgen
data_CuMo3Br7
_symmetry_space_group_name_H-M   'P 1'
_cell_length_a   13.73653890
_cell_length_b   13.73653890
_cell_length_c   13.73653890
_cell_angle_alpha   90.00000000
_cell_angle_beta   90.00000000
_cell_angle_gamma   90.00000000
_symmetry_Int_Tables_number   1
_chemical_formula_structural   CuMo3Br7
_chemical_formula_sum   'Cu8 Mo24 Br56'
_cell_volume   2591.98187945
_cell_formula_units_Z   8
loop_
 _symmetry_equiv_pos_site_id
 _symmetry_equiv_pos_as_xyz
  1  'x, y, z'
loop_
 _atom_site_type_symbol
 _atom_site_label
 _atom_site_symmetry_multiplicity
 _atom_site_fract_x
 _atom_site_fract_y
 _atom_site_fract_z
 _atom_site_occupancy
  Cu  Cu0  1  0.188283  0.188283  0.188283  1
  Cu  Cu1  1  0.811717  0.811717  0.188283  1
  Cu  Cu2  1  0.188283  0.811717  0.811717  1
  Cu  Cu3  1  0.688283  0.688283  0.311717  1
  Cu  Cu4  1  0.688283  0.311717  0.688283  1
  Cu  Cu5  1  0.311717  0.311717  0.311717  1
  Cu  Cu6  1  0.811717  0.188283  0.811717  1
  Cu  Cu7  1  0.311717  0.688283  0.688283  1
  Mo  Mo8  1  0.774417  0.280538  0.380909  1
  Mo  Mo9  1  0.380909  0.774417  0.280538  1
  Mo  Mo10  1  0.719462  0.619091  0.774417  1
  Mo  Mo11  1  0.880909  0.725583  0.780538  1
  Mo  Mo12  1  0.219462  0.880909  0.274417  1
  Mo  Mo13  1  0.780538  0.880909  0.725583  1
  Mo  Mo14  1  0.280538  0.380909  0.774417  1
  Mo  Mo15  1  0.619091  0.774417  0.719462  1
  Mo  Mo16  1  0.719462  0.380909  0.225583  1
  Mo  Mo17  1  0.725583  0.219462  0.119091  1
  Mo  Mo18  1  0.880909  0.274417  0.219462  1
  Mo  Mo19  1  0.219462  0.119091  0.725583  1
  Mo  Mo20  1  0.225583  0.719462  0.380909  1
  Mo  Mo21  1  0.774417  0.719462  0.619091  1
  Mo  Mo22  1  0.780538  0.119091  0.274417  1
  Mo  Mo23  1  0.280538  0.619091  0.225583  1
  Mo  Mo24  1  0.725583  0.780538  0.880909  1
  Mo  Mo25  1  0.225583  0.280538  0.619091  1
  Mo  Mo26  1  0.119091  0.725583  0.219462  1
  Mo  Mo27  1  0.619091  0.225583  0.280538  1
  Mo  Mo28  1  0.274417  0.219462  0.880909  1
  Mo  Mo29  1  0.119091  0.274417  0.780538  1
  Mo  Mo30  1  0.380909  0.225583  0.719462  1
  Mo  Mo31  1  0.274417  0.780538  0.119091  1
  Br  Br32  1  0.114356  0.114356  0.885644  1
  Br  Br33  1  0.566503  0.675915  0.874005  1
  Br  Br34  1  0.434654  0.188819  0.327781  1
  Br  Br35  1  0.565346  0.188819  0.672219  1
  Br  Br36  1  0.827781  0.934654  0.311181  1
  Br  Br37  1  0.125995  0.566503  0.324085  1
  Br  Br38  1  0.614356  0.385644  0.385644  1
  Br  Br39  1  0.172219  0.065346  0.311181  1
  Br  Br40  1  0.885644  0.885644  0.885644  1
  Br  Br41  1  0.385644  0.614356  0.385644  1
  Br  Br42  1  0.625995  0.933497  0.824085  1
  Br  Br43  1  0.125995  0.433497  0.675915  1
  Br  Br44  1  0.066503  0.824085  0.374005  1
  Br  Br45  1  0.065346  0.688819  0.827781  1
  Br  Br46  1  0.672219  0.434654  0.811181  1
  Br  Br47  1  0.327781  0.434654  0.188819  1
  Br  Br48  1  0.566503  0.324085  0.125995  1
  Br  Br49  1  0.874005  0.433497  0.324085  1
  Br  Br50  1  0.188819  0.327781  0.434654  1
  Br  Br51  1  0.614356  0.614356  0.614356  1
  Br  Br52  1  0.827781  0.065346  0.688819  1
  Br  Br53  1  0.172219  0.934654  0.688819  1
  Br  Br54  1  0.625995  0.066503  0.175915  1
  Br  Br55  1  0.311181  0.827781  0.934654  1
  Br  Br56  1  0.114356  0.885644  0.114356  1
  Br  Br57  1  0.933497  0.175915  0.374005  1
  Br  Br58  1  0.385644  0.385644  0.614356  1
  Br  Br59  1  0.824085  0.625995  0.933497  1
  Br  Br60  1  0.688819  0.827781  0.065346  1
  Br  Br61  1  0.188819  0.672219  0.565346  1
  Br  Br62  1  0.175915  0.625995  0.066503  1
  Br  Br63  1  0.688819  0.172219  0.934654  1
  Br  Br64  1  0.885644  0.114356  0.114356  1
  Br  Br65  1  0.824085  0.374005  0.066503  1
  Br  Br66  1  0.675915  0.874005  0.566503  1
  Br  Br67  1  0.175915  0.374005  0.933497  1
  Br  Br68  1  0.324085  0.874005  0.433497  1
  Br  Br69  1  0.066503  0.175915  0.625995  1
  Br  Br70  1  0.374005  0.933497  0.175915  1
  Br  Br71  1  0.934654  0.688819  0.172219  1
  Br  Br72  1  0.065346  0.311181  0.172219  1
  Br  Br73  1  0.811181  0.672219  0.434654  1
  Br  Br74  1  0.374005  0.066503  0.824085  1
  Br  Br75  1  0.433497  0.675915  0.125995  1
  Br  Br76  1  0.324085  0.125995  0.566503  1
  Br  Br77  1  0.672219  0.565346  0.188819  1
  Br  Br78  1  0.311181  0.172219  0.065346  1
  Br  Br79  1  0.934654  0.311181  0.827781  1
  Br  Br80  1  0.565346  0.811181  0.327781  1
  Br  Br81  1  0.433497  0.324085  0.874005  1
  Br  Br82  1  0.874005  0.566503  0.675915  1
  Br  Br83  1  0.933497  0.824085  0.625995  1
  Br  Br84  1  0.675915  0.125995  0.433497  1
  Br  Br85  1  0.327781  0.565346  0.811181  1
  Br  Br86  1  0.811181  0.327781  0.565346  1
  Br  Br87  1  0.434654  0.811181  0.672219  1
