# generated using pymatgen
data_K3SO4F
_symmetry_space_group_name_H-M   'P 1'
_cell_length_a   7.60991935
_cell_length_b   7.60991935
_cell_length_c   7.60991935
_cell_angle_alpha   121.90274326
_cell_angle_beta   121.90274326
_cell_angle_gamma   86.73478192
_symmetry_Int_Tables_number   1
_chemical_formula_structural   K3SO4F
_chemical_formula_sum   'K6 S2 O8 F2'
_cell_volume   302.12389440
_cell_formula_units_Z   2
loop_
 _symmetry_equiv_pos_site_id
 _symmetry_equiv_pos_as_xyz
  1  'x, y, z'
loop_
 _atom_site_type_symbol
 _atom_site_label
 _atom_site_symmetry_multiplicity
 _atom_site_fract_x
 _atom_site_fract_y
 _atom_site_fract_z
 _atom_site_occupancy
  K  K0  1  0.692962  0.192962  0.885924  1
  K  K1  1  0.250000  0.250000  0.000000  1
  K  K2  1  0.807038  0.692962  0.500000  1
  K  K3  1  0.307038  0.807038  0.114076  1
  K  K4  1  0.192962  0.307038  0.500000  1
  K  K5  1  0.750000  0.750000  0.000000  1
  S  S6  1  0.250000  0.750000  0.500000  1
  S  S7  1  0.750000  0.250000  0.500000  1
  O  O8  1  0.554900  0.287401  0.500000  1
  O  O9  1  0.945100  0.445100  0.732501  1
  O  O10  1  0.287401  0.787401  0.732501  1
  O  O11  1  0.712599  0.212599  0.267499  1
  O  O12  1  0.787401  0.054900  0.500000  1
  O  O13  1  0.054900  0.554900  0.267499  1
  O  O14  1  0.212599  0.945100  0.500000  1
  O  O15  1  0.445100  0.712599  0.500000  1
  F  F16  1  0.000000  0.000000  0.000000  1
  F  F17  1  0.500000  0.500000  0.000000  1
