# generated using pymatgen
data_GePb3O5
_symmetry_space_group_name_H-M   'P 1'
_cell_length_a   5.39763213
_cell_length_b   5.39763213
_cell_length_c   5.50092838
_cell_angle_alpha   90.00000000
_cell_angle_beta   90.00000000
_cell_angle_gamma   90.84107330
_symmetry_Int_Tables_number   1
_chemical_formula_structural   GePb3O5
_chemical_formula_sum   'Ge1 Pb3 O5'
_cell_volume   160.24915961
_cell_formula_units_Z   1
loop_
 _symmetry_equiv_pos_site_id
 _symmetry_equiv_pos_as_xyz
  1  'x, y, z'
loop_
 _atom_site_type_symbol
 _atom_site_label
 _atom_site_symmetry_multiplicity
 _atom_site_fract_x
 _atom_site_fract_y
 _atom_site_fract_z
 _atom_site_occupancy
  Ge  Ge0  1  0.000000  0.000000  0.516627  1
  Pb  Pb1  1  0.500000  0.500000  0.548134  1
  Pb  Pb2  1  0.000000  0.500000  0.021466  1
  Pb  Pb3  1  0.500000  1.000000  0.021466  1
  O  O4  1  0.186546  0.813454  0.709460  1
  O  O5  1  0.809321  0.809321  0.327228  1
  O  O6  1  0.190679  0.190679  0.327228  1
  O  O7  1  0.813454  0.186546  0.709460  1
  O  O8  1  0.500000  0.500000  0.969012  1
