# generated using pymatgen
data_Pr3CuGeS7
_symmetry_space_group_name_H-M   'P 1'
_cell_length_a   10.26685777
_cell_length_b   10.26685777
_cell_length_c   5.89394276
_cell_angle_alpha   90.00000000
_cell_angle_beta   90.00000000
_cell_angle_gamma   120.00000000
_symmetry_Int_Tables_number   1
_chemical_formula_structural   Pr3CuGeS7
_chemical_formula_sum   'Pr6 Cu2 Ge2 S14'
_cell_volume   538.03637366
_cell_formula_units_Z   2
loop_
 _symmetry_equiv_pos_site_id
 _symmetry_equiv_pos_as_xyz
  1  'x, y, z'
loop_
 _atom_site_type_symbol
 _atom_site_label
 _atom_site_symmetry_multiplicity
 _atom_site_fract_x
 _atom_site_fract_y
 _atom_site_fract_z
 _atom_site_occupancy
  Pr  Pr0  1  0.229066  0.872615  0.750568  1
  Pr  Pr1  1  0.356450  0.229066  0.250568  1
  Pr  Pr2  1  0.770934  0.127385  0.250568  1
  Pr  Pr3  1  0.643550  0.770934  0.750568  1
  Pr  Pr4  1  0.127385  0.356450  0.750568  1
  Pr  Pr5  1  0.872615  0.643550  0.250568  1
  Cu  Cu6  1  0.000000  0.000000  0.721339  1
  Cu  Cu7  1  0.000000  0.000000  0.221339  1
  Ge  Ge8  1  0.333333  0.666667  0.332360  1
  Ge  Ge9  1  0.666667  0.333333  0.832360  1
  S  S10  1  0.838363  0.090141  0.733353  1
  S  S11  1  0.333333  0.666667  0.958624  1
  S  S12  1  0.161637  0.909859  0.233353  1
  S  S13  1  0.416220  0.521144  0.485472  1
  S  S14  1  0.895077  0.416220  0.985472  1
  S  S15  1  0.251778  0.161637  0.733353  1
  S  S16  1  0.104923  0.583780  0.485472  1
  S  S17  1  0.521144  0.104923  0.985472  1
  S  S18  1  0.666667  0.333333  0.458624  1
  S  S19  1  0.478856  0.895077  0.485472  1
  S  S20  1  0.909859  0.748222  0.733353  1
  S  S21  1  0.090141  0.251778  0.233353  1
  S  S22  1  0.748222  0.838363  0.233353  1
  S  S23  1  0.583780  0.478856  0.985472  1
