# generated using pymatgen
data_Hf(SeCl6)2
_symmetry_space_group_name_H-M   'P 1'
_cell_length_a   13.06677650
_cell_length_b   12.86770151
_cell_length_c   9.00547758
_cell_angle_alpha   70.87387938
_cell_angle_beta   68.49810157
_cell_angle_gamma   40.62801905
_symmetry_Int_Tables_number   1
_chemical_formula_structural   Hf(SeCl6)2
_chemical_formula_sum   'Hf2 Se4 Cl24'
_cell_volume   914.26858323
_cell_formula_units_Z   2
loop_
 _symmetry_equiv_pos_site_id
 _symmetry_equiv_pos_as_xyz
  1  'x, y, z'
loop_
 _atom_site_type_symbol
 _atom_site_label
 _atom_site_symmetry_multiplicity
 _atom_site_fract_x
 _atom_site_fract_y
 _atom_site_fract_z
 _atom_site_occupancy
  Hf  Hf0  1  0.873720  0.873720  0.626280  1
  Hf  Hf1  1  0.623720  0.623720  0.376280  1
  Se  Se2  1  0.986247  0.424840  0.562613  1
  Se  Se3  1  0.687387  0.223700  0.263753  1
  Se  Se4  1  0.424840  0.986247  0.026300  1
  Se  Se5  1  0.223700  0.687387  0.825160  1
  Cl  Cl6  1  0.464387  0.439581  0.830160  1
  Cl  Cl7  1  0.584188  0.669318  0.104764  1
  Cl  Cl8  1  0.329407  0.223783  0.996848  1
  Cl  Cl9  1  0.355841  0.742605  0.502192  1
  Cl  Cl10  1  0.895984  0.508481  0.269774  1
  Cl  Cl11  1  0.980226  0.924238  0.354016  1
  Cl  Cl12  1  0.924238  0.980226  0.741520  1
  Cl  Cl13  1  0.742605  0.355841  0.399363  1
  Cl  Cl14  1  0.508480  0.895984  0.325762  1
  Cl  Cl15  1  0.223783  0.329407  0.449962  1
  Cl  Cl16  1  0.103068  0.660351  0.052893  1
  Cl  Cl17  1  0.800038  0.253152  0.026217  1
  Cl  Cl18  1  0.850637  0.747808  0.507395  1
  Cl  Cl19  1  0.747808  0.850637  0.894159  1
  Cl  Cl20  1  0.608270  0.145236  0.580682  1
  Cl  Cl21  1  0.253152  0.800038  0.920593  1
  Cl  Cl22  1  0.197107  0.066312  0.146932  1
  Cl  Cl23  1  0.660351  0.103068  0.183688  1
  Cl  Cl24  1  0.984129  0.419840  0.810419  1
  Cl  Cl25  1  0.419840  0.984129  0.785613  1
  Cl  Cl26  1  0.669318  0.584188  0.641730  1
  Cl  Cl27  1  0.439581  0.464387  0.265871  1
  Cl  Cl28  1  0.145236  0.608270  0.665812  1
  Cl  Cl29  1  0.066312  0.197107  0.589649  1
