# generated using pymatgen
data_Sb2BrF17
_symmetry_space_group_name_H-M   'P 1'
_cell_length_a   12.15430909
_cell_length_b   8.65776207
_cell_length_c   16.13429832
_cell_angle_alpha   90.00000000
_cell_angle_beta   130.78816575
_cell_angle_gamma   90.00000000
_symmetry_Int_Tables_number   1
_chemical_formula_structural   Sb2BrF17
_chemical_formula_sum   'Sb8 Br4 F68'
_cell_volume   1285.45376642
_cell_formula_units_Z   4
loop_
 _symmetry_equiv_pos_site_id
 _symmetry_equiv_pos_as_xyz
  1  'x, y, z'
loop_
 _atom_site_type_symbol
 _atom_site_label
 _atom_site_symmetry_multiplicity
 _atom_site_fract_x
 _atom_site_fract_y
 _atom_site_fract_z
 _atom_site_occupancy
  Sb  Sb0  1  0.533222  0.522068  0.843403  1
  Sb  Sb1  1  0.533222  0.977932  0.343403  1
  Sb  Sb2  1  0.466778  0.477932  0.156597  1
  Sb  Sb3  1  0.466778  0.022068  0.656597  1
  Sb  Sb4  1  0.916707  0.502245  0.143164  1
  Sb  Sb5  1  0.916707  0.997755  0.643164  1
  Sb  Sb6  1  0.083293  0.497755  0.856836  1
  Sb  Sb7  1  0.083293  0.002245  0.356836  1
  Br  Br8  1  0.500000  0.500000  0.500000  1
  Br  Br9  1  0.500000  0.000000  0.000000  1
  Br  Br10  1  0.000000  0.500000  0.500000  1
  Br  Br11  1  0.000000  0.000000  0.000000  1
  F  F12  1  0.452710  0.334682  0.844752  1
  F  F13  1  0.452710  0.165318  0.344752  1
  F  F14  1  0.547290  0.665318  0.155248  1
  F  F15  1  0.547290  0.834682  0.655248  1
  F  F16  1  0.656874  0.410211  0.830196  1
  F  F17  1  0.656874  0.089789  0.330196  1
  F  F18  1  0.343126  0.589789  0.169804  1
  F  F19  1  0.343126  0.910211  0.669804  1
  F  F20  1  0.634234  0.707077  0.866894  1
  F  F21  1  0.634234  0.792923  0.366894  1
  F  F22  1  0.365766  0.292923  0.133106  1
  F  F23  1  0.365766  0.207077  0.633106  1
  F  F24  1  0.433791  0.630446  0.879526  1
  F  F25  1  0.433791  0.869554  0.379526  1
  F  F26  1  0.566209  0.369554  0.120474  1
  F  F27  1  0.566209  0.130446  0.620474  1
  F  F28  1  0.118039  0.518986  0.265452  1
  F  F29  1  0.118039  0.981014  0.765452  1
  F  F30  1  0.881961  0.481014  0.734548  1
  F  F31  1  0.881961  0.018986  0.234548  1
  F  F32  1  0.386564  0.550571  0.690276  1
  F  F33  1  0.386564  0.949429  0.190276  1
  F  F34  1  0.613436  0.449429  0.309724  1
  F  F35  1  0.613436  0.050571  0.809724  1
  F  F36  1  0.872751  0.426933  0.228910  1
  F  F37  1  0.872751  0.073067  0.728910  1
  F  F38  1  0.127249  0.573067  0.771090  1
  F  F39  1  0.127249  0.926933  0.271090  1
  F  F40  1  0.694085  0.484042  0.010718  1
  F  F41  1  0.694085  0.015958  0.510718  1
  F  F42  1  0.305915  0.515958  0.989282  1
  F  F43  1  0.305915  0.984042  0.489282  1
  F  F44  1  0.922554  0.296808  0.105025  1
  F  F45  1  0.922554  0.203192  0.605025  1
  F  F46  1  0.077446  0.703192  0.894975  1
  F  F47  1  0.077446  0.796808  0.394975  1
  F  F48  1  0.935088  0.580156  0.042823  1
  F  F49  1  0.935088  0.919844  0.542823  1
  F  F50  1  0.064912  0.419844  0.957177  1
  F  F51  1  0.064912  0.080156  0.457177  1
  F  F52  1  0.867640  0.706695  0.154553  1
  F  F53  1  0.867640  0.793305  0.654553  1
  F  F54  1  0.132360  0.293305  0.845447  1
  F  F55  1  0.132360  0.206695  0.345447  1
  F  F56  1  0.626485  0.648315  0.546661  1
  F  F57  1  0.626485  0.851685  0.046661  1
  F  F58  1  0.373515  0.351685  0.453339  1
  F  F59  1  0.373515  0.148315  0.953339  1
  F  F60  1  0.431466  0.528509  0.366043  1
  F  F61  1  0.431466  0.971491  0.866043  1
  F  F62  1  0.568534  0.471491  0.633957  1
  F  F63  1  0.568534  0.028509  0.133957  1
  F  F64  1  0.373982  0.632651  0.477069  1
  F  F65  1  0.373982  0.867349  0.977069  1
  F  F66  1  0.626018  0.367349  0.522931  1
  F  F67  1  0.626018  0.132651  0.022931  1
  F  F68  1  0.895059  0.521314  0.537660  1
  F  F69  1  0.895059  0.978686  0.037660  1
  F  F70  1  0.104941  0.478686  0.462340  1
  F  F71  1  0.104941  0.021314  0.962340  1
  F  F72  1  0.100564  0.662516  0.576947  1
  F  F73  1  0.100564  0.837484  0.076947  1
  F  F74  1  0.899436  0.337484  0.423053  1
  F  F75  1  0.899436  0.162516  0.923053  1
  F  F76  1  0.877780  0.617295  0.386356  1
  F  F77  1  0.877780  0.882705  0.886356  1
  F  F78  1  0.122220  0.382705  0.613644  1
  F  F79  1  0.122220  0.117295  0.113644  1
