# generated using pymatgen
data_LaMg4Cu
_symmetry_space_group_name_H-M   'P 1'
_cell_length_a   10.33366343
_cell_length_b   10.33366343
_cell_length_c   4.53365385
_cell_angle_alpha   90.00000000
_cell_angle_beta   90.00000000
_cell_angle_gamma   120.00000000
_symmetry_Int_Tables_number   1
_chemical_formula_structural   LaMg4Cu
_chemical_formula_sum   'La3 Mg12 Cu3'
_cell_volume   419.26404000
_cell_formula_units_Z   3
loop_
 _symmetry_equiv_pos_site_id
 _symmetry_equiv_pos_as_xyz
  1  'x, y, z'
loop_
 _atom_site_type_symbol
 _atom_site_label
 _atom_site_symmetry_multiplicity
 _atom_site_fract_x
 _atom_site_fract_y
 _atom_site_fract_z
 _atom_site_occupancy
  La  La0  1  0.000000  0.407531  0.000000  1
  La  La1  1  0.407531  0.000000  0.000000  1
  La  La2  1  0.592469  0.592469  0.000000  1
  Mg  Mg3  1  0.521269  0.816541  0.500000  1
  Mg  Mg4  1  0.295272  0.478731  0.500000  1
  Mg  Mg5  1  0.478731  0.295272  0.500000  1
  Mg  Mg6  1  0.704728  0.183459  0.500000  1
  Mg  Mg7  1  0.833808  0.833808  0.500000  1
  Mg  Mg8  1  0.000000  0.166192  0.500000  1
  Mg  Mg9  1  0.166192  0.000000  0.500000  1
  Mg  Mg10  1  0.183459  0.704728  0.500000  1
  Mg  Mg11  1  0.000000  0.747314  0.000000  1
  Mg  Mg12  1  0.816541  0.521269  0.500000  1
  Mg  Mg13  1  0.252686  0.252686  0.000000  1
  Mg  Mg14  1  0.747314  0.000000  0.000000  1
  Cu  Cu15  1  0.000000  0.000000  0.000000  1
  Cu  Cu16  1  0.666667  0.333333  0.000000  1
  Cu  Cu17  1  0.333333  0.666667  0.000000  1
