# generated using pymatgen
data_Pr(NiSb)2
_symmetry_space_group_name_H-M   'P 1'
_cell_length_a   6.16905928
_cell_length_b   6.16905928
_cell_length_c   6.16905928
_cell_angle_alpha   138.37669272
_cell_angle_beta   138.37669272
_cell_angle_gamma   60.32656336
_symmetry_Int_Tables_number   1
_chemical_formula_structural   Pr(NiSb)2
_chemical_formula_sum   'Pr1 Ni2 Sb2'
_cell_volume   102.49763621
_cell_formula_units_Z   1
loop_
 _symmetry_equiv_pos_site_id
 _symmetry_equiv_pos_as_xyz
  1  'x, y, z'
loop_
 _atom_site_type_symbol
 _atom_site_label
 _atom_site_symmetry_multiplicity
 _atom_site_fract_x
 _atom_site_fract_y
 _atom_site_fract_z
 _atom_site_occupancy
  Pr  Pr0  1  0.000000  0.000000  0.000000  1
  Ni  Ni1  1  0.250000  0.750000  0.500000  1
  Ni  Ni2  1  0.750000  0.250000  0.500000  1
  Sb  Sb3  1  0.363006  0.363006  0.000000  1
  Sb  Sb4  1  0.636994  0.636994  0.000000  1
