# generated using pymatgen
data_NbTl(BO3)2
_symmetry_space_group_name_H-M   'P 1'
_cell_length_a   7.49854977
_cell_length_b   8.02265847
_cell_length_c   9.58601891
_cell_angle_alpha   90.00000000
_cell_angle_beta   90.00000000
_cell_angle_gamma   90.00000000
_symmetry_Int_Tables_number   1
_chemical_formula_structural   NbTl(BO3)2
_chemical_formula_sum   'Nb4 Tl4 B8 O24'
_cell_volume   576.67863806
_cell_formula_units_Z   4
loop_
 _symmetry_equiv_pos_site_id
 _symmetry_equiv_pos_as_xyz
  1  'x, y, z'
loop_
 _atom_site_type_symbol
 _atom_site_label
 _atom_site_symmetry_multiplicity
 _atom_site_fract_x
 _atom_site_fract_y
 _atom_site_fract_z
 _atom_site_occupancy
  Nb  Nb0  1  0.240821  0.838109  0.133916  1
  Nb  Nb1  1  0.740821  0.661891  0.633916  1
  Nb  Nb2  1  0.759179  0.161891  0.633916  1
  Nb  Nb3  1  0.259179  0.338109  0.133916  1
  Tl  Tl4  1  0.259293  0.003201  0.747757  1
  Tl  Tl5  1  0.759293  0.496799  0.247757  1
  Tl  Tl6  1  0.740707  0.996799  0.247757  1
  Tl  Tl7  1  0.240707  0.503201  0.747757  1
  B  B8  1  0.418798  0.213863  0.420729  1
  B  B9  1  0.090146  0.262069  0.423301  1
  B  B10  1  0.909854  0.737931  0.923301  1
  B  B11  1  0.409854  0.762069  0.423301  1
  B  B12  1  0.081202  0.713863  0.420729  1
  B  B13  1  0.581202  0.786137  0.920729  1
  B  B14  1  0.918798  0.286137  0.920729  1
  B  B15  1  0.590146  0.237931  0.923301  1
  O  O16  1  0.441771  0.848205  0.997445  1
  O  O17  1  0.694133  0.440143  0.634470  1
  O  O18  1  0.085781  0.340110  0.296847  1
  O  O19  1  0.585781  0.159890  0.796847  1
  O  O20  1  0.250932  0.214196  0.486739  1
  O  O21  1  0.058229  0.348205  0.997445  1
  O  O22  1  0.059265  0.768346  0.286890  1
  O  O23  1  0.749068  0.785804  0.986739  1
  O  O24  1  0.435956  0.272298  0.991705  1
  O  O25  1  0.440735  0.268346  0.286890  1
  O  O26  1  0.064044  0.772298  0.991705  1
  O  O27  1  0.414219  0.840110  0.296847  1
  O  O28  1  0.940735  0.231654  0.786890  1
  O  O29  1  0.941771  0.651795  0.497445  1
  O  O30  1  0.935956  0.227702  0.491705  1
  O  O31  1  0.194133  0.059857  0.134470  1
  O  O32  1  0.805867  0.940143  0.634470  1
  O  O33  1  0.305867  0.559857  0.134470  1
  O  O34  1  0.559265  0.731654  0.786890  1
  O  O35  1  0.750932  0.285804  0.986739  1
  O  O36  1  0.564044  0.727702  0.491705  1
  O  O37  1  0.249068  0.714196  0.486739  1
  O  O38  1  0.558229  0.151795  0.497445  1
  O  O39  1  0.914219  0.659890  0.796847  1
