# generated using pymatgen
data_CsLa(PO3)4
_symmetry_space_group_name_H-M   'P 1'
_cell_length_a   7.32161899
_cell_length_b   9.39531093
_cell_length_c   8.96746470
_cell_angle_alpha   90.00000000
_cell_angle_beta   99.28648032
_cell_angle_gamma   90.00000000
_symmetry_Int_Tables_number   1
_chemical_formula_structural   CsLa(PO3)4
_chemical_formula_sum   'Cs2 La2 P8 O24'
_cell_volume   608.77721265
_cell_formula_units_Z   2
loop_
 _symmetry_equiv_pos_site_id
 _symmetry_equiv_pos_as_xyz
  1  'x, y, z'
loop_
 _atom_site_type_symbol
 _atom_site_label
 _atom_site_symmetry_multiplicity
 _atom_site_fract_x
 _atom_site_fract_y
 _atom_site_fract_z
 _atom_site_occupancy
  Cs  Cs0  1  0.173304  0.433710  0.674693  1
  Cs  Cs1  1  0.826696  0.933710  0.325307  1
  La  La2  1  0.297907  0.599072  0.197313  1
  La  La3  1  0.702093  0.099072  0.802687  1
  P  P4  1  0.854440  0.474052  0.956437  1
  P  P5  1  0.805640  0.523676  0.272213  1
  P  P6  1  0.439779  0.207345  0.125389  1
  P  P7  1  0.582684  0.322510  0.427273  1
  P  P8  1  0.145560  0.974052  0.043563  1
  P  P9  1  0.560221  0.707345  0.874611  1
  P  P10  1  0.417316  0.822510  0.572727  1
  P  P11  1  0.194360  0.023676  0.727787  1
  O  O12  1  0.423090  0.652264  0.967747  1
  O  O13  1  0.458873  0.698182  0.698854  1
  O  O14  1  0.005008  0.566294  0.317311  1
  O  O15  1  0.776035  0.441280  0.111136  1
  O  O16  1  0.040146  0.544762  0.990434  1
  O  O17  1  0.576910  0.152264  0.032253  1
  O  O18  1  0.837473  0.339931  0.865206  1
  O  O19  1  0.647571  0.850517  0.906348  1
  O  O20  1  0.642800  0.249922  0.574424  1
  O  O21  1  0.286718  0.086569  0.135593  1
  O  O22  1  0.994992  0.066294  0.682689  1
  O  O23  1  0.541127  0.198182  0.301146  1
  O  O24  1  0.713282  0.586569  0.864407  1
  O  O25  1  0.223965  0.941280  0.888864  1
  O  O26  1  0.343447  0.134030  0.732385  1
  O  O27  1  0.573612  0.927864  0.589794  1
  O  O28  1  0.357200  0.749922  0.425576  1
  O  O29  1  0.352429  0.350517  0.093652  1
  O  O30  1  0.656553  0.634030  0.267615  1
  O  O31  1  0.426388  0.427864  0.410206  1
  O  O32  1  0.959854  0.044762  0.009566  1
  O  O33  1  0.162527  0.839931  0.134794  1
  O  O34  1  0.229231  0.894459  0.616577  1
  O  O35  1  0.770769  0.394459  0.383423  1
