# generated using pymatgen
data_Fe(PO3)4
_symmetry_space_group_name_H-M   'P 1'
_cell_length_a   7.47504039
_cell_length_b   7.47504039
_cell_length_c   9.77254897
_cell_angle_alpha   69.07189721
_cell_angle_beta   110.92810279
_cell_angle_gamma   110.48015654
_symmetry_Int_Tables_number   1
_chemical_formula_structural   Fe(PO3)4
_chemical_formula_sum   'Fe2 P8 O24'
_cell_volume   460.65863808
_cell_formula_units_Z   2
loop_
 _symmetry_equiv_pos_site_id
 _symmetry_equiv_pos_as_xyz
  1  'x, y, z'
loop_
 _atom_site_type_symbol
 _atom_site_label
 _atom_site_symmetry_multiplicity
 _atom_site_fract_x
 _atom_site_fract_y
 _atom_site_fract_z
 _atom_site_occupancy
  Fe  Fe0  1  1.000000  0.500000  0.500000  1
  Fe  Fe1  1  0.500000  1.000000  0.000000  1
  P  P2  1  0.725410  0.727543  0.962994  1
  P  P3  1  0.727543  0.725410  0.537006  1
  P  P4  1  0.336298  0.698474  0.312411  1
  P  P5  1  0.272457  0.274590  0.462994  1
  P  P6  1  0.274590  0.272457  0.037006  1
  P  P7  1  0.698474  0.336298  0.187589  1
  P  P8  1  0.301526  0.663702  0.812411  1
  P  P9  1  0.663702  0.301526  0.687589  1
  O  O10  1  0.859608  0.876142  0.624413  1
  O  O11  1  0.643085  0.192484  0.844436  1
  O  O12  1  0.356915  0.807516  0.155564  1
  O  O13  1  0.681185  0.818643  0.059097  1
  O  O14  1  0.181357  0.318815  0.559097  1
  O  O15  1  0.358719  0.478064  0.346832  1
  O  O16  1  0.848518  0.314105  0.652921  1
  O  O17  1  0.472740  0.208031  0.565895  1
  O  O18  1  0.791969  0.527260  0.065895  1
  O  O19  1  0.478064  0.358719  0.153168  1
  O  O20  1  0.140392  0.123858  0.375587  1
  O  O21  1  0.807516  0.356915  0.344436  1
  O  O22  1  0.314105  0.848518  0.847079  1
  O  O23  1  0.123858  0.140392  0.124413  1
  O  O24  1  0.876142  0.859608  0.875587  1
  O  O25  1  0.818643  0.681185  0.440903  1
  O  O26  1  0.192484  0.643085  0.655564  1
  O  O27  1  0.318815  0.181357  0.940903  1
  O  O28  1  0.521936  0.641281  0.846832  1
  O  O29  1  0.208031  0.472740  0.934105  1
  O  O30  1  0.527260  0.791969  0.434105  1
  O  O31  1  0.151482  0.685895  0.347079  1
  O  O32  1  0.641281  0.521936  0.653168  1
  O  O33  1  0.685895  0.151482  0.152921  1
