# generated using pymatgen
data_La12C6I17
_symmetry_space_group_name_H-M   'P 1'
_cell_length_a   12.09032849
_cell_length_b   12.09032849
_cell_length_c   19.69389252
_cell_angle_alpha   89.30446076
_cell_angle_beta   90.69553924
_cell_angle_gamma   115.90750352
_symmetry_Int_Tables_number   1
_chemical_formula_structural   La12C6I17
_chemical_formula_sum   'La24 C12 I34'
_cell_volume   2589.19442779
_cell_formula_units_Z   2
loop_
 _symmetry_equiv_pos_site_id
 _symmetry_equiv_pos_as_xyz
  1  'x, y, z'
loop_
 _atom_site_type_symbol
 _atom_site_label
 _atom_site_symmetry_multiplicity
 _atom_site_fract_x
 _atom_site_fract_y
 _atom_site_fract_z
 _atom_site_occupancy
  La  La0  1  0.338304  0.191664  0.710691  1
  La  La1  1  0.357511  0.640911  0.950313  1
  La  La2  1  0.359089  0.642489  0.450313  1
  La  La3  1  0.464587  0.547901  0.629319  1
  La  La4  1  0.574690  0.901448  0.118022  1
  La  La5  1  0.547901  0.464587  0.870681  1
  La  La6  1  0.704624  0.713664  0.020894  1
  La  La7  1  0.535413  0.452099  0.370681  1
  La  La8  1  0.661696  0.808336  0.289309  1
  La  La9  1  0.642489  0.359089  0.049687  1
  La  La10  1  0.075271  0.979167  0.847816  1
  La  La11  1  0.295376  0.286336  0.979106  1
  La  La12  1  0.901448  0.574690  0.381978  1
  La  La13  1  0.020833  0.924729  0.347816  1
  La  La14  1  0.425310  0.098552  0.881978  1
  La  La15  1  0.452099  0.535413  0.129319  1
  La  La16  1  0.640911  0.357511  0.549687  1
  La  La17  1  0.098552  0.425310  0.618022  1
  La  La18  1  0.924729  0.020833  0.152184  1
  La  La19  1  0.286336  0.295376  0.520894  1
  La  La20  1  0.808336  0.661696  0.210691  1
  La  La21  1  0.979167  0.075271  0.652184  1
  La  La22  1  0.713664  0.704624  0.479106  1
  La  La23  1  0.191664  0.338304  0.789309  1
  C  C24  1  0.276897  0.365723  0.649607  1
  C  C25  1  0.723103  0.634277  0.350393  1
  C  C26  1  0.365723  0.276897  0.850393  1
  C  C27  1  0.532290  0.467302  0.011393  1
  C  C28  1  0.743270  0.833431  0.152579  1
  C  C29  1  0.467710  0.532698  0.988607  1
  C  C30  1  0.256730  0.166569  0.847421  1
  C  C31  1  0.467302  0.532290  0.488607  1
  C  C32  1  0.833431  0.743270  0.347421  1
  C  C33  1  0.166569  0.256730  0.652579  1
  C  C34  1  0.634277  0.723103  0.149607  1
  C  C35  1  0.532698  0.467710  0.511393  1
  I  I36  1  0.308739  0.709282  0.601033  1
  I  I37  1  0.604332  0.896870  0.441307  1
  I  I38  1  0.498807  0.031813  0.743999  1
  I  I39  1  0.906654  0.114159  0.803436  1
  I  I40  1  0.709282  0.308739  0.898967  1
  I  I41  1  0.281387  0.193659  0.361748  1
  I  I42  1  0.114159  0.906654  0.696564  1
  I  I43  1  0.211019  0.817199  0.899275  1
  I  I44  1  0.896870  0.604332  0.058693  1
  I  I45  1  0.093536  0.399800  0.450957  1
  I  I46  1  0.600200  0.906464  0.950957  1
  I  I47  1  0.788981  0.182801  0.100725  1
  I  I48  1  0.625701  0.422438  0.708046  1
  I  I49  1  0.885841  0.093346  0.303436  1
  I  I50  1  0.031813  0.498807  0.756001  1
  I  I51  1  0.182801  0.788981  0.399275  1
  I  I52  1  0.718613  0.806341  0.638252  1
  I  I53  1  0.093346  0.885841  0.196564  1
  I  I54  1  0.577562  0.374299  0.208046  1
  I  I55  1  0.000000  0.000000  0.000000  1
  I  I56  1  0.395668  0.103130  0.558693  1
  I  I57  1  0.422438  0.625701  0.791954  1
  I  I58  1  0.290718  0.691261  0.101033  1
  I  I59  1  0.374299  0.577562  0.291954  1
  I  I60  1  0.817199  0.211019  0.600725  1
  I  I61  1  0.501193  0.968187  0.256001  1
  I  I62  1  0.691261  0.290718  0.398967  1
  I  I63  1  0.193659  0.281387  0.138252  1
  I  I64  1  0.399800  0.093536  0.049043  1
  I  I65  1  0.906464  0.600200  0.549043  1
  I  I66  1  0.103130  0.395668  0.941307  1
  I  I67  1  0.968187  0.501193  0.243999  1
  I  I68  1  0.806341  0.718613  0.861748  1
  I  I69  1  0.000000  1.000000  0.500000  1
