# generated using pymatgen
data_Nb3SiNi2
_symmetry_space_group_name_H-M   'P 1'
_cell_length_a   7.93051446
_cell_length_b   7.93051446
_cell_length_c   7.93051446
_cell_angle_alpha   60.00000000
_cell_angle_beta   60.00000000
_cell_angle_gamma   60.00000000
_symmetry_Int_Tables_number   1
_chemical_formula_structural   Nb3SiNi2
_chemical_formula_sum   'Nb12 Si4 Ni8'
_cell_volume   352.68670329
_cell_formula_units_Z   4
loop_
 _symmetry_equiv_pos_site_id
 _symmetry_equiv_pos_as_xyz
  1  'x, y, z'
loop_
 _atom_site_type_symbol
 _atom_site_label
 _atom_site_symmetry_multiplicity
 _atom_site_fract_x
 _atom_site_fract_y
 _atom_site_fract_z
 _atom_site_occupancy
  Nb  Nb0  1  0.547493  0.952507  0.952507  1
  Nb  Nb1  1  0.702507  0.297493  0.702507  1
  Nb  Nb2  1  0.297493  0.702507  0.297493  1
  Nb  Nb3  1  0.297493  0.702507  0.702507  1
  Nb  Nb4  1  0.297493  0.297493  0.702507  1
  Nb  Nb5  1  0.702507  0.702507  0.297493  1
  Nb  Nb6  1  0.952507  0.952507  0.547493  1
  Nb  Nb7  1  0.547493  0.952507  0.547493  1
  Nb  Nb8  1  0.952507  0.547493  0.952507  1
  Nb  Nb9  1  0.547493  0.547493  0.952507  1
  Nb  Nb10  1  0.702507  0.297493  0.297493  1
  Nb  Nb11  1  0.952507  0.547493  0.547493  1
  Si  Si12  1  0.125000  0.625000  0.125000  1
  Si  Si13  1  0.125000  0.125000  0.125000  1
  Si  Si14  1  0.125000  0.125000  0.625000  1
  Si  Si15  1  0.625000  0.125000  0.125000  1
  Ni  Ni16  1  0.917660  0.247019  0.917660  1
  Ni  Ni17  1  0.332340  0.332340  0.332340  1
  Ni  Ni18  1  0.332340  0.332340  0.002981  1
  Ni  Ni19  1  0.002981  0.332340  0.332340  1
  Ni  Ni20  1  0.917660  0.917660  0.247019  1
  Ni  Ni21  1  0.247019  0.917660  0.917660  1
  Ni  Ni22  1  0.917660  0.917660  0.917660  1
  Ni  Ni23  1  0.332340  0.002981  0.332340  1
