# generated using pymatgen
data_Ba2Li3(PO3)7
_symmetry_space_group_name_H-M   'P 1'
_cell_length_a   11.79190104
_cell_length_b   8.71382984
_cell_length_c   18.25136175
_cell_angle_alpha   90.00000000
_cell_angle_beta   104.41844348
_cell_angle_gamma   90.00000000
_symmetry_Int_Tables_number   1
_chemical_formula_structural   Ba2Li3(PO3)7
_chemical_formula_sum   'Ba8 Li12 P28 O84'
_cell_volume   1816.30663807
_cell_formula_units_Z   4
loop_
 _symmetry_equiv_pos_site_id
 _symmetry_equiv_pos_as_xyz
  1  'x, y, z'
loop_
 _atom_site_type_symbol
 _atom_site_label
 _atom_site_symmetry_multiplicity
 _atom_site_fract_x
 _atom_site_fract_y
 _atom_site_fract_z
 _atom_site_occupancy
  Ba  Ba0  1  0.472590  0.555871  0.318616  1
  Ba  Ba1  1  0.472590  0.944129  0.818616  1
  Ba  Ba2  1  0.527410  0.444129  0.681384  1
  Ba  Ba3  1  0.034556  0.931624  0.696234  1
  Ba  Ba4  1  0.034556  0.568376  0.196234  1
  Ba  Ba5  1  0.965444  0.068376  0.303766  1
  Ba  Ba6  1  0.527410  0.055871  0.181384  1
  Ba  Ba7  1  0.965444  0.431624  0.803766  1
  Li  Li8  1  0.515844  0.646587  0.964991  1
  Li  Li9  1  0.001245  0.135353  0.955321  1
  Li  Li10  1  0.484156  0.353413  0.035009  1
  Li  Li11  1  0.001245  0.364647  0.455321  1
  Li  Li12  1  0.484156  0.146587  0.535009  1
  Li  Li13  1  0.515844  0.853413  0.464991  1
  Li  Li14  1  0.998755  0.864647  0.044679  1
  Li  Li15  1  0.364345  0.774541  0.654689  1
  Li  Li16  1  0.998755  0.635353  0.544679  1
  Li  Li17  1  0.635655  0.274541  0.845311  1
  Li  Li18  1  0.635655  0.225459  0.345311  1
  Li  Li19  1  0.364345  0.725459  0.154689  1
  P  P20  1  0.753786  0.059738  0.755606  1
  P  P21  1  0.882150  0.836304  0.862202  1
  P  P22  1  0.704444  0.903071  0.386381  1
  P  P23  1  0.842710  0.120781  0.499011  1
  P  P24  1  0.217245  0.106067  0.886067  1
  P  P25  1  0.246214  0.940262  0.244394  1
  P  P26  1  0.668982  0.363349  0.508841  1
  P  P27  1  0.217245  0.393933  0.386067  1
  P  P28  1  0.882150  0.663696  0.362202  1
  P  P29  1  0.386796  0.143115  0.362126  1
  P  P30  1  0.157290  0.879219  0.500989  1
  P  P31  1  0.842710  0.379219  0.999011  1
  P  P32  1  0.331018  0.636651  0.491159  1
  P  P33  1  0.295556  0.403071  0.113619  1
  P  P34  1  0.782755  0.606067  0.613933  1
  P  P35  1  0.117850  0.163696  0.137798  1
  P  P36  1  0.117850  0.336304  0.637798  1
  P  P37  1  0.331018  0.863349  0.991159  1
  P  P38  1  0.704444  0.596929  0.886381  1
  P  P39  1  0.753786  0.440262  0.255606  1
  P  P40  1  0.386796  0.356885  0.862126  1
  P  P41  1  0.295556  0.096929  0.613619  1
  P  P42  1  0.157290  0.620781  0.000989  1
  P  P43  1  0.668982  0.136651  0.008841  1
  P  P44  1  0.613204  0.643115  0.137874  1
  P  P45  1  0.246214  0.559738  0.744394  1
  P  P46  1  0.782755  0.893933  0.113933  1
  P  P47  1  0.613204  0.856885  0.637874  1
  O  O48  1  0.175554  0.314571  0.110858  1
  O  O49  1  0.131332  0.635714  0.740249  1
  O  O50  1  0.354813  0.848503  0.243865  1
  O  O51  1  0.743416  0.518166  0.533456  1
  O  O52  1  0.391414  0.293465  0.108646  1
  O  O53  1  0.940572  0.786942  0.802000  1
  O  O54  1  0.550303  0.795759  0.694686  1
  O  O55  1  0.256584  0.481834  0.466544  1
  O  O56  1  0.422457  0.841984  0.947223  1
  O  O57  1  0.628243  0.133209  0.924008  1
  O  O58  1  0.890868  0.805446  0.112045  1
  O  O59  1  0.550303  0.704241  0.194686  1
  O  O60  1  0.824446  0.685429  0.889142  1
  O  O61  1  0.824446  0.814571  0.389142  1
  O  O62  1  0.764304  0.935671  0.823522  1
  O  O63  1  0.256584  0.018166  0.966544  1
  O  O64  1  0.577543  0.158016  0.052777  1
  O  O65  1  0.682929  0.482977  0.821903  1
  O  O66  1  0.109132  0.194554  0.887955  1
  O  O67  1  0.371757  0.633209  0.575992  1
  O  O68  1  0.743416  0.981834  0.033456  1
  O  O69  1  0.890868  0.694554  0.612045  1
  O  O70  1  0.109132  0.305446  0.387955  1
  O  O71  1  0.271324  0.048266  0.319541  1
  O  O72  1  0.422457  0.658016  0.447223  1
  O  O73  1  0.051183  0.082215  0.067893  1
  O  O74  1  0.739063  0.994621  0.464952  1
  O  O75  1  0.260937  0.494621  0.035048  1
  O  O76  1  0.354813  0.651497  0.743865  1
  O  O77  1  0.682929  0.017023  0.321903  1
  O  O78  1  0.059428  0.286942  0.698000  1
  O  O79  1  0.868668  0.364286  0.259751  1
  O  O80  1  0.608586  0.706535  0.891354  1
  O  O81  1  0.391414  0.206535  0.608646  1
  O  O82  1  0.051183  0.417785  0.567893  1
  O  O83  1  0.235696  0.435671  0.676478  1
  O  O84  1  0.068986  0.549089  0.938179  1
  O  O85  1  0.779242  0.502083  0.678934  1
  O  O86  1  0.068986  0.950911  0.438179  1
  O  O87  1  0.124171  0.799092  0.565952  1
  O  O88  1  0.220758  0.497917  0.321066  1
  O  O89  1  0.124171  0.700908  0.065952  1
  O  O90  1  0.175554  0.185429  0.610858  1
  O  O91  1  0.948817  0.917785  0.932107  1
  O  O92  1  0.628243  0.366791  0.424008  1
  O  O93  1  0.233796  0.765788  0.461634  1
  O  O94  1  0.669037  0.718492  0.600921  1
  O  O95  1  0.875829  0.299092  0.934048  1
  O  O96  1  0.317071  0.982977  0.678097  1
  O  O97  1  0.766204  0.234212  0.538366  1
  O  O98  1  0.271324  0.451734  0.819541  1
  O  O99  1  0.868668  0.135714  0.759751  1
  O  O100  1  0.940572  0.713058  0.302000  1
  O  O101  1  0.330963  0.218492  0.899079  1
  O  O102  1  0.220758  0.002083  0.821066  1
  O  O103  1  0.577543  0.341984  0.552777  1
  O  O104  1  0.728676  0.951734  0.680459  1
  O  O105  1  0.233796  0.734212  0.961634  1
  O  O106  1  0.543686  0.554514  0.071485  1
  O  O107  1  0.779242  0.997917  0.178934  1
  O  O108  1  0.931014  0.049089  0.561821  1
  O  O109  1  0.456314  0.445486  0.928515  1
  O  O110  1  0.059428  0.213058  0.198000  1
  O  O111  1  0.543686  0.945486  0.571485  1
  O  O112  1  0.456314  0.054514  0.428515  1
  O  O113  1  0.931014  0.450911  0.061821  1
  O  O114  1  0.728676  0.548266  0.180459  1
  O  O115  1  0.330963  0.281508  0.399079  1
  O  O116  1  0.764304  0.564329  0.323522  1
  O  O117  1  0.948817  0.582215  0.432107  1
  O  O118  1  0.371757  0.866791  0.075992  1
  O  O119  1  0.608586  0.793465  0.391354  1
  O  O120  1  0.317071  0.517023  0.178097  1
  O  O121  1  0.645187  0.151497  0.756135  1
  O  O122  1  0.449697  0.204241  0.305314  1
  O  O123  1  0.449697  0.295759  0.805314  1
  O  O124  1  0.645187  0.348503  0.256135  1
  O  O125  1  0.766204  0.265788  0.038366  1
  O  O126  1  0.875829  0.200908  0.434048  1
  O  O127  1  0.739063  0.505379  0.964952  1
  O  O128  1  0.235696  0.064329  0.176478  1
  O  O129  1  0.131332  0.864286  0.240249  1
  O  O130  1  0.669037  0.781508  0.100921  1
  O  O131  1  0.260937  0.005379  0.535048  1
