# generated using pymatgen
data_TiMn2O4
_symmetry_space_group_name_H-M   'P 1'
_cell_length_a   6.24030861
_cell_length_b   6.24030861
_cell_length_c   8.71863594
_cell_angle_alpha   90.00000000
_cell_angle_beta   90.00000000
_cell_angle_gamma   90.00000000
_symmetry_Int_Tables_number   1
_chemical_formula_structural   TiMn2O4
_chemical_formula_sum   'Ti4 Mn8 O16'
_cell_volume   339.51633902
_cell_formula_units_Z   4
loop_
 _symmetry_equiv_pos_site_id
 _symmetry_equiv_pos_as_xyz
  1  'x, y, z'
loop_
 _atom_site_type_symbol
 _atom_site_label
 _atom_site_symmetry_multiplicity
 _atom_site_fract_x
 _atom_site_fract_y
 _atom_site_fract_z
 _atom_site_occupancy
  Ti  Ti0  1  0.500000  0.244725  0.000000  1
  Ti  Ti1  1  0.755275  0.500000  0.750000  1
  Ti  Ti2  1  0.244725  0.500000  0.250000  1
  Ti  Ti3  1  0.500000  0.755275  0.500000  1
  Mn  Mn4  1  0.000000  0.255169  0.000000  1
  Mn  Mn5  1  0.744831  0.000000  0.750000  1
  Mn  Mn6  1  0.255169  0.000000  0.250000  1
  Mn  Mn7  1  0.000000  0.744831  0.500000  1
  Mn  Mn8  1  0.252081  0.252081  0.625000  1
  Mn  Mn9  1  0.747919  0.252081  0.375000  1
  Mn  Mn10  1  0.252081  0.747919  0.875000  1
  Mn  Mn11  1  0.747919  0.747919  0.125000  1
  O  O12  1  0.272125  0.036864  0.996563  1
  O  O13  1  0.963136  0.272125  0.746563  1
  O  O14  1  0.036864  0.727875  0.246563  1
  O  O15  1  0.272125  0.963136  0.503437  1
  O  O16  1  0.727875  0.036864  0.003437  1
  O  O17  1  0.727875  0.963136  0.496563  1
  O  O18  1  0.036864  0.272125  0.253437  1
  O  O19  1  0.963136  0.727875  0.753437  1
  O  O20  1  0.270767  0.485841  0.022583  1
  O  O21  1  0.514159  0.270767  0.772583  1
  O  O22  1  0.485841  0.729233  0.272583  1
  O  O23  1  0.270767  0.514159  0.477417  1
  O  O24  1  0.729233  0.485841  0.977417  1
  O  O25  1  0.729233  0.514159  0.522583  1
  O  O26  1  0.485841  0.270767  0.227417  1
  O  O27  1  0.514159  0.729233  0.727417  1
