# generated using pymatgen
data_Yb2Tl
_symmetry_space_group_name_H-M   'P 1'
_cell_length_a   5.32923535
_cell_length_b   7.21827476
_cell_length_c   9.86100701
_cell_angle_alpha   90.00000000
_cell_angle_beta   90.00000000
_cell_angle_gamma   90.00000000
_symmetry_Int_Tables_number   1
_chemical_formula_structural   Yb2Tl
_chemical_formula_sum   'Yb8 Tl4'
_cell_volume   379.33208381
_cell_formula_units_Z   4
loop_
 _symmetry_equiv_pos_site_id
 _symmetry_equiv_pos_as_xyz
  1  'x, y, z'
loop_
 _atom_site_type_symbol
 _atom_site_label
 _atom_site_symmetry_multiplicity
 _atom_site_fract_x
 _atom_site_fract_y
 _atom_site_fract_z
 _atom_site_occupancy
  Yb  Yb0  1  0.250000  0.668589  0.567058  1
  Yb  Yb1  1  0.750000  0.331411  0.432942  1
  Yb  Yb2  1  0.750000  0.968371  0.698743  1
  Yb  Yb3  1  0.250000  0.031629  0.301257  1
  Yb  Yb4  1  0.250000  0.168589  0.932942  1
  Yb  Yb5  1  0.750000  0.831411  0.067058  1
  Yb  Yb6  1  0.750000  0.468371  0.801257  1
  Yb  Yb7  1  0.250000  0.531629  0.198743  1
  Tl  Tl8  1  0.250000  0.227782  0.612132  1
  Tl  Tl9  1  0.750000  0.272218  0.112132  1
  Tl  Tl10  1  0.250000  0.727782  0.887868  1
  Tl  Tl11  1  0.750000  0.772218  0.387868  1
