# generated using pymatgen
data_Ho8Mg12Zn61
_symmetry_space_group_name_H-M   'P 1'
_cell_length_a   12.19774971
_cell_length_b   12.19774971
_cell_length_c   12.19774971
_cell_angle_alpha   109.47122063
_cell_angle_beta   109.47122063
_cell_angle_gamma   109.47122063
_symmetry_Int_Tables_number   1
_chemical_formula_structural   Ho8Mg12Zn61
_chemical_formula_sum   'Ho8 Mg12 Zn61'
_cell_volume   1397.06708913
_cell_formula_units_Z   1
loop_
 _symmetry_equiv_pos_site_id
 _symmetry_equiv_pos_as_xyz
  1  'x, y, z'
loop_
 _atom_site_type_symbol
 _atom_site_label
 _atom_site_symmetry_multiplicity
 _atom_site_fract_x
 _atom_site_fract_y
 _atom_site_fract_z
 _atom_site_occupancy
  Ho  Ho0  1  0.626684  0.626684  0.626684  1
  Ho  Ho1  1  0.000000  0.626684  0.000000  1
  Ho  Ho2  1  0.373316  0.373316  0.373316  1
  Ho  Ho3  1  0.000000  0.373316  0.000000  1
  Ho  Ho4  1  1.000000  0.000000  0.373316  1
  Ho  Ho5  1  1.000000  0.000000  0.626684  1
  Ho  Ho6  1  0.626684  0.000000  0.000000  1
  Ho  Ho7  1  0.373316  0.000000  0.000000  1
  Mg  Mg8  1  0.318920  0.116704  0.435624  1
  Mg  Mg9  1  0.564376  0.681080  0.883296  1
  Mg  Mg10  1  0.116704  0.797784  0.681080  1
  Mg  Mg11  1  0.681080  0.116704  0.797784  1
  Mg  Mg12  1  0.797784  0.681080  0.116704  1
  Mg  Mg13  1  0.681080  0.883296  0.564376  1
  Mg  Mg14  1  0.883296  0.202216  0.318920  1
  Mg  Mg15  1  0.202216  0.318920  0.883296  1
  Mg  Mg16  1  0.883296  0.564376  0.681080  1
  Mg  Mg17  1  0.435624  0.318920  0.116704  1
  Mg  Mg18  1  0.116704  0.435624  0.318920  1
  Mg  Mg19  1  0.318920  0.883296  0.202216  1
  Zn  Zn20  1  0.099273  0.154336  0.253608  1
  Zn  Zn21  1  0.489108  0.174201  0.314907  1
  Zn  Zn22  1  0.751966  0.409934  0.975897  1
  Zn  Zn23  1  0.685093  0.859293  0.174201  1
  Zn  Zn24  1  0.657967  0.434037  0.409934  1
  Zn  Zn25  1  0.342033  0.751966  0.776069  1
  Zn  Zn26  1  0.223931  0.975897  0.565963  1
  Zn  Zn27  1  0.434037  0.409934  0.657967  1
  Zn  Zn28  1  0.434037  0.776069  0.024103  1
  Zn  Zn29  1  0.845664  0.746392  0.900727  1
  Zn  Zn30  1  0.342033  0.565963  0.590066  1
  Zn  Zn31  1  0.500000  0.590120  0.090120  1
  Zn  Zn32  1  0.099273  0.845664  0.944937  1
  Zn  Zn33  1  0.409934  0.657967  0.434037  1
  Zn  Zn34  1  0.590066  0.342033  0.565963  1
  Zn  Zn35  1  0.825799  0.685093  0.510892  1
  Zn  Zn36  1  0.248034  0.223931  0.657967  1
  Zn  Zn37  1  0.024103  0.248034  0.590066  1
  Zn  Zn38  1  0.154336  0.253608  0.099273  1
  Zn  Zn39  1  0.565963  0.223931  0.975897  1
  Zn  Zn40  1  0.590066  0.024103  0.248034  1
  Zn  Zn41  1  0.217301  0.717301  0.500000  1
  Zn  Zn42  1  0.500000  0.782699  0.282699  1
  Zn  Zn43  1  0.174201  0.314907  0.489108  1
  Zn  Zn44  1  0.845664  0.944937  0.099273  1
  Zn  Zn45  1  0.782699  0.282699  0.500000  1
  Zn  Zn46  1  0.055063  0.900727  0.154336  1
  Zn  Zn47  1  0.776069  0.024103  0.434037  1
  Zn  Zn48  1  0.154336  0.055063  0.900727  1
  Zn  Zn49  1  0.859293  0.174201  0.685093  1
  Zn  Zn50  1  0.590120  0.090120  0.500000  1
  Zn  Zn51  1  0.248034  0.590066  0.024103  1
  Zn  Zn52  1  0.825799  0.314907  0.140707  1
  Zn  Zn53  1  0.685093  0.510892  0.825799  1
  Zn  Zn54  1  0.717301  0.500000  0.217301  1
  Zn  Zn55  1  0.174201  0.685093  0.859293  1
  Zn  Zn56  1  0.900727  0.154336  0.055063  1
  Zn  Zn57  1  0.776069  0.342033  0.751966  1
  Zn  Zn58  1  0.510892  0.825799  0.685093  1
  Zn  Zn59  1  0.223931  0.657967  0.248034  1
  Zn  Zn60  1  0.900727  0.845664  0.746392  1
  Zn  Zn61  1  0.657967  0.248034  0.223931  1
  Zn  Zn62  1  1.000000  0.000000  0.000000  1
  Zn  Zn63  1  0.314907  0.489108  0.174201  1
  Zn  Zn64  1  0.500000  0.409880  0.909880  1
  Zn  Zn65  1  0.909880  0.500000  0.409880  1
  Zn  Zn66  1  0.140707  0.825799  0.314907  1
  Zn  Zn67  1  0.746392  0.900727  0.845664  1
  Zn  Zn68  1  0.944937  0.099273  0.845664  1
  Zn  Zn69  1  0.751966  0.776069  0.342033  1
  Zn  Zn70  1  0.975897  0.565963  0.223931  1
  Zn  Zn71  1  0.314907  0.140707  0.825799  1
  Zn  Zn72  1  0.409934  0.975897  0.751966  1
  Zn  Zn73  1  0.975897  0.751966  0.409934  1
  Zn  Zn74  1  0.409880  0.909880  0.500000  1
  Zn  Zn75  1  0.565963  0.590066  0.342033  1
  Zn  Zn76  1  0.024103  0.434037  0.776069  1
  Zn  Zn77  1  0.500000  0.217301  0.717301  1
  Zn  Zn78  1  0.253608  0.099273  0.154336  1
  Zn  Zn79  1  0.282699  0.500000  0.782699  1
  Zn  Zn80  1  0.090120  0.500000  0.590120  1
