# generated using pymatgen
data_Dy2Ti2O7
_symmetry_space_group_name_H-M   'P 1'
_cell_length_a   7.24247988
_cell_length_b   7.24247988
_cell_length_c   23.77533802
_cell_angle_alpha   80.77355640
_cell_angle_beta   99.22644360
_cell_angle_gamma   120.39415173
_symmetry_Int_Tables_number   1
_chemical_formula_structural   Dy2Ti2O7
_chemical_formula_sum   'Dy16 Ti16 O56'
_cell_volume   1057.18249464
_cell_formula_units_Z   8
loop_
 _symmetry_equiv_pos_site_id
 _symmetry_equiv_pos_as_xyz
  1  'x, y, z'
loop_
 _atom_site_type_symbol
 _atom_site_label
 _atom_site_symmetry_multiplicity
 _atom_site_fract_x
 _atom_site_fract_y
 _atom_site_fract_z
 _atom_site_occupancy
  Dy  Dy0  1  0.866213  0.639400  0.129364  1
  Dy  Dy1  1  0.500000  0.500000  0.000000  1
  Dy  Dy2  1  0.360600  0.133787  0.129364  1
  Dy  Dy3  1  0.133787  0.360600  0.870636  1
  Dy  Dy4  1  0.859477  0.140523  0.113073  1
  Dy  Dy5  1  0.639400  0.866213  0.870636  1
  Dy  Dy6  1  0.874190  0.125810  0.624421  1
  Dy  Dy7  1  0.000000  0.000000  0.500000  1
  Dy  Dy8  1  0.375427  0.125037  0.624280  1
  Dy  Dy9  1  0.743314  0.256686  0.749823  1
  Dy  Dy10  1  0.140523  0.859477  0.886927  1
  Dy  Dy11  1  0.874963  0.624573  0.624280  1
  Dy  Dy12  1  0.624573  0.874963  0.375720  1
  Dy  Dy13  1  0.256686  0.743314  0.250177  1
  Dy  Dy14  1  0.125810  0.874190  0.375579  1
  Dy  Dy15  1  0.125037  0.375427  0.375720  1
  Ti  Ti16  1  0.372003  0.627997  0.131098  1
  Ti  Ti17  1  0.627997  0.372003  0.868902  1
  Ti  Ti18  1  1.000000  0.500000  0.000000  1
  Ti  Ti19  1  0.500000  1.000000  0.000000  1
  Ti  Ti20  1  0.000000  0.000000  0.000000  1
  Ti  Ti21  1  0.249538  0.236138  0.751533  1
  Ti  Ti22  1  0.260134  0.739866  0.751150  1
  Ti  Ti23  1  0.500000  1.000000  0.500000  1
  Ti  Ti24  1  0.000000  0.500000  0.500000  1
  Ti  Ti25  1  0.763862  0.750462  0.751533  1
  Ti  Ti26  1  0.377913  0.622087  0.626526  1
  Ti  Ti27  1  0.500000  0.500000  0.500000  1
  Ti  Ti28  1  0.750462  0.763862  0.248467  1
  Ti  Ti29  1  0.236138  0.249538  0.248467  1
  Ti  Ti30  1  0.622087  0.377913  0.373474  1
  Ti  Ti31  1  0.739866  0.260134  0.248850  1
  O  O32  1  0.506009  0.493991  0.095836  1
  O  O33  1  0.740721  0.259279  0.026023  1
  O  O34  1  0.115211  0.501159  0.082685  1
  O  O35  1  0.117033  0.322798  0.984333  1
  O  O36  1  0.498841  0.884789  0.082685  1
  O  O37  1  0.777384  0.222616  0.841934  1
  O  O38  1  0.677202  0.882967  0.984333  1
  O  O39  1  0.015394  0.984606  0.081781  1
  O  O40  1  0.945742  0.054258  0.729923  1
  O  O41  1  0.249627  0.172895  0.831983  1
  O  O42  1  0.322798  0.117033  0.015667  1
  O  O43  1  0.984606  0.015394  0.918219  1
  O  O44  1  0.882967  0.677202  0.015667  1
  O  O45  1  0.827105  0.750373  0.831983  1
  O  O46  1  0.501159  0.115211  0.917315  1
  O  O47  1  0.348676  0.057016  0.731281  1
  O  O48  1  0.030536  0.969464  0.594207  1
  O  O49  1  0.259279  0.740721  0.973977  1
  O  O50  1  0.273812  0.726188  0.839463  1
  O  O51  1  0.884789  0.498841  0.917315  1
  O  O52  1  0.942984  0.651324  0.731281  1
  O  O53  1  0.499221  0.912893  0.582822  1
  O  O54  1  0.254191  0.745809  0.668380  1
  O  O55  1  0.563712  0.855174  0.767604  1
  O  O56  1  0.189890  0.810110  0.480033  1
  O  O57  1  0.144826  0.436288  0.767604  1
  O  O58  1  0.281046  0.718954  0.344647  1
  O  O59  1  0.660837  0.741213  0.668161  1
  O  O60  1  0.600711  0.810935  0.479773  1
  O  O61  1  0.493991  0.506009  0.904164  1
  O  O62  1  0.087107  0.500779  0.582822  1
  O  O63  1  0.258787  0.339163  0.668161  1
  O  O64  1  0.497961  0.502039  0.582382  1
  O  O65  1  0.570133  0.429867  0.776683  1
  O  O66  1  0.189065  0.399289  0.479773  1
  O  O67  1  0.429867  0.570133  0.223317  1
  O  O68  1  0.810935  0.600711  0.520227  1
  O  O69  1  0.502039  0.497961  0.417618  1
  O  O70  1  0.741213  0.660837  0.331839  1
  O  O71  1  0.855174  0.563712  0.232396  1
  O  O72  1  0.399289  0.189065  0.520227  1
  O  O73  1  0.912893  0.499221  0.417178  1
  O  O74  1  0.339163  0.258787  0.331839  1
  O  O75  1  0.718954  0.281046  0.655353  1
  O  O76  1  0.500779  0.087107  0.417178  1
  O  O77  1  0.436288  0.144826  0.232396  1
  O  O78  1  0.810110  0.189890  0.519967  1
  O  O79  1  0.745809  0.254191  0.331620  1
  O  O80  1  0.726188  0.273812  0.160537  1
  O  O81  1  0.057016  0.348676  0.268719  1
  O  O82  1  0.969464  0.030536  0.405793  1
  O  O83  1  0.172895  0.249627  0.168017  1
  O  O84  1  0.651324  0.942984  0.268719  1
  O  O85  1  0.750373  0.827105  0.168017  1
  O  O86  1  0.054258  0.945742  0.270077  1
  O  O87  1  0.222616  0.777384  0.158066  1
