# generated using pymatgen
data_K4Sr(SiO3)3
_symmetry_space_group_name_H-M   'P 1'
_cell_length_a   7.25033734
_cell_length_b   7.25033734
_cell_length_c   11.13674900
_cell_angle_alpha   90.00000000
_cell_angle_beta   90.00000000
_cell_angle_gamma   112.51414164
_symmetry_Int_Tables_number   1
_chemical_formula_structural   K4Sr(SiO3)3
_chemical_formula_sum   'K8 Sr2 Si6 O18'
_cell_volume   540.81133995
_cell_formula_units_Z   2
loop_
 _symmetry_equiv_pos_site_id
 _symmetry_equiv_pos_as_xyz
  1  'x, y, z'
loop_
 _atom_site_type_symbol
 _atom_site_label
 _atom_site_symmetry_multiplicity
 _atom_site_fract_x
 _atom_site_fract_y
 _atom_site_fract_z
 _atom_site_occupancy
  K  K0  1  0.235798  0.657824  0.250000  1
  K  K1  1  0.944759  0.055241  0.000000  1
  K  K2  1  0.500121  0.499879  0.000000  1
  K  K3  1  0.342176  0.764202  0.750000  1
  K  K4  1  0.772352  0.779899  0.250000  1
  K  K5  1  0.500121  0.499879  0.500000  1
  K  K6  1  0.220101  0.227648  0.750000  1
  K  K7  1  0.944759  0.055241  0.500000  1
  Sr  Sr8  1  0.745774  0.274209  0.250000  1
  Sr  Sr9  1  0.725791  0.254226  0.750000  1
  Si  Si10  1  0.019225  0.591466  0.969092  1
  Si  Si11  1  0.408534  0.980775  0.030908  1
  Si  Si12  1  0.408534  0.980775  0.469092  1
  Si  Si13  1  0.811389  0.738998  0.750000  1
  Si  Si14  1  0.261002  0.188611  0.250000  1
  Si  Si15  1  0.019225  0.591466  0.530908  1
  O  O16  1  0.271062  0.054172  0.128729  1
  O  O17  1  0.599553  0.972987  0.397935  1
  O  O18  1  0.447712  0.113817  0.909775  1
  O  O19  1  0.945828  0.728938  0.871271  1
  O  O20  1  0.945828  0.728938  0.628729  1
  O  O21  1  0.258856  0.741144  0.000000  1
  O  O22  1  0.886183  0.552288  0.409775  1
  O  O23  1  0.886183  0.552288  0.090225  1
  O  O24  1  0.451989  0.399851  0.250000  1
  O  O25  1  0.258856  0.741144  0.500000  1
  O  O26  1  0.027013  0.400447  0.897935  1
  O  O27  1  0.799415  0.956422  0.750000  1
  O  O28  1  0.043578  0.200585  0.250000  1
  O  O29  1  0.600149  0.548011  0.750000  1
  O  O30  1  0.447712  0.113817  0.590225  1
  O  O31  1  0.599553  0.972987  0.102065  1
  O  O32  1  0.027013  0.400447  0.602065  1
  O  O33  1  0.271062  0.054172  0.371271  1
