# generated using pymatgen
data_In4GeS4
_symmetry_space_group_name_H-M   'P 1'
_cell_length_a   12.43187260
_cell_length_b   12.43187260
_cell_length_c   12.43187260
_cell_angle_alpha   90.00000000
_cell_angle_beta   90.00000000
_cell_angle_gamma   90.00000000
_symmetry_Int_Tables_number   1
_chemical_formula_structural   In4GeS4
_chemical_formula_sum   'In32 Ge8 S32'
_cell_volume   1921.36401540
_cell_formula_units_Z   8
loop_
 _symmetry_equiv_pos_site_id
 _symmetry_equiv_pos_as_xyz
  1  'x, y, z'
loop_
 _atom_site_type_symbol
 _atom_site_label
 _atom_site_symmetry_multiplicity
 _atom_site_fract_x
 _atom_site_fract_y
 _atom_site_fract_z
 _atom_site_occupancy
  In  In0  1  0.273683  0.465819  0.560517  1
  In  In1  1  0.724448  0.775552  0.224448  1
  In  In2  1  0.965819  0.560517  0.226317  1
  In  In3  1  0.439483  0.773683  0.034181  1
  In  In4  1  0.275552  0.275552  0.275552  1
  In  In5  1  0.034181  0.060517  0.273683  1
  In  In6  1  0.965819  0.939483  0.726317  1
  In  In7  1  0.224448  0.724448  0.775552  1
  In  In8  1  0.560517  0.273683  0.465819  1
  In  In9  1  0.226317  0.534181  0.060517  1
  In  In10  1  0.560517  0.226317  0.965819  1
  In  In11  1  0.726317  0.965819  0.939483  1
  In  In12  1  0.534181  0.060517  0.226317  1
  In  In13  1  0.226317  0.965819  0.560517  1
  In  In14  1  0.060517  0.226317  0.534181  1
  In  In15  1  0.465819  0.560517  0.273683  1
  In  In16  1  0.273683  0.034181  0.060517  1
  In  In17  1  0.939483  0.726317  0.965819  1
  In  In18  1  0.465819  0.939483  0.773683  1
  In  In19  1  0.939483  0.773683  0.465819  1
  In  In20  1  0.724448  0.724448  0.724448  1
  In  In21  1  0.775552  0.224448  0.724448  1
  In  In22  1  0.773683  0.034181  0.439483  1
  In  In23  1  0.775552  0.275552  0.224448  1
  In  In24  1  0.275552  0.224448  0.775552  1
  In  In25  1  0.534181  0.439483  0.726317  1
  In  In26  1  0.034181  0.439483  0.773683  1
  In  In27  1  0.439483  0.726317  0.534181  1
  In  In28  1  0.224448  0.775552  0.275552  1
  In  In29  1  0.726317  0.534181  0.439483  1
  In  In30  1  0.773683  0.465819  0.939483  1
  In  In31  1  0.060517  0.273683  0.034181  1
  Ge  Ge32  1  0.601074  0.601074  0.601074  1
  Ge  Ge33  1  0.398926  0.398926  0.398926  1
  Ge  Ge34  1  0.898926  0.101074  0.601074  1
  Ge  Ge35  1  0.101074  0.601074  0.898926  1
  Ge  Ge36  1  0.898926  0.398926  0.101074  1
  Ge  Ge37  1  0.601074  0.898926  0.101074  1
  Ge  Ge38  1  0.398926  0.101074  0.898926  1
  Ge  Ge39  1  0.101074  0.898926  0.398926  1
  S  S40  1  0.829713  0.423712  0.746647  1
  S  S41  1  0.246647  0.829713  0.076288  1
  S  S42  1  0.246647  0.670287  0.576288  1
  S  S43  1  0.923712  0.753353  0.170287  1
  S  S44  1  0.924168  0.575832  0.424168  1
  S  S45  1  0.576288  0.253353  0.170287  1
  S  S46  1  0.076288  0.246647  0.829713  1
  S  S47  1  0.076288  0.253353  0.329713  1
  S  S48  1  0.329713  0.076288  0.253353  1
  S  S49  1  0.575832  0.075832  0.424168  1
  S  S50  1  0.753353  0.329713  0.423712  1
  S  S51  1  0.670287  0.576288  0.246647  1
  S  S52  1  0.829713  0.076288  0.246647  1
  S  S53  1  0.423712  0.753353  0.329713  1
  S  S54  1  0.753353  0.170287  0.923712  1
  S  S55  1  0.075832  0.424168  0.575832  1
  S  S56  1  0.329713  0.423712  0.753353  1
  S  S57  1  0.746647  0.829713  0.423712  1
  S  S58  1  0.253353  0.329713  0.076288  1
  S  S59  1  0.423712  0.746647  0.829713  1
  S  S60  1  0.424168  0.575832  0.075832  1
  S  S61  1  0.924168  0.924168  0.924168  1
  S  S62  1  0.170287  0.576288  0.253353  1
  S  S63  1  0.670287  0.923712  0.746647  1
  S  S64  1  0.170287  0.923712  0.753353  1
  S  S65  1  0.923712  0.746647  0.670287  1
  S  S66  1  0.576288  0.246647  0.670287  1
  S  S67  1  0.253353  0.170287  0.576288  1
  S  S68  1  0.746647  0.670287  0.923712  1
  S  S69  1  0.424168  0.924168  0.575832  1
  S  S70  1  0.075832  0.075832  0.075832  1
  S  S71  1  0.575832  0.424168  0.924168  1
