# generated using pymatgen
data_Na4Ge2Se5
_symmetry_space_group_name_H-M   'P 1'
_cell_length_a   13.30411929
_cell_length_b   12.20872231
_cell_length_c   14.34935028
_cell_angle_alpha   90.00000000
_cell_angle_beta   92.73877894
_cell_angle_gamma   90.00000000
_symmetry_Int_Tables_number   1
_chemical_formula_structural   Na4Ge2Se5
_chemical_formula_sum   'Na32 Ge16 Se40'
_cell_volume   2328.04961959
_cell_formula_units_Z   8
loop_
 _symmetry_equiv_pos_site_id
 _symmetry_equiv_pos_as_xyz
  1  'x, y, z'
loop_
 _atom_site_type_symbol
 _atom_site_label
 _atom_site_symmetry_multiplicity
 _atom_site_fract_x
 _atom_site_fract_y
 _atom_site_fract_z
 _atom_site_occupancy
  Na  Na0  1  0.094808  0.880772  0.441084  1
  Na  Na1  1  0.514030  0.590200  0.768891  1
  Na  Na2  1  0.485970  0.409800  0.231109  1
  Na  Na3  1  0.803145  0.089406  0.854834  1
  Na  Na4  1  0.612634  0.134467  0.463069  1
  Na  Na5  1  0.485970  0.090200  0.731109  1
  Na  Na6  1  0.911025  0.878988  0.050964  1
  Na  Na7  1  0.987502  0.839100  0.768463  1
  Na  Na8  1  0.088975  0.121012  0.949036  1
  Na  Na9  1  0.196855  0.589406  0.645166  1
  Na  Na10  1  0.911025  0.621012  0.550964  1
  Na  Na11  1  0.987502  0.660900  0.268463  1
  Na  Na12  1  0.706767  0.857109  0.657012  1
  Na  Na13  1  0.905192  0.119228  0.558916  1
  Na  Na14  1  0.612634  0.365533  0.963069  1
  Na  Na15  1  0.514030  0.909800  0.268891  1
  Na  Na16  1  0.387366  0.634467  0.036931  1
  Na  Na17  1  0.706767  0.642891  0.157012  1
  Na  Na18  1  0.196855  0.910594  0.145166  1
  Na  Na19  1  0.012498  0.160900  0.231537  1
  Na  Na20  1  0.803145  0.410594  0.354834  1
  Na  Na21  1  0.576486  0.865787  0.928256  1
  Na  Na22  1  0.012498  0.339100  0.731537  1
  Na  Na23  1  0.387366  0.865533  0.536931  1
  Na  Na24  1  0.423514  0.134213  0.071744  1
  Na  Na25  1  0.088975  0.378988  0.449036  1
  Na  Na26  1  0.423514  0.365787  0.571744  1
  Na  Na27  1  0.094808  0.619228  0.941084  1
  Na  Na28  1  0.293233  0.142891  0.342988  1
  Na  Na29  1  0.576486  0.634213  0.428256  1
  Na  Na30  1  0.293233  0.357109  0.842988  1
  Na  Na31  1  0.905192  0.380772  0.058916  1
  Ge  Ge32  1  0.777145  0.834746  0.421655  1
  Ge  Ge33  1  0.323081  0.702214  0.285813  1
  Ge  Ge34  1  0.777145  0.665254  0.921655  1
  Ge  Ge35  1  0.676919  0.202214  0.214187  1
  Ge  Ge36  1  0.827234  0.948063  0.287837  1
  Ge  Ge37  1  0.222855  0.165254  0.578345  1
  Ge  Ge38  1  0.827234  0.551937  0.787837  1
  Ge  Ge39  1  0.676919  0.297786  0.714187  1
  Ge  Ge40  1  0.277455  0.591215  0.419711  1
  Ge  Ge41  1  0.172766  0.448063  0.212163  1
  Ge  Ge42  1  0.323081  0.797786  0.785813  1
  Ge  Ge43  1  0.277455  0.908785  0.919711  1
  Ge  Ge44  1  0.722545  0.091215  0.080289  1
  Ge  Ge45  1  0.222855  0.334746  0.078345  1
  Ge  Ge46  1  0.172766  0.051937  0.712163  1
  Ge  Ge47  1  0.722545  0.408785  0.580289  1
  Se  Se48  1  0.606904  0.385985  0.453805  1
  Se  Se49  1  0.896188  0.631215  0.046331  1
  Se  Se50  1  0.103812  0.131215  0.453669  1
  Se  Se51  1  0.808054  0.357316  0.832704  1
  Se  Se52  1  0.298657  0.885837  0.331976  1
  Se  Se53  1  0.896188  0.868785  0.546331  1
  Se  Se54  1  0.289266  0.092261  0.846190  1
  Se  Se55  1  0.393096  0.614015  0.546195  1
  Se  Se56  1  0.005406  0.410578  0.248578  1
  Se  Se57  1  0.710734  0.592261  0.653810  1
  Se  Se58  1  0.890341  0.129377  0.044755  1
  Se  Se59  1  0.701343  0.385837  0.168024  1
  Se  Se60  1  0.393096  0.885985  0.046195  1
  Se  Se61  1  0.994594  0.589422  0.751422  1
  Se  Se62  1  0.787937  0.845273  0.858557  1
  Se  Se63  1  0.701343  0.114163  0.668024  1
  Se  Se64  1  0.515743  0.161184  0.265703  1
  Se  Se65  1  0.710734  0.907739  0.153810  1
  Se  Se66  1  0.612121  0.881045  0.463001  1
  Se  Se67  1  0.515743  0.338816  0.765703  1
  Se  Se68  1  0.212063  0.345273  0.641443  1
  Se  Se69  1  0.191946  0.857316  0.667296  1
  Se  Se70  1  0.484257  0.661184  0.234297  1
  Se  Se71  1  0.005406  0.089422  0.748578  1
  Se  Se72  1  0.890341  0.370623  0.544755  1
  Se  Se73  1  0.212063  0.154727  0.141443  1
  Se  Se74  1  0.387879  0.381045  0.036999  1
  Se  Se75  1  0.191946  0.642684  0.167296  1
  Se  Se76  1  0.298657  0.614163  0.831976  1
  Se  Se77  1  0.109659  0.870623  0.955245  1
  Se  Se78  1  0.808054  0.142684  0.332704  1
  Se  Se79  1  0.612121  0.618955  0.963001  1
  Se  Se80  1  0.994594  0.910578  0.251422  1
  Se  Se81  1  0.387879  0.118955  0.536999  1
  Se  Se82  1  0.606904  0.114015  0.953805  1
  Se  Se83  1  0.289266  0.407739  0.346190  1
  Se  Se84  1  0.484257  0.838816  0.734297  1
  Se  Se85  1  0.103812  0.368785  0.953669  1
  Se  Se86  1  0.787937  0.654727  0.358557  1
  Se  Se87  1  0.109659  0.629377  0.455245  1
