# generated using pymatgen
data_BaYFeCuO5
_symmetry_space_group_name_H-M   'P 1'
_cell_length_a   3.89946507
_cell_length_b   3.89946507
_cell_length_c   7.94520274
_cell_angle_alpha   90.00000000
_cell_angle_beta   90.00000000
_cell_angle_gamma   90.00000000
_symmetry_Int_Tables_number   1
_chemical_formula_structural   BaYFeCuO5
_chemical_formula_sum   'Ba1 Y1 Fe1 Cu1 O5'
_cell_volume   120.81338496
_cell_formula_units_Z   1
loop_
 _symmetry_equiv_pos_site_id
 _symmetry_equiv_pos_as_xyz
  1  'x, y, z'
loop_
 _atom_site_type_symbol
 _atom_site_label
 _atom_site_symmetry_multiplicity
 _atom_site_fract_x
 _atom_site_fract_y
 _atom_site_fract_z
 _atom_site_occupancy
  Ba  Ba0  1  0.500000  0.500000  0.997759  1
  Y  Y1  1  0.500000  0.500000  0.464000  1
  Fe  Fe2  1  0.000000  0.000000  0.705345  1
  Cu  Cu3  1  0.000000  0.000000  0.255153  1
  O  O4  1  0.500000  0.000000  0.636166  1
  O  O5  1  0.000000  0.500000  0.636166  1
  O  O6  1  0.500000  0.000000  0.276514  1
  O  O7  1  0.000000  0.500000  0.276514  1
  O  O8  1  0.000000  0.000000  0.940300  1
