# generated using pymatgen
data_Re(TeCl6)2
_symmetry_space_group_name_H-M   'P 1'
_cell_length_a   14.16643215
_cell_length_b   14.16643215
_cell_length_c   14.16643215
_cell_angle_alpha   47.92995715
_cell_angle_beta   47.92995715
_cell_angle_gamma   47.92995715
_symmetry_Int_Tables_number   1
_chemical_formula_structural   Re(TeCl6)2
_chemical_formula_sum   'Re3 Te6 Cl36'
_cell_volume   1435.02578687
_cell_formula_units_Z   3
loop_
 _symmetry_equiv_pos_site_id
 _symmetry_equiv_pos_as_xyz
  1  'x, y, z'
loop_
 _atom_site_type_symbol
 _atom_site_label
 _atom_site_symmetry_multiplicity
 _atom_site_fract_x
 _atom_site_fract_y
 _atom_site_fract_z
 _atom_site_occupancy
  Re  Re0  1  0.252863  0.252863  0.252863  1
  Re  Re1  1  0.747137  0.747137  0.747137  1
  Re  Re2  1  0.500000  0.500000  0.500000  1
  Te  Te3  1  0.391017  0.105866  0.749677  1
  Te  Te4  1  0.749677  0.391017  0.105866  1
  Te  Te5  1  0.608983  0.894134  0.250323  1
  Te  Te6  1  0.250323  0.608983  0.894134  1
  Te  Te7  1  0.894134  0.250323  0.608983  1
  Te  Te8  1  0.105866  0.749677  0.391017  1
  Cl  Cl9  1  0.388978  0.094092  0.384377  1
  Cl  Cl10  1  0.746661  0.780925  0.103445  1
  Cl  Cl11  1  0.103445  0.746661  0.780925  1
  Cl  Cl12  1  0.253339  0.219075  0.896555  1
  Cl  Cl13  1  0.589524  0.882364  0.880165  1
  Cl  Cl14  1  0.268220  0.558433  0.564823  1
  Cl  Cl15  1  0.384377  0.388978  0.094092  1
  Cl  Cl16  1  0.731780  0.441567  0.435177  1
  Cl  Cl17  1  0.564823  0.268220  0.558433  1
  Cl  Cl18  1  0.905908  0.615623  0.611022  1
  Cl  Cl19  1  0.119835  0.410476  0.117636  1
  Cl  Cl20  1  0.094092  0.384377  0.388978  1
  Cl  Cl21  1  0.435177  0.731780  0.441567  1
  Cl  Cl22  1  0.734857  0.738087  0.390712  1
  Cl  Cl23  1  0.729522  0.038067  0.097832  1
  Cl  Cl24  1  0.390712  0.734857  0.738087  1
  Cl  Cl25  1  0.896555  0.253339  0.219075  1
  Cl  Cl26  1  0.265143  0.261913  0.609288  1
  Cl  Cl27  1  0.219075  0.896555  0.253339  1
  Cl  Cl28  1  0.558433  0.564823  0.268220  1
  Cl  Cl29  1  0.738087  0.390712  0.734857  1
  Cl  Cl30  1  0.615623  0.611022  0.905908  1
  Cl  Cl31  1  0.441567  0.435177  0.731780  1
  Cl  Cl32  1  0.882364  0.880165  0.589524  1
  Cl  Cl33  1  0.780925  0.103445  0.746661  1
  Cl  Cl34  1  0.270478  0.961933  0.902169  1
  Cl  Cl35  1  0.117636  0.119835  0.410476  1
  Cl  Cl36  1  0.902169  0.270478  0.961933  1
  Cl  Cl37  1  0.611022  0.905908  0.615623  1
  Cl  Cl38  1  0.261913  0.609288  0.265143  1
  Cl  Cl39  1  0.880165  0.589524  0.882364  1
  Cl  Cl40  1  0.038067  0.097832  0.729522  1
  Cl  Cl41  1  0.410476  0.117636  0.119835  1
  Cl  Cl42  1  0.097831  0.729522  0.038067  1
  Cl  Cl43  1  0.961933  0.902169  0.270478  1
  Cl  Cl44  1  0.609288  0.265143  0.261913  1
