# generated using pymatgen
data_Pr4V5(Si2O11)2
_symmetry_space_group_name_H-M   'P 1'
_cell_length_a   7.36303747
_cell_length_b   7.36303747
_cell_length_c   11.18415685
_cell_angle_alpha   80.36521086
_cell_angle_beta   99.63478914
_cell_angle_gamma   134.36455826
_symmetry_Int_Tables_number   1
_chemical_formula_structural   Pr4V5(Si2O11)2
_chemical_formula_sum   'Pr4 V5 Si4 O22'
_cell_volume   426.27094763
_cell_formula_units_Z   1
loop_
 _symmetry_equiv_pos_site_id
 _symmetry_equiv_pos_as_xyz
  1  'x, y, z'
loop_
 _atom_site_type_symbol
 _atom_site_label
 _atom_site_symmetry_multiplicity
 _atom_site_fract_x
 _atom_site_fract_y
 _atom_site_fract_z
 _atom_site_occupancy
  Pr  Pr0  1  0.073328  0.926672  0.748860  1
  Pr  Pr1  1  0.926672  0.073328  0.251140  1
  Pr  Pr2  1  0.356252  0.643748  0.743642  1
  Pr  Pr3  1  0.643748  0.356252  0.256358  1
  V  V4  1  0.500000  0.500000  0.500000  1
  V  V5  1  1.000000  0.500000  0.000000  1
  V  V6  1  0.500000  0.500000  0.000000  1
  V  V7  1  0.000000  0.000000  0.000000  1
  V  V8  1  0.500000  0.000000  0.000000  1
  Si  Si9  1  0.861465  0.138535  0.542366  1
  Si  Si10  1  0.138535  0.861465  0.457634  1
  Si  Si11  1  0.703413  0.296587  0.729239  1
  Si  Si12  1  0.296587  0.703413  0.270761  1
  O  O13  1  0.778590  0.221410  0.631780  1
  O  O14  1  0.221410  0.778590  0.368220  1
  O  O15  1  0.305893  0.165449  0.412378  1
  O  O16  1  0.165449  0.305893  0.587622  1
  O  O17  1  0.694107  0.834551  0.587622  1
  O  O18  1  0.834551  0.694107  0.412378  1
  O  O19  1  0.187126  0.812874  0.599586  1
  O  O20  1  0.812874  0.187126  0.400414  1
  O  O21  1  0.588035  0.411965  0.662693  1
  O  O22  1  0.411965  0.588035  0.337307  1
  O  O23  1  0.511507  0.964748  0.188539  1
  O  O24  1  0.964748  0.511507  0.811461  1
  O  O25  1  0.488493  0.035252  0.811461  1
  O  O26  1  0.650060  0.349940  0.017201  1
  O  O27  1  0.349940  0.650060  0.982799  1
  O  O28  1  0.857272  0.142728  0.023770  1
  O  O29  1  0.142728  0.857272  0.976230  1
  O  O30  1  0.035252  0.488493  0.188539  1
  O  O31  1  0.736212  0.781534  0.869400  1
  O  O32  1  0.218466  0.263788  0.869400  1
  O  O33  1  0.263788  0.218466  0.130600  1
  O  O34  1  0.781534  0.736212  0.130600  1
