# generated using pymatgen
data_AgBTe4C(OF4)5
_symmetry_space_group_name_H-M   'P 1'
_cell_length_a   10.24001435
_cell_length_b   16.62941609
_cell_length_c   14.78908949
_cell_angle_alpha   90.00000000
_cell_angle_beta   122.88780700
_cell_angle_gamma   90.00000000
_symmetry_Int_Tables_number   1
_chemical_formula_structural   AgBTe4C(OF4)5
_chemical_formula_sum   'Ag4 B4 Te16 C4 O20 F80'
_cell_volume   2114.76192846
_cell_formula_units_Z   4
loop_
 _symmetry_equiv_pos_site_id
 _symmetry_equiv_pos_as_xyz
  1  'x, y, z'
loop_
 _atom_site_type_symbol
 _atom_site_label
 _atom_site_symmetry_multiplicity
 _atom_site_fract_x
 _atom_site_fract_y
 _atom_site_fract_z
 _atom_site_occupancy
  Ag  Ag0  1  0.304633  0.675472  0.951333  1
  Ag  Ag1  1  0.695367  0.324528  0.048667  1
  Ag  Ag2  1  0.304633  0.824528  0.451333  1
  Ag  Ag3  1  0.695367  0.175472  0.548667  1
  B  B4  1  0.410539  0.261656  0.051101  1
  B  B5  1  0.410539  0.238344  0.551101  1
  B  B6  1  0.589461  0.761656  0.448899  1
  B  B7  1  0.589461  0.738344  0.948899  1
  Te  Te8  1  0.519882  0.637957  0.755718  1
  Te  Te9  1  0.480118  0.137957  0.744282  1
  Te  Te10  1  0.480118  0.362043  0.244282  1
  Te  Te11  1  0.123917  0.352074  0.461439  1
  Te  Te12  1  0.732628  0.605861  0.128517  1
  Te  Te13  1  0.322712  0.866687  0.831086  1
  Te  Te14  1  0.732628  0.894139  0.628517  1
  Te  Te15  1  0.267372  0.105861  0.371483  1
  Te  Te16  1  0.123917  0.147926  0.961439  1
  Te  Te17  1  0.322712  0.633313  0.331086  1
  Te  Te18  1  0.519882  0.862043  0.255718  1
  Te  Te19  1  0.677288  0.366687  0.668914  1
  Te  Te20  1  0.876083  0.647926  0.538561  1
  Te  Te21  1  0.677288  0.133313  0.168914  1
  Te  Te22  1  0.267372  0.394139  0.871483  1
  Te  Te23  1  0.876083  0.852074  0.038561  1
  C  C24  1  0.121507  0.624627  0.948413  1
  C  C25  1  0.878493  0.375373  0.051587  1
  C  C26  1  0.121507  0.875373  0.448413  1
  C  C27  1  0.878493  0.124627  0.551587  1
  O  O28  1  0.382412  0.283721  0.134570  1
  O  O29  1  0.020558  0.592345  0.944681  1
  O  O30  1  0.575662  0.230870  0.096177  1
  O  O31  1  0.703854  0.796059  0.022486  1
  O  O32  1  0.575662  0.269130  0.596177  1
  O  O33  1  0.296146  0.203941  0.977514  1
  O  O34  1  0.382412  0.216279  0.634570  1
  O  O35  1  0.578239  0.666423  0.008152  1
  O  O36  1  0.979442  0.092345  0.555319  1
  O  O37  1  0.424338  0.769130  0.903823  1
  O  O38  1  0.617588  0.783721  0.365430  1
  O  O39  1  0.421761  0.166423  0.491848  1
  O  O40  1  0.296146  0.296059  0.477514  1
  O  O41  1  0.424338  0.730870  0.403823  1
  O  O42  1  0.020558  0.907655  0.444681  1
  O  O43  1  0.421761  0.333577  0.991848  1
  O  O44  1  0.703854  0.703941  0.522486  1
  O  O45  1  0.578239  0.833577  0.508152  1
  O  O46  1  0.617588  0.716279  0.865430  1
  O  O47  1  0.979442  0.407655  0.055319  1
  F  F48  1  0.425077  0.562102  0.644932  1
  F  F49  1  0.555904  0.072259  0.044691  1
  F  F50  1  0.600898  0.216766  0.849309  1
  F  F51  1  0.775017  0.616113  0.394414  1
  F  F52  1  0.635208  0.553541  0.850145  1
  F  F53  1  0.224983  0.383887  0.605586  1
  F  F54  1  0.118180  0.121118  0.406302  1
  F  F55  1  0.399102  0.716766  0.650691  1
  F  F56  1  0.325449  0.151756  0.773591  1
  F  F57  1  0.574923  0.062102  0.855068  1
  F  F58  1  0.124738  0.458268  0.755367  1
  F  F59  1  0.415709  0.085598  0.337366  1
  F  F60  1  0.212842  0.540102  0.259392  1
  F  F61  1  0.668744  0.989502  0.546489  1
  F  F62  1  0.822301  0.346922  0.631077  1
  F  F63  1  0.574923  0.437898  0.355068  1
  F  F64  1  0.949337  0.090800  0.936024  1
  F  F65  1  0.956810  0.737947  0.507931  1
  F  F66  1  0.600898  0.283234  0.349309  1
  F  F67  1  0.809095  0.945644  0.071483  1
  F  F68  1  0.674551  0.848244  0.226409  1
  F  F69  1  0.540265  0.387241  0.712744  1
  F  F70  1  0.956810  0.762053  0.007931  1
  F  F71  1  0.635208  0.946459  0.350145  1
  F  F72  1  0.043190  0.237947  0.992069  1
  F  F73  1  0.425077  0.937898  0.144932  1
  F  F74  1  0.212842  0.959898  0.759392  1
  F  F75  1  0.809095  0.554356  0.571483  1
  F  F76  1  0.124738  0.041732  0.255367  1
  F  F77  1  0.444096  0.927741  0.955309  1
  F  F78  1  0.804930  0.189637  0.297746  1
  F  F79  1  0.787158  0.459898  0.740608  1
  F  F80  1  0.190905  0.445644  0.428517  1
  F  F81  1  0.191247  0.305696  0.778678  1
  F  F82  1  0.787158  0.040102  0.240608  1
  F  F83  1  0.881820  0.621118  0.093698  1
  F  F84  1  0.444096  0.572259  0.455309  1
  F  F85  1  0.325449  0.348244  0.273591  1
  F  F86  1  0.195070  0.689637  0.202254  1
  F  F87  1  0.190905  0.054356  0.928517  1
  F  F88  1  0.643216  0.380619  0.222344  1
  F  F89  1  0.118180  0.378882  0.906302  1
  F  F90  1  0.643216  0.119381  0.722344  1
  F  F91  1  0.356784  0.619381  0.777656  1
  F  F92  1  0.364792  0.053541  0.649855  1
  F  F93  1  0.191247  0.194304  0.278678  1
  F  F94  1  0.822301  0.153078  0.131077  1
  F  F95  1  0.808753  0.694304  0.221322  1
  F  F96  1  0.008461  0.174501  0.814168  1
  F  F97  1  0.555904  0.427741  0.544691  1
  F  F98  1  0.331256  0.489502  0.953511  1
  F  F99  1  0.415709  0.414402  0.837366  1
  F  F100  1  0.331256  0.010498  0.453511  1
  F  F101  1  0.875262  0.958268  0.744633  1
  F  F102  1  0.008461  0.325499  0.314168  1
  F  F103  1  0.364792  0.446459  0.149855  1
  F  F104  1  0.540265  0.112759  0.212744  1
  F  F105  1  0.356784  0.880619  0.277656  1
  F  F106  1  0.177699  0.846922  0.868923  1
  F  F107  1  0.050663  0.909200  0.063976  1
  F  F108  1  0.991539  0.674501  0.685832  1
  F  F109  1  0.775017  0.883887  0.894414  1
  F  F110  1  0.668744  0.510498  0.046489  1
  F  F111  1  0.875262  0.541732  0.244633  1
  F  F112  1  0.459735  0.612759  0.287256  1
  F  F113  1  0.043190  0.262053  0.492069  1
  F  F114  1  0.177699  0.653078  0.368923  1
  F  F115  1  0.224983  0.116113  0.105586  1
  F  F116  1  0.050663  0.590800  0.563976  1
  F  F117  1  0.584291  0.914402  0.662634  1
  F  F118  1  0.399102  0.783234  0.150691  1
  F  F119  1  0.949337  0.409200  0.436024  1
  F  F120  1  0.459735  0.887241  0.787256  1
  F  F121  1  0.804930  0.310363  0.797746  1
  F  F122  1  0.881820  0.878882  0.593698  1
  F  F123  1  0.991539  0.825499  0.185832  1
  F  F124  1  0.808753  0.805696  0.721322  1
  F  F125  1  0.674551  0.651756  0.726409  1
  F  F126  1  0.584291  0.585598  0.162634  1
  F  F127  1  0.195070  0.810363  0.702254  1
