# generated using pymatgen
data_Cs2U(Br2O)2
_symmetry_space_group_name_H-M   'P 1'
_cell_length_a   6.68767574
_cell_length_b   10.02538872
_cell_length_c   10.16058276
_cell_angle_alpha   90.00000000
_cell_angle_beta   105.11827426
_cell_angle_gamma   90.00000000
_symmetry_Int_Tables_number   1
_chemical_formula_structural   Cs2U(Br2O)2
_chemical_formula_sum   'Cs4 U2 Br8 O4'
_cell_volume   657.65422509
_cell_formula_units_Z   2
loop_
 _symmetry_equiv_pos_site_id
 _symmetry_equiv_pos_as_xyz
  1  'x, y, z'
loop_
 _atom_site_type_symbol
 _atom_site_label
 _atom_site_symmetry_multiplicity
 _atom_site_fract_x
 _atom_site_fract_y
 _atom_site_fract_z
 _atom_site_occupancy
  Cs  Cs0  1  0.320117  0.882211  0.664942  1
  Cs  Cs1  1  0.679883  0.117789  0.335058  1
  Cs  Cs2  1  0.679883  0.382211  0.835058  1
  Cs  Cs3  1  0.320117  0.617789  0.164942  1
  U  U4  1  0.000000  0.000000  0.000000  1
  U  U5  1  0.000000  0.500000  0.500000  1
  Br  Br6  1  0.746345  0.729961  0.474632  1
  Br  Br7  1  0.253655  0.270039  0.525368  1
  Br  Br8  1  0.835972  0.442092  0.218615  1
  Br  Br9  1  0.746345  0.770039  0.974632  1
  Br  Br10  1  0.835972  0.057908  0.718615  1
  Br  Br11  1  0.164028  0.557908  0.781385  1
  Br  Br12  1  0.253655  0.229961  0.025368  1
  Br  Br13  1  0.164028  0.942092  0.281385  1
  O  O14  1  0.200732  0.601578  0.460339  1
  O  O15  1  0.799268  0.398422  0.539661  1
  O  O16  1  0.200732  0.898422  0.960339  1
  O  O17  1  0.799268  0.101578  0.039661  1
