# generated using pymatgen
data_Fe3(TeO3)4
_symmetry_space_group_name_H-M   'P 1'
_cell_length_a   9.30962218
_cell_length_b   7.46834640
_cell_length_c   16.13440025
_cell_angle_alpha   90.00000000
_cell_angle_beta   108.48787788
_cell_angle_gamma   90.00000000
_symmetry_Int_Tables_number   1
_chemical_formula_structural   Fe3(TeO3)4
_chemical_formula_sum   'Fe12 Te16 O48'
_cell_volume   1063.88981798
_cell_formula_units_Z   4
loop_
 _symmetry_equiv_pos_site_id
 _symmetry_equiv_pos_as_xyz
  1  'x, y, z'
loop_
 _atom_site_type_symbol
 _atom_site_label
 _atom_site_symmetry_multiplicity
 _atom_site_fract_x
 _atom_site_fract_y
 _atom_site_fract_z
 _atom_site_occupancy
  Fe  Fe0  1  0.673831  0.368174  0.802736  1
  Fe  Fe1  1  0.326169  0.631826  0.197264  1
  Fe  Fe2  1  0.577124  0.878050  0.094844  1
  Fe  Fe3  1  0.316961  0.130191  0.193077  1
  Fe  Fe4  1  0.683039  0.869809  0.806923  1
  Fe  Fe5  1  0.316961  0.369809  0.693077  1
  Fe  Fe6  1  0.422876  0.378050  0.405156  1
  Fe  Fe7  1  0.673831  0.131826  0.302736  1
  Fe  Fe8  1  0.422876  0.121950  0.905156  1
  Fe  Fe9  1  0.326169  0.868174  0.697264  1
  Fe  Fe10  1  0.577124  0.621950  0.594844  1
  Fe  Fe11  1  0.683039  0.630191  0.306923  1
  Te  Te12  1  0.983422  0.887671  0.254867  1
  Te  Te13  1  0.550791  0.120370  0.636225  1
  Te  Te14  1  0.016578  0.112329  0.745133  1
  Te  Te15  1  0.832134  0.858856  0.534057  1
  Te  Te16  1  0.167866  0.141144  0.465943  1
  Te  Te17  1  0.167866  0.358856  0.965943  1
  Te  Te18  1  0.178971  0.872154  0.990163  1
  Te  Te19  1  0.821029  0.127846  0.009837  1
  Te  Te20  1  0.449209  0.879630  0.363775  1
  Te  Te21  1  0.983422  0.612329  0.754867  1
  Te  Te22  1  0.832134  0.641144  0.034057  1
  Te  Te23  1  0.449209  0.620370  0.863775  1
  Te  Te24  1  0.821029  0.372154  0.509837  1
  Te  Te25  1  0.550791  0.379630  0.136225  1
  Te  Te26  1  0.016578  0.387671  0.245133  1
  Te  Te27  1  0.178971  0.627846  0.490163  1
  O  O28  1  0.619166  0.111049  0.011219  1
  O  O29  1  0.677645  0.381655  0.263320  1
  O  O30  1  0.620484  0.866735  0.505594  1
  O  O31  1  0.131238  0.942135  0.382544  1
  O  O32  1  0.824123  0.666383  0.615390  1
  O  O33  1  0.379516  0.366735  0.994406  1
  O  O34  1  0.881336  0.698398  0.291107  1
  O  O35  1  0.149708  0.576175  0.239950  1
  O  O36  1  0.118664  0.301602  0.708893  1
  O  O37  1  0.868762  0.057865  0.617456  1
  O  O38  1  0.118664  0.198398  0.208893  1
  O  O39  1  0.619166  0.388951  0.511219  1
  O  O40  1  0.149708  0.923825  0.739950  1
  O  O41  1  0.380834  0.888951  0.988781  1
  O  O42  1  0.471720  0.894048  0.829151  1
  O  O43  1  0.322355  0.881655  0.236680  1
  O  O44  1  0.802552  0.318128  0.927318  1
  O  O45  1  0.677645  0.118345  0.763320  1
  O  O46  1  0.379516  0.133265  0.494406  1
  O  O47  1  0.175877  0.166383  0.884610  1
  O  O48  1  0.175877  0.333617  0.384610  1
  O  O49  1  0.868762  0.442135  0.117456  1
  O  O50  1  0.538745  0.656783  0.173323  1
  O  O51  1  0.197448  0.681872  0.072682  1
  O  O52  1  0.197448  0.818128  0.572682  1
  O  O53  1  0.824123  0.833617  0.115390  1
  O  O54  1  0.322355  0.618345  0.736680  1
  O  O55  1  0.641662  0.882103  0.337392  1
  O  O56  1  0.641662  0.617897  0.837392  1
  O  O57  1  0.471720  0.605952  0.329151  1
  O  O58  1  0.358338  0.382103  0.162608  1
  O  O59  1  0.620484  0.633265  0.005594  1
  O  O60  1  0.881336  0.801602  0.791107  1
  O  O61  1  0.131238  0.557865  0.882544  1
  O  O62  1  0.802552  0.181872  0.427318  1
  O  O63  1  0.358338  0.117897  0.662608  1
  O  O64  1  0.380834  0.611049  0.488781  1
  O  O65  1  0.808712  0.927616  0.933114  1
  O  O66  1  0.538745  0.843217  0.673323  1
  O  O67  1  0.528280  0.394048  0.670849  1
  O  O68  1  0.191288  0.427616  0.566886  1
  O  O69  1  0.850292  0.076175  0.260050  1
  O  O70  1  0.461255  0.343217  0.826677  1
  O  O71  1  0.528280  0.105952  0.170849  1
  O  O72  1  0.850292  0.423825  0.760050  1
  O  O73  1  0.461255  0.156783  0.326677  1
  O  O74  1  0.808712  0.572384  0.433114  1
  O  O75  1  0.191288  0.072384  0.066886  1
