# generated using pymatgen
data_Ti6O
_symmetry_space_group_name_H-M   'P 1'
_cell_length_a   5.11679349
_cell_length_b   5.11679349
_cell_length_c   9.48688631
_cell_angle_alpha   90.00000000
_cell_angle_beta   90.00000000
_cell_angle_gamma   120.00000000
_symmetry_Int_Tables_number   1
_chemical_formula_structural   Ti6O
_chemical_formula_sum   'Ti12 O2'
_cell_volume   215.10480252
_cell_formula_units_Z   2
loop_
 _symmetry_equiv_pos_site_id
 _symmetry_equiv_pos_as_xyz
  1  'x, y, z'
loop_
 _atom_site_type_symbol
 _atom_site_label
 _atom_site_symmetry_multiplicity
 _atom_site_fract_x
 _atom_site_fract_y
 _atom_site_fract_z
 _atom_site_occupancy
  Ti  Ti0  1  0.668087  0.664481  0.381130  1
  Ti  Ti1  1  0.331913  0.996394  0.881130  1
  Ti  Ti2  1  0.664481  0.996394  0.618870  1
  Ti  Ti3  1  0.664481  0.668087  0.881130  1
  Ti  Ti4  1  0.335519  0.331913  0.118870  1
  Ti  Ti5  1  0.996394  0.331913  0.381130  1
  Ti  Ti6  1  0.335519  0.003606  0.381130  1
  Ti  Ti7  1  0.668087  0.003606  0.118870  1
  Ti  Ti8  1  0.003606  0.335519  0.881130  1
  Ti  Ti9  1  0.331913  0.335519  0.618870  1
  Ti  Ti10  1  0.003606  0.668087  0.618870  1
  Ti  Ti11  1  0.996394  0.664481  0.118870  1
  O  O12  1  0.666667  0.333333  0.250000  1
  O  O13  1  0.333333  0.666667  0.750000  1
