# generated using pymatgen
data_Pr6CoBr10
_symmetry_space_group_name_H-M   'P 1'
_cell_length_a   7.68927374
_cell_length_b   9.43335526
_cell_length_c   9.60831178
_cell_angle_alpha   109.78090291
_cell_angle_beta   107.04386749
_cell_angle_gamma   97.02998288
_symmetry_Int_Tables_number   1
_chemical_formula_structural   Pr6CoBr10
_chemical_formula_sum   'Pr6 Co1 Br10'
_cell_volume   607.70253551
_cell_formula_units_Z   1
loop_
 _symmetry_equiv_pos_site_id
 _symmetry_equiv_pos_as_xyz
  1  'x, y, z'
loop_
 _atom_site_type_symbol
 _atom_site_label
 _atom_site_symmetry_multiplicity
 _atom_site_fract_x
 _atom_site_fract_y
 _atom_site_fract_z
 _atom_site_occupancy
  Pr  Pr0  1  0.370117  0.191057  0.144946  1
  Pr  Pr1  1  0.020620  0.896703  0.693551  1
  Pr  Pr2  1  0.121194  0.762109  0.042856  1
  Pr  Pr3  1  0.629883  0.808943  0.855054  1
  Pr  Pr4  1  0.878806  0.237891  0.957144  1
  Pr  Pr5  1  0.979380  0.103297  0.306449  1
  Co  Co6  1  0.000000  0.000000  0.000000  1
  Br  Br7  1  0.449459  0.080200  0.825737  1
  Br  Br8  1  0.742212  0.539196  0.917308  1
  Br  Br9  1  0.257788  0.460804  0.082692  1
  Br  Br10  1  0.911584  0.171203  0.634549  1
  Br  Br11  1  0.627007  0.721132  0.531476  1
  Br  Br12  1  0.550541  0.919800  0.174263  1
  Br  Br13  1  0.088416  0.828797  0.365451  1
  Br  Br14  1  0.806824  0.361663  0.266206  1
  Br  Br15  1  0.193176  0.638337  0.733794  1
  Br  Br16  1  0.372993  0.278868  0.468524  1
