# generated using pymatgen
data_K2Na2IrO4
_symmetry_space_group_name_H-M   'P 1'
_cell_length_a   6.08761578
_cell_length_b   11.29738813
_cell_length_c   9.45531089
_cell_angle_alpha   90.00000000
_cell_angle_beta   112.94445715
_cell_angle_gamma   90.00000000
_symmetry_Int_Tables_number   1
_chemical_formula_structural   K2Na2IrO4
_chemical_formula_sum   'K8 Na8 Ir4 O16'
_cell_volume   598.83289061
_cell_formula_units_Z   4
loop_
 _symmetry_equiv_pos_site_id
 _symmetry_equiv_pos_as_xyz
  1  'x, y, z'
loop_
 _atom_site_type_symbol
 _atom_site_label
 _atom_site_symmetry_multiplicity
 _atom_site_fract_x
 _atom_site_fract_y
 _atom_site_fract_z
 _atom_site_occupancy
  K  K0  1  0.334270  0.362571  0.497484  1
  K  K1  1  0.342319  0.634373  0.721127  1
  K  K2  1  0.657681  0.365627  0.278873  1
  K  K3  1  0.657681  0.134373  0.778873  1
  K  K4  1  0.342319  0.865627  0.221127  1
  K  K5  1  0.665730  0.637429  0.502516  1
  K  K6  1  0.334270  0.137429  0.997484  1
  K  K7  1  0.665730  0.862571  0.002516  1
  Na  Na8  1  0.068126  0.112827  0.594893  1
  Na  Na9  1  0.434455  0.608435  0.094223  1
  Na  Na10  1  0.565545  0.391565  0.905777  1
  Na  Na11  1  0.931874  0.612827  0.905107  1
  Na  Na12  1  0.434455  0.891565  0.594223  1
  Na  Na13  1  0.068126  0.387173  0.094893  1
  Na  Na14  1  0.565545  0.108435  0.405777  1
  Na  Na15  1  0.931874  0.887173  0.405107  1
  Ir  Ir16  1  0.986002  0.370153  0.729119  1
  Ir  Ir17  1  0.013998  0.629847  0.270881  1
  Ir  Ir18  1  0.986002  0.129847  0.229119  1
  Ir  Ir19  1  0.013998  0.870153  0.770881  1
  O  O20  1  0.281907  0.534799  0.275778  1
  O  O21  1  0.718093  0.034799  0.224222  1
  O  O22  1  0.221424  0.730350  0.433556  1
  O  O23  1  0.221424  0.769650  0.933556  1
  O  O24  1  0.201219  0.465124  0.898990  1
  O  O25  1  0.798781  0.965124  0.601010  1
  O  O26  1  0.718093  0.465201  0.724222  1
  O  O27  1  0.201219  0.034876  0.398990  1
  O  O28  1  0.743108  0.775455  0.761353  1
  O  O29  1  0.256892  0.224545  0.238647  1
  O  O30  1  0.256892  0.275455  0.738647  1
  O  O31  1  0.798781  0.534876  0.101010  1
  O  O32  1  0.743108  0.724545  0.261353  1
  O  O33  1  0.778576  0.269650  0.566444  1
  O  O34  1  0.778576  0.230350  0.066444  1
  O  O35  1  0.281907  0.965201  0.775778  1
