# generated using pymatgen
data_Sm3CuSiS7
_symmetry_space_group_name_H-M   'P 1'
_cell_length_a   10.09574880
_cell_length_b   10.09574880
_cell_length_c   5.75516715
_cell_angle_alpha   90.00000000
_cell_angle_beta   90.00000000
_cell_angle_gamma   120.00000000
_symmetry_Int_Tables_number   1
_chemical_formula_structural   Sm3CuSiS7
_chemical_formula_sum   'Sm6 Cu2 Si2 S14'
_cell_volume   508.00226072
_cell_formula_units_Z   2
loop_
 _symmetry_equiv_pos_site_id
 _symmetry_equiv_pos_as_xyz
  1  'x, y, z'
loop_
 _atom_site_type_symbol
 _atom_site_label
 _atom_site_symmetry_multiplicity
 _atom_site_fract_x
 _atom_site_fract_y
 _atom_site_fract_z
 _atom_site_occupancy
  Sm  Sm0  1  0.124775  0.356452  0.750110  1
  Sm  Sm1  1  0.643548  0.768323  0.750110  1
  Sm  Sm2  1  0.875225  0.643548  0.250110  1
  Sm  Sm3  1  0.356452  0.231677  0.250110  1
  Sm  Sm4  1  0.231677  0.875225  0.750110  1
  Sm  Sm5  1  0.768323  0.124775  0.250110  1
  Cu  Cu6  1  0.000000  0.000000  0.720102  1
  Cu  Cu7  1  0.000000  0.000000  0.220102  1
  Si  Si8  1  0.666667  0.333333  0.837408  1
  Si  Si9  1  0.333333  0.666667  0.337408  1
  S  S10  1  0.253896  0.165036  0.732228  1
  S  S11  1  0.523444  0.110403  0.983511  1
  S  S12  1  0.110403  0.586959  0.483511  1
  S  S13  1  0.889597  0.413041  0.983511  1
  S  S14  1  0.413041  0.523444  0.483511  1
  S  S15  1  0.746104  0.834964  0.232228  1
  S  S16  1  0.666667  0.333333  0.470230  1
  S  S17  1  0.165036  0.911140  0.232228  1
  S  S18  1  0.333333  0.666667  0.970230  1
  S  S19  1  0.586959  0.476556  0.983511  1
  S  S20  1  0.834964  0.088860  0.732228  1
  S  S21  1  0.911140  0.746104  0.732228  1
  S  S22  1  0.476556  0.889597  0.483511  1
  S  S23  1  0.088860  0.253896  0.232228  1
