# generated using pymatgen
data_Yb(ClO4)3
_symmetry_space_group_name_H-M   'P 1'
_cell_length_a   9.43058286
_cell_length_b   9.43058286
_cell_length_c   5.87820529
_cell_angle_alpha   90.00000000
_cell_angle_beta   90.00000000
_cell_angle_gamma   120.00000000
_symmetry_Int_Tables_number   1
_chemical_formula_structural   Yb(ClO4)3
_chemical_formula_sum   'Yb2 Cl6 O24'
_cell_volume   452.74373697
_cell_formula_units_Z   2
loop_
 _symmetry_equiv_pos_site_id
 _symmetry_equiv_pos_as_xyz
  1  'x, y, z'
loop_
 _atom_site_type_symbol
 _atom_site_label
 _atom_site_symmetry_multiplicity
 _atom_site_fract_x
 _atom_site_fract_y
 _atom_site_fract_z
 _atom_site_occupancy
  Yb  Yb0  1  0.666667  0.333333  0.750000  1
  Yb  Yb1  1  0.333333  0.666667  0.250000  1
  Cl  Cl2  1  0.296192  0.905666  0.750000  1
  Cl  Cl3  1  0.703808  0.094334  0.250000  1
  Cl  Cl4  1  0.609474  0.703808  0.750000  1
  Cl  Cl5  1  0.390526  0.296192  0.250000  1
  Cl  Cl6  1  0.094334  0.390526  0.750000  1
  Cl  Cl7  1  0.905666  0.609474  0.250000  1
  O  O8  1  0.783066  0.809067  0.750000  1
  O  O9  1  0.969394  0.438364  0.750000  1
  O  O10  1  0.468970  0.030606  0.750000  1
  O  O11  1  0.190933  0.973999  0.750000  1
  O  O12  1  0.973999  0.783066  0.250000  1
  O  O13  1  0.462036  0.262816  0.450863  1
  O  O14  1  0.199220  0.462036  0.950863  1
  O  O15  1  0.531030  0.969394  0.250000  1
  O  O16  1  0.537964  0.737184  0.950863  1
  O  O17  1  0.030606  0.561636  0.250000  1
  O  O18  1  0.026001  0.216934  0.750000  1
  O  O19  1  0.262816  0.800780  0.549137  1
  O  O20  1  0.800780  0.537964  0.450863  1
  O  O21  1  0.462036  0.262816  0.049137  1
  O  O22  1  0.537964  0.737184  0.549137  1
  O  O23  1  0.262816  0.800780  0.950863  1
  O  O24  1  0.800780  0.537964  0.049137  1
  O  O25  1  0.561636  0.531030  0.750000  1
  O  O26  1  0.438364  0.468970  0.250000  1
  O  O27  1  0.199220  0.462036  0.549137  1
  O  O28  1  0.737184  0.199220  0.049137  1
  O  O29  1  0.216934  0.190933  0.250000  1
  O  O30  1  0.737184  0.199220  0.450863  1
  O  O31  1  0.809067  0.026001  0.250000  1
