# generated using pymatgen
data_GdSClO4
_symmetry_space_group_name_H-M   'P 1'
_cell_length_a   6.88483903
_cell_length_b   6.63951049
_cell_length_c   9.54909196
_cell_angle_alpha   90.00000000
_cell_angle_beta   105.06510693
_cell_angle_gamma   90.00000000
_symmetry_Int_Tables_number   1
_chemical_formula_structural   GdSClO4
_chemical_formula_sum   'Gd4 S4 Cl4 O16'
_cell_volume   421.50542847
_cell_formula_units_Z   4
loop_
 _symmetry_equiv_pos_site_id
 _symmetry_equiv_pos_as_xyz
  1  'x, y, z'
loop_
 _atom_site_type_symbol
 _atom_site_label
 _atom_site_symmetry_multiplicity
 _atom_site_fract_x
 _atom_site_fract_y
 _atom_site_fract_z
 _atom_site_occupancy
  Gd  Gd0  1  0.826780  0.095387  0.763487  1
  Gd  Gd1  1  0.673220  0.595387  0.236513  1
  Gd  Gd2  1  0.173220  0.904613  0.236513  1
  Gd  Gd3  1  0.326780  0.404613  0.763487  1
  S  S4  1  0.708491  0.059326  0.356349  1
  S  S5  1  0.791509  0.559326  0.643651  1
  S  S6  1  0.208491  0.440674  0.356349  1
  S  S7  1  0.291509  0.940674  0.643651  1
  Cl  Cl8  1  0.189123  0.139540  0.969768  1
  Cl  Cl9  1  0.689123  0.360460  0.969768  1
  Cl  Cl10  1  0.310877  0.639540  0.030232  1
  Cl  Cl11  1  0.810877  0.860460  0.030232  1
  O  O12  1  0.967923  0.427903  0.721264  1
  O  O13  1  0.467923  0.072097  0.721264  1
  O  O14  1  0.887383  0.942142  0.344182  1
  O  O15  1  0.195308  0.246113  0.281171  1
  O  O16  1  0.204159  0.412410  0.507493  1
  O  O17  1  0.112617  0.057858  0.655818  1
  O  O18  1  0.612617  0.442142  0.655818  1
  O  O19  1  0.695308  0.253887  0.281171  1
  O  O20  1  0.295841  0.912410  0.492507  1
  O  O21  1  0.795841  0.587590  0.492507  1
  O  O22  1  0.387383  0.557858  0.344182  1
  O  O23  1  0.032077  0.572097  0.278736  1
  O  O24  1  0.532077  0.927903  0.278736  1
  O  O25  1  0.704159  0.087590  0.507493  1
  O  O26  1  0.304692  0.746113  0.718829  1
  O  O27  1  0.804692  0.753887  0.718829  1
