# generated using pymatgen
data_BaCoF4
_symmetry_space_group_name_H-M   'P 1'
_cell_length_a   7.72645580
_cell_length_b   7.72645580
_cell_length_c   6.00806770
_cell_angle_alpha   90.00000000
_cell_angle_beta   90.00000000
_cell_angle_gamma   148.24513630
_symmetry_Int_Tables_number   1
_chemical_formula_structural   BaCoF4
_chemical_formula_sum   'Ba2 Co2 F8'
_cell_volume   188.76321740
_cell_formula_units_Z   2
loop_
 _symmetry_equiv_pos_site_id
 _symmetry_equiv_pos_as_xyz
  1  'x, y, z'
loop_
 _atom_site_type_symbol
 _atom_site_label
 _atom_site_symmetry_multiplicity
 _atom_site_fract_x
 _atom_site_fract_y
 _atom_site_fract_z
 _atom_site_occupancy
  Ba  Ba0  1  0.647536  0.352464  0.044197  1
  Ba  Ba1  1  0.352464  0.647536  0.544197  1
  Co  Co2  1  0.086173  0.913827  0.497841  1
  Co  Co3  1  0.913827  0.086173  0.997841  1
  F  F4  1  0.575915  0.424085  0.482921  1
  F  F5  1  0.424085  0.575915  0.982921  1
  F  F6  1  0.030640  0.969360  0.174672  1
  F  F7  1  0.969360  0.030640  0.674672  1
  F  F8  1  0.800571  0.199429  0.807350  1
  F  F9  1  0.199429  0.800571  0.307350  1
  F  F10  1  0.837685  0.162315  0.275419  1
  F  F11  1  0.162315  0.837685  0.775419  1
