# generated using pymatgen
data_Li2Cd(PO3)4
_symmetry_space_group_name_H-M   'P 1'
_cell_length_a   9.52829574
_cell_length_b   9.65557546
_cell_length_c   10.33420820
_cell_angle_alpha   90.00000000
_cell_angle_beta   90.00000000
_cell_angle_gamma   90.00000000
_symmetry_Int_Tables_number   1
_chemical_formula_structural   Li2Cd(PO3)4
_chemical_formula_sum   'Li8 Cd4 P16 O48'
_cell_volume   950.75933350
_cell_formula_units_Z   4
loop_
 _symmetry_equiv_pos_site_id
 _symmetry_equiv_pos_as_xyz
  1  'x, y, z'
loop_
 _atom_site_type_symbol
 _atom_site_label
 _atom_site_symmetry_multiplicity
 _atom_site_fract_x
 _atom_site_fract_y
 _atom_site_fract_z
 _atom_site_occupancy
  Li  Li0  1  0.105290  0.497261  0.323360  1
  Li  Li1  1  0.894710  0.502739  0.676640  1
  Li  Li2  1  0.894710  0.002739  0.823360  1
  Li  Li3  1  0.105290  0.997261  0.176640  1
  Li  Li4  1  0.394710  0.997261  0.176640  1
  Li  Li5  1  0.605290  0.002739  0.823360  1
  Li  Li6  1  0.605290  0.502739  0.676640  1
  Li  Li7  1  0.394710  0.497261  0.323360  1
  Cd  Cd8  1  0.250000  0.488463  0.693631  1
  Cd  Cd9  1  0.750000  0.511537  0.306369  1
  Cd  Cd10  1  0.250000  0.988463  0.806369  1
  Cd  Cd11  1  0.750000  0.011537  0.193631  1
  P  P12  1  0.750000  0.303822  0.900004  1
  P  P13  1  0.531531  0.792912  0.388062  1
  P  P14  1  0.468469  0.707088  0.888062  1
  P  P15  1  0.750000  0.803822  0.599996  1
  P  P16  1  0.750000  0.230120  0.484681  1
  P  P17  1  0.250000  0.269880  0.984681  1
  P  P18  1  0.250000  0.696178  0.099996  1
  P  P19  1  0.531531  0.292912  0.111938  1
  P  P20  1  0.968469  0.292912  0.111938  1
  P  P21  1  0.250000  0.769880  0.515319  1
  P  P22  1  0.031531  0.707088  0.888062  1
  P  P23  1  0.750000  0.730120  0.015319  1
  P  P24  1  0.031531  0.207088  0.611938  1
  P  P25  1  0.468469  0.207088  0.611938  1
  P  P26  1  0.968469  0.792912  0.388062  1
  P  P27  1  0.250000  0.196178  0.400004  1
  O  O28  1  0.374986  0.831438  0.428349  1
  O  O29  1  0.374986  0.331438  0.071651  1
  O  O30  1  0.250000  0.613462  0.508085  1
  O  O31  1  0.559756  0.884420  0.272822  1
  O  O32  1  0.750000  0.886538  0.008085  1
  O  O33  1  0.451583  0.362066  0.623043  1
  O  O34  1  0.451583  0.862066  0.876957  1
  O  O35  1  0.750000  0.899411  0.714167  1
  O  O36  1  0.874986  0.668562  0.928349  1
  O  O37  1  0.951583  0.637934  0.376957  1
  O  O38  1  0.881678  0.850126  0.510690  1
  O  O39  1  0.750000  0.161893  0.356080  1
  O  O40  1  0.048417  0.362066  0.623043  1
  O  O41  1  0.059756  0.615580  0.772822  1
  O  O42  1  0.048417  0.862066  0.876957  1
  O  O43  1  0.250000  0.338107  0.856080  1
  O  O44  1  0.625014  0.668562  0.928349  1
  O  O45  1  0.059756  0.115580  0.727178  1
  O  O46  1  0.750000  0.386538  0.491915  1
  O  O47  1  0.118322  0.149874  0.489310  1
  O  O48  1  0.125014  0.331438  0.071651  1
  O  O49  1  0.940244  0.384420  0.227178  1
  O  O50  1  0.625014  0.168562  0.571651  1
  O  O51  1  0.250000  0.100589  0.285833  1
  O  O52  1  0.381678  0.649874  0.010690  1
  O  O53  1  0.951583  0.137934  0.123043  1
  O  O54  1  0.881678  0.350126  0.989310  1
  O  O55  1  0.750000  0.649943  0.620403  1
  O  O56  1  0.559756  0.384420  0.227178  1
  O  O57  1  0.940244  0.884420  0.272822  1
  O  O58  1  0.250000  0.838107  0.643920  1
  O  O59  1  0.250000  0.600589  0.214167  1
  O  O60  1  0.548417  0.637934  0.376957  1
  O  O61  1  0.381678  0.149874  0.489310  1
  O  O62  1  0.250000  0.113462  0.991915  1
  O  O63  1  0.125014  0.831438  0.428349  1
  O  O64  1  0.750000  0.661893  0.143920  1
  O  O65  1  0.440244  0.115580  0.727178  1
  O  O66  1  0.118322  0.649874  0.010690  1
  O  O67  1  0.874986  0.168562  0.571651  1
  O  O68  1  0.750000  0.149943  0.879597  1
  O  O69  1  0.618322  0.850126  0.510690  1
  O  O70  1  0.440244  0.615580  0.772822  1
  O  O71  1  0.250000  0.350057  0.379597  1
  O  O72  1  0.250000  0.850057  0.120403  1
  O  O73  1  0.618322  0.350126  0.989310  1
  O  O74  1  0.750000  0.399411  0.785833  1
  O  O75  1  0.548417  0.137934  0.123043  1
