# generated using pymatgen
data_ScNiSn
_symmetry_space_group_name_H-M   'P 1'
_cell_length_a   4.36737427
_cell_length_b   6.66807908
_cell_length_c   7.53292452
_cell_angle_alpha   90.00000000
_cell_angle_beta   90.00000000
_cell_angle_gamma   90.00000000
_symmetry_Int_Tables_number   1
_chemical_formula_structural   ScNiSn
_chemical_formula_sum   'Sc4 Ni4 Sn4'
_cell_volume   219.37380531
_cell_formula_units_Z   4
loop_
 _symmetry_equiv_pos_site_id
 _symmetry_equiv_pos_as_xyz
  1  'x, y, z'
loop_
 _atom_site_type_symbol
 _atom_site_label
 _atom_site_symmetry_multiplicity
 _atom_site_fract_x
 _atom_site_fract_y
 _atom_site_fract_z
 _atom_site_occupancy
  Sc  Sc0  1  0.750000  0.989328  0.708366  1
  Sc  Sc1  1  0.250000  0.010672  0.291634  1
  Sc  Sc2  1  0.750000  0.489328  0.791634  1
  Sc  Sc3  1  0.250000  0.510672  0.208366  1
  Ni  Ni4  1  0.750000  0.708766  0.416117  1
  Ni  Ni5  1  0.250000  0.291234  0.583883  1
  Ni  Ni6  1  0.750000  0.208766  0.083883  1
  Ni  Ni7  1  0.250000  0.791234  0.916117  1
  Sn  Sn8  1  0.750000  0.801770  0.087077  1
  Sn  Sn9  1  0.250000  0.198230  0.912923  1
  Sn  Sn10  1  0.750000  0.301770  0.412923  1
  Sn  Sn11  1  0.250000  0.698230  0.587077  1
