# generated using pymatgen
data_LiSn2(PO4)3
_symmetry_space_group_name_H-M   'P 1'
_cell_length_a   8.55016036
_cell_length_b   8.56403514
_cell_length_c   9.02612132
_cell_angle_alpha   118.04231440
_cell_angle_beta   90.30425946
_cell_angle_gamma   119.49173194
_symmetry_Int_Tables_number   1
_chemical_formula_structural   LiSn2(PO4)3
_chemical_formula_sum   'Li2 Sn4 P6 O24'
_cell_volume   483.03829720
_cell_formula_units_Z   2
loop_
 _symmetry_equiv_pos_site_id
 _symmetry_equiv_pos_as_xyz
  1  'x, y, z'
loop_
 _atom_site_type_symbol
 _atom_site_label
 _atom_site_symmetry_multiplicity
 _atom_site_fract_x
 _atom_site_fract_y
 _atom_site_fract_z
 _atom_site_occupancy
  Li  Li0  1  0.773121  0.823983  0.423747  1
  Li  Li1  1  0.226879  0.176017  0.576253  1
  Sn  Sn2  1  0.644848  0.352688  0.441044  1
  Sn  Sn3  1  0.864149  0.143418  0.066736  1
  Sn  Sn4  1  0.135851  0.856582  0.933264  1
  Sn  Sn5  1  0.355152  0.647312  0.558956  1
  P  P6  1  0.039109  0.253878  0.752688  1
  P  P7  1  0.463153  0.966988  0.750115  1
  P  P8  1  0.960891  0.746122  0.247312  1
  P  P9  1  0.536847  0.033012  0.249885  1
  P  P10  1  0.749675  0.545693  0.745688  1
  P  P11  1  0.250325  0.454307  0.254312  1
  O  O12  1  0.253686  0.451528  0.430059  1
  O  O13  1  0.829094  0.539477  0.298916  1
  O  O14  1  0.884303  0.878944  0.247290  1
  O  O15  1  0.735630  0.102979  0.233203  1
  O  O16  1  0.380738  0.012048  0.076423  1
  O  O17  1  0.746314  0.548472  0.569941  1
  O  O18  1  0.264370  0.897021  0.766797  1
  O  O19  1  0.162721  0.778144  0.377802  1
  O  O20  1  0.619262  0.987952  0.923577  1
  O  O21  1  0.552035  0.518202  0.733998  1
  O  O22  1  0.961547  0.801941  0.058939  1
  O  O23  1  0.038453  0.198059  0.941061  1
  O  O24  1  0.837279  0.221856  0.622198  1
  O  O25  1  0.447965  0.481798  0.266002  1
  O  O26  1  0.170906  0.460523  0.701084  1
  O  O27  1  0.110244  0.252740  0.248017  1
  O  O28  1  0.478284  0.831294  0.697312  1
  O  O29  1  0.470434  0.164031  0.601097  1
  O  O30  1  0.889756  0.747260  0.751983  1
  O  O31  1  0.115697  0.121056  0.752710  1
  O  O32  1  0.521716  0.168706  0.302688  1
  O  O33  1  0.529566  0.835969  0.398903  1
  O  O34  1  0.815919  0.391711  0.906962  1
  O  O35  1  0.184081  0.608289  0.093038  1
