# generated using pymatgen
data_As2S3(NF6)2
_symmetry_space_group_name_H-M   'P 1'
_cell_length_a   7.69953292
_cell_length_b   7.69953292
_cell_length_c   10.89052611
_cell_angle_alpha   88.09652722
_cell_angle_beta   91.90347278
_cell_angle_gamma   112.09254261
_symmetry_Int_Tables_number   1
_chemical_formula_structural   As2S3(NF6)2
_chemical_formula_sum   'As4 S6 N4 F24'
_cell_volume   597.73810102
_cell_formula_units_Z   2
loop_
 _symmetry_equiv_pos_site_id
 _symmetry_equiv_pos_as_xyz
  1  'x, y, z'
loop_
 _atom_site_type_symbol
 _atom_site_label
 _atom_site_symmetry_multiplicity
 _atom_site_fract_x
 _atom_site_fract_y
 _atom_site_fract_z
 _atom_site_occupancy
  As  As0  1  0.288372  0.017188  0.248613  1
  As  As1  1  0.017188  0.288372  0.751387  1
  As  As2  1  0.667784  0.667784  0.000000  1
  As  As3  1  0.675307  0.675307  0.500000  1
  S  S4  1  0.179936  0.468772  0.243966  1
  S  S5  1  0.468772  0.179936  0.756034  1
  S  S6  1  0.840477  0.250716  0.347686  1
  S  S7  1  0.250716  0.840477  0.652314  1
  S  S8  1  0.827157  0.255209  0.150421  1
  S  S9  1  0.255209  0.827157  0.849579  1
  N  N10  1  0.050065  0.381692  0.360412  1
  N  N11  1  0.381692  0.050065  0.639588  1
  N  N12  1  0.034693  0.387252  0.131619  1
  N  N13  1  0.387252  0.034693  0.868381  1
  F  F14  1  0.225385  0.836327  0.363415  1
  F  F15  1  0.836327  0.225385  0.636585  1
  F  F16  1  0.358726  0.194793  0.133278  1
  F  F17  1  0.194793  0.358726  0.866722  1
  F  F18  1  0.060412  0.021074  0.242984  1
  F  F19  1  0.021074  0.060412  0.757016  1
  F  F20  1  0.226192  0.842102  0.135198  1
  F  F21  1  0.842102  0.226192  0.864802  1
  F  F22  1  0.524980  0.019335  0.252839  1
  F  F23  1  0.019335  0.524980  0.747161  1
  F  F24  1  0.357090  0.187378  0.363894  1
  F  F25  1  0.187378  0.357090  0.636106  1
  F  F26  1  0.440642  0.604470  0.061886  1
  F  F27  1  0.604470  0.440642  0.938114  1
  F  F28  1  0.732601  0.893717  0.062343  1
  F  F29  1  0.893717  0.732601  0.937657  1
  F  F30  1  0.745940  0.584655  0.136698  1
  F  F31  1  0.584655  0.745940  0.863302  1
  F  F32  1  0.469175  0.592033  0.406767  1
  F  F33  1  0.592033  0.469175  0.593233  1
  F  F34  1  0.785261  0.565611  0.404534  1
  F  F35  1  0.565611  0.785261  0.595466  1
  F  F36  1  0.761378  0.882007  0.407088  1
  F  F37  1  0.882007  0.761378  0.592912  1
