# generated using pymatgen
data_K2NiH12(C2O7)2
_symmetry_space_group_name_H-M   'P 1'
_cell_length_a   8.71140094
_cell_length_b   6.83107284
_cell_length_c   13.34211564
_cell_angle_alpha   90.00000000
_cell_angle_beta   117.50140571
_cell_angle_gamma   90.00000000
_symmetry_Int_Tables_number   1
_chemical_formula_structural   K2NiH12(C2O7)2
_chemical_formula_sum   'K4 Ni2 H24 C8 O28'
_cell_volume   704.24698540
_cell_formula_units_Z   2
loop_
 _symmetry_equiv_pos_site_id
 _symmetry_equiv_pos_as_xyz
  1  'x, y, z'
loop_
 _atom_site_type_symbol
 _atom_site_label
 _atom_site_symmetry_multiplicity
 _atom_site_fract_x
 _atom_site_fract_y
 _atom_site_fract_z
 _atom_site_occupancy
  K  K0  1  0.320108  0.345004  0.879188  1
  K  K1  1  0.679892  0.845004  0.620812  1
  K  K2  1  0.320108  0.154996  0.379188  1
  K  K3  1  0.679892  0.654996  0.120812  1
  Ni  Ni4  1  0.000000  0.000000  0.000000  1
  Ni  Ni5  1  0.000000  0.500000  0.500000  1
  H  H6  1  0.944684  0.085511  0.343183  1
  H  H7  1  0.789400  0.715453  0.882218  1
  H  H8  1  0.429412  0.911518  0.851967  1
  H  H9  1  0.944684  0.414489  0.843183  1
  H  H10  1  0.210600  0.284547  0.117782  1
  H  H11  1  0.789400  0.784547  0.382218  1
  H  H12  1  0.570588  0.411518  0.648033  1
  H  H13  1  0.429412  0.588482  0.351967  1
  H  H14  1  0.055316  0.585511  0.156817  1
  H  H15  1  0.322165  0.409796  0.648540  1
  H  H16  1  0.414704  0.508869  0.235109  1
  H  H17  1  0.060524  0.986575  0.770946  1
  H  H18  1  0.677835  0.909796  0.851460  1
  H  H19  1  0.939476  0.486575  0.729054  1
  H  H20  1  0.939476  0.013425  0.229054  1
  H  H21  1  0.322165  0.090204  0.148540  1
  H  H22  1  0.585296  0.008869  0.264891  1
  H  H23  1  0.055316  0.914489  0.656817  1
  H  H24  1  0.414704  0.991131  0.735109  1
  H  H25  1  0.585296  0.491131  0.764891  1
  H  H26  1  0.570588  0.088482  0.148033  1
  H  H27  1  0.210600  0.215453  0.617782  1
  H  H28  1  0.060524  0.513425  0.270946  1
  H  H29  1  0.677835  0.590204  0.351460  1
  C  C30  1  0.227961  0.679996  0.044394  1
  C  C31  1  0.255951  0.688425  0.458349  1
  C  C32  1  0.227961  0.820004  0.544394  1
  C  C33  1  0.744049  0.188425  0.041651  1
  C  C34  1  0.772039  0.179996  0.455606  1
  C  C35  1  0.744049  0.311575  0.541651  1
  C  C36  1  0.255951  0.811575  0.958349  1
  C  C37  1  0.772039  0.320004  0.955606  1
  O  O38  1  0.162638  0.533624  0.425307  1
  O  O39  1  0.837362  0.466376  0.574693  1
  O  O40  1  0.000374  0.005174  0.688450  1
  O  O41  1  0.516988  0.502961  0.681764  1
  O  O42  1  0.681034  0.472042  0.917724  1
  O  O43  1  0.632312  0.259969  0.571166  1
  O  O44  1  0.206913  0.354472  0.635653  1
  O  O45  1  0.367688  0.740031  0.428834  1
  O  O46  1  0.793087  0.645528  0.364347  1
  O  O47  1  0.632312  0.240031  0.071166  1
  O  O48  1  0.516988  0.997039  0.181764  1
  O  O49  1  0.681034  0.027958  0.417724  1
  O  O50  1  0.837362  0.033624  0.074693  1
  O  O51  1  0.483012  0.002961  0.818236  1
  O  O52  1  0.162638  0.966376  0.925307  1
  O  O53  1  0.206913  0.145528  0.135653  1
  O  O54  1  0.793087  0.854472  0.864347  1
  O  O55  1  0.886573  0.260669  0.928144  1
  O  O56  1  0.318966  0.527958  0.082276  1
  O  O57  1  0.367688  0.759969  0.928834  1
  O  O58  1  0.113427  0.739331  0.071856  1
  O  O59  1  0.886573  0.239331  0.428144  1
  O  O60  1  0.000374  0.494826  0.188450  1
  O  O61  1  0.318966  0.972042  0.582276  1
  O  O62  1  0.483012  0.497039  0.318236  1
  O  O63  1  0.113427  0.760669  0.571856  1
  O  O64  1  0.999626  0.505174  0.811550  1
  O  O65  1  0.999626  0.994826  0.311550  1
