# generated using pymatgen
data_K5NaS4(ClO6)2
_symmetry_space_group_name_H-M   'P 1'
_cell_length_a   8.74199239
_cell_length_b   8.74199239
_cell_length_c   11.77411497
_cell_angle_alpha   90.00000000
_cell_angle_beta   90.00000000
_cell_angle_gamma   90.00000000
_symmetry_Int_Tables_number   1
_chemical_formula_structural   K5NaS4(ClO6)2
_chemical_formula_sum   'K10 Na2 S8 Cl4 O24'
_cell_volume   899.80648825
_cell_formula_units_Z   2
loop_
 _symmetry_equiv_pos_site_id
 _symmetry_equiv_pos_as_xyz
  1  'x, y, z'
loop_
 _atom_site_type_symbol
 _atom_site_label
 _atom_site_symmetry_multiplicity
 _atom_site_fract_x
 _atom_site_fract_y
 _atom_site_fract_z
 _atom_site_occupancy
  K  K0  1  0.000000  0.000000  0.500000  1
  K  K1  1  0.500000  0.500000  0.000000  1
  K  K2  1  0.811581  0.688419  0.250000  1
  K  K3  1  0.188419  0.311581  0.250000  1
  K  K4  1  0.688419  0.188419  0.750000  1
  K  K5  1  0.311581  0.811581  0.750000  1
  K  K6  1  0.688419  0.188419  0.250000  1
  K  K7  1  0.311581  0.811581  0.250000  1
  K  K8  1  0.188419  0.311581  0.750000  1
  K  K9  1  0.811581  0.688419  0.750000  1
  Na  Na10  1  0.500000  0.500000  0.500000  1
  Na  Na11  1  0.000000  0.000000  0.000000  1
  S  S12  1  0.574583  0.900264  0.500000  1
  S  S13  1  0.425417  0.099736  0.500000  1
  S  S14  1  0.925417  0.400264  0.000000  1
  S  S15  1  0.074583  0.599736  0.000000  1
  S  S16  1  0.900264  0.425417  0.500000  1
  S  S17  1  0.099736  0.574583  0.500000  1
  S  S18  1  0.400264  0.074583  0.000000  1
  S  S19  1  0.599736  0.925417  0.000000  1
  Cl  Cl20  1  0.500000  0.500000  0.264040  1
  Cl  Cl21  1  0.000000  0.000000  0.764040  1
  Cl  Cl22  1  0.500000  0.500000  0.735960  1
  Cl  Cl23  1  0.000000  0.000000  0.235960  1
  O  O24  1  0.771478  0.533135  0.500000  1
  O  O25  1  0.228522  0.466865  0.500000  1
  O  O26  1  0.728522  0.033135  0.000000  1
  O  O27  1  0.271478  0.966865  0.000000  1
  O  O28  1  0.533135  0.228522  0.500000  1
  O  O29  1  0.466865  0.771478  0.500000  1
  O  O30  1  0.033135  0.271478  0.000000  1
  O  O31  1  0.966865  0.728522  0.000000  1
  O  O32  1  0.084517  0.665794  0.395341  1
  O  O33  1  0.915483  0.334206  0.395341  1
  O  O34  1  0.415483  0.165794  0.895341  1
  O  O35  1  0.584517  0.834206  0.895341  1
  O  O36  1  0.665794  0.915483  0.395341  1
  O  O37  1  0.334206  0.084517  0.395341  1
  O  O38  1  0.165794  0.584517  0.895341  1
  O  O39  1  0.834206  0.415483  0.895341  1
  O  O40  1  0.915483  0.334206  0.604659  1
  O  O41  1  0.084517  0.665794  0.604659  1
  O  O42  1  0.584517  0.834206  0.104659  1
  O  O43  1  0.415483  0.165794  0.104659  1
  O  O44  1  0.334206  0.084517  0.604659  1
  O  O45  1  0.665794  0.915483  0.604659  1
  O  O46  1  0.834206  0.415483  0.104659  1
  O  O47  1  0.165794  0.584517  0.104659  1
