# generated using pymatgen
data_KGaCuF6
_symmetry_space_group_name_H-M   'P 1'
_cell_length_a   6.83186501
_cell_length_b   10.11537270
_cell_length_c   7.43523158
_cell_angle_alpha   90.00000000
_cell_angle_beta   94.37986756
_cell_angle_gamma   90.00000000
_symmetry_Int_Tables_number   1
_chemical_formula_structural   KGaCuF6
_chemical_formula_sum   'K4 Ga4 Cu4 F24'
_cell_volume   512.32496260
_cell_formula_units_Z   4
loop_
 _symmetry_equiv_pos_site_id
 _symmetry_equiv_pos_as_xyz
  1  'x, y, z'
loop_
 _atom_site_type_symbol
 _atom_site_label
 _atom_site_symmetry_multiplicity
 _atom_site_fract_x
 _atom_site_fract_y
 _atom_site_fract_z
 _atom_site_occupancy
  K  K0  1  0.500225  0.115866  0.758980  1
  K  K1  1  0.499775  0.884134  0.241020  1
  K  K2  1  0.999775  0.615866  0.241020  1
  K  K3  1  0.000225  0.384134  0.758980  1
  Ga  Ga4  1  0.000000  0.000000  0.500000  1
  Ga  Ga5  1  0.500000  0.500000  0.000000  1
  Ga  Ga6  1  0.000000  0.000000  0.000000  1
  Ga  Ga7  1  0.500000  0.500000  0.500000  1
  Cu  Cu8  1  0.183986  0.732997  0.742556  1
  Cu  Cu9  1  0.316014  0.232997  0.257444  1
  Cu  Cu10  1  0.816014  0.267003  0.257444  1
  Cu  Cu11  1  0.683986  0.767003  0.742556  1
  F  F12  1  0.749140  0.942512  0.551155  1
  F  F13  1  0.915272  0.979230  0.245102  1
  F  F14  1  0.098230  0.819541  0.510232  1
  F  F15  1  0.864370  0.160222  0.971892  1
  F  F16  1  0.135630  0.839778  0.028108  1
  F  F17  1  0.077132  0.331966  0.245121  1
  F  F18  1  0.584728  0.479230  0.754898  1
  F  F19  1  0.415272  0.520770  0.245102  1
  F  F20  1  0.249140  0.557488  0.551155  1
  F  F21  1  0.250860  0.057488  0.448845  1
  F  F22  1  0.364370  0.339778  0.971892  1
  F  F23  1  0.401770  0.319541  0.489768  1
  F  F24  1  0.577132  0.168034  0.245121  1
  F  F25  1  0.635630  0.660222  0.028108  1
  F  F26  1  0.741071  0.407881  0.076551  1
  F  F27  1  0.084728  0.020770  0.754898  1
  F  F28  1  0.901770  0.180459  0.489768  1
  F  F29  1  0.598230  0.680459  0.510232  1
  F  F30  1  0.422868  0.831966  0.754879  1
  F  F31  1  0.241071  0.092119  0.076551  1
  F  F32  1  0.922868  0.668034  0.754879  1
  F  F33  1  0.258929  0.592119  0.923449  1
  F  F34  1  0.758929  0.907881  0.923449  1
  F  F35  1  0.750860  0.442512  0.448845  1
