# generated using pymatgen
data_V2Ga8Cu3
_symmetry_space_group_name_H-M   'P 1'
_cell_length_a   10.24841307
_cell_length_b   10.24841307
_cell_length_c   10.24841307
_cell_angle_alpha   109.47122063
_cell_angle_beta   109.47122063
_cell_angle_gamma   109.47122063
_symmetry_Int_Tables_number   1
_chemical_formula_structural   V2Ga8Cu3
_chemical_formula_sum   'V8 Ga32 Cu12'
_cell_volume   828.60581043
_cell_formula_units_Z   4
loop_
 _symmetry_equiv_pos_site_id
 _symmetry_equiv_pos_as_xyz
  1  'x, y, z'
loop_
 _atom_site_type_symbol
 _atom_site_label
 _atom_site_symmetry_multiplicity
 _atom_site_fract_x
 _atom_site_fract_y
 _atom_site_fract_z
 _atom_site_occupancy
  V  V0  1  0.500000  1.000000  0.024213  1
  V  V1  1  0.524213  0.500000  0.000000  1
  V  V2  1  1.000000  0.024213  0.500000  1
  V  V3  1  0.500000  1.000000  0.524213  1
  V  V4  1  1.000000  0.524213  0.500000  1
  V  V5  1  0.475787  0.475787  0.475787  1
  V  V6  1  0.024213  0.500000  1.000000  1
  V  V7  1  0.975787  0.975787  0.975787  1
  Ga  Ga8  1  0.996358  0.742161  0.006135  1
  Ga  Ga9  1  0.773399  0.500000  0.000000  1
  Ga  Ga10  1  0.506135  0.242161  0.496358  1
  Ga  Ga11  1  0.003642  0.245803  0.009777  1
  Ga  Ga12  1  0.763974  0.254197  0.257839  1
  Ga  Ga13  1  0.490223  0.736026  0.993865  1
  Ga  Ga14  1  0.496358  0.506135  0.242161  1
  Ga  Ga15  1  1.000000  0.773399  0.500000  1
  Ga  Ga16  1  0.990223  0.493865  0.236026  1
  Ga  Ga17  1  0.754197  0.263974  0.757839  1
  Ga  Ga18  1  0.242161  0.496358  0.506135  1
  Ga  Ga19  1  0.226600  0.226600  0.226600  1
  Ga  Ga20  1  0.254197  0.257839  0.763974  1
  Ga  Ga21  1  0.009777  0.003642  0.245803  1
  Ga  Ga22  1  0.273399  0.500000  0.000000  1
  Ga  Ga23  1  0.745803  0.503642  0.509777  1
  Ga  Ga24  1  0.726600  0.726600  0.726601  1
  Ga  Ga25  1  0.742161  0.006135  0.996358  1
  Ga  Ga26  1  0.493865  0.236026  0.990223  1
  Ga  Ga27  1  0.257839  0.763974  0.254197  1
  Ga  Ga28  1  0.736026  0.993865  0.490223  1
  Ga  Ga29  1  0.236026  0.990223  0.493865  1
  Ga  Ga30  1  0.500000  1.000000  0.773400  1
  Ga  Ga31  1  0.993865  0.490223  0.736026  1
  Ga  Ga32  1  0.757839  0.754197  0.263974  1
  Ga  Ga33  1  0.503642  0.509777  0.745803  1
  Ga  Ga34  1  0.500000  1.000000  0.273400  1
  Ga  Ga35  1  1.000000  0.273399  0.500000  1
  Ga  Ga36  1  0.263974  0.757839  0.754197  1
  Ga  Ga37  1  0.245803  0.009777  0.003642  1
  Ga  Ga38  1  0.509777  0.745803  0.503642  1
  Ga  Ga39  1  0.006135  0.996358  0.742161  1
  Cu  Cu40  1  0.250000  0.745237  0.495237  1
  Cu  Cu41  1  0.254763  0.250000  0.504763  1
  Cu  Cu42  1  0.750000  0.754763  0.004763  1
  Cu  Cu43  1  0.495237  0.250000  0.745237  1
  Cu  Cu44  1  0.745237  0.495237  0.250000  1
  Cu  Cu45  1  0.754763  0.004763  0.750000  1
  Cu  Cu46  1  0.004763  0.750000  0.754763  1
  Cu  Cu47  1  0.245237  0.750000  0.995237  1
  Cu  Cu48  1  0.504763  0.254763  0.250000  1
  Cu  Cu49  1  0.995237  0.245237  0.750000  1
  Cu  Cu50  1  0.750000  0.995237  0.245237  1
  Cu  Cu51  1  0.250000  0.504763  0.254763  1
