# generated using pymatgen
data_FeP2O7
_symmetry_space_group_name_H-M   'P 1'
_cell_length_a   8.74553748
_cell_length_b   5.15270197
_cell_length_c   13.68227783
_cell_angle_alpha   90.00000000
_cell_angle_beta   115.54379466
_cell_angle_gamma   90.00000000
_symmetry_Int_Tables_number   1
_chemical_formula_structural   FeP2O7
_chemical_formula_sum   'Fe4 P8 O28'
_cell_volume   556.30080843
_cell_formula_units_Z   4
loop_
 _symmetry_equiv_pos_site_id
 _symmetry_equiv_pos_as_xyz
  1  'x, y, z'
loop_
 _atom_site_type_symbol
 _atom_site_label
 _atom_site_symmetry_multiplicity
 _atom_site_fract_x
 _atom_site_fract_y
 _atom_site_fract_z
 _atom_site_occupancy
  Fe  Fe0  1  0.767051  0.745717  0.025242  1
  Fe  Fe1  1  0.767051  0.754283  0.525242  1
  Fe  Fe2  1  0.232949  0.245717  0.474758  1
  Fe  Fe3  1  0.232949  0.254283  0.974758  1
  P  P4  1  0.186408  0.746137  0.118754  1
  P  P5  1  0.665432  0.244556  0.137076  1
  P  P6  1  0.813592  0.246137  0.381246  1
  P  P7  1  0.334568  0.744556  0.362924  1
  P  P8  1  0.665432  0.255444  0.637076  1
  P  P9  1  0.186408  0.753863  0.618754  1
  P  P10  1  0.334568  0.755444  0.862924  1
  P  P11  1  0.813592  0.253863  0.881246  1
  O  O12  1  0.252922  0.932531  0.059929  1
  O  O13  1  0.190667  0.465164  0.084039  1
  O  O14  1  0.481921  0.315296  0.062761  1
  O  O15  1  0.709124  0.962067  0.127327  1
  O  O16  1  0.783690  0.439197  0.120618  1
  O  O17  1  0.012968  0.817270  0.112382  1
  O  O18  1  0.322036  0.774719  0.243152  1
  O  O19  1  0.677964  0.274719  0.256848  1
  O  O20  1  0.518079  0.815296  0.437239  1
  O  O21  1  0.809333  0.965164  0.415961  1
  O  O22  1  0.987032  0.317270  0.387618  1
  O  O23  1  0.747078  0.432531  0.440071  1
  O  O24  1  0.216310  0.939197  0.379382  1
  O  O25  1  0.290876  0.462067  0.372673  1
  O  O26  1  0.709124  0.537933  0.627327  1
  O  O27  1  0.783690  0.060803  0.620618  1
  O  O28  1  0.252922  0.567469  0.559929  1
  O  O29  1  0.012968  0.682730  0.612382  1
  O  O30  1  0.190667  0.034836  0.584039  1
  O  O31  1  0.481921  0.184704  0.562761  1
  O  O32  1  0.322036  0.725281  0.743152  1
  O  O33  1  0.677964  0.225281  0.756848  1
  O  O34  1  0.987032  0.182730  0.887618  1
  O  O35  1  0.216310  0.560803  0.879382  1
  O  O36  1  0.290876  0.037933  0.872673  1
  O  O37  1  0.518079  0.684704  0.937239  1
  O  O38  1  0.809333  0.534836  0.915961  1
  O  O39  1  0.747078  0.067469  0.940071  1
