# generated using pymatgen
data_Li2Mo4O13
_symmetry_space_group_name_H-M   'P 1'
_cell_length_a   8.39412047
_cell_length_b   8.76748376
_cell_length_c   11.86346480
_cell_angle_alpha   110.95214466
_cell_angle_beta   94.44961563
_cell_angle_gamma   96.32477593
_symmetry_Int_Tables_number   1
_chemical_formula_structural   Li2Mo4O13
_chemical_formula_sum   'Li6 Mo12 O39'
_cell_volume   803.94176994
_cell_formula_units_Z   3
loop_
 _symmetry_equiv_pos_site_id
 _symmetry_equiv_pos_as_xyz
  1  'x, y, z'
loop_
 _atom_site_type_symbol
 _atom_site_label
 _atom_site_symmetry_multiplicity
 _atom_site_fract_x
 _atom_site_fract_y
 _atom_site_fract_z
 _atom_site_occupancy
  Li  Li0  1  0.692124  0.661750  0.374893  1
  Li  Li1  1  0.307876  0.338250  0.625107  1
  Li  Li2  1  0.706392  0.487028  0.989341  1
  Li  Li3  1  0.293608  0.512972  0.010659  1
  Li  Li4  1  0.896442  0.383128  0.629518  1
  Li  Li5  1  0.103558  0.616872  0.370482  1
  Mo  Mo6  1  0.028299  0.800789  0.036382  1
  Mo  Mo7  1  0.971701  0.199211  0.963618  1
  Mo  Mo8  1  0.633891  0.819613  0.035042  1
  Mo  Mo9  1  0.366109  0.180387  0.964958  1
  Mo  Mo10  1  0.773273  0.311785  0.365686  1
  Mo  Mo11  1  0.226727  0.688215  0.634314  1
  Mo  Mo12  1  0.378745  0.333504  0.363109  1
  Mo  Mo13  1  0.621255  0.666496  0.636891  1
  Mo  Mo14  1  0.584143  0.035166  0.636638  1
  Mo  Mo15  1  0.415857  0.964834  0.363362  1
  Mo  Mo16  1  0.972646  0.018612  0.635284  1
  Mo  Mo17  1  0.027354  0.981388  0.364716  1
  O  O18  1  0.936166  0.272745  0.805207  1
  O  O19  1  0.063834  0.727255  0.194793  1
  O  O20  1  0.981496  0.917447  0.790604  1
  O  O21  1  0.018504  0.082553  0.209396  1
  O  O22  1  0.889175  0.813635  0.380672  1
  O  O23  1  0.110825  0.186365  0.619328  1
  O  O24  1  0.500000  0.000000  0.000000  1
  O  O25  1  0.492842  0.679489  0.996382  1
  O  O26  1  0.507158  0.320511  0.003618  1
  O  O27  1  0.402855  0.571622  0.616312  1
  O  O28  1  0.597145  0.428378  0.383688  1
  O  O29  1  0.438970  0.865391  0.601302  1
  O  O30  1  0.561030  0.134609  0.398698  1
  O  O31  1  0.452695  0.201606  0.580844  1
  O  O32  1  0.547305  0.798394  0.419156  1
  O  O33  1  0.393610  0.028466  0.207143  1
  O  O34  1  0.606390  0.971534  0.792857  1
  O  O35  1  0.341132  0.416229  0.206218  1
  O  O36  1  0.658868  0.583771  0.793782  1
  O  O37  1  0.344821  0.254944  0.807273  1
  O  O38  1  0.655179  0.745056  0.192727  1
  O  O39  1  0.240904  0.629939  0.789113  1
  O  O40  1  0.759096  0.370061  0.210887  1
  O  O41  1  0.214417  0.828461  0.407680  1
  O  O42  1  0.785583  0.171539  0.592320  1
  O  O43  1  0.258726  0.120931  0.389489  1
  O  O44  1  0.741274  0.879069  0.610511  1
  O  O45  1  0.266764  0.447046  0.413648  1
  O  O46  1  0.733236  0.552954  0.586352  1
  O  O47  1  0.151714  0.009842  0.991562  1
  O  O48  1  0.848286  0.990158  0.008438  1
  O  O49  1  0.189270  0.291645  0.993547  1
  O  O50  1  0.810730  0.708355  0.006453  1
  O  O51  1  0.137087  0.674361  0.997757  1
  O  O52  1  0.862913  0.325639  0.002243  1
  O  O53  1  0.083673  0.548518  0.596845  1
  O  O54  1  0.916327  0.451482  0.403155  1
  O  O55  1  0.087484  0.881310  0.581926  1
  O  O56  1  0.912516  0.118690  0.418074  1
