# generated using pymatgen
data_NpV4O12
_symmetry_space_group_name_H-M   'P 1'
_cell_length_a   15.83664345
_cell_length_b   15.83664345
_cell_length_c   15.83664345
_cell_angle_alpha   148.24106836
_cell_angle_beta   148.24106836
_cell_angle_gamma   45.52962595
_symmetry_Int_Tables_number   1
_chemical_formula_structural   NpV4O12
_chemical_formula_sum   'Np4 V16 O48'
_cell_volume   1096.74629446
_cell_formula_units_Z   4
loop_
 _symmetry_equiv_pos_site_id
 _symmetry_equiv_pos_as_xyz
  1  'x, y, z'
loop_
 _atom_site_type_symbol
 _atom_site_label
 _atom_site_symmetry_multiplicity
 _atom_site_fract_x
 _atom_site_fract_y
 _atom_site_fract_z
 _atom_site_occupancy
  Np  Np0  1  0.500000  0.000000  0.500000  1
  Np  Np1  1  0.250000  0.250000  0.000000  1
  Np  Np2  1  0.750000  0.750000  0.000000  1
  Np  Np3  1  0.000000  0.500000  0.500000  1
  V  V4  1  0.678108  0.179904  0.211212  1
  V  V5  1  0.820096  0.031308  0.498204  1
  V  V6  1  0.468692  0.679904  0.501796  1
  V  V7  1  0.178108  0.966895  0.498204  1
  V  V8  1  0.929904  0.218692  0.001796  1
  V  V9  1  0.781308  0.783105  0.711212  1
  V  V10  1  0.071892  0.070096  0.288788  1
  V  V11  1  0.281308  0.570096  0.998204  1
  V  V12  1  0.716895  0.718692  0.288788  1
  V  V13  1  0.968692  0.466895  0.788788  1
  V  V14  1  0.429904  0.428108  0.711212  1
  V  V15  1  0.320096  0.821892  0.788788  1
  V  V16  1  0.571892  0.283105  0.001796  1
  V  V17  1  0.033105  0.531308  0.211212  1
  V  V18  1  0.533105  0.321892  0.501796  1
  V  V19  1  0.216895  0.928108  0.998204  1
  O  O20  1  0.435594  0.375000  0.560594  1
  O  O21  1  0.914565  0.914565  0.000000  1
  O  O22  1  0.516038  0.215835  0.161738  1
  O  O23  1  0.604300  0.804097  0.338262  1
  O  O24  1  0.358518  0.986335  0.241923  1
  O  O25  1  0.695903  0.895700  0.661738  1
  O  O26  1  0.085435  0.085435  0.000000  1
  O  O27  1  0.391482  0.263665  0.258077  1
  O  O28  1  0.835435  0.335435  0.500000  1
  O  O29  1  0.744412  0.116595  0.758077  1
  O  O30  1  0.284165  0.983962  0.838262  1
  O  O31  1  0.195903  0.534165  0.800203  1
  O  O32  1  0.883405  0.641482  0.627817  1
  O  O33  1  0.733962  0.395700  0.199797  1
  O  O34  1  0.236335  0.108518  0.741923  1
  O  O35  1  0.554097  0.715835  0.699797  1
  O  O36  1  0.414565  0.414565  0.000000  1
  O  O37  1  0.465835  0.266038  0.661738  1
  O  O38  1  0.645700  0.483962  0.699797  1
  O  O39  1  0.314406  0.875000  0.939406  1
  O  O40  1  0.104300  0.766038  0.800203  1
  O  O41  1  0.965835  0.304097  0.199797  1
  O  O42  1  0.005588  0.133405  0.741923  1
  O  O43  1  0.505588  0.763665  0.872183  1
  O  O44  1  0.335435  0.835435  0.500000  1
  O  O45  1  0.244412  0.486335  0.627817  1
  O  O46  1  0.625000  0.685594  0.560594  1
  O  O47  1  0.866595  0.608518  0.872183  1
  O  O48  1  0.736335  0.994412  0.127817  1
  O  O49  1  0.513665  0.141482  0.758077  1
  O  O50  1  0.814406  0.875000  0.439406  1
  O  O51  1  0.164565  0.664565  0.500000  1
  O  O52  1  0.585435  0.585435  0.000000  1
  O  O53  1  0.145700  0.445903  0.161738  1
  O  O54  1  0.054097  0.354300  0.838262  1
  O  O55  1  0.366595  0.494412  0.258077  1
  O  O56  1  0.125000  0.564406  0.939406  1
  O  O57  1  0.784165  0.945903  0.300203  1
  O  O58  1  0.935594  0.375000  0.060594  1
  O  O59  1  0.013665  0.255588  0.372183  1
  O  O60  1  0.383405  0.755588  0.241923  1
  O  O61  1  0.016038  0.854300  0.300203  1
  O  O62  1  0.891482  0.633405  0.127817  1
  O  O63  1  0.858518  0.616595  0.372183  1
  O  O64  1  0.625000  0.185594  0.060594  1
  O  O65  1  0.233962  0.034165  0.338262  1
  O  O66  1  0.125000  0.064406  0.439406  1
  O  O67  1  0.664565  0.164565  0.500000  1
