# generated using pymatgen
data_KAu(IO3)4
_symmetry_space_group_name_H-M   'P 1'
_cell_length_a   5.90511371
_cell_length_b   7.41267530
_cell_length_c   8.24552607
_cell_angle_alpha   104.96433322
_cell_angle_beta   93.78116707
_cell_angle_gamma   112.43619639
_symmetry_Int_Tables_number   1
_chemical_formula_structural   KAu(IO3)4
_chemical_formula_sum   'K1 Au1 I4 O12'
_cell_volume   316.77892755
_cell_formula_units_Z   1
loop_
 _symmetry_equiv_pos_site_id
 _symmetry_equiv_pos_as_xyz
  1  'x, y, z'
loop_
 _atom_site_type_symbol
 _atom_site_label
 _atom_site_symmetry_multiplicity
 _atom_site_fract_x
 _atom_site_fract_y
 _atom_site_fract_z
 _atom_site_occupancy
  K  K0  1  0.190925  0.099341  0.885442  1
  Au  Au1  1  0.415277  0.097414  0.373564  1
  I  I2  1  0.501293  0.789335  0.584505  1
  I  I3  1  0.882832  0.402787  0.235411  1
  I  I4  1  0.806620  0.444348  0.744382  1
  I  I5  1  0.503993  0.743100  0.065490  1
  O  O6  1  0.353913  0.781135  0.771562  1
  O  O7  1  0.480293  0.298575  0.607555  1
  O  O8  1  0.266265  0.863485  0.472425  1
  O  O9  1  0.818361  0.694951  0.751183  1
  O  O10  1  0.759517  0.041331  0.661005  1
  O  O11  1  0.865404  0.153495  0.118982  1
  O  O12  1  0.222874  0.504080  0.003441  1
  O  O13  1  0.641298  0.755188  0.273897  1
  O  O14  1  0.682450  0.429045  0.939960  1
  O  O15  1  0.313779  0.901728  0.134613  1
  O  O16  1  0.545756  0.331159  0.271452  1
  O  O17  1  0.027150  0.430244  0.448761  1
