# generated using pymatgen
data_Bi(BO2)3
_symmetry_space_group_name_H-M   'P 1'
_cell_length_a   4.46702893
_cell_length_b   6.80702341
_cell_length_c   14.11378038
_cell_angle_alpha   90.00000000
_cell_angle_beta   95.40258471
_cell_angle_gamma   90.00000000
_symmetry_Int_Tables_number   1
_chemical_formula_structural   Bi(BO2)3
_chemical_formula_sum   'Bi4 B12 O24'
_cell_volume   427.25367643
_cell_formula_units_Z   4
loop_
 _symmetry_equiv_pos_site_id
 _symmetry_equiv_pos_as_xyz
  1  'x, y, z'
loop_
 _atom_site_type_symbol
 _atom_site_label
 _atom_site_symmetry_multiplicity
 _atom_site_fract_x
 _atom_site_fract_y
 _atom_site_fract_z
 _atom_site_occupancy
  Bi  Bi0  1  0.220040  0.798803  0.568704  1
  Bi  Bi1  1  0.779960  0.201197  0.431296  1
  Bi  Bi2  1  0.779960  0.298803  0.931296  1
  Bi  Bi3  1  0.220040  0.701197  0.068704  1
  B  B4  1  0.170431  0.186993  0.747550  1
  B  B5  1  0.829569  0.813007  0.252450  1
  B  B6  1  0.120333  0.916468  0.859707  1
  B  B7  1  0.170431  0.313007  0.247550  1
  B  B8  1  0.343661  0.243531  0.088223  1
  B  B9  1  0.829569  0.686993  0.752450  1
  B  B10  1  0.879667  0.083532  0.140293  1
  B  B11  1  0.879667  0.416468  0.640293  1
  B  B12  1  0.120333  0.583532  0.359707  1
  B  B13  1  0.656339  0.756469  0.911777  1
  B  B14  1  0.656339  0.743531  0.411777  1
  B  B15  1  0.343661  0.256469  0.588223  1
  O  O16  1  0.658545  0.191523  0.073973  1
  O  O17  1  0.842414  0.567164  0.406847  1
  O  O18  1  0.229220  0.383526  0.340598  1
  O  O19  1  0.157586  0.432836  0.593153  1
  O  O20  1  0.657649  0.864828  0.323972  1
  O  O21  1  0.341455  0.808477  0.926027  1
  O  O22  1  0.937924  0.182844  0.233284  1
  O  O23  1  0.761548  0.628016  0.994364  1
  O  O24  1  0.842414  0.932836  0.906847  1
  O  O25  1  0.342351  0.364828  0.176028  1
  O  O26  1  0.341455  0.691523  0.426027  1
  O  O27  1  0.770780  0.883526  0.159402  1
  O  O28  1  0.342351  0.135172  0.676028  1
  O  O29  1  0.657649  0.635172  0.823972  1
  O  O30  1  0.062076  0.682844  0.266716  1
  O  O31  1  0.238452  0.128016  0.505636  1
  O  O32  1  0.238452  0.371984  0.005636  1
  O  O33  1  0.761548  0.871984  0.494364  1
  O  O34  1  0.229220  0.116474  0.840598  1
  O  O35  1  0.157586  0.067164  0.093153  1
  O  O36  1  0.937924  0.317156  0.733284  1
  O  O37  1  0.062076  0.817156  0.766716  1
  O  O38  1  0.658545  0.308477  0.573973  1
  O  O39  1  0.770780  0.616474  0.659402  1
