# generated using pymatgen
data_Er3(CuSi)4
_symmetry_space_group_name_H-M   'P 1'
_cell_length_a   7.81160253
_cell_length_b   7.81160253
_cell_length_c   7.81160253
_cell_angle_alpha   149.47792029
_cell_angle_beta   130.72320536
_cell_angle_gamma   59.08012222
_symmetry_Int_Tables_number   1
_chemical_formula_structural   Er3(CuSi)4
_chemical_formula_sum   'Er3 Cu4 Si4'
_cell_volume   182.02911590
_cell_formula_units_Z   1
loop_
 _symmetry_equiv_pos_site_id
 _symmetry_equiv_pos_as_xyz
  1  'x, y, z'
loop_
 _atom_site_type_symbol
 _atom_site_label
 _atom_site_symmetry_multiplicity
 _atom_site_fract_x
 _atom_site_fract_y
 _atom_site_fract_z
 _atom_site_occupancy
  Er  Er0  1  0.871670  0.871670  0.000000  1
  Er  Er1  1  0.128330  0.128330  0.000000  1
  Er  Er2  1  0.500000  0.000000  0.500000  1
  Cu  Cu3  1  0.140486  0.331730  0.808756  1
  Cu  Cu4  1  0.477026  0.668270  0.808756  1
  Cu  Cu5  1  0.522974  0.331730  0.191244  1
  Cu  Cu6  1  0.859514  0.668270  0.191244  1
  Si  Si7  1  0.184724  0.500000  0.684724  1
  Si  Si8  1  0.815276  0.500000  0.315276  1
  Si  Si9  1  0.284287  0.784287  0.500000  1
  Si  Si10  1  0.715713  0.215713  0.500000  1
