# generated using pymatgen
data_BaMo4(PO8)2
_symmetry_space_group_name_H-M   'P 1'
_cell_length_a   7.85067322
_cell_length_b   7.85067322
_cell_length_c   7.85067322
_cell_angle_alpha   122.09800144
_cell_angle_beta   122.09800144
_cell_angle_gamma   86.40301160
_symmetry_Int_Tables_number   1
_chemical_formula_structural   BaMo4(PO8)2
_chemical_formula_sum   'Ba1 Mo4 P2 O16'
_cell_volume   330.58245625
_cell_formula_units_Z   1
loop_
 _symmetry_equiv_pos_site_id
 _symmetry_equiv_pos_as_xyz
  1  'x, y, z'
loop_
 _atom_site_type_symbol
 _atom_site_label
 _atom_site_symmetry_multiplicity
 _atom_site_fract_x
 _atom_site_fract_y
 _atom_site_fract_z
 _atom_site_occupancy
  Ba  Ba0  1  0.000000  0.000000  0.000000  1
  Mo  Mo1  1  0.249494  0.249494  0.755382  1
  Mo  Mo2  1  0.750506  0.505888  0.000000  1
  Mo  Mo3  1  0.494112  0.494112  0.244618  1
  Mo  Mo4  1  0.505888  0.750506  0.000000  1
  P  P5  1  0.500000  1.000000  0.500000  1
  P  P6  1  1.000000  0.500000  0.500000  1
  O  O7  1  0.081688  0.081688  0.718843  1
  O  O8  1  0.190336  0.702109  0.738649  1
  O  O9  1  0.543890  0.284409  1.000000  1
  O  O10  1  0.548312  0.809664  0.511773  1
  O  O11  1  0.809664  0.548312  0.511773  1
  O  O12  1  0.297891  0.036539  0.488227  1
  O  O13  1  0.451688  0.963461  0.261351  1
  O  O14  1  0.963461  0.451688  0.261351  1
  O  O15  1  0.715591  0.715591  0.259482  1
  O  O16  1  0.702109  0.190336  0.738649  1
  O  O17  1  0.456110  0.456110  0.740518  1
  O  O18  1  0.362845  0.362845  0.281157  1
  O  O19  1  0.284409  0.543890  0.000000  1
  O  O20  1  0.036539  0.297891  0.488227  1
  O  O21  1  0.918312  0.637155  0.000000  1
  O  O22  1  0.637155  0.918312  0.000000  1
