# generated using pymatgen
data_Ni4(PO4)3
_symmetry_space_group_name_H-M   'P 1'
_cell_length_a   10.30501681
_cell_length_b   10.30501681
_cell_length_c   10.30501681
_cell_angle_alpha   142.59886320
_cell_angle_beta   142.59886320
_cell_angle_gamma   53.92773700
_symmetry_Int_Tables_number   1
_chemical_formula_structural   Ni4(PO4)3
_chemical_formula_sum   'Ni8 P6 O24'
_cell_volume   401.06439781
_cell_formula_units_Z   2
loop_
 _symmetry_equiv_pos_site_id
 _symmetry_equiv_pos_as_xyz
  1  'x, y, z'
loop_
 _atom_site_type_symbol
 _atom_site_label
 _atom_site_symmetry_multiplicity
 _atom_site_fract_x
 _atom_site_fract_y
 _atom_site_fract_z
 _atom_site_occupancy
  Ni  Ni0  1  0.628186  0.125000  0.003186  1
  Ni  Ni1  1  0.875000  0.878186  0.503186  1
  Ni  Ni2  1  0.476939  0.976939  0.500000  1
  Ni  Ni3  1  0.375000  0.371814  0.496814  1
  Ni  Ni4  1  0.023061  0.523061  0.500000  1
  Ni  Ni5  1  0.121814  0.625000  0.996814  1
  Ni  Ni6  1  0.273061  0.273061  0.000000  1
  Ni  Ni7  1  0.726939  0.726939  0.000000  1
  P  P8  1  0.375000  0.974963  0.099963  1
  P  P9  1  0.724963  0.625000  0.599963  1
  P  P10  1  0.250000  0.750000  0.500000  1
  P  P11  1  0.875000  0.275037  0.900037  1
  P  P12  1  0.500000  0.500000  0.000000  1
  P  P13  1  0.025037  0.125000  0.400037  1
  O  O14  1  0.012432  0.763974  0.362343  1
  O  O15  1  0.812660  0.606110  0.796471  1
  O  O16  1  0.348369  0.486026  0.748458  1
  O  O17  1  0.937340  0.233811  0.293450  1
  O  O18  1  0.940361  0.643890  0.706550  1
  O  O19  1  0.171357  0.956644  0.336268  1
  O  O20  1  0.809639  0.016189  0.203529  1
  O  O21  1  0.349911  0.987568  0.751542  1
  O  O22  1  0.356110  0.062660  0.296471  1
  O  O23  1  0.983811  0.187340  0.793450  1
  O  O24  1  0.737568  0.599911  0.251542  1
  O  O25  1  0.043356  0.379624  0.214713  1
  O  O26  1  0.620376  0.835089  0.663732  1
  O  O27  1  0.393890  0.190361  0.206550  1
  O  O28  1  0.236026  0.598369  0.248458  1
  O  O29  1  0.585089  0.870376  0.163732  1
  O  O30  1  0.401631  0.650089  0.637657  1
  O  O31  1  0.578643  0.414911  0.285287  1
  O  O32  1  0.400089  0.651631  0.137657  1
  O  O33  1  0.706644  0.421357  0.836268  1
  O  O34  1  0.129624  0.293356  0.714713  1
  O  O35  1  0.766189  0.059639  0.703529  1
  O  O36  1  0.164911  0.828643  0.785287  1
  O  O37  1  0.513974  0.262432  0.862343  1
