# generated using pymatgen
data_Li5Nb6O18
_symmetry_space_group_name_H-M   'P 1'
_cell_length_a   7.68553180
_cell_length_b   9.07608312
_cell_length_c   11.21764728
_cell_angle_alpha   105.77051815
_cell_angle_beta   95.18177355
_cell_angle_gamma   113.26479609
_symmetry_Int_Tables_number   1
_chemical_formula_structural   Li5Nb6O18
_chemical_formula_sum   'Li10 Nb12 O36'
_cell_volume   674.28631441
_cell_formula_units_Z   2
loop_
 _symmetry_equiv_pos_site_id
 _symmetry_equiv_pos_as_xyz
  1  'x, y, z'
loop_
 _atom_site_type_symbol
 _atom_site_label
 _atom_site_symmetry_multiplicity
 _atom_site_fract_x
 _atom_site_fract_y
 _atom_site_fract_z
 _atom_site_occupancy
  Li  Li0  1  0.699146  0.998200  0.794670  1
  Li  Li1  1  0.373643  0.337823  0.132238  1
  Li  Li2  1  0.870653  0.330503  0.125970  1
  Li  Li3  1  0.200942  0.001517  0.296055  1
  Li  Li4  1  0.037448  0.669638  0.462331  1
  Li  Li5  1  0.539172  0.662985  0.463391  1
  Li  Li6  1  0.375027  0.333738  0.629260  1
  Li  Li7  1  0.872414  0.337622  0.633020  1
  Li  Li8  1  0.038427  0.662371  0.962982  1
  Li  Li9  1  0.537561  0.665909  0.962688  1
  Nb  Nb10  1  0.983434  0.001332  0.016071  1
  Nb  Nb11  1  0.652419  0.322481  0.345876  1
  Nb  Nb12  1  0.974940  0.000710  0.507458  1
  Nb  Nb13  1  0.481798  0.999273  0.515809  1
  Nb  Nb14  1  0.655510  0.333839  0.844555  1
  Nb  Nb15  1  0.149448  0.325232  0.848108  1
  Nb  Nb16  1  0.473823  0.997852  0.006597  1
  Nb  Nb17  1  0.323760  0.673043  0.185710  1
  Nb  Nb18  1  0.822255  0.667424  0.178177  1
  Nb  Nb19  1  0.153916  0.335154  0.347922  1
  Nb  Nb20  1  0.319179  0.664707  0.679811  1
  Nb  Nb21  1  0.826600  0.673616  0.684569  1
  O  O22  1  0.668270  0.205091  0.458616  1
  O  O23  1  0.634156  0.129842  0.685683  1
  O  O24  1  0.334161  0.537175  0.786364  1
  O  O25  1  0.384587  0.271622  0.805463  1
  O  O26  1  0.667321  0.203369  0.949353  1
  O  O27  1  0.292395  0.458622  0.017292  1
  O  O28  1  0.005915  0.871729  0.121275  1
  O  O29  1  0.289704  0.085925  0.018847  1
  O  O30  1  0.044982  0.582751  0.137942  1
  O  O31  1  0.054082  0.214906  0.146535  1
  O  O32  1  0.636852  0.147514  0.176449  1
  O  O33  1  0.339602  0.538330  0.287428  1
  O  O34  1  0.967241  0.799458  0.347843  1
  O  O35  1  0.379422  0.251416  0.305705  1
  O  O36  1  0.960559  0.416110  0.350692  1
  O  O37  1  0.703265  0.913683  0.475289  1
  O  O38  1  0.024283  0.125636  0.375877  1
  O  O39  1  0.715801  0.540909  0.474562  1
  O  O40  1  0.306019  0.466164  0.518674  1
  O  O41  1  0.986378  0.850747  0.601464  1
  O  O42  1  0.291286  0.081764  0.519152  1
  O  O43  1  0.045287  0.586424  0.640336  1
  O  O44  1  0.628000  0.748915  0.680071  1
  O  O45  1  0.046606  0.206911  0.643371  1
  O  O46  1  0.678403  0.454948  0.699851  1
  O  O47  1  0.400924  0.876681  0.813651  1
  O  O48  1  0.961323  0.793439  0.855999  1
  O  O49  1  0.960605  0.415217  0.843223  1
  O  O50  1  0.710304  0.919534  0.979314  1
  O  O51  1  0.994271  0.120487  0.874414  1
  O  O52  1  0.728672  0.548162  0.975453  1
  O  O53  1  0.339882  0.792242  0.040766  1
  O  O54  1  0.612621  0.728169  0.168731  1
  O  O55  1  0.676492  0.457060  0.206036  1
  O  O56  1  0.373630  0.877598  0.313775  1
  O  O57  1  0.338385  0.786482  0.538034  1
