# generated using pymatgen
data_NiTePd
_symmetry_space_group_name_H-M   'P 1'
_cell_length_a   3.81448607
_cell_length_b   6.34589335
_cell_length_c   8.42607321
_cell_angle_alpha   90.00000000
_cell_angle_beta   90.00000000
_cell_angle_gamma   90.00000000
_symmetry_Int_Tables_number   1
_chemical_formula_structural   NiTePd
_chemical_formula_sum   'Ni4 Te4 Pd4'
_cell_volume   203.96423951
_cell_formula_units_Z   4
loop_
 _symmetry_equiv_pos_site_id
 _symmetry_equiv_pos_as_xyz
  1  'x, y, z'
loop_
 _atom_site_type_symbol
 _atom_site_label
 _atom_site_symmetry_multiplicity
 _atom_site_fract_x
 _atom_site_fract_y
 _atom_site_fract_z
 _atom_site_occupancy
  Ni  Ni0  1  0.750000  0.989423  0.395034  1
  Ni  Ni1  1  0.250000  0.489423  0.104966  1
  Ni  Ni2  1  0.750000  0.510577  0.895034  1
  Ni  Ni3  1  0.250000  0.010577  0.604966  1
  Te  Te4  1  0.750000  0.739890  0.156790  1
  Te  Te5  1  0.250000  0.260110  0.843210  1
  Te  Te6  1  0.750000  0.760110  0.656790  1
  Te  Te7  1  0.250000  0.239890  0.343210  1
  Pd  Pd8  1  0.750000  0.346260  0.585738  1
  Pd  Pd9  1  0.750000  0.153740  0.085738  1
  Pd  Pd10  1  0.250000  0.653740  0.414262  1
  Pd  Pd11  1  0.250000  0.846260  0.914262  1
