# generated using pymatgen
data_Fe2(PO4)3
_symmetry_space_group_name_H-M   'P 1'
_cell_length_a   8.94535643
_cell_length_b   8.94535643
_cell_length_c   8.94535643
_cell_angle_alpha   58.61300803
_cell_angle_beta   58.61300803
_cell_angle_gamma   58.61300803
_symmetry_Int_Tables_number   1
_chemical_formula_structural   Fe2(PO4)3
_chemical_formula_sum   'Fe4 P6 O24'
_cell_volume   490.09932546
_cell_formula_units_Z   2
loop_
 _symmetry_equiv_pos_site_id
 _symmetry_equiv_pos_as_xyz
  1  'x, y, z'
loop_
 _atom_site_type_symbol
 _atom_site_label
 _atom_site_symmetry_multiplicity
 _atom_site_fract_x
 _atom_site_fract_y
 _atom_site_fract_z
 _atom_site_occupancy
  Fe  Fe0  1  0.357902  0.357902  0.357902  1
  Fe  Fe1  1  0.857902  0.857902  0.857902  1
  Fe  Fe2  1  0.142098  0.142098  0.142098  1
  Fe  Fe3  1  0.642098  0.642098  0.642098  1
  P  P4  1  0.966104  0.250000  0.533896  1
  P  P5  1  0.533896  0.966104  0.250000  1
  P  P6  1  0.466104  0.033896  0.750000  1
  P  P7  1  0.033896  0.750000  0.466104  1
  P  P8  1  0.250000  0.533896  0.966104  1
  P  P9  1  0.750000  0.466104  0.033896  1
  O  O10  1  0.710036  0.941091  0.078114  1
  O  O11  1  0.863447  0.723612  0.493501  1
  O  O12  1  0.493501  0.863447  0.723612  1
  O  O13  1  0.723612  0.493501  0.863447  1
  O  O14  1  0.136553  0.276388  0.506499  1
  O  O15  1  0.506499  0.136553  0.276388  1
  O  O16  1  0.276388  0.506499  0.136553  1
  O  O17  1  0.078114  0.710036  0.941091  1
  O  O18  1  0.223612  0.363447  0.993501  1
  O  O19  1  0.421886  0.558909  0.789964  1
  O  O20  1  0.941091  0.078114  0.710036  1
  O  O21  1  0.789964  0.421886  0.558909  1
  O  O22  1  0.636553  0.006499  0.776388  1
  O  O23  1  0.558909  0.789964  0.421886  1
  O  O24  1  0.776388  0.636553  0.006499  1
  O  O25  1  0.006499  0.776388  0.636553  1
  O  O26  1  0.993501  0.223612  0.363447  1
  O  O27  1  0.921886  0.289964  0.058909  1
  O  O28  1  0.441091  0.210036  0.578114  1
  O  O29  1  0.363447  0.993501  0.223612  1
  O  O30  1  0.210036  0.578114  0.441091  1
  O  O31  1  0.058909  0.921886  0.289964  1
  O  O32  1  0.578114  0.441091  0.210036  1
  O  O33  1  0.289964  0.058909  0.921886  1
