# generated using pymatgen
data_CsSi2SbO7
_symmetry_space_group_name_H-M   'P 1'
_cell_length_a   7.24026062
_cell_length_b   13.82861089
_cell_length_c   21.34111089
_cell_angle_alpha   90.00000000
_cell_angle_beta   90.00000000
_cell_angle_gamma   90.00000000
_symmetry_Int_Tables_number   1
_chemical_formula_structural   CsSi2SbO7
_chemical_formula_sum   'Cs12 Si24 Sb12 O84'
_cell_volume   2136.73064327
_cell_formula_units_Z   12
loop_
 _symmetry_equiv_pos_site_id
 _symmetry_equiv_pos_as_xyz
  1  'x, y, z'
loop_
 _atom_site_type_symbol
 _atom_site_label
 _atom_site_symmetry_multiplicity
 _atom_site_fract_x
 _atom_site_fract_y
 _atom_site_fract_z
 _atom_site_occupancy
  Cs  Cs0  1  0.224964  0.841503  0.831367  1
  Cs  Cs1  1  0.224964  0.658497  0.331367  1
  Cs  Cs2  1  0.212951  0.866454  0.163609  1
  Cs  Cs3  1  0.712951  0.366454  0.336391  1
  Cs  Cs4  1  0.227984  0.854927  0.507788  1
  Cs  Cs5  1  0.727984  0.354927  0.992212  1
  Cs  Cs6  1  0.724964  0.341503  0.668633  1
  Cs  Cs7  1  0.727984  0.145073  0.492212  1
  Cs  Cs8  1  0.212951  0.633546  0.663609  1
  Cs  Cs9  1  0.227984  0.645073  0.007788  1
  Cs  Cs10  1  0.712951  0.133546  0.836391  1
  Cs  Cs11  1  0.724964  0.158497  0.168633  1
  Si  Si12  1  0.701308  0.639694  0.730595  1
  Si  Si13  1  0.222886  0.380974  0.928193  1
  Si  Si14  1  0.222886  0.119026  0.428193  1
  Si  Si15  1  0.721608  0.850202  0.426743  1
  Si  Si16  1  0.753442  0.652837  0.584228  1
  Si  Si17  1  0.753442  0.847163  0.084228  1
  Si  Si18  1  0.700610  0.862027  0.751226  1
  Si  Si19  1  0.749875  0.627700  0.401285  1
  Si  Si20  1  0.221608  0.149798  0.573257  1
  Si  Si21  1  0.221608  0.350202  0.073257  1
  Si  Si22  1  0.253442  0.152837  0.915772  1
  Si  Si23  1  0.253442  0.347163  0.415772  1
  Si  Si24  1  0.722886  0.619026  0.071807  1
  Si  Si25  1  0.200610  0.362027  0.748774  1
  Si  Si26  1  0.200610  0.137973  0.248774  1
  Si  Si27  1  0.749875  0.872300  0.901285  1
  Si  Si28  1  0.249875  0.127700  0.098715  1
  Si  Si29  1  0.201308  0.139694  0.769405  1
  Si  Si30  1  0.701308  0.860306  0.230595  1
  Si  Si31  1  0.249875  0.372300  0.598715  1
  Si  Si32  1  0.721608  0.649798  0.926743  1
  Si  Si33  1  0.700610  0.637973  0.251226  1
  Si  Si34  1  0.201308  0.360306  0.269405  1
  Si  Si35  1  0.722886  0.880974  0.571807  1
  Sb  Sb36  1  0.996883  0.496012  0.499635  1
  Sb  Sb37  1  0.464497  0.016075  0.668796  1
  Sb  Sb38  1  0.996883  0.003988  0.999635  1
  Sb  Sb39  1  0.464074  0.986644  0.333088  1
  Sb  Sb40  1  0.964497  0.516075  0.831204  1
  Sb  Sb41  1  0.964074  0.486644  0.166912  1
  Sb  Sb42  1  0.964497  0.983925  0.331204  1
  Sb  Sb43  1  0.964074  0.013356  0.666912  1
  Sb  Sb44  1  0.496883  0.503988  0.500365  1
  Sb  Sb45  1  0.464497  0.483925  0.168796  1
  Sb  Sb46  1  0.496883  0.996012  0.000365  1
  Sb  Sb47  1  0.464074  0.513356  0.833088  1
  O  O48  1  0.898953  0.953004  0.583474  1
  O  O49  1  0.782364  0.730257  0.085993  1
  O  O50  1  0.057900  0.426595  0.580174  1
  O  O51  1  0.744464  0.055111  0.010293  1
  O  O52  1  0.025752  0.428696  0.250774  1
  O  O53  1  0.716126  0.075445  0.672781  1
  O  O54  1  0.940027  0.613113  0.550632  1
  O  O55  1  0.744464  0.444889  0.510293  1
  O  O56  1  0.262228  0.234500  0.066354  1
  O  O57  1  0.040558  0.407080  0.887332  1
  O  O58  1  0.282364  0.230257  0.414007  1
  O  O59  1  0.754757  0.885457  0.157487  1
  O  O60  1  0.047368  0.133269  0.620636  1
  O  O61  1  0.884098  0.875944  0.274080  1
  O  O62  1  0.631864  0.752632  0.732865  1
  O  O63  1  0.540558  0.907080  0.612668  1
  O  O64  1  0.558845  0.623318  0.550649  1
  O  O65  1  0.131864  0.252632  0.767135  1
  O  O66  1  0.931692  0.563935  0.419328  1
  O  O67  1  0.540558  0.592920  0.112668  1
  O  O68  1  0.254757  0.385457  0.342513  1
  O  O69  1  0.398953  0.046996  0.416526  1
  O  O70  1  0.214817  0.955271  0.662616  1
  O  O71  1  0.214817  0.544729  0.162616  1
  O  O72  1  0.262228  0.265500  0.566354  1
  O  O73  1  0.431692  0.063935  0.080672  1
  O  O74  1  0.915376  0.597779  0.906738  1
  O  O75  1  0.381500  0.108211  0.289673  1
  O  O76  1  0.762228  0.765500  0.933646  1
  O  O77  1  0.165104  0.389856  0.002827  1
  O  O78  1  0.384098  0.124056  0.725920  1
  O  O79  1  0.762228  0.734500  0.433646  1
  O  O80  1  0.282364  0.269743  0.914007  1
  O  O81  1  0.398953  0.453004  0.916526  1
  O  O82  1  0.881500  0.891789  0.710327  1
  O  O83  1  0.665104  0.889856  0.497173  1
  O  O84  1  0.547368  0.866731  0.379364  1
  O  O85  1  0.758864  0.859139  0.825349  1
  O  O86  1  0.558845  0.876682  0.050649  1
  O  O87  1  0.440027  0.113113  0.949368  1
  O  O88  1  0.244464  0.944889  0.989707  1
  O  O89  1  0.381500  0.391789  0.789673  1
  O  O90  1  0.525752  0.571304  0.749226  1
  O  O91  1  0.131864  0.247368  0.267135  1
  O  O92  1  0.557900  0.573405  0.419826  1
  O  O93  1  0.216126  0.575445  0.827219  1
  O  O94  1  0.058845  0.123318  0.949351  1
  O  O95  1  0.244464  0.555111  0.489707  1
  O  O96  1  0.023961  0.435435  0.755146  1
  O  O97  1  0.714817  0.455271  0.837384  1
  O  O98  1  0.040558  0.092920  0.387332  1
  O  O99  1  0.415376  0.402221  0.093262  1
  O  O100  1  0.047368  0.366731  0.120636  1
  O  O101  1  0.881500  0.608211  0.210327  1
  O  O102  1  0.431692  0.436065  0.580672  1
  O  O103  1  0.023961  0.064565  0.255146  1
  O  O104  1  0.258864  0.359139  0.674651  1
  O  O105  1  0.523961  0.935435  0.744854  1
  O  O106  1  0.258864  0.140861  0.174651  1
  O  O107  1  0.754757  0.614543  0.657487  1
  O  O108  1  0.884098  0.624056  0.774080  1
  O  O109  1  0.216126  0.924555  0.327219  1
  O  O110  1  0.057900  0.073405  0.080174  1
  O  O111  1  0.714817  0.044729  0.337384  1
  O  O112  1  0.631864  0.747368  0.232865  1
  O  O113  1  0.931692  0.936065  0.919328  1
  O  O114  1  0.058845  0.376682  0.449351  1
  O  O115  1  0.782364  0.769743  0.585993  1
  O  O116  1  0.898953  0.546996  0.083474  1
  O  O117  1  0.716126  0.424555  0.172781  1
  O  O118  1  0.547368  0.633269  0.879364  1
  O  O119  1  0.025752  0.071304  0.750774  1
  O  O120  1  0.254757  0.114543  0.842513  1
  O  O121  1  0.665104  0.610144  0.997173  1
  O  O122  1  0.523961  0.564565  0.244854  1
  O  O123  1  0.940027  0.886887  0.050632  1
  O  O124  1  0.525752  0.928696  0.249226  1
  O  O125  1  0.384098  0.375944  0.225920  1
  O  O126  1  0.440027  0.386887  0.449368  1
  O  O127  1  0.915376  0.902221  0.406738  1
  O  O128  1  0.758864  0.640861  0.325349  1
  O  O129  1  0.165104  0.110144  0.502827  1
  O  O130  1  0.557900  0.926595  0.919826  1
  O  O131  1  0.415376  0.097779  0.593262  1
