# generated using pymatgen
data_VAsO5
_symmetry_space_group_name_H-M   'P 1'
_cell_length_a   6.43858030
_cell_length_b   7.50109169
_cell_length_c   7.98035462
_cell_angle_alpha   90.00000000
_cell_angle_beta   90.00000000
_cell_angle_gamma   90.00000000
_symmetry_Int_Tables_number   1
_chemical_formula_structural   VAsO5
_chemical_formula_sum   'V4 As4 O20'
_cell_volume   385.42224871
_cell_formula_units_Z   4
loop_
 _symmetry_equiv_pos_site_id
 _symmetry_equiv_pos_as_xyz
  1  'x, y, z'
loop_
 _atom_site_type_symbol
 _atom_site_label
 _atom_site_symmetry_multiplicity
 _atom_site_fract_x
 _atom_site_fract_y
 _atom_site_fract_z
 _atom_site_occupancy
  V  V0  1  0.250000  0.734864  0.169607  1
  V  V1  1  0.750000  0.234864  0.330393  1
  V  V2  1  0.250000  0.765136  0.669607  1
  V  V3  1  0.750000  0.265136  0.830393  1
  As  As4  1  0.750000  0.614909  0.121251  1
  As  As5  1  0.250000  0.114909  0.378749  1
  As  As6  1  0.750000  0.885091  0.621251  1
  As  As7  1  0.250000  0.385091  0.878749  1
  O  O8  1  0.250000  0.503945  0.062344  1
  O  O9  1  0.750000  0.169757  0.137452  1
  O  O10  1  0.541206  0.755599  0.121532  1
  O  O11  1  0.958794  0.755599  0.121532  1
  O  O12  1  0.250000  0.984534  0.199677  1
  O  O13  1  0.750000  0.484534  0.300323  1
  O  O14  1  0.041206  0.255599  0.378468  1
  O  O15  1  0.458794  0.255599  0.378468  1
  O  O16  1  0.250000  0.669757  0.362548  1
  O  O17  1  0.750000  0.003945  0.437656  1
  O  O18  1  0.250000  0.996055  0.562344  1
  O  O19  1  0.750000  0.330243  0.637452  1
  O  O20  1  0.541206  0.744401  0.621532  1
  O  O21  1  0.958794  0.744401  0.621532  1
  O  O22  1  0.250000  0.515466  0.699677  1
  O  O23  1  0.750000  0.015466  0.800323  1
  O  O24  1  0.041206  0.244401  0.878468  1
  O  O25  1  0.458794  0.244401  0.878468  1
  O  O26  1  0.250000  0.830243  0.862548  1
  O  O27  1  0.750000  0.496055  0.937656  1
