# generated using pymatgen
data_InHg6As4Cl7
_symmetry_space_group_name_H-M   'P 1'
_cell_length_a   12.44144151
_cell_length_b   12.44144151
_cell_length_c   12.44144151
_cell_angle_alpha   90.00000000
_cell_angle_beta   90.00000000
_cell_angle_gamma   90.00000000
_symmetry_Int_Tables_number   1
_chemical_formula_structural   InHg6As4Cl7
_chemical_formula_sum   'In4 Hg24 As16 Cl28'
_cell_volume   1925.80409814
_cell_formula_units_Z   4
loop_
 _symmetry_equiv_pos_site_id
 _symmetry_equiv_pos_as_xyz
  1  'x, y, z'
loop_
 _atom_site_type_symbol
 _atom_site_label
 _atom_site_symmetry_multiplicity
 _atom_site_fract_x
 _atom_site_fract_y
 _atom_site_fract_z
 _atom_site_occupancy
  In  In0  1  0.000000  0.000000  0.500000  1
  In  In1  1  0.500000  0.000000  0.000000  1
  In  In2  1  0.500000  0.500000  0.500000  1
  In  In3  1  0.000000  0.500000  0.000000  1
  Hg  Hg4  1  0.698706  0.953616  0.313438  1
  Hg  Hg5  1  0.198706  0.546384  0.686562  1
  Hg  Hg6  1  0.813438  0.698706  0.546384  1
  Hg  Hg7  1  0.546384  0.813438  0.698706  1
  Hg  Hg8  1  0.698706  0.546384  0.813438  1
  Hg  Hg9  1  0.453616  0.313438  0.801294  1
  Hg  Hg10  1  0.546384  0.686562  0.198706  1
  Hg  Hg11  1  0.686562  0.198706  0.546384  1
  Hg  Hg12  1  0.046384  0.813438  0.801294  1
  Hg  Hg13  1  0.301294  0.453616  0.186562  1
  Hg  Hg14  1  0.801294  0.453616  0.313438  1
  Hg  Hg15  1  0.301294  0.046384  0.686562  1
  Hg  Hg16  1  0.953616  0.313438  0.698706  1
  Hg  Hg17  1  0.186562  0.198706  0.953616  1
  Hg  Hg18  1  0.813438  0.801294  0.046384  1
  Hg  Hg19  1  0.046384  0.686562  0.301294  1
  Hg  Hg20  1  0.313438  0.698706  0.953616  1
  Hg  Hg21  1  0.186562  0.301294  0.453616  1
  Hg  Hg22  1  0.801294  0.046384  0.813438  1
  Hg  Hg23  1  0.453616  0.186562  0.301294  1
  Hg  Hg24  1  0.198706  0.953616  0.186562  1
  Hg  Hg25  1  0.686562  0.301294  0.046384  1
  Hg  Hg26  1  0.313438  0.801294  0.453616  1
  Hg  Hg27  1  0.953616  0.186562  0.198706  1
  As  As28  1  0.733600  0.733600  0.733600  1
  As  As29  1  0.651093  0.151093  0.348907  1
  As  As30  1  0.266400  0.266400  0.266400  1
  As  As31  1  0.766400  0.233600  0.733600  1
  As  As32  1  0.848907  0.848907  0.848907  1
  As  As33  1  0.348907  0.651093  0.151093  1
  As  As34  1  0.233600  0.766400  0.266400  1
  As  As35  1  0.151093  0.348907  0.651093  1
  As  As36  1  0.233600  0.733600  0.766400  1
  As  As37  1  0.266400  0.233600  0.766400  1
  As  As38  1  0.766400  0.266400  0.233600  1
  As  As39  1  0.848907  0.651093  0.348907  1
  As  As40  1  0.151093  0.151093  0.151093  1
  As  As41  1  0.651093  0.348907  0.848907  1
  As  As42  1  0.733600  0.766400  0.233600  1
  As  As43  1  0.348907  0.848907  0.651093  1
  Cl  Cl44  1  0.303618  0.540132  0.453583  1
  Cl  Cl45  1  0.040132  0.453583  0.196382  1
  Cl  Cl46  1  0.696382  0.040132  0.046417  1
  Cl  Cl47  1  0.500000  0.000000  0.500000  1
  Cl  Cl48  1  0.459868  0.953583  0.196382  1
  Cl  Cl49  1  0.196382  0.459868  0.953583  1
  Cl  Cl50  1  0.453583  0.196382  0.040132  1
  Cl  Cl51  1  0.000000  0.000000  0.000000  1
  Cl  Cl52  1  0.959868  0.953583  0.303618  1
  Cl  Cl53  1  0.453583  0.303618  0.540132  1
  Cl  Cl54  1  0.803618  0.540132  0.046417  1
  Cl  Cl55  1  0.046417  0.696382  0.040132  1
  Cl  Cl56  1  0.546417  0.696382  0.459868  1
  Cl  Cl57  1  0.953583  0.303618  0.959868  1
  Cl  Cl58  1  0.696382  0.459868  0.546417  1
  Cl  Cl59  1  0.803618  0.959868  0.546417  1
  Cl  Cl60  1  0.500000  0.500000  0.000000  1
  Cl  Cl61  1  0.000000  0.500000  0.500000  1
  Cl  Cl62  1  0.540132  0.046417  0.803618  1
  Cl  Cl63  1  0.303618  0.959868  0.953583  1
  Cl  Cl64  1  0.040132  0.046417  0.696382  1
  Cl  Cl65  1  0.953583  0.196382  0.459868  1
  Cl  Cl66  1  0.196382  0.040132  0.453583  1
  Cl  Cl67  1  0.540132  0.453583  0.303618  1
  Cl  Cl68  1  0.046417  0.803618  0.540132  1
  Cl  Cl69  1  0.546417  0.803618  0.959868  1
  Cl  Cl70  1  0.959868  0.546417  0.803618  1
  Cl  Cl71  1  0.459868  0.546417  0.696382  1
