# generated using pymatgen
data_CaSi2(NO)2
_symmetry_space_group_name_H-M   'P 1'
_cell_length_a   7.38548942
_cell_length_b   13.77231221
_cell_length_c   10.57546254
_cell_angle_alpha   90.00000000
_cell_angle_beta   101.89474900
_cell_angle_gamma   90.00000000
_symmetry_Int_Tables_number   1
_chemical_formula_structural   CaSi2(NO)2
_chemical_formula_sum   'Ca12 Si24 N24 O24'
_cell_volume   1052.58872760
_cell_formula_units_Z   12
loop_
 _symmetry_equiv_pos_site_id
 _symmetry_equiv_pos_as_xyz
  1  'x, y, z'
loop_
 _atom_site_type_symbol
 _atom_site_label
 _atom_site_symmetry_multiplicity
 _atom_site_fract_x
 _atom_site_fract_y
 _atom_site_fract_z
 _atom_site_occupancy
  Ca  Ca0  1  0.745224  0.869964  0.357276  1
  Ca  Ca1  1  0.254776  0.369964  0.642724  1
  Ca  Ca2  1  0.918127  0.936481  0.051637  1
  Ca  Ca3  1  0.411670  0.424852  0.298473  1
  Ca  Ca4  1  0.411557  0.878686  0.048961  1
  Ca  Ca5  1  0.081873  0.436481  0.948363  1
  Ca  Ca6  1  0.080904  0.867071  0.695383  1
  Ca  Ca7  1  0.588330  0.924852  0.701527  1
  Ca  Ca8  1  0.256728  0.933057  0.384590  1
  Ca  Ca9  1  0.588443  0.378686  0.951039  1
  Ca  Ca10  1  0.743272  0.433057  0.615410  1
  Ca  Ca11  1  0.919096  0.367071  0.304617  1
  Si  Si12  1  0.623519  0.097047  0.919881  1
  Si  Si13  1  0.618101  0.100040  0.416974  1
  Si  Si14  1  0.048450  0.706094  0.439447  1
  Si  Si15  1  0.710901  0.594898  0.300520  1
  Si  Si16  1  0.047684  0.597699  0.692038  1
  Si  Si17  1  0.620203  0.204032  0.670310  1
  Si  Si18  1  0.046566  0.710694  0.944414  1
  Si  Si19  1  0.379797  0.704032  0.329690  1
  Si  Si20  1  0.287544  0.103937  0.196935  1
  Si  Si21  1  0.047365  0.592872  0.191735  1
  Si  Si22  1  0.712518  0.704579  0.055617  1
  Si  Si23  1  0.952316  0.097699  0.307962  1
  Si  Si24  1  0.951550  0.206094  0.560553  1
  Si  Si25  1  0.287482  0.204579  0.944383  1
  Si  Si26  1  0.712456  0.603937  0.803065  1
  Si  Si27  1  0.952635  0.092872  0.808265  1
  Si  Si28  1  0.621980  0.208054  0.166588  1
  Si  Si29  1  0.288593  0.204571  0.451949  1
  Si  Si30  1  0.376481  0.597047  0.080119  1
  Si  Si31  1  0.289099  0.094898  0.699480  1
  Si  Si32  1  0.381899  0.600040  0.583026  1
  Si  Si33  1  0.711407  0.704571  0.548051  1
  Si  Si34  1  0.378020  0.708054  0.833412  1
  Si  Si35  1  0.953434  0.210694  0.055586  1
  N  N36  1  0.145596  0.676736  0.309830  1
  N  N37  1  0.807948  0.692732  0.916861  1
  N  N38  1  0.139775  0.682365  0.810057  1
  N  N39  1  0.521027  0.126641  0.255110  1
  N  N40  1  0.478973  0.626641  0.744890  1
  N  N41  1  0.860225  0.182365  0.189943  1
  N  N42  1  0.860889  0.122012  0.942600  1
  N  N43  1  0.477548  0.683452  0.492366  1
  N  N44  1  0.807447  0.616617  0.662499  1
  N  N45  1  0.139111  0.622012  0.057400  1
  N  N46  1  0.854404  0.176736  0.690170  1
  N  N47  1  0.192052  0.192732  0.083139  1
  N  N48  1  0.192218  0.187010  0.590140  1
  N  N49  1  0.807782  0.687010  0.409860  1
  N  N50  1  0.522452  0.183452  0.507634  1
  N  N51  1  0.474897  0.684686  0.996684  1
  N  N52  1  0.192553  0.116617  0.337501  1
  N  N53  1  0.808215  0.611091  0.163915  1
  N  N54  1  0.525103  0.184686  0.003316  1
  N  N55  1  0.526060  0.115213  0.756152  1
  N  N56  1  0.146264  0.626548  0.562591  1
  N  N57  1  0.853736  0.126548  0.437409  1
  N  N58  1  0.191785  0.111091  0.836085  1
  N  N59  1  0.473940  0.615213  0.243848  1
  O  O60  1  0.426619  0.487930  0.549797  1
  O  O61  1  0.080542  0.483362  0.729918  1
  O  O62  1  0.265418  0.988118  0.631704  1
  O  O63  1  0.756782  0.492871  0.852108  1
  O  O64  1  0.736847  0.812316  0.121199  1
  O  O65  1  0.734582  0.488118  0.368296  1
  O  O66  1  0.397769  0.484425  0.041780  1
  O  O67  1  0.102109  0.479857  0.225753  1
  O  O68  1  0.243218  0.992871  0.147892  1
  O  O69  1  0.896071  0.322212  0.018050  1
  O  O70  1  0.602231  0.984425  0.958220  1
  O  O71  1  0.103929  0.822212  0.981950  1
  O  O72  1  0.573381  0.987930  0.450203  1
  O  O73  1  0.397525  0.822417  0.801745  1
  O  O74  1  0.263153  0.312316  0.878801  1
  O  O75  1  0.919458  0.983362  0.270082  1
  O  O76  1  0.758691  0.814867  0.598475  1
  O  O77  1  0.424582  0.814506  0.289355  1
  O  O78  1  0.241309  0.314867  0.401525  1
  O  O79  1  0.602475  0.322417  0.198255  1
  O  O80  1  0.897891  0.979857  0.774247  1
  O  O81  1  0.575418  0.314506  0.710645  1
  O  O82  1  0.921261  0.321587  0.526221  1
  O  O83  1  0.078739  0.821587  0.473779  1
