# generated using pymatgen
data_Nd2B5
_symmetry_space_group_name_H-M   'P 1'
_cell_length_a   8.42068202
_cell_length_b   8.42068202
_cell_length_c   7.31947828
_cell_angle_alpha   72.81287311
_cell_angle_beta   107.18712689
_cell_angle_gamma   128.69505264
_symmetry_Int_Tables_number   1
_chemical_formula_structural   Nd2B5
_chemical_formula_sum   'Nd8 B20'
_cell_volume   382.69608508
_cell_formula_units_Z   4
loop_
 _symmetry_equiv_pos_site_id
 _symmetry_equiv_pos_as_xyz
  1  'x, y, z'
loop_
 _atom_site_type_symbol
 _atom_site_label
 _atom_site_symmetry_multiplicity
 _atom_site_fract_x
 _atom_site_fract_y
 _atom_site_fract_z
 _atom_site_occupancy
  Nd  Nd0  1  0.310589  0.548892  0.401273  1
  Nd  Nd1  1  0.689411  0.451108  0.598727  1
  Nd  Nd2  1  0.819535  0.056829  0.276928  1
  Nd  Nd3  1  0.056829  0.819535  0.223072  1
  Nd  Nd4  1  0.943171  0.180465  0.776928  1
  Nd  Nd5  1  0.548892  0.310589  0.098727  1
  Nd  Nd6  1  0.180465  0.943171  0.723072  1
  Nd  Nd7  1  0.451108  0.689411  0.901273  1
  B  B8  1  0.671611  0.171976  0.460187  1
  B  B9  1  0.171976  0.671611  0.039813  1
  B  B10  1  0.590826  0.910568  0.560552  1
  B  B11  1  0.409174  0.089432  0.439448  1
  B  B12  1  0.591037  0.092163  0.908121  1
  B  B13  1  0.907837  0.408963  0.408121  1
  B  B14  1  0.328389  0.828024  0.539813  1
  B  B15  1  0.828024  0.328389  0.960187  1
  B  B16  1  0.287163  0.202070  0.351855  1
  B  B17  1  0.092163  0.591037  0.591879  1
  B  B18  1  0.910568  0.590826  0.939448  1
  B  B19  1  0.202070  0.287163  0.148145  1
  B  B20  1  0.538399  0.040641  0.670835  1
  B  B21  1  0.461601  0.959359  0.329165  1
  B  B22  1  0.089432  0.409174  0.060552  1
  B  B23  1  0.959359  0.461601  0.170835  1
  B  B24  1  0.797930  0.712837  0.851855  1
  B  B25  1  0.040641  0.538399  0.829165  1
  B  B26  1  0.408963  0.907837  0.091879  1
  B  B27  1  0.712837  0.797930  0.648145  1
