# generated using pymatgen
data_Sb2TeSe2
_symmetry_space_group_name_H-M   'P 1'
_cell_length_a   10.51691522
_cell_length_b   10.51691522
_cell_length_c   10.51691522
_cell_angle_alpha   22.80635130
_cell_angle_beta   22.80635130
_cell_angle_gamma   22.80635130
_symmetry_Int_Tables_number   1
_chemical_formula_structural   Sb2TeSe2
_chemical_formula_sum   'Sb2 Te1 Se2'
_cell_volume   153.35469227
_cell_formula_units_Z   1
loop_
 _symmetry_equiv_pos_site_id
 _symmetry_equiv_pos_as_xyz
  1  'x, y, z'
loop_
 _atom_site_type_symbol
 _atom_site_label
 _atom_site_symmetry_multiplicity
 _atom_site_fract_x
 _atom_site_fract_y
 _atom_site_fract_z
 _atom_site_occupancy
  Sb  Sb0  1  0.400805  0.400805  0.400805  1
  Sb  Sb1  1  0.599195  0.599195  0.599195  1
  Te  Te2  1  0.000000  0.000000  0.000000  1
  Se  Se3  1  0.783284  0.783284  0.783284  1
  Se  Se4  1  0.216716  0.216716  0.216716  1
