# generated using pymatgen
data_Li2U4W4O25
_symmetry_space_group_name_H-M   'P 1'
_cell_length_a   7.77273185
_cell_length_b   7.77273185
_cell_length_c   22.50348306
_cell_angle_alpha   81.61609587
_cell_angle_beta   98.38390413
_cell_angle_gamma   130.85954343
_symmetry_Int_Tables_number   1
_chemical_formula_structural   Li2U4W4O25
_chemical_formula_sum   'Li4 U8 W8 O50'
_cell_volume   1014.95275349
_cell_formula_units_Z   2
loop_
 _symmetry_equiv_pos_site_id
 _symmetry_equiv_pos_as_xyz
  1  'x, y, z'
loop_
 _atom_site_type_symbol
 _atom_site_label
 _atom_site_symmetry_multiplicity
 _atom_site_fract_x
 _atom_site_fract_y
 _atom_site_fract_z
 _atom_site_occupancy
  Li  Li0  1  0.355472  0.568282  0.553692  1
  Li  Li1  1  0.568282  0.355472  0.946308  1
  Li  Li2  1  0.644528  0.431718  0.446308  1
  Li  Li3  1  0.431718  0.644528  0.053692  1
  U  U4  1  0.254152  0.838437  0.154852  1
  U  U5  1  0.838437  0.254152  0.345148  1
  U  U6  1  0.964376  0.964376  0.250000  1
  U  U7  1  0.035624  0.035624  0.750000  1
  U  U8  1  0.000000  0.000000  0.000000  1
  U  U9  1  0.161563  0.745848  0.654852  1
  U  U10  1  0.745848  0.161563  0.845148  1
  U  U11  1  0.000000  1.000000  0.500000  1
  W  W12  1  0.419090  0.587654  0.309973  1
  W  W13  1  0.580910  0.412346  0.690027  1
  W  W14  1  0.224414  0.787593  0.410211  1
  W  W15  1  0.587654  0.419090  0.190027  1
  W  W16  1  0.212407  0.775586  0.910211  1
  W  W17  1  0.412346  0.580910  0.809973  1
  W  W18  1  0.787593  0.224414  0.089789  1
  W  W19  1  0.775586  0.212407  0.589789  1
  O  O20  1  0.742413  0.712419  0.482286  1
  O  O21  1  0.037929  0.815718  0.944079  1
  O  O22  1  0.236176  0.621167  0.347803  1
  O  O23  1  0.815718  0.037929  0.555921  1
  O  O24  1  0.378833  0.763824  0.847803  1
  O  O25  1  0.840598  0.064073  0.914013  1
  O  O26  1  0.126310  0.299744  0.287091  1
  O  O27  1  0.507071  0.045918  0.376076  1
  O  O28  1  0.908307  0.691089  0.191531  1
  O  O29  1  0.503501  0.516754  0.627135  1
  O  O30  1  0.257587  0.287581  0.517714  1
  O  O31  1  0.712419  0.742413  0.017714  1
  O  O32  1  0.289197  0.676116  0.974888  1
  O  O33  1  0.123576  0.938837  0.817976  1
  O  O34  1  0.621167  0.236176  0.152197  1
  O  O35  1  0.308911  0.091693  0.691531  1
  O  O36  1  0.938837  0.123576  0.682024  1
  O  O37  1  0.873690  0.700256  0.712909  1
  O  O38  1  0.299744  0.126310  0.212909  1
  O  O39  1  0.573783  0.573783  0.250000  1
  O  O40  1  0.064073  0.840598  0.585987  1
  O  O41  1  0.954082  0.492929  0.876076  1
  O  O42  1  0.710803  0.323884  0.025112  1
  O  O43  1  0.485743  0.088811  0.901723  1
  O  O44  1  0.323884  0.710803  0.474888  1
  O  O45  1  0.091693  0.308911  0.808469  1
  O  O46  1  0.740405  0.336976  0.274288  1
  O  O47  1  0.496499  0.483246  0.372865  1
  O  O48  1  0.492929  0.954082  0.623924  1
  O  O49  1  0.911189  0.514257  0.401723  1
  O  O50  1  0.763824  0.378833  0.652197  1
  O  O51  1  0.159402  0.935927  0.085987  1
  O  O52  1  0.184282  0.962071  0.444079  1
  O  O53  1  0.088811  0.485743  0.598277  1
  O  O54  1  0.935927  0.159402  0.414013  1
  O  O55  1  0.287581  0.257587  0.982286  1
  O  O56  1  0.045918  0.507071  0.123924  1
  O  O57  1  0.663024  0.259595  0.774288  1
  O  O58  1  0.259595  0.663024  0.725712  1
  O  O59  1  0.516754  0.503501  0.872865  1
  O  O60  1  0.700256  0.873690  0.787091  1
  O  O61  1  0.876424  0.061163  0.182024  1
  O  O62  1  0.514257  0.911189  0.098277  1
  O  O63  1  0.962071  0.184282  0.055921  1
  O  O64  1  0.426217  0.426217  0.750000  1
  O  O65  1  0.483246  0.496499  0.127135  1
  O  O66  1  0.691089  0.908307  0.308469  1
  O  O67  1  0.061163  0.876424  0.317976  1
  O  O68  1  0.336976  0.740405  0.225712  1
  O  O69  1  0.676116  0.289197  0.525112  1
