# generated using pymatgen
data_NiPS
_symmetry_space_group_name_H-M   'P 1'
_cell_length_a   5.53621919
_cell_length_b   5.53621919
_cell_length_c   5.53621919
_cell_angle_alpha   90.00000000
_cell_angle_beta   90.00000000
_cell_angle_gamma   90.00000000
_symmetry_Int_Tables_number   1
_chemical_formula_structural   NiPS
_chemical_formula_sum   'Ni4 P4 S4'
_cell_volume   169.68358420
_cell_formula_units_Z   4
loop_
 _symmetry_equiv_pos_site_id
 _symmetry_equiv_pos_as_xyz
  1  'x, y, z'
loop_
 _atom_site_type_symbol
 _atom_site_label
 _atom_site_symmetry_multiplicity
 _atom_site_fract_x
 _atom_site_fract_y
 _atom_site_fract_z
 _atom_site_occupancy
  Ni  Ni0  1  0.005295  0.005295  0.005295  1
  Ni  Ni1  1  0.494705  0.994705  0.505295  1
  Ni  Ni2  1  0.505295  0.494705  0.994705  1
  Ni  Ni3  1  0.994705  0.505295  0.494705  1
  P  P4  1  0.612695  0.612695  0.612695  1
  P  P5  1  0.887305  0.387305  0.112695  1
  P  P6  1  0.112695  0.887305  0.387305  1
  P  P7  1  0.387305  0.112695  0.887305  1
  S  S8  1  0.387965  0.387965  0.387965  1
  S  S9  1  0.112035  0.612035  0.887965  1
  S  S10  1  0.887965  0.112035  0.612035  1
  S  S11  1  0.612035  0.887965  0.112035  1
