# generated using pymatgen
data_BaSr4U3O14
_symmetry_space_group_name_H-M   'P 1'
_cell_length_a   8.11768339
_cell_length_b   8.11768339
_cell_length_c   11.12374662
_cell_angle_alpha   90.00000000
_cell_angle_beta   90.00000000
_cell_angle_gamma   90.07846653
_symmetry_Int_Tables_number   1
_chemical_formula_structural   BaSr4U3O14
_chemical_formula_sum   'Ba2 Sr8 U6 O28'
_cell_volume   733.01843753
_cell_formula_units_Z   2
loop_
 _symmetry_equiv_pos_site_id
 _symmetry_equiv_pos_as_xyz
  1  'x, y, z'
loop_
 _atom_site_type_symbol
 _atom_site_label
 _atom_site_symmetry_multiplicity
 _atom_site_fract_x
 _atom_site_fract_y
 _atom_site_fract_z
 _atom_site_occupancy
  Ba  Ba0  1  0.500000  0.500000  1.000000  1
  Ba  Ba1  1  0.000000  0.000000  0.500000  1
  Sr  Sr2  1  0.229048  0.729048  0.750000  1
  Sr  Sr3  1  0.251400  0.251400  0.725002  1
  Sr  Sr4  1  0.248600  0.248600  0.225002  1
  Sr  Sr5  1  0.751400  0.751400  0.774998  1
  Sr  Sr6  1  0.748600  0.748600  0.274998  1
  Sr  Sr7  1  0.270952  0.770952  0.250000  1
  Sr  Sr8  1  0.729048  0.229048  0.750000  1
  Sr  Sr9  1  0.770952  0.270952  0.250000  1
  U  U10  1  0.000000  0.000000  0.000000  1
  U  U11  1  0.500000  0.500000  0.500000  1
  U  U12  1  0.000000  0.500000  0.000000  1
  U  U13  1  0.500000  1.000000  0.500000  1
  U  U14  1  0.500000  1.000000  1.000000  1
  U  U15  1  0.000000  0.500000  0.500000  1
  O  O16  1  0.307204  0.967729  0.617024  1
  O  O17  1  0.467729  0.807204  0.882976  1
  O  O18  1  0.807204  0.467729  0.882976  1
  O  O19  1  0.507099  0.253532  0.573245  1
  O  O20  1  0.065599  0.065599  0.837099  1
  O  O21  1  0.315591  0.032822  0.375557  1
  O  O22  1  0.532271  0.192796  0.117024  1
  O  O23  1  0.692796  0.032271  0.382976  1
  O  O24  1  0.032822  0.315591  0.375557  1
  O  O25  1  0.467178  0.184409  0.875557  1
  O  O26  1  0.492901  0.746468  0.426755  1
  O  O27  1  0.032271  0.692796  0.382976  1
  O  O28  1  0.684409  0.967178  0.624443  1
  O  O29  1  0.184409  0.467178  0.875557  1
  O  O30  1  0.934401  0.934401  0.162901  1
  O  O31  1  0.746468  0.492901  0.426755  1
  O  O32  1  0.565599  0.565599  0.662901  1
  O  O33  1  0.434401  0.434401  0.337099  1
  O  O34  1  0.753532  0.007099  0.926755  1
  O  O35  1  0.253532  0.507099  0.573245  1
  O  O36  1  0.992901  0.246468  0.073245  1
  O  O37  1  0.007099  0.753532  0.926755  1
  O  O38  1  0.192796  0.532271  0.117024  1
  O  O39  1  0.246468  0.992901  0.073245  1
  O  O40  1  0.815591  0.532822  0.124443  1
  O  O41  1  0.967178  0.684409  0.624443  1
  O  O42  1  0.967729  0.307204  0.617024  1
  O  O43  1  0.532822  0.815591  0.124443  1
