# generated using pymatgen
data_Na2LiAlP2H2O9
_symmetry_space_group_name_H-M   'P 1'
_cell_length_a   7.03186726
_cell_length_b   14.20860926
_cell_length_c   14.24731370
_cell_angle_alpha   90.00000000
_cell_angle_beta   90.00000000
_cell_angle_gamma   90.00000000
_symmetry_Int_Tables_number   1
_chemical_formula_structural   Na2LiAlP2H2O9
_chemical_formula_sum   'Na16 Li8 Al8 P16 H16 O72'
_cell_volume   1423.49262685
_cell_formula_units_Z   8
loop_
 _symmetry_equiv_pos_site_id
 _symmetry_equiv_pos_as_xyz
  1  'x, y, z'
loop_
 _atom_site_type_symbol
 _atom_site_label
 _atom_site_symmetry_multiplicity
 _atom_site_fract_x
 _atom_site_fract_y
 _atom_site_fract_z
 _atom_site_occupancy
  Na  Na0  1  0.958733  0.000000  0.250000  1
  Na  Na1  1  0.500000  0.500000  0.000000  1
  Na  Na2  1  0.000000  0.250000  0.753593  1
  Na  Na3  1  0.500000  0.000000  0.500000  1
  Na  Na4  1  0.041267  0.500000  0.250000  1
  Na  Na5  1  0.000000  0.750000  0.246407  1
  Na  Na6  1  0.041267  0.000000  0.750000  1
  Na  Na7  1  0.500000  0.000000  0.000000  1
  Na  Na8  1  0.500000  0.250000  0.479287  1
  Na  Na9  1  0.500000  0.750000  0.020713  1
  Na  Na10  1  0.500000  0.750000  0.520713  1
  Na  Na11  1  0.000000  0.750000  0.746407  1
  Na  Na12  1  0.000000  0.250000  0.253593  1
  Na  Na13  1  0.500000  0.500000  0.500000  1
  Na  Na14  1  0.958733  0.500000  0.750000  1
  Na  Na15  1  0.500000  0.250000  0.979287  1
  Li  Li16  1  0.260037  0.125788  0.125824  1
  Li  Li17  1  0.260037  0.874212  0.374176  1
  Li  Li18  1  0.260037  0.374212  0.625824  1
  Li  Li19  1  0.739963  0.874212  0.874176  1
  Li  Li20  1  0.739963  0.125788  0.625824  1
  Li  Li21  1  0.260037  0.625788  0.874176  1
  Li  Li22  1  0.739963  0.625788  0.374176  1
  Li  Li23  1  0.739963  0.374212  0.125824  1
  Al  Al24  1  0.000000  0.000000  0.000000  1
  Al  Al25  1  0.000000  0.500000  0.500000  1
  Al  Al26  1  0.000000  0.250000  0.498902  1
  Al  Al27  1  0.000000  0.750000  0.501098  1
  Al  Al28  1  0.000000  0.500000  0.000000  1
  Al  Al29  1  0.000000  0.250000  0.998902  1
  Al  Al30  1  0.000000  0.750000  0.001098  1
  Al  Al31  1  0.000000  0.000000  0.500000  1
  P  P32  1  0.278110  0.870316  0.868092  1
  P  P33  1  0.261111  0.379056  0.856488  1
  P  P34  1  0.721890  0.370316  0.631908  1
  P  P35  1  0.721890  0.870316  0.368092  1
  P  P36  1  0.261111  0.879056  0.143512  1
  P  P37  1  0.738889  0.879056  0.643512  1
  P  P38  1  0.261111  0.120944  0.356488  1
  P  P39  1  0.721890  0.629684  0.868092  1
  P  P40  1  0.278110  0.370316  0.131908  1
  P  P41  1  0.721890  0.129684  0.131908  1
  P  P42  1  0.738889  0.120944  0.856488  1
  P  P43  1  0.278110  0.629684  0.368092  1
  P  P44  1  0.278110  0.129684  0.631908  1
  P  P45  1  0.738889  0.379056  0.356488  1
  P  P46  1  0.261111  0.620944  0.643512  1
  P  P47  1  0.738889  0.620944  0.143512  1
  H  H48  1  0.589444  0.126432  0.296784  1
  H  H49  1  0.410556  0.126432  0.796784  1
  H  H50  1  0.199331  0.125393  0.940279  1
  H  H51  1  0.800669  0.125393  0.440279  1
  H  H52  1  0.800669  0.625393  0.559721  1
  H  H53  1  0.800669  0.874607  0.059721  1
  H  H54  1  0.410556  0.373568  0.296784  1
  H  H55  1  0.410556  0.626432  0.203216  1
  H  H56  1  0.199331  0.374607  0.440279  1
  H  H57  1  0.589444  0.626432  0.703216  1
  H  H58  1  0.410556  0.873568  0.703216  1
  H  H59  1  0.589444  0.373568  0.796784  1
  H  H60  1  0.199331  0.874607  0.559721  1
  H  H61  1  0.589444  0.873568  0.203216  1
  H  H62  1  0.800669  0.374607  0.940279  1
  H  H63  1  0.199331  0.625393  0.059721  1
  O  O64  1  0.194704  0.469071  0.910354  1
  O  O65  1  0.837858  0.458492  0.599408  1
  O  O66  1  0.479179  0.628589  0.408312  1
  O  O67  1  0.886584  0.124734  0.494196  1
  O  O68  1  0.171589  0.279707  0.098675  1
  O  O69  1  0.828411  0.220293  0.098675  1
  O  O70  1  0.515914  0.876709  0.637001  1
  O  O71  1  0.185054  0.211134  0.407194  1
  O  O72  1  0.805296  0.030929  0.910354  1
  O  O73  1  0.484086  0.623291  0.637001  1
  O  O74  1  0.275128  0.629528  0.258675  1
  O  O75  1  0.162142  0.458492  0.099408  1
  O  O76  1  0.484086  0.876709  0.137001  1
  O  O77  1  0.515914  0.623291  0.137001  1
  O  O78  1  0.814946  0.711134  0.092806  1
  O  O79  1  0.162142  0.958492  0.900592  1
  O  O80  1  0.808845  0.118964  0.755338  1
  O  O81  1  0.185054  0.711134  0.592806  1
  O  O82  1  0.886584  0.875266  0.005804  1
  O  O83  1  0.484086  0.376709  0.862999  1
  O  O84  1  0.479179  0.871411  0.908312  1
  O  O85  1  0.191155  0.381036  0.755338  1
  O  O86  1  0.171589  0.720293  0.401325  1
  O  O87  1  0.520821  0.871411  0.408312  1
  O  O88  1  0.886584  0.624734  0.505804  1
  O  O89  1  0.808845  0.381036  0.255338  1
  O  O90  1  0.520821  0.128589  0.091688  1
  O  O91  1  0.113416  0.375266  0.494196  1
  O  O92  1  0.275128  0.870472  0.758675  1
  O  O93  1  0.194704  0.530929  0.589646  1
  O  O94  1  0.805296  0.969071  0.589646  1
  O  O95  1  0.828411  0.279707  0.598675  1
  O  O96  1  0.113416  0.124734  0.994196  1
  O  O97  1  0.520821  0.628589  0.908312  1
  O  O98  1  0.828411  0.720293  0.901325  1
  O  O99  1  0.837858  0.958492  0.400592  1
  O  O100  1  0.724872  0.629528  0.758675  1
  O  O101  1  0.724872  0.129528  0.241325  1
  O  O102  1  0.479179  0.128589  0.591688  1
  O  O103  1  0.479179  0.371411  0.091688  1
  O  O104  1  0.837858  0.041508  0.099408  1
  O  O105  1  0.515914  0.123291  0.862999  1
  O  O106  1  0.194704  0.030929  0.410354  1
  O  O107  1  0.275128  0.129528  0.741325  1
  O  O108  1  0.275128  0.370472  0.241325  1
  O  O109  1  0.484086  0.123291  0.362999  1
  O  O110  1  0.113416  0.624734  0.005804  1
  O  O111  1  0.162142  0.041508  0.599408  1
  O  O112  1  0.837858  0.541508  0.900592  1
  O  O113  1  0.808845  0.881036  0.744662  1
  O  O114  1  0.886584  0.375266  0.994196  1
  O  O115  1  0.515914  0.376709  0.362999  1
  O  O116  1  0.194704  0.969071  0.089646  1
  O  O117  1  0.185054  0.788866  0.092806  1
  O  O118  1  0.724872  0.870472  0.258675  1
  O  O119  1  0.828411  0.779707  0.401325  1
  O  O120  1  0.185054  0.288866  0.907194  1
  O  O121  1  0.724872  0.370472  0.741325  1
  O  O122  1  0.113416  0.875266  0.505804  1
  O  O123  1  0.814946  0.788866  0.592806  1
  O  O124  1  0.805296  0.469071  0.410354  1
  O  O125  1  0.171589  0.779707  0.901325  1
  O  O126  1  0.814946  0.211134  0.907194  1
  O  O127  1  0.191155  0.618964  0.744662  1
  O  O128  1  0.191155  0.881036  0.244662  1
  O  O129  1  0.805296  0.530929  0.089646  1
  O  O130  1  0.814946  0.288866  0.407194  1
  O  O131  1  0.171589  0.220293  0.598675  1
  O  O132  1  0.162142  0.541508  0.400592  1
  O  O133  1  0.191155  0.118964  0.255338  1
  O  O134  1  0.520821  0.371411  0.591688  1
  O  O135  1  0.808845  0.618964  0.244662  1
