# generated using pymatgen
data_Fe3(P2O7)2
_symmetry_space_group_name_H-M   'P 1'
_cell_length_a   5.61278209
_cell_length_b   6.88985448
_cell_length_c   7.46598479
_cell_angle_alpha   76.95127269
_cell_angle_beta   77.82088145
_cell_angle_gamma   70.38146942
_symmetry_Int_Tables_number   1
_chemical_formula_structural   Fe3(P2O7)2
_chemical_formula_sum   'Fe3 P4 O14'
_cell_volume   262.04636603
_cell_formula_units_Z   1
loop_
 _symmetry_equiv_pos_site_id
 _symmetry_equiv_pos_as_xyz
  1  'x, y, z'
loop_
 _atom_site_type_symbol
 _atom_site_label
 _atom_site_symmetry_multiplicity
 _atom_site_fract_x
 _atom_site_fract_y
 _atom_site_fract_z
 _atom_site_occupancy
  Fe  Fe0  1  0.769531  0.510236  0.669449  1
  Fe  Fe1  1  0.230469  0.489764  0.330551  1
  Fe  Fe2  1  0.000000  0.000000  0.000000  1
  P  P3  1  0.207500  0.711987  0.666002  1
  P  P4  1  0.381092  0.296545  0.939350  1
  P  P5  1  0.618908  0.703455  0.060650  1
  P  P6  1  0.792500  0.288013  0.333998  1
  O  O7  1  0.469233  0.697743  0.551629  1
  O  O8  1  0.747004  0.845273  0.108926  1
  O  O9  1  0.951587  0.345018  0.452997  1
  O  O10  1  0.252996  0.154727  0.891074  1
  O  O11  1  0.048413  0.654982  0.547003  1
  O  O12  1  0.333228  0.306037  0.144102  1
  O  O13  1  0.070227  0.906690  0.751946  1
  O  O14  1  0.235148  0.528237  0.844813  1
  O  O15  1  0.929773  0.093310  0.248054  1
  O  O16  1  0.530767  0.302257  0.448371  1
  O  O17  1  0.666772  0.693963  0.855898  1
  O  O18  1  0.671062  0.256867  0.858762  1
  O  O19  1  0.764852  0.471763  0.155187  1
  O  O20  1  0.328938  0.743133  0.141238  1
