# generated using pymatgen
data_Ti4AlN3
_symmetry_space_group_name_H-M   'P 1'
_cell_length_a   2.99490252
_cell_length_b   2.99490252
_cell_length_c   23.49606915
_cell_angle_alpha   90.00000000
_cell_angle_beta   90.00000000
_cell_angle_gamma   120.00000000
_symmetry_Int_Tables_number   1
_chemical_formula_structural   Ti4AlN3
_chemical_formula_sum   'Ti8 Al2 N6'
_cell_volume   182.51191605
_cell_formula_units_Z   2
loop_
 _symmetry_equiv_pos_site_id
 _symmetry_equiv_pos_as_xyz
  1  'x, y, z'
loop_
 _atom_site_type_symbol
 _atom_site_label
 _atom_site_symmetry_multiplicity
 _atom_site_fract_x
 _atom_site_fract_y
 _atom_site_fract_z
 _atom_site_occupancy
  Ti  Ti0  1  0.333333  0.666667  0.446022  1
  Ti  Ti1  1  0.666667  0.333333  0.553978  1
  Ti  Ti2  1  0.000000  0.000000  0.654462  1
  Ti  Ti3  1  0.000000  0.000000  0.154462  1
  Ti  Ti4  1  0.000000  0.000000  0.845538  1
  Ti  Ti5  1  0.666667  0.333333  0.946022  1
  Ti  Ti6  1  0.000000  0.000000  0.345538  1
  Ti  Ti7  1  0.333333  0.666667  0.053978  1
  Al  Al8  1  0.666667  0.333333  0.750000  1
  Al  Al9  1  0.333333  0.666667  0.250000  1
  N  N10  1  0.666667  0.333333  0.105666  1
  N  N11  1  0.333333  0.666667  0.605666  1
  N  N12  1  0.000000  0.000000  0.500000  1
  N  N13  1  0.666667  0.333333  0.394334  1
  N  N14  1  0.333333  0.666667  0.894334  1
  N  N15  1  0.000000  0.000000  0.000000  1
