# generated using pymatgen
data_NiH20(C4N5)2
_symmetry_space_group_name_H-M   'P 1'
_cell_length_a   6.58165330
_cell_length_b   9.13508906
_cell_length_c   11.44278096
_cell_angle_alpha   90.00000000
_cell_angle_beta   98.35305493
_cell_angle_gamma   90.00000000
_symmetry_Int_Tables_number   1
_chemical_formula_structural   NiH20(C4N5)2
_chemical_formula_sum   'Ni2 H40 C16 N20'
_cell_volume   680.68727471
_cell_formula_units_Z   2
loop_
 _symmetry_equiv_pos_site_id
 _symmetry_equiv_pos_as_xyz
  1  'x, y, z'
loop_
 _atom_site_type_symbol
 _atom_site_label
 _atom_site_symmetry_multiplicity
 _atom_site_fract_x
 _atom_site_fract_y
 _atom_site_fract_z
 _atom_site_occupancy
  Ni  Ni0  1  0.500000  0.500000  0.000000  1
  Ni  Ni1  1  0.500000  0.000000  0.500000  1
  H  H2  1  0.635024  0.536504  0.636155  1
  H  H3  1  0.635024  0.963496  0.136155  1
  H  H4  1  0.390139  0.575607  0.192453  1
  H  H5  1  0.926639  0.390795  0.802093  1
  H  H6  1  0.204869  0.844258  0.535519  1
  H  H7  1  0.475716  0.816353  0.094056  1
  H  H8  1  0.364976  0.463496  0.363845  1
  H  H9  1  0.848247  0.794658  0.723527  1
  H  H10  1  0.836335  0.596538  0.453277  1
  H  H11  1  0.892004  0.523034  0.276052  1
  H  H12  1  0.204869  0.655742  0.035519  1
  H  H13  1  0.364976  0.036504  0.863845  1
  H  H14  1  0.956623  0.164895  0.944488  1
  H  H15  1  0.868641  0.788795  0.470067  1
  H  H16  1  0.107996  0.023034  0.223948  1
  H  H17  1  0.609861  0.075607  0.307547  1
  H  H18  1  0.524284  0.316353  0.405944  1
  H  H19  1  0.609861  0.424393  0.807547  1
  H  H20  1  0.107996  0.476966  0.723948  1
  H  H21  1  0.131359  0.288795  0.029933  1
  H  H22  1  0.151753  0.205342  0.276473  1
  H  H23  1  0.795131  0.155742  0.464481  1
  H  H24  1  0.163665  0.096538  0.046723  1
  H  H25  1  0.151753  0.294658  0.776473  1
  H  H26  1  0.073361  0.609205  0.197907  1
  H  H27  1  0.795131  0.344258  0.964481  1
  H  H28  1  0.892004  0.976966  0.776052  1
  H  H29  1  0.926639  0.109205  0.302093  1
  H  H30  1  0.848247  0.705342  0.223527  1
  H  H31  1  0.131359  0.211205  0.529933  1
  H  H32  1  0.868641  0.711205  0.970067  1
  H  H33  1  0.043377  0.835105  0.055512  1
  H  H34  1  0.956623  0.335105  0.444488  1
  H  H35  1  0.043377  0.664895  0.555512  1
  H  H36  1  0.836335  0.903462  0.953277  1
  H  H37  1  0.163665  0.403462  0.546723  1
  H  H38  1  0.475716  0.683647  0.594056  1
  H  H39  1  0.073361  0.890795  0.697907  1
  H  H40  1  0.524284  0.183647  0.905944  1
  H  H41  1  0.390139  0.924393  0.692453  1
  C  C42  1  0.951804  0.816343  0.968534  1
  C  C43  1  0.539921  0.107194  0.738585  1
  C  C44  1  0.032542  0.373017  0.738476  1
  C  C45  1  0.967458  0.873017  0.761524  1
  C  C46  1  0.460079  0.607194  0.761415  1
  C  C47  1  0.539921  0.392806  0.238585  1
  C  C48  1  0.238242  0.778037  0.374863  1
  C  C49  1  0.032542  0.126983  0.238476  1
  C  C50  1  0.048196  0.183657  0.031466  1
  C  C51  1  0.238242  0.721963  0.874863  1
  C  C52  1  0.951804  0.683657  0.468534  1
  C  C53  1  0.460079  0.892806  0.261415  1
  C  C54  1  0.761758  0.278037  0.125137  1
  C  C55  1  0.761758  0.221963  0.625137  1
  C  C56  1  0.048196  0.316343  0.531466  1
  C  C57  1  0.967458  0.626983  0.261524  1
  N  N58  1  0.463422  0.489843  0.157738  1
  N  N59  1  0.325401  0.715699  0.775213  1
  N  N60  1  0.509657  0.596024  0.648489  1
  N  N61  1  0.463422  0.010157  0.657738  1
  N  N62  1  0.702566  0.143291  0.527761  1
  N  N63  1  0.702566  0.356709  0.027761  1
  N  N64  1  0.490343  0.403976  0.351511  1
  N  N65  1  0.921383  0.322270  0.625963  1
  N  N66  1  0.509657  0.903976  0.148489  1
  N  N67  1  0.536578  0.989843  0.342262  1
  N  N68  1  0.297434  0.856709  0.472239  1
  N  N69  1  0.297434  0.643291  0.972239  1
  N  N70  1  0.674599  0.284301  0.224787  1
  N  N71  1  0.325401  0.784301  0.275213  1
  N  N72  1  0.921383  0.177730  0.125963  1
  N  N73  1  0.536578  0.510157  0.842262  1
  N  N74  1  0.674599  0.215699  0.724787  1
  N  N75  1  0.078617  0.822270  0.874037  1
  N  N76  1  0.490343  0.096024  0.851511  1
  N  N77  1  0.078617  0.677730  0.374037  1
