# generated using pymatgen
data_NaReO4
_symmetry_space_group_name_H-M   'P 1'
_cell_length_a   7.09059175
_cell_length_b   7.09059175
_cell_length_c   7.09059175
_cell_angle_alpha   134.27019990
_cell_angle_beta   134.27019990
_cell_angle_gamma   66.66628365
_symmetry_Int_Tables_number   1
_chemical_formula_structural   NaReO4
_chemical_formula_sum   'Na2 Re2 O8'
_cell_volume   179.87204927
_cell_formula_units_Z   2
loop_
 _symmetry_equiv_pos_site_id
 _symmetry_equiv_pos_as_xyz
  1  'x, y, z'
loop_
 _atom_site_type_symbol
 _atom_site_label
 _atom_site_symmetry_multiplicity
 _atom_site_fract_x
 _atom_site_fract_y
 _atom_site_fract_z
 _atom_site_occupancy
  Na  Na0  1  0.750000  0.250000  0.500000  1
  Na  Na1  1  0.000000  0.000000  0.000000  1
  Re  Re2  1  0.250000  0.750000  0.500000  1
  Re  Re3  1  0.500000  0.500000  0.000000  1
  O  O4  1  0.185313  0.542021  0.895408  1
  O  O5  1  0.292021  0.896613  0.856708  1
  O  O6  1  0.039905  0.435313  0.143292  1
  O  O7  1  0.646613  0.289905  0.104592  1
  O  O8  1  0.103387  0.960095  0.395408  1
  O  O9  1  0.710095  0.814687  0.356708  1
  O  O10  1  0.457979  0.353387  0.643292  1
  O  O11  1  0.564687  0.707979  0.604592  1
