# generated using pymatgen
data_V2(PO4)3
_symmetry_space_group_name_H-M   'P 1'
_cell_length_a   8.51173708
_cell_length_b   8.51173708
_cell_length_c   8.51173708
_cell_angle_alpha   60.62351714
_cell_angle_beta   60.62351714
_cell_angle_gamma   60.62351714
_symmetry_Int_Tables_number   1
_chemical_formula_structural   V2(PO4)3
_chemical_formula_sum   'V4 P6 O24'
_cell_volume   442.19295765
_cell_formula_units_Z   2
loop_
 _symmetry_equiv_pos_site_id
 _symmetry_equiv_pos_as_xyz
  1  'x, y, z'
loop_
 _atom_site_type_symbol
 _atom_site_label
 _atom_site_symmetry_multiplicity
 _atom_site_fract_x
 _atom_site_fract_y
 _atom_site_fract_z
 _atom_site_occupancy
  V  V0  1  0.636375  0.636375  0.636375  1
  V  V1  1  0.863625  0.863625  0.863625  1
  V  V2  1  0.136375  0.136375  0.136375  1
  V  V3  1  0.363625  0.363625  0.363625  1
  P  P4  1  0.250000  0.535718  0.964282  1
  P  P5  1  0.750000  0.464282  0.035718  1
  P  P6  1  0.464282  0.035718  0.750000  1
  P  P7  1  0.035718  0.750000  0.464282  1
  P  P8  1  0.964282  0.250000  0.535718  1
  P  P9  1  0.535718  0.964282  0.250000  1
  O  O10  1  0.499577  0.130733  0.302129  1
  O  O11  1  0.916661  0.274220  0.059526  1
  O  O12  1  0.774220  0.416661  0.559526  1
  O  O13  1  0.225780  0.583339  0.440474  1
  O  O14  1  0.416661  0.559526  0.774220  1
  O  O15  1  0.940474  0.083339  0.725780  1
  O  O16  1  0.583339  0.440474  0.225780  1
  O  O17  1  0.630733  0.999577  0.802129  1
  O  O18  1  0.369267  0.000423  0.197871  1
  O  O19  1  0.802129  0.630733  0.999577  1
  O  O20  1  0.999577  0.802129  0.630733  1
  O  O21  1  0.500423  0.869267  0.697871  1
  O  O22  1  0.302129  0.499577  0.130733  1
  O  O23  1  0.059526  0.916661  0.274220  1
  O  O24  1  0.697871  0.500423  0.869267  1
  O  O25  1  0.130733  0.302129  0.499577  1
  O  O26  1  0.440474  0.225780  0.583339  1
  O  O27  1  0.559526  0.774220  0.416661  1
  O  O28  1  0.197871  0.369267  0.000423  1
  O  O29  1  0.083339  0.725780  0.940474  1
  O  O30  1  0.869267  0.697871  0.500423  1
  O  O31  1  0.274220  0.059526  0.916661  1
  O  O32  1  0.725780  0.940474  0.083339  1
  O  O33  1  0.000423  0.197871  0.369267  1
