# generated using pymatgen
data_Cu2PO4F
_symmetry_space_group_name_H-M   'P 1'
_cell_length_a   7.17774980
_cell_length_b   7.17774980
_cell_length_c   10.14234193
_cell_angle_alpha   63.90121175
_cell_angle_beta   116.09878825
_cell_angle_gamma   128.30299815
_symmetry_Int_Tables_number   1
_chemical_formula_structural   Cu2PO4F
_chemical_formula_sum   'Cu8 P4 O16 F4'
_cell_volume   357.72461521
_cell_formula_units_Z   4
loop_
 _symmetry_equiv_pos_site_id
 _symmetry_equiv_pos_as_xyz
  1  'x, y, z'
loop_
 _atom_site_type_symbol
 _atom_site_label
 _atom_site_symmetry_multiplicity
 _atom_site_fract_x
 _atom_site_fract_y
 _atom_site_fract_z
 _atom_site_occupancy
  Cu  Cu0  1  0.804337  0.681743  0.001773  1
  Cu  Cu1  1  0.681743  0.804337  0.498227  1
  Cu  Cu2  1  0.195663  0.318257  0.998227  1
  Cu  Cu3  1  0.318257  0.195663  0.501773  1
  Cu  Cu4  1  0.962308  0.267955  0.651154  1
  Cu  Cu5  1  0.267955  0.962308  0.848846  1
  Cu  Cu6  1  0.037692  0.732045  0.348846  1
  Cu  Cu7  1  0.732045  0.037692  0.151154  1
  P  P8  1  0.778732  0.434773  0.801624  1
  P  P9  1  0.434773  0.778732  0.698376  1
  P  P10  1  0.221268  0.565227  0.198376  1
  P  P11  1  0.565227  0.221268  0.301624  1
  O  O12  1  0.229318  0.598873  0.596218  1
  O  O13  1  0.598873  0.229318  0.903782  1
  O  O14  1  0.770682  0.401127  0.403782  1
  O  O15  1  0.401127  0.770682  0.096218  1
  O  O16  1  0.050633  0.638863  0.190470  1
  O  O17  1  0.638863  0.050633  0.309530  1
  O  O18  1  0.949367  0.361137  0.809530  1
  O  O19  1  0.361137  0.949367  0.690470  1
  O  O20  1  0.353573  0.507056  0.364216  1
  O  O21  1  0.507056  0.353573  0.135784  1
  O  O22  1  0.646427  0.492944  0.635784  1
  O  O23  1  0.492944  0.646427  0.864216  1
  O  O24  1  0.061490  0.334807  0.132196  1
  O  O25  1  0.334807  0.061490  0.367804  1
  O  O26  1  0.938510  0.665193  0.867804  1
  O  O27  1  0.665193  0.938510  0.632196  1
  F  F28  1  0.905284  0.856689  0.402299  1
  F  F29  1  0.856689  0.905284  0.097701  1
  F  F30  1  0.094716  0.143311  0.597701  1
  F  F31  1  0.143311  0.094716  0.902299  1
