# generated using pymatgen
data_Sr9Zn4(CuO7)2
_symmetry_space_group_name_H-M   'P 1'
_cell_length_a   11.34001124
_cell_length_b   11.34001124
_cell_length_c   11.43249827
_cell_angle_alpha   81.51830843
_cell_angle_beta   98.48169157
_cell_angle_gamma   161.48499310
_symmetry_Int_Tables_number   1
_chemical_formula_structural   Sr9Zn4(CuO7)2
_chemical_formula_sum   'Sr9 Zn4 Cu2 O14'
_cell_volume   461.61511514
_cell_formula_units_Z   1
loop_
 _symmetry_equiv_pos_site_id
 _symmetry_equiv_pos_as_xyz
  1  'x, y, z'
loop_
 _atom_site_type_symbol
 _atom_site_label
 _atom_site_symmetry_multiplicity
 _atom_site_fract_x
 _atom_site_fract_y
 _atom_site_fract_z
 _atom_site_occupancy
  Sr  Sr0  1  0.693550  0.306450  0.570199  1
  Sr  Sr1  1  0.687249  0.312751  0.897795  1
  Sr  Sr2  1  0.686471  0.313529  0.225147  1
  Sr  Sr3  1  0.313529  0.686471  0.774853  1
  Sr  Sr4  1  0.509467  0.490533  0.807577  1
  Sr  Sr5  1  0.500000  0.500000  0.500000  1
  Sr  Sr6  1  0.306450  0.693550  0.429801  1
  Sr  Sr7  1  0.490533  0.509467  0.192423  1
  Sr  Sr8  1  0.312751  0.687249  0.102205  1
  Zn  Zn9  1  0.889663  0.110337  0.297316  1
  Zn  Zn10  1  0.897468  0.102532  0.961018  1
  Zn  Zn11  1  0.102532  0.897468  0.038982  1
  Zn  Zn12  1  0.110337  0.889663  0.702684  1
  Cu  Cu13  1  0.106472  0.893528  0.375953  1
  Cu  Cu14  1  0.893528  0.106472  0.624047  1
  O  O15  1  0.203033  0.796967  0.731104  1
  O  O16  1  0.802828  0.197172  0.929918  1
  O  O17  1  0.975158  0.024842  0.649728  1
  O  O18  1  0.088032  0.911968  0.864462  1
  O  O19  1  0.809543  0.190457  0.598514  1
  O  O20  1  0.593770  0.406230  0.640645  1
  O  O21  1  0.197172  0.802828  0.070082  1
  O  O22  1  0.796967  0.203033  0.268896  1
  O  O23  1  0.418995  0.581005  0.905969  1
  O  O24  1  0.190457  0.809543  0.401486  1
  O  O25  1  0.024842  0.975158  0.350272  1
  O  O26  1  0.581005  0.418995  0.094031  1
  O  O27  1  0.911968  0.088032  0.135538  1
  O  O28  1  0.406230  0.593770  0.359355  1
