# generated using pymatgen
data_K2Ge3(BO5)2
_symmetry_space_group_name_H-M   'P 1'
_cell_length_a   8.65107401
_cell_length_b   8.65107401
_cell_length_c   12.05869038
_cell_angle_alpha   51.95662920
_cell_angle_beta   128.04337080
_cell_angle_gamma   137.54752496
_symmetry_Int_Tables_number   1
_chemical_formula_structural   K2Ge3(BO5)2
_chemical_formula_sum   'K4 Ge6 B4 O20'
_cell_volume   457.04540734
_cell_formula_units_Z   2
loop_
 _symmetry_equiv_pos_site_id
 _symmetry_equiv_pos_as_xyz
  1  'x, y, z'
loop_
 _atom_site_type_symbol
 _atom_site_label
 _atom_site_symmetry_multiplicity
 _atom_site_fract_x
 _atom_site_fract_y
 _atom_site_fract_z
 _atom_site_occupancy
  K  K0  1  0.684729  0.208333  0.885783  1
  K  K1  1  0.342974  0.044070  0.387088  1
  K  K2  1  0.208333  0.684729  0.114217  1
  K  K3  1  0.044070  0.342974  0.612912  1
  Ge  Ge4  1  0.102644  0.102644  0.000000  1
  Ge  Ge5  1  0.720499  0.636732  0.175842  1
  Ge  Ge6  1  0.055463  0.806998  0.683555  1
  Ge  Ge7  1  0.357809  0.357809  0.500000  1
  Ge  Ge8  1  0.806998  0.055463  0.316445  1
  Ge  Ge9  1  0.636732  0.720499  0.824158  1
  B  B10  1  0.779760  0.623676  0.441325  1
  B  B11  1  0.595460  0.313671  0.077380  1
  B  B12  1  0.623676  0.779760  0.558675  1
  B  B13  1  0.313671  0.595460  0.922620  1
  O  O14  1  0.123809  0.258573  0.341084  1
  O  O15  1  0.774838  0.687965  0.676146  1
  O  O16  1  0.777680  0.505565  0.148124  1
  O  O17  1  0.127514  0.372236  0.877845  1
  O  O18  1  0.687965  0.774838  0.323854  1
  O  O19  1  0.558780  0.810713  0.629680  1
  O  O20  1  0.505565  0.777680  0.851876  1
  O  O21  1  0.258573  0.123809  0.658916  1
  O  O22  1  0.956959  0.934878  0.886025  1
  O  O23  1  0.019680  0.749719  0.548142  1
  O  O24  1  0.372236  0.127514  0.122155  1
  O  O25  1  0.602010  0.392780  0.522725  1
  O  O26  1  0.693644  0.186344  0.128064  1
  O  O27  1  0.542721  0.417616  0.912815  1
  O  O28  1  0.417616  0.542721  0.087185  1
  O  O29  1  0.392780  0.602010  0.477275  1
  O  O30  1  0.749719  0.019680  0.451858  1
  O  O31  1  0.186344  0.693644  0.871936  1
  O  O32  1  0.810713  0.558780  0.370320  1
  O  O33  1  0.934878  0.956959  0.113975  1
