# generated using pymatgen
data_K2ZnCu3P3O12F
_symmetry_space_group_name_H-M   'P 1'
_cell_length_a   4.97339036
_cell_length_b   14.60545865
_cell_length_c   8.04599201
_cell_angle_alpha   90.00000000
_cell_angle_beta   90.72559673
_cell_angle_gamma   90.00000000
_symmetry_Int_Tables_number   1
_chemical_formula_structural   K2ZnCu3P3O12F
_chemical_formula_sum   'K4 Zn2 Cu6 P6 O24 F2'
_cell_volume   584.40310924
_cell_formula_units_Z   2
loop_
 _symmetry_equiv_pos_site_id
 _symmetry_equiv_pos_as_xyz
  1  'x, y, z'
loop_
 _atom_site_type_symbol
 _atom_site_label
 _atom_site_symmetry_multiplicity
 _atom_site_fract_x
 _atom_site_fract_y
 _atom_site_fract_z
 _atom_site_occupancy
  K  K0  1  0.451973  0.250000  0.637734  1
  K  K1  1  0.500000  0.500000  0.000000  1
  K  K2  1  0.548027  0.750000  0.362266  1
  K  K3  1  0.500000  0.000000  0.000000  1
  Zn  Zn4  1  0.026882  0.750000  0.046413  1
  Zn  Zn5  1  0.973118  0.250000  0.953587  1
  Cu  Cu6  1  0.067234  0.636266  0.643790  1
  Cu  Cu7  1  0.067234  0.863734  0.643790  1
  Cu  Cu8  1  0.932766  0.136266  0.356210  1
  Cu  Cu9  1  0.932766  0.363734  0.356210  1
  Cu  Cu10  1  0.500000  0.000000  0.500000  1
  Cu  Cu11  1  0.500000  0.500000  0.500000  1
  P  P12  1  0.997520  0.066675  0.704404  1
  P  P13  1  0.518679  0.750000  0.822606  1
  P  P14  1  0.002480  0.933325  0.295596  1
  P  P15  1  0.481321  0.250000  0.177394  1
  P  P16  1  0.002480  0.566675  0.295596  1
  P  P17  1  0.997520  0.433325  0.704404  1
  O  O18  1  0.568987  0.337928  0.272427  1
  O  O19  1  0.431013  0.662072  0.727573  1
  O  O20  1  0.059389  0.528362  0.781692  1
  O  O21  1  0.411858  0.750000  0.003412  1
  O  O22  1  0.917549  0.860031  0.169074  1
  O  O23  1  0.831536  0.579251  0.460154  1
  O  O24  1  0.588142  0.250000  0.996588  1
  O  O25  1  0.940611  0.471638  0.218308  1
  O  O26  1  0.306184  0.923257  0.341318  1
  O  O27  1  0.166420  0.250000  0.169637  1
  O  O28  1  0.082451  0.360031  0.830926  1
  O  O29  1  0.568987  0.162072  0.272427  1
  O  O30  1  0.168464  0.420749  0.539846  1
  O  O31  1  0.306184  0.576743  0.341318  1
  O  O32  1  0.940611  0.028362  0.218308  1
  O  O33  1  0.693816  0.423257  0.658682  1
  O  O34  1  0.831536  0.920749  0.460154  1
  O  O35  1  0.917549  0.639969  0.169074  1
  O  O36  1  0.059389  0.971638  0.781692  1
  O  O37  1  0.833580  0.750000  0.830363  1
  O  O38  1  0.168464  0.079251  0.539846  1
  O  O39  1  0.431013  0.837928  0.727573  1
  O  O40  1  0.693816  0.076743  0.658682  1
  O  O41  1  0.082451  0.139969  0.830926  1
  F  F42  1  0.055194  0.750000  0.512100  1
  F  F43  1  0.944806  0.250000  0.487900  1
