# generated using pymatgen
data_Cs3SbO3
_symmetry_space_group_name_H-M   'P 1'
_cell_length_a   9.35897074
_cell_length_b   9.35897074
_cell_length_c   9.35897074
_cell_angle_alpha   90.00000000
_cell_angle_beta   90.00000000
_cell_angle_gamma   90.00000000
_symmetry_Int_Tables_number   1
_chemical_formula_structural   Cs3SbO3
_chemical_formula_sum   'Cs12 Sb4 O12'
_cell_volume   819.75536658
_cell_formula_units_Z   4
loop_
 _symmetry_equiv_pos_site_id
 _symmetry_equiv_pos_as_xyz
  1  'x, y, z'
loop_
 _atom_site_type_symbol
 _atom_site_label
 _atom_site_symmetry_multiplicity
 _atom_site_fract_x
 _atom_site_fract_y
 _atom_site_fract_z
 _atom_site_occupancy
  Cs  Cs0  1  0.277244  0.722756  0.222756  1
  Cs  Cs1  1  0.486614  0.986614  0.513386  1
  Cs  Cs2  1  0.222756  0.277244  0.722756  1
  Cs  Cs3  1  0.013386  0.013386  0.013386  1
  Cs  Cs4  1  0.772929  0.227071  0.727071  1
  Cs  Cs5  1  0.727071  0.772929  0.227071  1
  Cs  Cs6  1  0.513386  0.486614  0.986614  1
  Cs  Cs7  1  0.986614  0.513386  0.486614  1
  Cs  Cs8  1  0.227071  0.727071  0.772929  1
  Cs  Cs9  1  0.722756  0.222756  0.277244  1
  Cs  Cs10  1  0.777244  0.777244  0.777244  1
  Cs  Cs11  1  0.272929  0.272929  0.272929  1
  Sb  Sb12  1  0.501439  0.501439  0.501439  1
  Sb  Sb13  1  0.998561  0.498561  0.001439  1
  Sb  Sb14  1  0.498561  0.001439  0.998561  1
  Sb  Sb15  1  0.001439  0.998561  0.498561  1
  O  O16  1  0.461186  0.004291  0.205970  1
  O  O17  1  0.705970  0.038814  0.995709  1
  O  O18  1  0.004291  0.205970  0.461186  1
  O  O19  1  0.961186  0.495709  0.794030  1
  O  O20  1  0.038814  0.995709  0.705970  1
  O  O21  1  0.495709  0.794030  0.961186  1
  O  O22  1  0.794030  0.961186  0.495709  1
  O  O23  1  0.205970  0.461186  0.004291  1
  O  O24  1  0.995709  0.705970  0.038814  1
  O  O25  1  0.538814  0.504291  0.294030  1
  O  O26  1  0.294030  0.538814  0.504291  1
  O  O27  1  0.504291  0.294030  0.538814  1
