# generated using pymatgen
data_Li3MoP2O9
_symmetry_space_group_name_H-M   'P 1'
_cell_length_a   7.17504630
_cell_length_b   7.21596797
_cell_length_c   8.01973987
_cell_angle_alpha   88.78280074
_cell_angle_beta   116.23311112
_cell_angle_gamma   93.06016153
_symmetry_Int_Tables_number   1
_chemical_formula_structural   Li3MoP2O9
_chemical_formula_sum   'Li6 Mo2 P4 O18'
_cell_volume   371.92235648
_cell_formula_units_Z   2
loop_
 _symmetry_equiv_pos_site_id
 _symmetry_equiv_pos_as_xyz
  1  'x, y, z'
loop_
 _atom_site_type_symbol
 _atom_site_label
 _atom_site_symmetry_multiplicity
 _atom_site_fract_x
 _atom_site_fract_y
 _atom_site_fract_z
 _atom_site_occupancy
  Li  Li0  1  0.910479  0.749092  0.811286  1
  Li  Li1  1  0.997606  0.495585  0.501751  1
  Li  Li2  1  0.410341  0.328697  0.748996  1
  Li  Li3  1  0.582200  0.665563  0.249589  1
  Li  Li4  1  0.150787  0.257590  0.190220  1
  Li  Li5  1  0.769766  0.999938  0.000913  1
  Mo  Mo6  1  0.490920  0.003236  0.490158  1
  Mo  Mo7  1  0.002122  0.995702  0.509989  1
  P  P8  1  0.877444  0.296332  0.754896  1
  P  P9  1  0.619528  0.242109  0.196491  1
  P  P10  1  0.099656  0.702984  0.244354  1
  P  P11  1  0.394438  0.756211  0.805098  1
  O  O12  1  0.235381  0.107858  0.467904  1
  O  O13  1  0.996220  0.229712  0.638130  1
  O  O14  1  0.103777  0.495322  0.249574  1
  O  O15  1  0.695852  0.426084  0.297892  1
  O  O16  1  0.952183  0.196392  0.939470  1
  O  O17  1  0.338323  0.783935  0.336935  1
  O  O18  1  0.509101  0.759918  0.013565  1
  O  O19  1  0.194072  0.882285  0.741349  1
  O  O20  1  0.810149  0.105627  0.266478  1
  O  O21  1  0.542294  0.870070  0.733056  1
  O  O22  1  0.529998  0.237934  0.988000  1
  O  O23  1  0.637549  0.229212  0.639963  1
  O  O24  1  0.316575  0.572607  0.704497  1
  O  O25  1  0.983110  0.803415  0.062575  1
  O  O26  1  0.897392  0.504360  0.747309  1
  O  O27  1  0.453248  0.145574  0.258343  1
  O  O28  1  0.003565  0.758573  0.381964  1
  O  O29  1  0.754099  0.898083  0.529252  1
