# generated using pymatgen
data_SeO2
_symmetry_space_group_name_H-M   'P 1'
_cell_length_a   4.68485296
_cell_length_b   5.21845518
_cell_length_c   16.04687156
_cell_angle_alpha   90.00000000
_cell_angle_beta   90.00000000
_cell_angle_gamma   90.00000000
_symmetry_Int_Tables_number   1
_chemical_formula_structural   SeO2
_chemical_formula_sum   'Se8 O16'
_cell_volume   392.30902476
_cell_formula_units_Z   8
loop_
 _symmetry_equiv_pos_site_id
 _symmetry_equiv_pos_as_xyz
  1  'x, y, z'
loop_
 _atom_site_type_symbol
 _atom_site_label
 _atom_site_symmetry_multiplicity
 _atom_site_fract_x
 _atom_site_fract_y
 _atom_site_fract_z
 _atom_site_occupancy
  Se  Se0  1  0.513782  0.500000  0.748157  1
  Se  Se1  1  0.973532  0.500000  0.998696  1
  Se  Se2  1  0.110435  0.000000  0.187121  1
  Se  Se3  1  0.338309  0.000000  0.936002  1
  Se  Se4  1  0.889565  0.000000  0.687121  1
  Se  Se5  1  0.661691  0.000000  0.436002  1
  Se  Se6  1  0.026468  0.500000  0.498696  1
  Se  Se7  1  0.486218  0.500000  0.248157  1
  O  O8  1  0.382263  0.250040  0.173298  1
  O  O9  1  0.617737  0.250040  0.673298  1
  O  O10  1  0.066322  0.749325  0.922040  1
  O  O11  1  0.010245  0.000000  0.590831  1
  O  O12  1  0.617737  0.749960  0.673298  1
  O  O13  1  0.829776  0.500000  0.227734  1
  O  O14  1  0.066322  0.250675  0.922040  1
  O  O15  1  0.989755  0.000000  0.090831  1
  O  O16  1  0.170224  0.500000  0.727734  1
  O  O17  1  0.373559  0.500000  0.484125  1
  O  O18  1  0.536812  0.000000  0.340158  1
  O  O19  1  0.626441  0.500000  0.984125  1
  O  O20  1  0.463188  0.000000  0.840158  1
  O  O21  1  0.933678  0.749325  0.422040  1
  O  O22  1  0.933678  0.250675  0.422040  1
  O  O23  1  0.382263  0.749960  0.173298  1
