# generated using pymatgen
data_K2Cu3(SeO3)4
_symmetry_space_group_name_H-M   'P 1'
_cell_length_a   5.50064672
_cell_length_b   7.48346813
_cell_length_c   8.57586017
_cell_angle_alpha   96.21050017
_cell_angle_beta   108.39239757
_cell_angle_gamma   93.18858355
_symmetry_Int_Tables_number   1
_chemical_formula_structural   K2Cu3(SeO3)4
_chemical_formula_sum   'K2 Cu3 Se4 O12'
_cell_volume   331.50640192
_cell_formula_units_Z   1
loop_
 _symmetry_equiv_pos_site_id
 _symmetry_equiv_pos_as_xyz
  1  'x, y, z'
loop_
 _atom_site_type_symbol
 _atom_site_label
 _atom_site_symmetry_multiplicity
 _atom_site_fract_x
 _atom_site_fract_y
 _atom_site_fract_z
 _atom_site_occupancy
  K  K0  1  0.847746  0.416258  0.700351  1
  K  K1  1  0.152254  0.583742  0.299649  1
  Cu  Cu2  1  0.599239  0.251764  0.218625  1
  Cu  Cu3  1  0.400761  0.748236  0.781375  1
  Cu  Cu4  1  0.000000  0.000000  0.000000  1
  Se  Se5  1  0.424230  0.185467  0.870598  1
  Se  Se6  1  0.195240  0.135732  0.412538  1
  Se  Se7  1  0.804760  0.864268  0.587462  1
  Se  Se8  1  0.575770  0.814533  0.129402  1
  O  O9  1  0.557690  0.723361  0.607178  1
  O  O10  1  0.724735  0.237542  0.027780  1
  O  O11  1  0.945763  0.273495  0.383941  1
  O  O12  1  0.372490  0.369122  0.773492  1
  O  O13  1  0.887220  0.028730  0.759615  1
  O  O14  1  0.627510  0.630878  0.226508  1
  O  O15  1  0.054237  0.726505  0.616059  1
  O  O16  1  0.275265  0.762458  0.972220  1
  O  O17  1  0.731749  0.790289  0.971510  1
  O  O18  1  0.268251  0.209711  0.028490  1
  O  O19  1  0.442310  0.276639  0.392822  1
  O  O20  1  0.112780  0.971270  0.240385  1
