# generated using pymatgen
data_Mo15Se19
_symmetry_space_group_name_H-M   'P 1'
_cell_length_a   9.62931773
_cell_length_b   9.62931773
_cell_length_c   19.85199648
_cell_angle_alpha   90.00000000
_cell_angle_beta   90.00000000
_cell_angle_gamma   120.00000000
_symmetry_Int_Tables_number   1
_chemical_formula_structural   Mo15Se19
_chemical_formula_sum   'Mo30 Se38'
_cell_volume   1594.13778370
_cell_formula_units_Z   2
loop_
 _symmetry_equiv_pos_site_id
 _symmetry_equiv_pos_as_xyz
  1  'x, y, z'
loop_
 _atom_site_type_symbol
 _atom_site_label
 _atom_site_symmetry_multiplicity
 _atom_site_fract_x
 _atom_site_fract_y
 _atom_site_fract_z
 _atom_site_occupancy
  Mo  Mo0  1  0.687432  0.504471  0.133435  1
  Mo  Mo1  1  0.165370  0.512081  0.750000  1
  Mo  Mo2  1  0.021011  0.171050  0.559652  1
  Mo  Mo3  1  0.828950  0.849961  0.559652  1
  Mo  Mo4  1  0.687432  0.504471  0.366565  1
  Mo  Mo5  1  0.817039  0.312568  0.366565  1
  Mo  Mo6  1  0.495529  0.182961  0.133435  1
  Mo  Mo7  1  0.312568  0.495529  0.633435  1
  Mo  Mo8  1  0.512081  0.346711  0.250000  1
  Mo  Mo9  1  0.150039  0.978989  0.559652  1
  Mo  Mo10  1  0.487919  0.653289  0.750000  1
  Mo  Mo11  1  0.653289  0.165370  0.250000  1
  Mo  Mo12  1  0.828950  0.849961  0.940348  1
  Mo  Mo13  1  0.495529  0.182961  0.366565  1
  Mo  Mo14  1  0.849961  0.021011  0.440348  1
  Mo  Mo15  1  0.182961  0.687432  0.866565  1
  Mo  Mo16  1  0.849961  0.021011  0.059652  1
  Mo  Mo17  1  0.182961  0.687432  0.633435  1
  Mo  Mo18  1  0.978989  0.828950  0.440348  1
  Mo  Mo19  1  0.504471  0.817039  0.866565  1
  Mo  Mo20  1  0.171050  0.150039  0.440348  1
  Mo  Mo21  1  0.150039  0.978989  0.940348  1
  Mo  Mo22  1  0.312568  0.495529  0.866565  1
  Mo  Mo23  1  0.021011  0.171050  0.940348  1
  Mo  Mo24  1  0.817039  0.312568  0.133435  1
  Mo  Mo25  1  0.978989  0.828950  0.059652  1
  Mo  Mo26  1  0.504471  0.817039  0.633435  1
  Mo  Mo27  1  0.346711  0.834630  0.750000  1
  Mo  Mo28  1  0.171050  0.150039  0.059652  1
  Mo  Mo29  1  0.834630  0.487919  0.250000  1
  Se  Se30  1  0.996929  0.624401  0.356109  1
  Se  Se31  1  0.035389  0.327070  0.048059  1
  Se  Se32  1  0.372528  0.996929  0.643891  1
  Se  Se33  1  0.624401  0.627472  0.856109  1
  Se  Se34  1  0.000000  0.000000  0.338813  1
  Se  Se35  1  0.342072  0.038120  0.250000  1
  Se  Se36  1  0.333333  0.666667  0.531883  1
  Se  Se37  1  0.000000  0.000000  0.838813  1
  Se  Se38  1  0.327070  0.291681  0.548059  1
  Se  Se39  1  0.303952  0.342072  0.750000  1
  Se  Se40  1  0.666667  0.333333  0.468117  1
  Se  Se41  1  0.291681  0.964611  0.451941  1
  Se  Se42  1  0.964611  0.672930  0.548059  1
  Se  Se43  1  0.672930  0.708319  0.048059  1
  Se  Se44  1  0.038120  0.696048  0.750000  1
  Se  Se45  1  0.708319  0.035389  0.548059  1
  Se  Se46  1  0.672930  0.708319  0.451941  1
  Se  Se47  1  0.627472  0.003071  0.143891  1
  Se  Se48  1  0.003071  0.375599  0.643891  1
  Se  Se49  1  0.003071  0.375599  0.856109  1
  Se  Se50  1  0.961880  0.303952  0.250000  1
  Se  Se51  1  0.708319  0.035389  0.951941  1
  Se  Se52  1  0.035389  0.327070  0.451941  1
  Se  Se53  1  0.666667  0.333333  0.031883  1
  Se  Se54  1  0.627472  0.003071  0.356109  1
  Se  Se55  1  0.372528  0.996929  0.856109  1
  Se  Se56  1  0.996929  0.624401  0.143891  1
  Se  Se57  1  0.964611  0.672930  0.951941  1
  Se  Se58  1  0.375599  0.372528  0.356109  1
  Se  Se59  1  0.657928  0.961880  0.750000  1
  Se  Se60  1  0.327070  0.291681  0.951941  1
  Se  Se61  1  0.000000  0.000000  0.661187  1
  Se  Se62  1  0.333333  0.666667  0.968117  1
  Se  Se63  1  0.291681  0.964611  0.048059  1
  Se  Se64  1  0.696048  0.657928  0.250000  1
  Se  Se65  1  0.624401  0.627472  0.643891  1
  Se  Se66  1  0.000000  0.000000  0.161187  1
  Se  Se67  1  0.375599  0.372528  0.143891  1
