# generated using pymatgen
data_Ti3Ni4
_symmetry_space_group_name_H-M   'P 1'
_cell_length_a   6.69043458
_cell_length_b   6.69043458
_cell_length_c   6.69043458
_cell_angle_alpha   113.88064024
_cell_angle_beta   113.88064024
_cell_angle_gamma   113.88064024
_symmetry_Int_Tables_number   1
_chemical_formula_structural   Ti3Ni4
_chemical_formula_sum   'Ti6 Ni8'
_cell_volume   183.54669661
_cell_formula_units_Z   2
loop_
 _symmetry_equiv_pos_site_id
 _symmetry_equiv_pos_as_xyz
  1  'x, y, z'
loop_
 _atom_site_type_symbol
 _atom_site_label
 _atom_site_symmetry_multiplicity
 _atom_site_fract_x
 _atom_site_fract_y
 _atom_site_fract_z
 _atom_site_occupancy
  Ti  Ti0  1  0.494454  0.757379  0.891362  1
  Ti  Ti1  1  0.242621  0.108638  0.505546  1
  Ti  Ti2  1  0.505546  0.242621  0.108638  1
  Ti  Ti3  1  0.108638  0.505546  0.242621  1
  Ti  Ti4  1  0.891362  0.494454  0.757379  1
  Ti  Ti5  1  0.757379  0.891362  0.494454  1
  Ni  Ni6  1  0.584524  0.060270  0.743673  1
  Ni  Ni7  1  0.415476  0.939730  0.256327  1
  Ni  Ni8  1  0.743673  0.584524  0.060270  1
  Ni  Ni9  1  0.060270  0.743673  0.584524  1
  Ni  Ni10  1  0.256327  0.415476  0.939730  1
  Ni  Ni11  1  0.000000  0.000000  0.000000  1
  Ni  Ni12  1  0.939730  0.256327  0.415476  1
  Ni  Ni13  1  0.500000  0.500000  0.500000  1
