# generated using pymatgen
data_Rb5(CoO2)2
_symmetry_space_group_name_H-M   'P 1'
_cell_length_a   7.07518326
_cell_length_b   9.37825527
_cell_length_c   9.71731734
_cell_angle_alpha   118.30871207
_cell_angle_beta   89.29211115
_cell_angle_gamma   108.74394166
_symmetry_Int_Tables_number   1
_chemical_formula_structural   Rb5(CoO2)2
_chemical_formula_sum   'Rb10 Co4 O8'
_cell_volume   529.91748881
_cell_formula_units_Z   2
loop_
 _symmetry_equiv_pos_site_id
 _symmetry_equiv_pos_as_xyz
  1  'x, y, z'
loop_
 _atom_site_type_symbol
 _atom_site_label
 _atom_site_symmetry_multiplicity
 _atom_site_fract_x
 _atom_site_fract_y
 _atom_site_fract_z
 _atom_site_occupancy
  Rb  Rb0  1  0.096588  0.610723  0.222708  1
  Rb  Rb1  1  0.903412  0.389277  0.777292  1
  Rb  Rb2  1  0.100299  0.214700  0.222517  1
  Rb  Rb3  1  0.899701  0.785300  0.777483  1
  Rb  Rb4  1  0.269072  0.073911  0.975929  1
  Rb  Rb5  1  0.730928  0.926089  0.024071  1
  Rb  Rb6  1  0.618850  0.990940  0.364276  1
  Rb  Rb7  1  0.381150  0.009060  0.635724  1
  Rb  Rb8  1  0.378555  0.549324  0.616510  1
  Rb  Rb9  1  0.621445  0.450676  0.383490  1
  Co  Co10  1  0.389964  0.610148  0.971410  1
  Co  Co11  1  0.610036  0.389852  0.028590  1
  Co  Co12  1  0.015015  0.213761  0.577284  1
  Co  Co13  1  0.984985  0.786239  0.422716  1
  O  O14  1  0.310289  0.780696  0.954916  1
  O  O15  1  0.689711  0.219304  0.045084  1
  O  O16  1  0.771039  0.686866  0.521155  1
  O  O17  1  0.228961  0.313134  0.478845  1
  O  O18  1  0.680432  0.591569  0.048365  1
  O  O19  1  0.319568  0.408431  0.951635  1
  O  O20  1  0.189626  0.888548  0.314021  1
  O  O21  1  0.810374  0.111452  0.685979  1
