# generated using pymatgen
data_Ga2Te2MoO10
_symmetry_space_group_name_H-M   'P 1'
_cell_length_a   6.16133102
_cell_length_b   8.96499052
_cell_length_c   15.30237589
_cell_angle_alpha   90.00000000
_cell_angle_beta   90.00000000
_cell_angle_gamma   90.00000000
_symmetry_Int_Tables_number   1
_chemical_formula_structural   Ga2Te2MoO10
_chemical_formula_sum   'Ga8 Te8 Mo4 O40'
_cell_volume   845.24623034
_cell_formula_units_Z   4
loop_
 _symmetry_equiv_pos_site_id
 _symmetry_equiv_pos_as_xyz
  1  'x, y, z'
loop_
 _atom_site_type_symbol
 _atom_site_label
 _atom_site_symmetry_multiplicity
 _atom_site_fract_x
 _atom_site_fract_y
 _atom_site_fract_z
 _atom_site_occupancy
  Ga  Ga0  1  0.004372  0.006148  0.647807  1
  Ga  Ga1  1  0.995628  0.993852  0.352193  1
  Ga  Ga2  1  0.004372  0.506148  0.852193  1
  Ga  Ga3  1  0.504372  0.993852  0.352193  1
  Ga  Ga4  1  0.495628  0.506148  0.852193  1
  Ga  Ga5  1  0.504372  0.493852  0.147807  1
  Ga  Ga6  1  0.495628  0.006148  0.647807  1
  Ga  Ga7  1  0.995628  0.493852  0.147807  1
  Te  Te8  1  0.750000  0.188086  0.815783  1
  Te  Te9  1  0.750000  0.254257  0.491588  1
  Te  Te10  1  0.250000  0.745743  0.508412  1
  Te  Te11  1  0.750000  0.688086  0.684217  1
  Te  Te12  1  0.250000  0.311914  0.315783  1
  Te  Te13  1  0.750000  0.754257  0.008412  1
  Te  Te14  1  0.250000  0.811914  0.184217  1
  Te  Te15  1  0.250000  0.245743  0.991588  1
  Mo  Mo16  1  0.250000  0.825537  0.835736  1
  Mo  Mo17  1  0.250000  0.325537  0.664264  1
  Mo  Mo18  1  0.750000  0.174463  0.164264  1
  Mo  Mo19  1  0.750000  0.674463  0.335736  1
  O  O20  1  0.483140  0.324914  0.924242  1
  O  O21  1  0.014444  0.332957  0.234313  1
  O  O22  1  0.516860  0.175086  0.424242  1
  O  O23  1  0.750000  0.085269  0.275350  1
  O  O24  1  0.016860  0.824914  0.575758  1
  O  O25  1  0.750000  0.585269  0.224650  1
  O  O26  1  0.971193  0.590970  0.389094  1
  O  O27  1  0.250000  0.403645  0.076698  1
  O  O28  1  0.016860  0.324914  0.924242  1
  O  O29  1  0.750000  0.903836  0.703788  1
  O  O30  1  0.516860  0.675086  0.075758  1
  O  O31  1  0.528807  0.590970  0.389094  1
  O  O32  1  0.471193  0.409030  0.610906  1
  O  O33  1  0.250000  0.125373  0.604738  1
  O  O34  1  0.250000  0.414731  0.775350  1
  O  O35  1  0.750000  0.374627  0.104738  1
  O  O36  1  0.750000  0.096355  0.576698  1
  O  O37  1  0.971193  0.090970  0.110906  1
  O  O38  1  0.985556  0.667043  0.765687  1
  O  O39  1  0.750000  0.874627  0.395262  1
  O  O40  1  0.250000  0.903645  0.423302  1
  O  O41  1  0.028807  0.409030  0.610906  1
  O  O42  1  0.485556  0.832957  0.265687  1
  O  O43  1  0.514444  0.167043  0.734313  1
  O  O44  1  0.528807  0.090970  0.110906  1
  O  O45  1  0.985556  0.167043  0.734313  1
  O  O46  1  0.250000  0.625373  0.895262  1
  O  O47  1  0.250000  0.096164  0.296212  1
  O  O48  1  0.983140  0.175086  0.424242  1
  O  O49  1  0.983140  0.675086  0.075758  1
  O  O50  1  0.471193  0.909030  0.889094  1
  O  O51  1  0.250000  0.596164  0.203788  1
  O  O52  1  0.514444  0.667043  0.765687  1
  O  O53  1  0.028807  0.909030  0.889094  1
  O  O54  1  0.750000  0.403836  0.796212  1
  O  O55  1  0.014444  0.832957  0.265687  1
  O  O56  1  0.250000  0.914731  0.724650  1
  O  O57  1  0.750000  0.596355  0.923302  1
  O  O58  1  0.483140  0.824914  0.575758  1
  O  O59  1  0.485556  0.332957  0.234313  1
