# generated using pymatgen
data_Cd3As2
_symmetry_space_group_name_H-M   'P 1'
_cell_length_a   15.87732705
_cell_length_b   15.87732705
_cell_length_c   15.87732705
_cell_angle_alpha   132.03175610
_cell_angle_beta   132.03175610
_cell_angle_gamma   70.17887620
_symmetry_Int_Tables_number   1
_chemical_formula_structural   Cd3As2
_chemical_formula_sum   'Cd48 As32'
_cell_volume   2164.54671998
_cell_formula_units_Z   16
loop_
 _symmetry_equiv_pos_site_id
 _symmetry_equiv_pos_as_xyz
  1  'x, y, z'
loop_
 _atom_site_type_symbol
 _atom_site_label
 _atom_site_symmetry_multiplicity
 _atom_site_fract_x
 _atom_site_fract_y
 _atom_site_fract_z
 _atom_site_occupancy
  Cd  Cd0  1  0.462127  0.441799  0.258905  1
  Cd  Cd1  1  0.962127  0.703222  0.020328  1
  Cd  Cd2  1  0.691799  0.212127  0.758905  1
  Cd  Cd3  1  0.191799  0.432894  0.479672  1
  Cd  Cd4  1  0.287873  0.808201  0.241095  1
  Cd  Cd5  1  0.787873  0.546778  0.479672  1
  Cd  Cd6  1  0.058201  0.037873  0.741095  1
  Cd  Cd7  1  0.558201  0.817106  0.020328  1
  Cd  Cd8  1  0.682894  0.941799  0.979672  1
  Cd  Cd9  1  0.182894  0.203222  0.741095  1
  Cd  Cd10  1  0.953222  0.712127  0.520328  1
  Cd  Cd11  1  0.453222  0.932894  0.241095  1
  Cd  Cd12  1  0.067106  0.308201  0.520328  1
  Cd  Cd13  1  0.567106  0.046778  0.758905  1
  Cd  Cd14  1  0.796778  0.537873  0.979672  1
  Cd  Cd15  1  0.296778  0.317106  0.258905  1
  Cd  Cd16  1  0.414119  0.694809  0.504044  1
  Cd  Cd17  1  0.914119  0.410075  0.719310  1
  Cd  Cd18  1  0.944809  0.164119  0.004044  1
  Cd  Cd19  1  0.444809  0.440765  0.780690  1
  Cd  Cd20  1  0.335881  0.555191  0.995956  1
  Cd  Cd21  1  0.835881  0.839925  0.780690  1
  Cd  Cd22  1  0.805191  0.085881  0.495956  1
  Cd  Cd23  1  0.305191  0.809235  0.719310  1
  Cd  Cd24  1  0.690765  0.194809  0.280690  1
  Cd  Cd25  1  0.190765  0.910075  0.495956  1
  Cd  Cd26  1  0.660075  0.664119  0.219310  1
  Cd  Cd27  1  0.160075  0.940765  0.995956  1
  Cd  Cd28  1  0.059235  0.055191  0.219310  1
  Cd  Cd29  1  0.559235  0.339925  0.004044  1
  Cd  Cd30  1  0.089925  0.585881  0.280690  1
  Cd  Cd31  1  0.589925  0.309235  0.504044  1
  Cd  Cd32  1  0.431239  0.168157  0.974421  1
  Cd  Cd33  1  0.931239  0.956819  0.263083  1
  Cd  Cd34  1  0.418157  0.181239  0.474421  1
  Cd  Cd35  1  0.918157  0.443736  0.236917  1
  Cd  Cd36  1  0.318761  0.081843  0.525579  1
  Cd  Cd37  1  0.818761  0.293181  0.236917  1
  Cd  Cd38  1  0.331843  0.068761  0.025579  1
  Cd  Cd39  1  0.831843  0.806264  0.263083  1
  Cd  Cd40  1  0.693736  0.668157  0.736917  1
  Cd  Cd41  1  0.193736  0.456819  0.025579  1
  Cd  Cd42  1  0.206819  0.681239  0.763083  1
  Cd  Cd43  1  0.706819  0.943736  0.525579  1
  Cd  Cd44  1  0.056264  0.581843  0.763083  1
  Cd  Cd45  1  0.556264  0.793181  0.474421  1
  Cd  Cd46  1  0.543181  0.568761  0.736917  1
  Cd  Cd47  1  0.043181  0.306264  0.974421  1
  As  As48  1  0.497525  0.259569  0.253339  1
  As  As49  1  0.997525  0.744186  0.237957  1
  As  As50  1  0.509569  0.247525  0.753339  1
  As  As51  1  0.009569  0.256229  0.262043  1
  As  As52  1  0.252475  0.990431  0.246661  1
  As  As53  1  0.752475  0.505814  0.262043  1
  As  As54  1  0.240431  0.002475  0.746661  1
  As  As55  1  0.740431  0.993771  0.237957  1
  As  As56  1  0.506229  0.759569  0.762043  1
  As  As57  1  0.006229  0.244186  0.746661  1
  As  As58  1  0.994186  0.747525  0.737957  1
  As  As59  1  0.494186  0.756229  0.246661  1
  As  As60  1  0.243771  0.490431  0.737957  1
  As  As61  1  0.743771  0.005814  0.753339  1
  As  As62  1  0.755814  0.502475  0.762043  1
  As  As63  1  0.255814  0.493771  0.253339  1
  As  As64  1  0.375493  0.375493  0.000000  1
  As  As65  1  0.875493  0.875493  0.000000  1
  As  As66  1  0.625493  0.125493  0.500000  1
  As  As67  1  0.125493  0.625493  0.500000  1
  As  As68  1  0.374507  0.874507  0.500000  1
  As  As69  1  0.874507  0.374507  0.500000  1
  As  As70  1  0.124507  0.124507  0.000000  1
  As  As71  1  0.624507  0.624507  0.000000  1
  As  As72  1  0.625000  0.635792  0.510792  1
  As  As73  1  0.125000  0.614208  0.989208  1
  As  As74  1  0.885792  0.375000  0.010792  1
  As  As75  1  0.385792  0.375000  0.510792  1
  As  As76  1  0.864208  0.875000  0.489208  1
  As  As77  1  0.364208  0.875000  0.989208  1
  As  As78  1  0.625000  0.135792  0.010792  1
  As  As79  1  0.125000  0.114208  0.489208  1
