# generated using pymatgen
data_Na5Li3(TiS4)2
_symmetry_space_group_name_H-M   'P 1'
_cell_length_a   10.09720087
_cell_length_b   10.09720087
_cell_length_c   12.17683197
_cell_angle_alpha   52.95637728
_cell_angle_beta   127.04362272
_cell_angle_gamma   122.52327508
_symmetry_Int_Tables_number   1
_chemical_formula_structural   Na5Li3(TiS4)2
_chemical_formula_sum   'Na10 Li6 Ti4 S16'
_cell_volume   760.59606811
_cell_formula_units_Z   2
loop_
 _symmetry_equiv_pos_site_id
 _symmetry_equiv_pos_as_xyz
  1  'x, y, z'
loop_
 _atom_site_type_symbol
 _atom_site_label
 _atom_site_symmetry_multiplicity
 _atom_site_fract_x
 _atom_site_fract_y
 _atom_site_fract_z
 _atom_site_occupancy
  Na  Na0  1  0.613272  0.413782  0.734458  1
  Na  Na1  1  0.008145  0.008145  0.250000  1
  Na  Na2  1  0.099506  0.392387  0.484025  1
  Na  Na3  1  0.900494  0.607613  0.515975  1
  Na  Na4  1  0.386728  0.586218  0.265542  1
  Na  Na5  1  0.991855  0.991855  0.750000  1
  Na  Na6  1  0.607613  0.900494  0.984025  1
  Na  Na7  1  0.392387  0.099506  0.015975  1
  Na  Na8  1  0.586218  0.386728  0.234458  1
  Na  Na9  1  0.413782  0.613272  0.765542  1
  Li  Li10  1  0.191481  0.806090  0.758158  1
  Li  Li11  1  0.806090  0.191481  0.741842  1
  Li  Li12  1  0.193910  0.808519  0.258158  1
  Li  Li13  1  0.000000  0.500000  0.000000  1
  Li  Li14  1  0.500000  1.000000  0.500000  1
  Li  Li15  1  0.808519  0.193910  0.241842  1
  Ti  Ti16  1  0.681157  0.848535  0.467745  1
  Ti  Ti17  1  0.318843  0.151465  0.532255  1
  Ti  Ti18  1  0.151465  0.318843  0.967745  1
  Ti  Ti19  1  0.848535  0.681157  0.032255  1
  S  S20  1  0.683458  0.425278  0.008127  1
  S  S21  1  0.289664  0.118071  0.176675  1
  S  S22  1  0.316542  0.574722  0.991873  1
  S  S23  1  0.115552  0.758178  0.049675  1
  S  S24  1  0.333618  0.105081  0.747817  1
  S  S25  1  0.425278  0.683458  0.491873  1
  S  S26  1  0.884448  0.241822  0.950325  1
  S  S27  1  0.118071  0.289664  0.323325  1
  S  S28  1  0.105081  0.333618  0.752183  1
  S  S29  1  0.894919  0.666382  0.247817  1
  S  S30  1  0.241822  0.884448  0.549675  1
  S  S31  1  0.758178  0.115552  0.450325  1
  S  S32  1  0.710336  0.881929  0.823325  1
  S  S33  1  0.881929  0.710336  0.676675  1
  S  S34  1  0.574722  0.316542  0.508127  1
  S  S35  1  0.666382  0.894919  0.252183  1
