# generated using pymatgen
data_AsS3(NF3)2
_symmetry_space_group_name_H-M   'P 1'
_cell_length_a   5.79676423
_cell_length_b   8.04271328
_cell_length_c   9.63191605
_cell_angle_alpha   88.88497768
_cell_angle_beta   98.98989165
_cell_angle_gamma   105.33496777
_symmetry_Int_Tables_number   1
_chemical_formula_structural   AsS3(NF3)2
_chemical_formula_sum   'As2 S6 N4 F12'
_cell_volume   427.63575439
_cell_formula_units_Z   2
loop_
 _symmetry_equiv_pos_site_id
 _symmetry_equiv_pos_as_xyz
  1  'x, y, z'
loop_
 _atom_site_type_symbol
 _atom_site_label
 _atom_site_symmetry_multiplicity
 _atom_site_fract_x
 _atom_site_fract_y
 _atom_site_fract_z
 _atom_site_occupancy
  As  As0  1  0.926683  0.769657  0.226409  1
  As  As1  1  0.073317  0.230343  0.773591  1
  S  S2  1  0.474974  0.797065  0.854258  1
  S  S3  1  0.549869  0.259244  0.431371  1
  S  S4  1  0.450131  0.740756  0.568629  1
  S  S5  1  0.267641  0.346173  0.195763  1
  S  S6  1  0.525026  0.202935  0.145742  1
  S  S7  1  0.732359  0.653827  0.804237  1
  N  N8  1  0.656190  0.655640  0.637205  1
  N  N9  1  0.343810  0.344360  0.362795  1
  N  N10  1  0.641153  0.185331  0.305557  1
  N  N11  1  0.358847  0.814669  0.694443  1
  F  F12  1  0.278247  0.368655  0.909465  1
  F  F13  1  0.125923  0.048903  0.867729  1
  F  F14  1  0.832189  0.230027  0.865500  1
  F  F15  1  0.721753  0.631345  0.090535  1
  F  F16  1  0.874077  0.951097  0.132271  1
  F  F17  1  0.972676  0.584354  0.318920  1
  F  F18  1  0.869923  0.093174  0.639860  1
  F  F19  1  0.319528  0.236180  0.683765  1
  F  F20  1  0.167811  0.769973  0.134500  1
  F  F21  1  0.130077  0.906826  0.360140  1
  F  F22  1  0.027324  0.415646  0.681080  1
  F  F23  1  0.680472  0.763820  0.316235  1
