# generated using pymatgen
data_Sr2Cu3O5
_symmetry_space_group_name_H-M   'P 1'
_cell_length_a   9.71127686
_cell_length_b   9.71127686
_cell_length_c   9.71127686
_cell_angle_alpha   159.47832330
_cell_angle_beta   156.52183181
_cell_angle_gamma   31.37791344
_symmetry_Int_Tables_number   1
_chemical_formula_structural   Sr2Cu3O5
_chemical_formula_sum   'Sr2 Cu3 O5'
_cell_volume   127.82179575
_cell_formula_units_Z   1
loop_
 _symmetry_equiv_pos_site_id
 _symmetry_equiv_pos_as_xyz
  1  'x, y, z'
loop_
 _atom_site_type_symbol
 _atom_site_label
 _atom_site_symmetry_multiplicity
 _atom_site_fract_x
 _atom_site_fract_y
 _atom_site_fract_z
 _atom_site_occupancy
  Sr  Sr0  1  0.394225  0.394225  0.000000  1
  Sr  Sr1  1  0.605775  0.605775  0.000000  1
  Cu  Cu2  1  0.000000  0.000000  0.000000  1
  Cu  Cu3  1  0.787938  0.787938  0.000000  1
  Cu  Cu4  1  0.212062  0.212062  0.000000  1
  O  O5  1  0.103833  0.103833  0.000000  1
  O  O6  1  0.896167  0.896167  0.000000  1
  O  O7  1  0.500000  1.000000  0.500000  1
  O  O8  1  0.280824  0.780824  0.500000  1
  O  O9  1  0.719176  0.219176  0.500000  1
