# generated using pymatgen
data_Cu3NiH6(ClO3)2
_symmetry_space_group_name_H-M   'P 1'
_cell_length_a   6.07327217
_cell_length_b   6.07327217
_cell_length_c   6.07327217
_cell_angle_alpha   70.44146512
_cell_angle_beta   70.44146512
_cell_angle_gamma   70.44146512
_symmetry_Int_Tables_number   1
_chemical_formula_structural   Cu3NiH6(ClO3)2
_chemical_formula_sum   'Cu3 Ni1 H6 Cl2 O6'
_cell_volume   192.54781165
_cell_formula_units_Z   1
loop_
 _symmetry_equiv_pos_site_id
 _symmetry_equiv_pos_as_xyz
  1  'x, y, z'
loop_
 _atom_site_type_symbol
 _atom_site_label
 _atom_site_symmetry_multiplicity
 _atom_site_fract_x
 _atom_site_fract_y
 _atom_site_fract_z
 _atom_site_occupancy
  Cu  Cu0  1  1.000000  0.500000  0.500000  1
  Cu  Cu1  1  0.500000  0.500000  0.000000  1
  Cu  Cu2  1  0.500000  0.000000  0.500000  1
  Ni  Ni3  1  0.500000  0.500000  0.500000  1
  H  H4  1  0.226137  0.821100  0.226137  1
  H  H5  1  0.821100  0.226137  0.226137  1
  H  H6  1  0.178900  0.773863  0.773863  1
  H  H7  1  0.773863  0.178900  0.773863  1
  H  H8  1  0.226137  0.226137  0.821100  1
  H  H9  1  0.773863  0.773863  0.178900  1
  Cl  Cl10  1  0.179501  0.179501  0.179501  1
  Cl  Cl11  1  0.820499  0.820499  0.820499  1
  O  O12  1  0.358869  0.730504  0.730504  1
  O  O13  1  0.730504  0.730504  0.358869  1
  O  O14  1  0.269496  0.641131  0.269496  1
  O  O15  1  0.269496  0.269496  0.641131  1
  O  O16  1  0.641131  0.269496  0.269496  1
  O  O17  1  0.730504  0.358869  0.730504  1
