# generated using pymatgen
data_Nd2Si3Rh
_symmetry_space_group_name_H-M   'P 1'
_cell_length_a   8.27759003
_cell_length_b   8.27759003
_cell_length_c   8.33580026
_cell_angle_alpha   90.00000000
_cell_angle_beta   90.00000000
_cell_angle_gamma   120.00000000
_symmetry_Int_Tables_number   1
_chemical_formula_structural   Nd2Si3Rh
_chemical_formula_sum   'Nd8 Si12 Rh4'
_cell_volume   494.63604088
_cell_formula_units_Z   4
loop_
 _symmetry_equiv_pos_site_id
 _symmetry_equiv_pos_as_xyz
  1  'x, y, z'
loop_
 _atom_site_type_symbol
 _atom_site_label
 _atom_site_symmetry_multiplicity
 _atom_site_fract_x
 _atom_site_fract_y
 _atom_site_fract_z
 _atom_site_occupancy
  Nd  Nd0  1  0.000000  0.000000  0.750000  1
  Nd  Nd1  1  0.000000  0.000000  0.250000  1
  Nd  Nd2  1  0.494531  0.989062  0.750000  1
  Nd  Nd3  1  0.494531  0.505469  0.750000  1
  Nd  Nd4  1  0.010938  0.505469  0.750000  1
  Nd  Nd5  1  0.505469  0.010938  0.250000  1
  Nd  Nd6  1  0.505469  0.494531  0.250000  1
  Nd  Nd7  1  0.989062  0.494531  0.250000  1
  Si  Si8  1  0.833228  0.666456  0.497551  1
  Si  Si9  1  0.833228  0.166772  0.497551  1
  Si  Si10  1  0.333544  0.166772  0.497551  1
  Si  Si11  1  0.166772  0.333544  0.502449  1
  Si  Si12  1  0.166772  0.833228  0.502449  1
  Si  Si13  1  0.666456  0.833228  0.502449  1
  Si  Si14  1  0.166772  0.333544  0.997551  1
  Si  Si15  1  0.166772  0.833228  0.997551  1
  Si  Si16  1  0.666456  0.833228  0.997551  1
  Si  Si17  1  0.833228  0.666456  0.002449  1
  Si  Si18  1  0.833228  0.166772  0.002449  1
  Si  Si19  1  0.333544  0.166772  0.002449  1
  Rh  Rh20  1  0.666667  0.333333  0.524056  1
  Rh  Rh21  1  0.333333  0.666667  0.475944  1
  Rh  Rh22  1  0.333333  0.666667  0.024056  1
  Rh  Rh23  1  0.666667  0.333333  0.975944  1
