# generated using pymatgen
data_LiLa5Ti8O24
_symmetry_space_group_name_H-M   'P 1'
_cell_length_a   7.76909983
_cell_length_b   7.82106567
_cell_length_c   7.85238165
_cell_angle_alpha   90.00000000
_cell_angle_beta   90.00000000
_cell_angle_gamma   90.00000000
_symmetry_Int_Tables_number   1
_chemical_formula_structural   LiLa5Ti8O24
_chemical_formula_sum   'Li1 La5 Ti8 O24'
_cell_volume   477.13143909
_cell_formula_units_Z   1
loop_
 _symmetry_equiv_pos_site_id
 _symmetry_equiv_pos_as_xyz
  1  'x, y, z'
loop_
 _atom_site_type_symbol
 _atom_site_label
 _atom_site_symmetry_multiplicity
 _atom_site_fract_x
 _atom_site_fract_y
 _atom_site_fract_z
 _atom_site_occupancy
  Li  Li0  1  0.000000  0.842975  0.000000  1
  La  La1  1  0.500000  0.021198  0.000000  1
  La  La2  1  0.000000  0.503268  0.500000  1
  La  La3  1  0.500000  0.494652  0.500000  1
  La  La4  1  0.500000  0.012535  0.500000  1
  La  La5  1  0.000000  0.994632  0.500000  1
  Ti  Ti6  1  0.245098  0.256040  0.761505  1
  Ti  Ti7  1  0.245098  0.256040  0.238495  1
  Ti  Ti8  1  0.754902  0.256040  0.761505  1
  Ti  Ti9  1  0.749701  0.746668  0.241397  1
  Ti  Ti10  1  0.250299  0.746668  0.758603  1
  Ti  Ti11  1  0.749701  0.746668  0.758603  1
  Ti  Ti12  1  0.754902  0.256040  0.238495  1
  Ti  Ti13  1  0.250299  0.746668  0.241397  1
  O  O14  1  0.751553  0.502483  0.271151  1
  O  O15  1  0.500000  0.242739  0.232796  1
  O  O16  1  0.211406  0.751959  0.500000  1
  O  O17  1  0.788594  0.751959  0.500000  1
  O  O18  1  0.000000  0.759971  0.232767  1
  O  O19  1  0.000000  0.249036  0.297749  1
  O  O20  1  0.248447  0.502483  0.728849  1
  O  O21  1  0.260448  0.002491  0.270773  1
  O  O22  1  0.500000  0.751383  0.707713  1
  O  O23  1  0.239124  0.228830  0.000000  1
  O  O24  1  0.500000  0.751383  0.292287  1
  O  O25  1  0.273639  0.779291  0.000000  1
  O  O26  1  0.260448  0.002491  0.729227  1
  O  O27  1  0.285889  0.256779  0.500000  1
  O  O28  1  0.714111  0.256779  0.500000  1
  O  O29  1  0.000000  0.249036  0.702251  1
  O  O30  1  0.726361  0.779291  0.000000  1
  O  O31  1  0.248447  0.502483  0.271151  1
  O  O32  1  0.739552  0.002491  0.729227  1
  O  O33  1  0.751553  0.502483  0.728849  1
  O  O34  1  0.739552  0.002491  0.270773  1
  O  O35  1  0.760876  0.228830  0.000000  1
  O  O36  1  0.000000  0.759971  0.767233  1
  O  O37  1  0.500000  0.242739  0.767204  1
