# generated using pymatgen
data_Rb3P(W3O10)4
_symmetry_space_group_name_H-M   'P 1'
_cell_length_a   12.10129476
_cell_length_b   12.10129476
_cell_length_c   12.10129476
_cell_angle_alpha   90.00000000
_cell_angle_beta   90.00000000
_cell_angle_gamma   90.00000000
_symmetry_Int_Tables_number   1
_chemical_formula_structural   Rb3P(W3O10)4
_chemical_formula_sum   'Rb6 P2 W24 O80'
_cell_volume   1772.12975829
_cell_formula_units_Z   2
loop_
 _symmetry_equiv_pos_site_id
 _symmetry_equiv_pos_as_xyz
  1  'x, y, z'
loop_
 _atom_site_type_symbol
 _atom_site_label
 _atom_site_symmetry_multiplicity
 _atom_site_fract_x
 _atom_site_fract_y
 _atom_site_fract_z
 _atom_site_occupancy
  Rb  Rb0  1  0.500000  0.500000  0.000000  1
  Rb  Rb1  1  0.500000  0.000000  0.000000  1
  Rb  Rb2  1  0.500000  0.000000  0.500000  1
  Rb  Rb3  1  0.000000  0.500000  0.500000  1
  Rb  Rb4  1  0.000000  0.500000  0.000000  1
  Rb  Rb5  1  0.000000  0.000000  0.500000  1
  P  P6  1  0.500000  0.500000  0.500000  1
  P  P7  1  0.000000  0.000000  0.000000  1
  W  W8  1  0.992321  0.212215  0.787785  1
  W  W9  1  0.287785  0.492321  0.287785  1
  W  W10  1  0.507679  0.287785  0.712215  1
  W  W11  1  0.212215  0.787785  0.992321  1
  W  W12  1  0.787785  0.787785  0.007679  1
  W  W13  1  0.287785  0.712215  0.507679  1
  W  W14  1  0.492321  0.287785  0.287785  1
  W  W15  1  0.212215  0.007679  0.212215  1
  W  W16  1  0.212215  0.992321  0.787785  1
  W  W17  1  0.007679  0.212215  0.212215  1
  W  W18  1  0.287785  0.507679  0.712215  1
  W  W19  1  0.212215  0.212215  0.007679  1
  W  W20  1  0.787785  0.007679  0.787785  1
  W  W21  1  0.287785  0.287785  0.492321  1
  W  W22  1  0.492321  0.712215  0.712215  1
  W  W23  1  0.712215  0.507679  0.287785  1
  W  W24  1  0.992321  0.787785  0.212215  1
  W  W25  1  0.712215  0.287785  0.507679  1
  W  W26  1  0.787785  0.992321  0.212215  1
  W  W27  1  0.007679  0.787785  0.787785  1
  W  W28  1  0.507679  0.712215  0.287785  1
  W  W29  1  0.787785  0.212215  0.992321  1
  W  W30  1  0.712215  0.712215  0.492321  1
  W  W31  1  0.712215  0.492321  0.712215  1
  O  O32  1  0.718831  0.122766  0.877234  1
  O  O33  1  0.122766  0.122766  0.281169  1
  O  O34  1  0.781169  0.377234  0.622766  1
  O  O35  1  0.597041  0.247867  0.402959  1
  O  O36  1  0.426169  0.426169  0.426169  1
  O  O37  1  0.187517  0.187517  0.515539  1
  O  O38  1  0.312483  0.984461  0.312483  1
  O  O39  1  0.597041  0.597041  0.752133  1
  O  O40  1  0.622766  0.781169  0.377234  1
  O  O41  1  0.097041  0.252133  0.902959  1
  O  O42  1  0.187517  0.484461  0.812483  1
  O  O43  1  0.377234  0.218831  0.377234  1
  O  O44  1  0.312483  0.015539  0.687517  1
  O  O45  1  0.622766  0.622766  0.218831  1
  O  O46  1  0.073831  0.926169  0.926169  1
  O  O47  1  0.747867  0.902959  0.902959  1
  O  O48  1  0.687517  0.312483  0.015539  1
  O  O49  1  0.122766  0.877234  0.718831  1
  O  O50  1  0.747867  0.097041  0.097041  1
  O  O51  1  0.402959  0.597041  0.247867  1
  O  O52  1  0.015539  0.687517  0.312483  1
  O  O53  1  0.877234  0.122766  0.718831  1
  O  O54  1  0.252133  0.902959  0.097041  1
  O  O55  1  0.902959  0.097041  0.252133  1
  O  O56  1  0.097041  0.902959  0.252133  1
  O  O57  1  0.377234  0.377234  0.218831  1
  O  O58  1  0.218831  0.377234  0.377234  1
  O  O59  1  0.252133  0.097041  0.902959  1
  O  O60  1  0.247867  0.402959  0.597041  1
  O  O61  1  0.687517  0.687517  0.984461  1
  O  O62  1  0.247867  0.597041  0.402959  1
  O  O63  1  0.377234  0.622766  0.781169  1
  O  O64  1  0.312483  0.312483  0.984461  1
  O  O65  1  0.515539  0.812483  0.812483  1
  O  O66  1  0.687517  0.015539  0.312483  1
  O  O67  1  0.597041  0.752133  0.597041  1
  O  O68  1  0.097041  0.097041  0.747867  1
  O  O69  1  0.752133  0.402959  0.402959  1
  O  O70  1  0.484461  0.187517  0.812483  1
  O  O71  1  0.812483  0.187517  0.484461  1
  O  O72  1  0.877234  0.877234  0.281169  1
  O  O73  1  0.718831  0.877234  0.122766  1
  O  O74  1  0.097041  0.747867  0.097041  1
  O  O75  1  0.812483  0.812483  0.515539  1
  O  O76  1  0.426169  0.573831  0.573831  1
  O  O77  1  0.812483  0.484461  0.187517  1
  O  O78  1  0.484461  0.812483  0.187517  1
  O  O79  1  0.926169  0.073831  0.926169  1
  O  O80  1  0.984461  0.687517  0.687517  1
  O  O81  1  0.187517  0.812483  0.484461  1
  O  O82  1  0.622766  0.218831  0.622766  1
  O  O83  1  0.877234  0.281169  0.877234  1
  O  O84  1  0.402959  0.402959  0.752133  1
  O  O85  1  0.122766  0.718831  0.877234  1
  O  O86  1  0.402959  0.247867  0.597041  1
  O  O87  1  0.984461  0.312483  0.312483  1
  O  O88  1  0.902959  0.747867  0.902959  1
  O  O89  1  0.622766  0.377234  0.781169  1
  O  O90  1  0.902959  0.252133  0.097041  1
  O  O91  1  0.015539  0.312483  0.687517  1
  O  O92  1  0.877234  0.718831  0.122766  1
  O  O93  1  0.122766  0.281169  0.122766  1
  O  O94  1  0.515539  0.187517  0.187517  1
  O  O95  1  0.597041  0.402959  0.247867  1
  O  O96  1  0.687517  0.984461  0.687517  1
  O  O97  1  0.281169  0.122766  0.122766  1
  O  O98  1  0.312483  0.687517  0.015539  1
  O  O99  1  0.187517  0.515539  0.187517  1
  O  O100  1  0.926169  0.926169  0.073831  1
  O  O101  1  0.812483  0.515539  0.812483  1
  O  O102  1  0.377234  0.781169  0.622766  1
  O  O103  1  0.073831  0.073831  0.073831  1
  O  O104  1  0.402959  0.752133  0.402959  1
  O  O105  1  0.752133  0.597041  0.597041  1
  O  O106  1  0.573831  0.426169  0.573831  1
  O  O107  1  0.218831  0.622766  0.622766  1
  O  O108  1  0.281169  0.877234  0.877234  1
  O  O109  1  0.573831  0.573831  0.426169  1
  O  O110  1  0.902959  0.902959  0.747867  1
  O  O111  1  0.781169  0.622766  0.377234  1
