# generated using pymatgen
data_UP2
_symmetry_space_group_name_H-M   'P 1'
_cell_length_a   8.60555739
_cell_length_b   8.60555739
_cell_length_c   8.60555739
_cell_angle_alpha   143.65434288
_cell_angle_beta   143.65434288
_cell_angle_gamma   52.34448507
_symmetry_Int_Tables_number   1
_chemical_formula_structural   UP2
_chemical_formula_sum   'U4 P8'
_cell_volume   222.53853832
_cell_formula_units_Z   4
loop_
 _symmetry_equiv_pos_site_id
 _symmetry_equiv_pos_as_xyz
  1  'x, y, z'
loop_
 _atom_site_type_symbol
 _atom_site_label
 _atom_site_symmetry_multiplicity
 _atom_site_fract_x
 _atom_site_fract_y
 _atom_site_fract_z
 _atom_site_occupancy
  U  U0  1  0.996038  0.996038  0.000000  1
  U  U1  1  0.508540  0.508540  0.000000  1
  U  U2  1  0.218917  0.718917  0.500000  1
  U  U3  1  0.718917  0.218917  0.500000  1
  P  P4  1  0.038167  0.538167  0.500000  1
  P  P5  1  0.538167  0.038167  0.500000  1
  P  P6  1  0.177541  0.177541  0.000000  1
  P  P7  1  0.686174  0.686174  0.000000  1
  P  P8  1  0.134117  0.134117  0.547013  1
  P  P9  1  0.134117  0.587105  0.000000  1
  P  P10  1  0.587105  0.134117  0.000000  1
  P  P11  1  0.587105  0.587105  0.452987  1
