# generated using pymatgen
data_LiNi(PO3)4
_symmetry_space_group_name_H-M   'P 1'
_cell_length_a   7.36240305
_cell_length_b   7.36240305
_cell_length_c   9.89229981
_cell_angle_alpha   67.19404136
_cell_angle_beta   112.80595864
_cell_angle_gamma   110.06871031
_symmetry_Int_Tables_number   1
_chemical_formula_structural   LiNi(PO3)4
_chemical_formula_sum   'Li2 Ni2 P8 O24'
_cell_volume   443.75400009
_cell_formula_units_Z   2
loop_
 _symmetry_equiv_pos_site_id
 _symmetry_equiv_pos_as_xyz
  1  'x, y, z'
loop_
 _atom_site_type_symbol
 _atom_site_label
 _atom_site_symmetry_multiplicity
 _atom_site_fract_x
 _atom_site_fract_y
 _atom_site_fract_z
 _atom_site_occupancy
  Li  Li0  1  0.055877  0.055877  0.750000  1
  Li  Li1  1  0.944123  0.944123  0.250000  1
  Ni  Ni2  1  0.500000  1.000000  0.000000  1
  Ni  Ni3  1  0.000000  0.500000  0.500000  1
  P  P4  1  0.303053  0.689607  0.803318  1
  P  P5  1  0.725857  0.739249  0.524564  1
  P  P6  1  0.310393  0.696947  0.303318  1
  P  P7  1  0.739249  0.725857  0.975436  1
  P  P8  1  0.696947  0.310393  0.196682  1
  P  P9  1  0.260751  0.274143  0.024564  1
  P  P10  1  0.274143  0.260751  0.475436  1
  P  P11  1  0.689607  0.303053  0.696682  1
  O  O12  1  0.847240  0.905844  0.595678  1
  O  O13  1  0.682359  0.534197  0.659336  1
  O  O14  1  0.701807  0.122012  0.172800  1
  O  O15  1  0.465803  0.317641  0.159336  1
  O  O16  1  0.660247  0.192319  0.850850  1
  O  O17  1  0.152760  0.094156  0.404322  1
  O  O18  1  0.807681  0.339753  0.350850  1
  O  O19  1  0.192319  0.660247  0.649150  1
  O  O20  1  0.317641  0.465803  0.340664  1
  O  O21  1  0.499259  0.223885  0.564983  1
  O  O22  1  0.298193  0.877988  0.827200  1
  O  O23  1  0.339753  0.807681  0.149150  1
  O  O24  1  0.299544  0.192851  0.921573  1
  O  O25  1  0.776115  0.500741  0.064983  1
  O  O26  1  0.094156  0.152760  0.095678  1
  O  O27  1  0.192851  0.299544  0.578427  1
  O  O28  1  0.700456  0.807149  0.078427  1
  O  O29  1  0.877988  0.298193  0.672800  1
  O  O30  1  0.122012  0.701807  0.327200  1
  O  O31  1  0.807149  0.700456  0.421573  1
  O  O32  1  0.534197  0.682359  0.840664  1
  O  O33  1  0.500741  0.776115  0.435017  1
  O  O34  1  0.905844  0.847240  0.904322  1
  O  O35  1  0.223885  0.499259  0.935017  1
