# generated using pymatgen
data_MgAs2(XeF5)4
_symmetry_space_group_name_H-M   'P 1'
_cell_length_a   8.96733296
_cell_length_b   15.00782086
_cell_length_c   15.84148179
_cell_angle_alpha   90.00000000
_cell_angle_beta   90.00000000
_cell_angle_gamma   90.00000000
_symmetry_Int_Tables_number   1
_chemical_formula_structural   MgAs2(XeF5)4
_chemical_formula_sum   'Mg4 As8 Xe16 F80'
_cell_volume   2131.94862571
_cell_formula_units_Z   4
loop_
 _symmetry_equiv_pos_site_id
 _symmetry_equiv_pos_as_xyz
  1  'x, y, z'
loop_
 _atom_site_type_symbol
 _atom_site_label
 _atom_site_symmetry_multiplicity
 _atom_site_fract_x
 _atom_site_fract_y
 _atom_site_fract_z
 _atom_site_occupancy
  Mg  Mg0  1  0.147663  0.479878  0.126446  1
  Mg  Mg1  1  0.352337  0.520122  0.626446  1
  Mg  Mg2  1  0.852337  0.979878  0.373554  1
  Mg  Mg3  1  0.647663  0.020122  0.873554  1
  As  As4  1  0.001309  0.965686  0.984376  1
  As  As5  1  0.998691  0.465686  0.515624  1
  As  As6  1  0.317763  0.731302  0.750168  1
  As  As7  1  0.501309  0.534314  0.015624  1
  As  As8  1  0.817763  0.768698  0.249832  1
  As  As9  1  0.182237  0.268698  0.250168  1
  As  As10  1  0.498691  0.034314  0.484376  1
  As  As11  1  0.682237  0.231302  0.749832  1
  Xe  Xe12  1  0.497813  0.838353  0.017028  1
  Xe  Xe13  1  0.002187  0.161647  0.517028  1
  Xe  Xe14  1  0.287243  0.659497  0.276861  1
  Xe  Xe15  1  0.997813  0.661647  0.982972  1
  Xe  Xe16  1  0.405186  0.178124  0.989563  1
  Xe  Xe17  1  0.712757  0.159497  0.223139  1
  Xe  Xe18  1  0.905186  0.321876  0.010437  1
  Xe  Xe19  1  0.094814  0.821876  0.489563  1
  Xe  Xe20  1  0.594814  0.678124  0.510437  1
  Xe  Xe21  1  0.212757  0.340503  0.776861  1
  Xe  Xe22  1  0.787243  0.840503  0.723139  1
  Xe  Xe23  1  0.236717  0.988107  0.235165  1
  Xe  Xe24  1  0.263283  0.011893  0.735165  1
  Xe  Xe25  1  0.763283  0.488107  0.264835  1
  Xe  Xe26  1  0.736717  0.511893  0.764835  1
  Xe  Xe27  1  0.502187  0.338353  0.482972  1
  F  F28  1  0.981094  0.818536  0.209840  1
  F  F29  1  0.027330  0.531110  0.424773  1
  F  F30  1  0.929282  0.701292  0.316792  1
  F  F31  1  0.095999  0.993771  0.649957  1
  F  F32  1  0.760939  0.027912  0.267674  1
  F  F33  1  0.327966  0.783574  0.323095  1
  F  F34  1  0.126163  0.385628  0.478209  1
  F  F35  1  0.613177  0.289658  0.381497  1
  F  F36  1  0.681550  0.146622  0.835211  1
  F  F37  1  0.021092  0.904919  0.889527  1
  F  F38  1  0.658047  0.721197  0.297496  1
  F  F39  1  0.232156  0.714598  0.495132  1
  F  F40  1  0.051273  0.435086  0.017955  1
  F  F41  1  0.935532  0.471814  0.172723  1
  F  F42  1  0.448727  0.564914  0.517955  1
  F  F43  1  0.429282  0.798708  0.683208  1
  F  F44  1  0.113177  0.210342  0.618503  1
  F  F45  1  0.319011  0.812847  0.830038  1
  F  F46  1  0.389498  0.392839  0.591668  1
  F  F47  1  0.294879  0.340689  0.309375  1
  F  F48  1  0.435532  0.028186  0.827277  1
  F  F49  1  0.889498  0.107161  0.408332  1
  F  F50  1  0.879593  0.548885  0.556841  1
  F  F51  1  0.818450  0.853378  0.335211  1
  F  F52  1  0.472670  0.468890  0.924773  1
  F  F53  1  0.972670  0.031110  0.075227  1
  F  F54  1  0.064468  0.971814  0.327277  1
  F  F55  1  0.527330  0.968890  0.575227  1
  F  F56  1  0.518906  0.181464  0.709840  1
  F  F57  1  0.656105  0.974692  0.434493  1
  F  F58  1  0.120407  0.048885  0.943159  1
  F  F59  1  0.672034  0.283574  0.176905  1
  F  F60  1  0.847425  0.409341  0.468584  1
  F  F61  1  0.652575  0.590659  0.968584  1
  F  F62  1  0.595999  0.506229  0.350043  1
  F  F63  1  0.841953  0.278803  0.797496  1
  F  F64  1  0.551273  0.064914  0.982045  1
  F  F65  1  0.152575  0.909341  0.031416  1
  F  F66  1  0.379593  0.951115  0.443159  1
  F  F67  1  0.819011  0.687153  0.169962  1
  F  F68  1  0.705121  0.840689  0.190625  1
  F  F69  1  0.404001  0.006229  0.149957  1
  F  F70  1  0.794879  0.159311  0.690625  1
  F  F71  1  0.680989  0.312847  0.669962  1
  F  F72  1  0.386823  0.789658  0.118503  1
  F  F73  1  0.873837  0.885628  0.021791  1
  F  F74  1  0.948727  0.935086  0.482045  1
  F  F75  1  0.205121  0.659311  0.809375  1
  F  F76  1  0.610502  0.892839  0.908332  1
  F  F77  1  0.767844  0.214598  0.004868  1
  F  F78  1  0.018906  0.318536  0.290160  1
  F  F79  1  0.904001  0.493771  0.850043  1
  F  F80  1  0.343895  0.474692  0.065507  1
  F  F81  1  0.347425  0.090659  0.531416  1
  F  F82  1  0.521092  0.595081  0.110473  1
  F  F83  1  0.886823  0.710342  0.881497  1
  F  F84  1  0.110502  0.607161  0.091668  1
  F  F85  1  0.239061  0.527912  0.232326  1
  F  F86  1  0.341953  0.221197  0.202504  1
  F  F87  1  0.978908  0.404919  0.610473  1
  F  F88  1  0.180989  0.187153  0.330038  1
  F  F89  1  0.626163  0.114372  0.521791  1
  F  F90  1  0.260939  0.472088  0.732326  1
  F  F91  1  0.373837  0.614372  0.978209  1
  F  F92  1  0.843895  0.025308  0.934493  1
  F  F93  1  0.570718  0.298708  0.816792  1
  F  F94  1  0.564468  0.528186  0.672723  1
  F  F95  1  0.739061  0.972088  0.767674  1
  F  F96  1  0.156105  0.525308  0.565507  1
  F  F97  1  0.172034  0.216426  0.823095  1
  F  F98  1  0.620407  0.451115  0.056841  1
  F  F99  1  0.318450  0.646622  0.664789  1
  F  F100  1  0.267844  0.285402  0.995132  1
  F  F101  1  0.070718  0.201292  0.183208  1
  F  F102  1  0.181550  0.353378  0.164789  1
  F  F103  1  0.732156  0.785402  0.504868  1
  F  F104  1  0.158047  0.778803  0.702504  1
  F  F105  1  0.481094  0.681464  0.790160  1
  F  F106  1  0.478908  0.095081  0.389527  1
  F  F107  1  0.827966  0.716426  0.676905  1
