# generated using pymatgen
data_K2BiPWO8
_symmetry_space_group_name_H-M   'P 1'
_cell_length_a   12.37565785
_cell_length_b   12.37565785
_cell_length_c   12.37565785
_cell_angle_alpha   146.39884278
_cell_angle_beta   118.75269171
_cell_angle_gamma   71.70316438
_symmetry_Int_Tables_number   1
_chemical_formula_structural   K2BiPWO8
_chemical_formula_sum   'K8 Bi4 P4 W4 O32'
_cell_volume   904.80281265
_cell_formula_units_Z   4
loop_
 _symmetry_equiv_pos_site_id
 _symmetry_equiv_pos_as_xyz
  1  'x, y, z'
loop_
 _atom_site_type_symbol
 _atom_site_label
 _atom_site_symmetry_multiplicity
 _atom_site_fract_x
 _atom_site_fract_y
 _atom_site_fract_z
 _atom_site_occupancy
  K  K0  1  0.734208  0.687865  0.610256  1
  K  K1  1  0.234208  0.123952  0.546343  1
  K  K2  1  0.922391  0.376048  0.110256  1
  K  K3  1  0.765792  0.876048  0.453657  1
  K  K4  1  0.422391  0.812135  0.046343  1
  K  K5  1  0.577609  0.187865  0.953657  1
  K  K6  1  0.077609  0.623952  0.889744  1
  K  K7  1  0.265792  0.312135  0.389744  1
  Bi  Bi8  1  0.169674  0.250000  0.919674  1
  Bi  Bi9  1  0.830326  0.750000  0.080326  1
  Bi  Bi10  1  0.330326  0.750000  0.580326  1
  Bi  Bi11  1  0.669674  0.250000  0.419674  1
  P  P12  1  0.573126  0.750000  0.823126  1
  P  P13  1  0.073126  0.750000  0.323126  1
  P  P14  1  0.426874  0.250000  0.176874  1
  P  P15  1  0.926874  0.250000  0.676874  1
  W  W16  1  0.081804  0.831804  0.750000  1
  W  W17  1  0.918196  0.168196  0.250000  1
  W  W18  1  0.581804  0.331804  0.750000  1
  W  W19  1  0.418196  0.668196  0.250000  1
  O  O20  1  0.561465  0.837717  0.776274  1
  O  O21  1  0.061443  0.285191  0.723726  1
  O  O22  1  0.581813  0.656327  0.300076  1
  O  O23  1  0.143749  0.843673  0.925486  1
  O  O24  1  0.938557  0.714809  0.276274  1
  O  O25  1  0.139865  0.570943  0.232793  1
  O  O26  1  0.418187  0.343673  0.699924  1
  O  O27  1  0.667172  0.587252  0.988521  1
  O  O28  1  0.167172  0.678652  0.579921  1
  O  O29  1  0.643749  0.218263  0.800076  1
  O  O30  1  0.860135  0.429057  0.767207  1
  O  O31  1  0.061465  0.785191  0.223748  1
  O  O32  1  0.401269  0.821348  0.488521  1
  O  O33  1  0.832828  0.321348  0.420079  1
  O  O34  1  0.918187  0.718263  0.574514  1
  O  O35  1  0.438535  0.162283  0.223726  1
  O  O36  1  0.598731  0.178652  0.511479  1
  O  O37  1  0.901269  0.912748  0.079921  1
  O  O38  1  0.161851  0.929057  0.568923  1
  O  O39  1  0.639865  0.907072  0.068923  1
  O  O40  1  0.856251  0.156327  0.074514  1
  O  O41  1  0.561443  0.337717  0.276252  1
  O  O42  1  0.098731  0.087252  0.920079  1
  O  O43  1  0.332828  0.412748  0.011479  1
  O  O44  1  0.938535  0.214809  0.776252  1
  O  O45  1  0.356251  0.781737  0.199924  1
  O  O46  1  0.838149  0.070943  0.431077  1
  O  O47  1  0.661851  0.592928  0.732793  1
  O  O48  1  0.081813  0.281737  0.425486  1
  O  O49  1  0.360135  0.092928  0.931077  1
  O  O50  1  0.438557  0.662283  0.723748  1
  O  O51  1  0.338149  0.407072  0.267207  1
