# generated using pymatgen
data_Y(AlCl4)3
_symmetry_space_group_name_H-M   'P 1'
_cell_length_a   10.78764198
_cell_length_b   10.78764198
_cell_length_c   16.03433339
_cell_angle_alpha   90.00000000
_cell_angle_beta   90.00000000
_cell_angle_gamma   120.00000000
_symmetry_Int_Tables_number   1
_chemical_formula_structural   Y(AlCl4)3
_chemical_formula_sum   'Y3 Al9 Cl36'
_cell_volume   1615.97482250
_cell_formula_units_Z   3
loop_
 _symmetry_equiv_pos_site_id
 _symmetry_equiv_pos_as_xyz
  1  'x, y, z'
loop_
 _atom_site_type_symbol
 _atom_site_label
 _atom_site_symmetry_multiplicity
 _atom_site_fract_x
 _atom_site_fract_y
 _atom_site_fract_z
 _atom_site_occupancy
  Y  Y0  1  0.503504  0.496496  0.333333  1
  Y  Y1  1  0.992992  0.496496  0.000000  1
  Y  Y2  1  0.503504  0.007008  0.666667  1
  Al  Al3  1  0.634514  0.760576  0.730861  1
  Al  Al4  1  0.732164  0.267836  0.833333  1
  Al  Al5  1  0.634514  0.873939  0.269139  1
  Al  Al6  1  0.239424  0.365486  0.935806  1
  Al  Al7  1  0.239424  0.873939  0.064194  1
  Al  Al8  1  0.126061  0.365486  0.397527  1
  Al  Al9  1  0.535671  0.267836  0.500000  1
  Al  Al10  1  0.126061  0.760576  0.602473  1
  Al  Al11  1  0.732164  0.464329  0.166667  1
  Cl  Cl12  1  0.653281  0.876874  0.612163  1
  Cl  Cl13  1  0.407575  0.198517  0.612620  1
  Cl  Cl14  1  0.834069  0.839309  0.789442  1
  Cl  Cl15  1  0.835833  0.339197  0.148838  1
  Cl  Cl16  1  0.504003  0.840053  0.795584  1
  Cl  Cl17  1  0.005240  0.839309  0.543891  1
  Cl  Cl18  1  0.160691  0.994760  0.122775  1
  Cl  Cl19  1  0.660803  0.164167  0.517829  1
  Cl  Cl20  1  0.027562  0.538145  0.622454  1
  Cl  Cl21  1  0.510583  0.538145  0.710880  1
  Cl  Cl22  1  0.159947  0.495997  0.871083  1
  Cl  Cl23  1  0.834069  0.994760  0.210558  1
  Cl  Cl24  1  0.503363  0.164167  0.815505  1
  Cl  Cl25  1  0.653281  0.776408  0.387837  1
  Cl  Cl26  1  0.660803  0.496637  0.482171  1
  Cl  Cl27  1  0.005240  0.165931  0.456109  1
  Cl  Cl28  1  0.790942  0.198517  0.720713  1
  Cl  Cl29  1  0.835833  0.496637  0.851162  1
  Cl  Cl30  1  0.336051  0.840053  0.537750  1
  Cl  Cl31  1  0.223592  0.876874  0.721171  1
  Cl  Cl32  1  0.461855  0.972438  0.044213  1
  Cl  Cl33  1  0.123126  0.346719  0.054504  1
  Cl  Cl34  1  0.801483  0.592425  0.054047  1
  Cl  Cl35  1  0.223592  0.346719  0.278829  1
  Cl  Cl36  1  0.160691  0.165931  0.877225  1
  Cl  Cl37  1  0.503363  0.339197  0.184495  1
  Cl  Cl38  1  0.159947  0.663949  0.128917  1
  Cl  Cl39  1  0.123126  0.776408  0.945496  1
  Cl  Cl40  1  0.801483  0.209058  0.945953  1
  Cl  Cl41  1  0.790942  0.592425  0.279287  1
  Cl  Cl42  1  0.461855  0.489417  0.955787  1
  Cl  Cl43  1  0.510583  0.972438  0.289120  1
  Cl  Cl44  1  0.407575  0.209058  0.387380  1
  Cl  Cl45  1  0.336051  0.495997  0.462250  1
  Cl  Cl46  1  0.027562  0.489417  0.377546  1
  Cl  Cl47  1  0.504003  0.663949  0.204416  1
