# generated using pymatgen
data_Bi2PdO4
_symmetry_space_group_name_H-M   'P 1'
_cell_length_a   7.06017934
_cell_length_b   7.06017934
_cell_length_c   7.06017934
_cell_angle_alpha   99.36923702
_cell_angle_beta   99.36923702
_cell_angle_gamma   132.40815870
_symmetry_Int_Tables_number   1
_chemical_formula_structural   Bi2PdO4
_chemical_formula_sum   'Bi4 Pd2 O8'
_cell_volume   237.75548435
_cell_formula_units_Z   2
loop_
 _symmetry_equiv_pos_site_id
 _symmetry_equiv_pos_as_xyz
  1  'x, y, z'
loop_
 _atom_site_type_symbol
 _atom_site_label
 _atom_site_symmetry_multiplicity
 _atom_site_fract_x
 _atom_site_fract_y
 _atom_site_fract_z
 _atom_site_occupancy
  Bi  Bi0  1  0.803094  0.650405  0.500000  1
  Bi  Bi1  1  0.303094  0.803094  0.152689  1
  Bi  Bi2  1  0.650405  0.150405  0.847311  1
  Bi  Bi3  1  0.150405  0.303094  0.500000  1
  Pd  Pd4  1  0.672903  0.672903  0.000000  1
  Pd  Pd5  1  0.172903  0.172903  0.000000  1
  O  O6  1  0.855947  0.552134  0.086364  1
  O  O7  1  0.269583  0.965770  0.913636  1
  O  O8  1  0.965770  0.052134  0.696187  1
  O  O9  1  0.465770  0.769583  0.913636  1
  O  O10  1  0.052134  0.355947  0.086364  1
  O  O11  1  0.769583  0.855947  0.303813  1
  O  O12  1  0.552134  0.465770  0.696187  1
  O  O13  1  0.355947  0.269583  0.303813  1
