# generated using pymatgen
data_CaAgBi
_symmetry_space_group_name_H-M   'P 1'
_cell_length_a   4.90645655
_cell_length_b   4.90645655
_cell_length_c   7.84293672
_cell_angle_alpha   90.00000000
_cell_angle_beta   90.00000000
_cell_angle_gamma   120.00000000
_symmetry_Int_Tables_number   1
_chemical_formula_structural   CaAgBi
_chemical_formula_sum   'Ca2 Ag2 Bi2'
_cell_volume   163.51035336
_cell_formula_units_Z   2
loop_
 _symmetry_equiv_pos_site_id
 _symmetry_equiv_pos_as_xyz
  1  'x, y, z'
loop_
 _atom_site_type_symbol
 _atom_site_label
 _atom_site_symmetry_multiplicity
 _atom_site_fract_x
 _atom_site_fract_y
 _atom_site_fract_z
 _atom_site_occupancy
  Ca  Ca0  1  0.000000  0.000000  0.022848  1
  Ca  Ca1  1  0.000000  0.000000  0.522848  1
  Ag  Ag2  1  0.333333  0.666667  0.338098  1
  Ag  Ag3  1  0.666667  0.333333  0.838098  1
  Bi  Bi4  1  0.666667  0.333333  0.238724  1
  Bi  Bi5  1  0.333333  0.666667  0.738724  1
