# generated using pymatgen
data_LiWCl6
_symmetry_space_group_name_H-M   'P 1'
_cell_length_a   9.58889514
_cell_length_b   9.58889514
_cell_length_c   9.58889514
_cell_angle_alpha   83.21429360
_cell_angle_beta   83.21429360
_cell_angle_gamma   83.21429360
_symmetry_Int_Tables_number   1
_chemical_formula_structural   LiWCl6
_chemical_formula_sum   'Li4 W4 Cl24'
_cell_volume   864.49299766
_cell_formula_units_Z   4
loop_
 _symmetry_equiv_pos_site_id
 _symmetry_equiv_pos_as_xyz
  1  'x, y, z'
loop_
 _atom_site_type_symbol
 _atom_site_label
 _atom_site_symmetry_multiplicity
 _atom_site_fract_x
 _atom_site_fract_y
 _atom_site_fract_z
 _atom_site_occupancy
  Li  Li0  1  0.659971  0.659971  0.659971  1
  Li  Li1  1  0.330897  0.831859  0.831535  1
  Li  Li2  1  0.831859  0.831535  0.330897  1
  Li  Li3  1  0.831535  0.330897  0.831859  1
  W  W4  1  0.009810  0.496050  0.496519  1
  W  W5  1  0.000984  0.000984  0.000984  1
  W  W6  1  0.496050  0.496519  0.009810  1
  W  W7  1  0.496519  0.009810  0.496050  1
  Cl  Cl8  1  0.727727  0.066341  0.427954  1
  Cl  Cl9  1  0.224365  0.575918  0.432914  1
  Cl  Cl10  1  0.779080  0.922398  0.080177  1
  Cl  Cl11  1  0.575918  0.432914  0.224365  1
  Cl  Cl12  1  0.922398  0.080177  0.779080  1
  Cl  Cl13  1  0.927347  0.578280  0.277392  1
  Cl  Cl14  1  0.066341  0.427954  0.727727  1
  Cl  Cl15  1  0.569993  0.914001  0.725780  1
  Cl  Cl16  1  0.580345  0.774286  0.425420  1
  Cl  Cl17  1  0.080177  0.779080  0.922398  1
  Cl  Cl18  1  0.774286  0.425420  0.580345  1
  Cl  Cl19  1  0.229637  0.065105  0.928680  1
  Cl  Cl20  1  0.432914  0.224365  0.575918  1
  Cl  Cl21  1  0.075209  0.278077  0.425988  1
  Cl  Cl22  1  0.725780  0.569993  0.914001  1
  Cl  Cl23  1  0.914001  0.725780  0.569993  1
  Cl  Cl24  1  0.425420  0.580345  0.774286  1
  Cl  Cl25  1  0.928680  0.229637  0.065105  1
  Cl  Cl26  1  0.277392  0.927347  0.578280  1
  Cl  Cl27  1  0.278077  0.425988  0.075209  1
  Cl  Cl28  1  0.425988  0.075209  0.278077  1
  Cl  Cl29  1  0.578280  0.277392  0.927347  1
  Cl  Cl30  1  0.427954  0.727727  0.066341  1
  Cl  Cl31  1  0.065105  0.928680  0.229637  1
