# generated using pymatgen
data_Sc(Fe2P)2
_symmetry_space_group_name_H-M   'P 1'
_cell_length_a   6.86832891
_cell_length_b   6.86832891
_cell_length_c   3.60127020
_cell_angle_alpha   90.00000000
_cell_angle_beta   90.00000000
_cell_angle_gamma   90.00000000
_symmetry_Int_Tables_number   1
_chemical_formula_structural   Sc(Fe2P)2
_chemical_formula_sum   'Sc2 Fe8 P4'
_cell_volume   169.88611160
_cell_formula_units_Z   2
loop_
 _symmetry_equiv_pos_site_id
 _symmetry_equiv_pos_as_xyz
  1  'x, y, z'
loop_
 _atom_site_type_symbol
 _atom_site_label
 _atom_site_symmetry_multiplicity
 _atom_site_fract_x
 _atom_site_fract_y
 _atom_site_fract_z
 _atom_site_occupancy
  Sc  Sc0  1  0.000000  0.000000  0.500000  1
  Sc  Sc1  1  0.500000  0.500000  0.000000  1
  Fe  Fe2  1  0.340309  0.083573  0.000000  1
  Fe  Fe3  1  0.583573  0.159691  0.500000  1
  Fe  Fe4  1  0.416427  0.840309  0.500000  1
  Fe  Fe5  1  0.659691  0.916427  0.000000  1
  Fe  Fe6  1  0.159691  0.583573  0.500000  1
  Fe  Fe7  1  0.840309  0.416427  0.500000  1
  Fe  Fe8  1  0.083573  0.340309  0.000000  1
  Fe  Fe9  1  0.916427  0.659691  0.000000  1
  P  P10  1  0.781447  0.218553  0.000000  1
  P  P11  1  0.718553  0.718553  0.500000  1
  P  P12  1  0.281447  0.281447  0.500000  1
  P  P13  1  0.218553  0.781447  0.000000  1
