# generated using pymatgen
data_Te3W2Se4(Cl4O)2
_symmetry_space_group_name_H-M   'P 1'
_cell_length_a   8.49063061
_cell_length_b   8.49063061
_cell_length_c   15.47213802
_cell_angle_alpha   81.40803617
_cell_angle_beta   98.59196383
_cell_angle_gamma   98.00836402
_symmetry_Int_Tables_number   1
_chemical_formula_structural   Te3W2Se4(Cl4O)2
_chemical_formula_sum   'Te6 W4 Se8 Cl16 O4'
_cell_volume   1082.66737977
_cell_formula_units_Z   2
loop_
 _symmetry_equiv_pos_site_id
 _symmetry_equiv_pos_as_xyz
  1  'x, y, z'
loop_
 _atom_site_type_symbol
 _atom_site_label
 _atom_site_symmetry_multiplicity
 _atom_site_fract_x
 _atom_site_fract_y
 _atom_site_fract_z
 _atom_site_occupancy
  Te  Te0  1  0.863934  0.965623  0.844855  1
  Te  Te1  1  0.866697  0.855254  0.150569  1
  Te  Te2  1  0.037005  0.243041  0.039740  1
  Te  Te3  1  0.034377  0.136066  0.344855  1
  Te  Te4  1  0.144746  0.133303  0.650569  1
  Te  Te5  1  0.756959  0.962995  0.539740  1
  W  W6  1  0.463400  0.555825  0.715287  1
  W  W7  1  0.456847  0.560781  0.964645  1
  W  W8  1  0.439219  0.543153  0.464645  1
  W  W9  1  0.444175  0.536600  0.215287  1
  Se  Se10  1  0.864996  0.220036  0.618749  1
  Se  Se11  1  0.122245  0.962706  0.070204  1
  Se  Se12  1  0.023858  0.854378  0.310959  1
  Se  Se13  1  0.037294  0.877755  0.570204  1
  Se  Se14  1  0.779964  0.135004  0.118749  1
  Se  Se15  1  0.752239  0.119712  0.379166  1
  Se  Se16  1  0.145622  0.976142  0.810959  1
  Se  Se17  1  0.880288  0.247761  0.879166  1
  Cl  Cl18  1  0.425631  0.837829  0.687835  1
  Cl  Cl19  1  0.476725  0.262150  0.501438  1
  Cl  Cl20  1  0.737850  0.523275  0.001438  1
  Cl  Cl21  1  0.747213  0.628535  0.732527  1
  Cl  Cl22  1  0.399106  0.820659  0.441823  1
  Cl  Cl23  1  0.504157  0.278755  0.746746  1
  Cl  Cl24  1  0.376981  0.272350  0.981412  1
  Cl  Cl25  1  0.162171  0.574369  0.187835  1
  Cl  Cl26  1  0.528694  0.843916  0.957920  1
  Cl  Cl27  1  0.179341  0.600894  0.941823  1
  Cl  Cl28  1  0.721245  0.495843  0.246746  1
  Cl  Cl29  1  0.727650  0.623019  0.481412  1
  Cl  Cl30  1  0.371465  0.252787  0.232527  1
  Cl  Cl31  1  0.175562  0.475387  0.706524  1
  Cl  Cl32  1  0.524613  0.824438  0.206524  1
  Cl  Cl33  1  0.156084  0.471306  0.457920  1
  O  O34  1  0.464117  0.562940  0.842707  1
  O  O35  1  0.452496  0.550507  0.592771  1
  O  O36  1  0.437060  0.535883  0.342707  1
  O  O37  1  0.449493  0.547504  0.092771  1
