# generated using pymatgen
data_Ba2V(CuS2)3
_symmetry_space_group_name_H-M   'P 1'
_cell_length_a   8.83402191
_cell_length_b   8.83402191
_cell_length_c   10.75884344
_cell_angle_alpha   53.75309812
_cell_angle_beta   126.24690188
_cell_angle_gamma   118.88795397
_symmetry_Int_Tables_number   1
_chemical_formula_structural   Ba2V(CuS2)3
_chemical_formula_sum   'Ba4 V2 Cu6 S12'
_cell_volume   534.46447993
_cell_formula_units_Z   2
loop_
 _symmetry_equiv_pos_site_id
 _symmetry_equiv_pos_as_xyz
  1  'x, y, z'
loop_
 _atom_site_type_symbol
 _atom_site_label
 _atom_site_symmetry_multiplicity
 _atom_site_fract_x
 _atom_site_fract_y
 _atom_site_fract_z
 _atom_site_occupancy
  Ba  Ba0  1  0.214890  0.854850  0.055567  1
  Ba  Ba1  1  0.854850  0.214890  0.444433  1
  Ba  Ba2  1  0.785110  0.145150  0.944433  1
  Ba  Ba3  1  0.145150  0.785110  0.555567  1
  V  V4  1  0.361383  0.361383  0.250000  1
  V  V5  1  0.638617  0.638617  0.750000  1
  Cu  Cu6  1  0.346349  0.323184  0.507617  1
  Cu  Cu7  1  0.676816  0.653651  0.007617  1
  Cu  Cu8  1  0.334098  0.334098  0.750000  1
  Cu  Cu9  1  0.665902  0.665902  0.250000  1
  Cu  Cu10  1  0.653651  0.676816  0.492383  1
  Cu  Cu11  1  0.323184  0.346349  0.992383  1
  S  S12  1  0.384494  0.615815  0.017959  1
  S  S13  1  0.935572  0.695450  0.237877  1
  S  S14  1  0.615506  0.384185  0.982041  1
  S  S15  1  0.895128  0.651965  0.756575  1
  S  S16  1  0.064428  0.304550  0.762123  1
  S  S17  1  0.304550  0.064428  0.737877  1
  S  S18  1  0.104872  0.348035  0.243425  1
  S  S19  1  0.615815  0.384494  0.482041  1
  S  S20  1  0.348035  0.104872  0.256575  1
  S  S21  1  0.695450  0.935572  0.262123  1
  S  S22  1  0.384184  0.615506  0.517959  1
  S  S23  1  0.651965  0.895128  0.743425  1
