# generated using pymatgen
data_NaVBP2H3O10
_symmetry_space_group_name_H-M   'P 1'
_cell_length_a   6.73043828
_cell_length_b   6.73043828
_cell_length_c   9.28061235
_cell_angle_alpha   69.99879586
_cell_angle_beta   110.00120414
_cell_angle_gamma   102.80572879
_symmetry_Int_Tables_number   1
_chemical_formula_structural   NaVBP2H3O10
_chemical_formula_sum   'Na2 V2 B2 P4 H6 O20'
_cell_volume   368.60090044
_cell_formula_units_Z   2
loop_
 _symmetry_equiv_pos_site_id
 _symmetry_equiv_pos_as_xyz
  1  'x, y, z'
loop_
 _atom_site_type_symbol
 _atom_site_label
 _atom_site_symmetry_multiplicity
 _atom_site_fract_x
 _atom_site_fract_y
 _atom_site_fract_z
 _atom_site_occupancy
  Na  Na0  1  0.369801  0.369801  0.250000  1
  Na  Na1  1  0.630199  0.630199  0.750000  1
  V  V2  1  0.500000  0.000000  0.000000  1
  V  V3  1  0.000000  0.500000  0.500000  1
  B  B4  1  0.027617  0.027617  0.750000  1
  B  B5  1  0.972383  0.972383  0.250000  1
  P  P6  1  0.654627  0.208292  0.676818  1
  P  P7  1  0.208292  0.654627  0.823182  1
  P  P8  1  0.345373  0.791708  0.323182  1
  P  P9  1  0.791708  0.345373  0.176818  1
  H  H10  1  0.159511  0.187343  0.924074  1
  H  H11  1  0.187343  0.159511  0.575926  1
  H  H12  1  0.840489  0.812657  0.075926  1
  H  H13  1  0.812657  0.840489  0.424074  1
  H  H14  1  0.500000  1.000000  0.500000  1
  H  H15  1  0.000000  0.500000  0.000000  1
  O  O16  1  0.184980  0.066628  0.898308  1
  O  O17  1  0.066628  0.184980  0.601692  1
  O  O18  1  0.815020  0.933372  0.101692  1
  O  O19  1  0.933372  0.815020  0.398308  1
  O  O20  1  0.570534  0.220846  0.807466  1
  O  O21  1  0.220846  0.570534  0.692534  1
  O  O22  1  0.429466  0.779154  0.192534  1
  O  O23  1  0.779154  0.429466  0.307466  1
  O  O24  1  0.809990  0.031859  0.750166  1
  O  O25  1  0.031859  0.809990  0.749834  1
  O  O26  1  0.190010  0.968141  0.249834  1
  O  O27  1  0.968141  0.190010  0.250166  1
  O  O28  1  0.428520  0.770149  0.888128  1
  O  O29  1  0.770149  0.428520  0.611872  1
  O  O30  1  0.571480  0.229851  0.111872  1
  O  O31  1  0.229851  0.571480  0.388128  1
  O  O32  1  0.466733  0.138094  0.542473  1
  O  O33  1  0.138094  0.466733  0.957527  1
  O  O34  1  0.533267  0.861906  0.457527  1
  O  O35  1  0.861906  0.533267  0.042473  1
