# generated using pymatgen
data_ErNiGe2
_symmetry_space_group_name_H-M   'P 1'
_cell_length_a   9.26389321
_cell_length_b   9.26389321
_cell_length_c   9.26389321
_cell_angle_alpha   154.14196257
_cell_angle_beta   125.35964834
_cell_angle_gamma   61.40701204
_symmetry_Int_Tables_number   1
_chemical_formula_structural   ErNiGe2
_chemical_formula_sum   'Er4 Ni4 Ge8'
_cell_volume   280.78686207
_cell_formula_units_Z   4
loop_
 _symmetry_equiv_pos_site_id
 _symmetry_equiv_pos_as_xyz
  1  'x, y, z'
loop_
 _atom_site_type_symbol
 _atom_site_label
 _atom_site_symmetry_multiplicity
 _atom_site_fract_x
 _atom_site_fract_y
 _atom_site_fract_z
 _atom_site_occupancy
  Er  Er0  1  0.704008  0.204008  0.500000  1
  Er  Er1  1  0.295992  0.795992  0.500000  1
  Er  Er2  1  0.259756  1.000000  0.259756  1
  Er  Er3  1  0.740244  0.000000  0.740244  1
  Ni  Ni4  1  0.601293  0.352315  0.248978  1
  Ni  Ni5  1  0.103337  0.352315  0.751022  1
  Ni  Ni6  1  0.896663  0.647685  0.248978  1
  Ni  Ni7  1  0.398707  0.647685  0.751022  1
  Ge  Ge8  1  0.961366  0.803882  0.157484  1
  Ge  Ge9  1  0.353602  0.196118  0.157484  1
  Ge  Ge10  1  0.920422  0.420422  0.500000  1
  Ge  Ge11  1  0.577037  0.577037  0.000000  1
  Ge  Ge12  1  0.079578  0.579578  0.500000  1
  Ge  Ge13  1  0.038634  0.196118  0.842516  1
  Ge  Ge14  1  0.646398  0.803882  0.842516  1
  Ge  Ge15  1  0.422963  0.422963  0.000000  1
