# generated using pymatgen
data_CdI2
_symmetry_space_group_name_H-M   'P 1'
_cell_length_a   4.33587235
_cell_length_b   4.33587235
_cell_length_c   101.76493312
_cell_angle_alpha   90.00000000
_cell_angle_beta   90.00000000
_cell_angle_gamma   120.00000000
_symmetry_Int_Tables_number   1
_chemical_formula_structural   CdI2
_chemical_formula_sum   'Cd13 I26'
_cell_volume   1656.84453255
_cell_formula_units_Z   13
loop_
 _symmetry_equiv_pos_site_id
 _symmetry_equiv_pos_as_xyz
  1  'x, y, z'
loop_
 _atom_site_type_symbol
 _atom_site_label
 _atom_site_symmetry_multiplicity
 _atom_site_fract_x
 _atom_site_fract_y
 _atom_site_fract_z
 _atom_site_occupancy
  Cd  Cd0  1  0.000000  0.000000  0.403793  1
  Cd  Cd1  1  0.000000  0.000000  0.634617  1
  Cd  Cd2  1  0.000000  0.000000  0.788493  1
  Cd  Cd3  1  0.666667  0.333333  0.480729  1
  Cd  Cd4  1  0.000000  0.000000  0.557639  1
  Cd  Cd5  1  0.666667  0.333333  0.173175  1
  Cd  Cd6  1  0.000000  0.000000  0.942360  1
  Cd  Cd7  1  0.666667  0.333333  0.326899  1
  Cd  Cd8  1  0.333333  0.666667  0.865429  1
  Cd  Cd9  1  0.000000  0.000000  0.711551  1
  Cd  Cd10  1  0.000000  0.000000  0.096155  1
  Cd  Cd11  1  0.666667  0.333333  0.019150  1
  Cd  Cd12  1  0.000000  0.000000  0.249954  1
  I  I13  1  0.666667  0.333333  0.694644  1
  I  I14  1  0.333333  0.666667  0.805417  1
  I  I15  1  0.666667  0.333333  0.233033  1
  I  I16  1  0.333333  0.666667  0.651543  1
  I  I17  1  0.000000  0.000000  0.156223  1
  I  I18  1  0.000000  0.000000  0.463839  1
  I  I19  1  0.333333  0.666667  0.343845  1
  I  I20  1  0.333333  0.666667  0.036065  1
  I  I21  1  0.333333  0.666667  0.959302  1
  I  I22  1  0.666667  0.333333  0.925430  1
  I  I23  1  0.666667  0.333333  0.386888  1
  I  I24  1  0.333333  0.666667  0.420713  1
  I  I25  1  0.666667  0.333333  0.848483  1
  I  I26  1  0.333333  0.666667  0.266884  1
  I  I27  1  0.333333  0.666667  0.574585  1
  I  I28  1  0.666667  0.333333  0.540691  1
  I  I29  1  0.333333  0.666667  0.113075  1
  I  I30  1  0.333333  0.666667  0.190094  1
  I  I31  1  0.333333  0.666667  0.728447  1
  I  I32  1  0.000000  0.000000  0.882367  1
  I  I33  1  0.000000  0.000000  0.309974  1
  I  I34  1  0.666667  0.333333  0.617698  1
  I  I35  1  0.000000  0.000000  0.002237  1
  I  I36  1  0.666667  0.333333  0.079233  1
  I  I37  1  0.333333  0.666667  0.497650  1
  I  I38  1  0.666667  0.333333  0.771597  1
