# generated using pymatgen
data_LuZr3F15
_symmetry_space_group_name_H-M   'P 1'
_cell_length_a   8.14152598
_cell_length_b   8.14723078
_cell_length_c   16.28577530
_cell_angle_alpha   100.19214314
_cell_angle_beta   100.17773726
_cell_angle_gamma   100.16496792
_symmetry_Int_Tables_number   1
_chemical_formula_structural   LuZr3F15
_chemical_formula_sum   'Lu4 Zr12 F60'
_cell_volume   1022.12572395
_cell_formula_units_Z   4
loop_
 _symmetry_equiv_pos_site_id
 _symmetry_equiv_pos_as_xyz
  1  'x, y, z'
loop_
 _atom_site_type_symbol
 _atom_site_label
 _atom_site_symmetry_multiplicity
 _atom_site_fract_x
 _atom_site_fract_y
 _atom_site_fract_z
 _atom_site_occupancy
  Lu  Lu0  1  0.322336  0.177109  0.874294  1
  Lu  Lu1  1  0.249234  0.678355  0.410912  1
  Lu  Lu2  1  0.750766  0.321645  0.589088  1
  Lu  Lu3  1  0.677664  0.822891  0.125706  1
  Zr  Zr4  1  0.251670  0.677533  0.912628  1
  Zr  Zr5  1  0.175704  0.748864  0.661180  1
  Zr  Zr6  1  0.250533  0.250099  0.625331  1
  Zr  Zr7  1  0.177297  0.750689  0.162153  1
  Zr  Zr8  1  0.324609  0.178540  0.376070  1
  Zr  Zr9  1  0.249941  0.249786  0.124476  1
  Zr  Zr10  1  0.750059  0.750214  0.875524  1
  Zr  Zr11  1  0.675391  0.821460  0.623930  1
  Zr  Zr12  1  0.822703  0.249311  0.837847  1
  Zr  Zr13  1  0.749467  0.749901  0.374669  1
  Zr  Zr14  1  0.824296  0.251136  0.338820  1
  Zr  Zr15  1  0.748330  0.322467  0.087372  1
  F  F16  1  0.008564  0.777559  0.887301  1
  F  F17  1  0.035356  0.466827  0.877409  1
  F  F18  1  0.042212  0.152808  0.840939  1
  F  F19  1  0.006119  0.779736  0.387881  1
  F  F20  1  0.185969  0.650168  0.777173  1
  F  F21  1  0.246209  0.956798  0.764447  1
  F  F22  1  0.029956  0.457774  0.371285  1
  F  F23  1  0.314931  0.940256  0.923796  1
  F  F24  1  0.219271  0.223979  0.996889  1
  F  F25  1  0.224421  0.990939  0.610451  1
  F  F26  1  0.151387  0.685530  0.529979  1
  F  F27  1  0.052695  0.150831  0.342583  1
  F  F28  1  0.346941  0.456415  0.908375  1
  F  F29  1  0.275177  0.279739  0.753232  1
  F  F30  1  0.280473  0.510124  0.638972  1
  F  F31  1  0.180817  0.653147  0.270684  1
  F  F32  1  0.251590  0.967318  0.268123  1
  F  F33  1  0.316863  0.957184  0.423564  1
  F  F34  1  0.219671  0.226034  0.495539  1
  F  F35  1  0.224893  0.991793  0.110209  1
  F  F36  1  0.150207  0.684030  0.026097  1
  F  F37  1  0.492105  0.724912  0.859169  1
  F  F38  1  0.448481  0.814965  0.674477  1
  F  F39  1  0.347836  0.440955  0.407406  1
  F  F40  1  0.274670  0.277436  0.254098  1
  F  F41  1  0.278101  0.507509  0.136474  1
  F  F42  1  0.540630  0.251591  0.984466  1
  F  F43  1  0.468283  0.751371  0.520421  1
  F  F44  1  0.560359  0.183881  0.825331  1
  F  F45  1  0.506913  0.275006  0.639841  1
  F  F46  1  0.493087  0.724994  0.360159  1
  F  F47  1  0.439641  0.816119  0.174669  1
  F  F48  1  0.531717  0.248629  0.479579  1
  F  F49  1  0.459370  0.748409  0.015534  1
  F  F50  1  0.721899  0.492491  0.863526  1
  F  F51  1  0.725330  0.722564  0.745902  1
  F  F52  1  0.652164  0.559045  0.592594  1
  F  F53  1  0.551519  0.185035  0.325523  1
  F  F54  1  0.507895  0.275088  0.140831  1
  F  F55  1  0.849793  0.315970  0.973903  1
  F  F56  1  0.775107  0.008207  0.889791  1
  F  F57  1  0.780329  0.773966  0.504461  1
  F  F58  1  0.683137  0.042816  0.576436  1
  F  F59  1  0.748410  0.032682  0.731877  1
  F  F60  1  0.819183  0.346853  0.729316  1
  F  F61  1  0.719527  0.489876  0.361028  1
  F  F62  1  0.724823  0.720261  0.246768  1
  F  F63  1  0.653059  0.543585  0.091625  1
  F  F64  1  0.947305  0.849169  0.657417  1
  F  F65  1  0.848613  0.314470  0.470021  1
  F  F66  1  0.775579  0.009061  0.389549  1
  F  F67  1  0.780729  0.776021  0.003111  1
  F  F68  1  0.685069  0.059744  0.076204  1
  F  F69  1  0.970044  0.542226  0.628715  1
  F  F70  1  0.753791  0.043202  0.235553  1
  F  F71  1  0.814031  0.349832  0.222827  1
  F  F72  1  0.993881  0.220264  0.612119  1
  F  F73  1  0.957788  0.847192  0.159061  1
  F  F74  1  0.964644  0.533173  0.122591  1
  F  F75  1  0.991436  0.222441  0.112699  1
