# generated using pymatgen
data_MoPCl5O3
_symmetry_space_group_name_H-M   'P 1'
_cell_length_a   8.90008733
_cell_length_b   15.49338710
_cell_length_c   16.70290192
_cell_angle_alpha   90.00000000
_cell_angle_beta   115.96468498
_cell_angle_gamma   90.00000000
_symmetry_Int_Tables_number   1
_chemical_formula_structural   MoPCl5O3
_chemical_formula_sum   'Mo8 P8 Cl40 O24'
_cell_volume   2070.72875042
_cell_formula_units_Z   8
loop_
 _symmetry_equiv_pos_site_id
 _symmetry_equiv_pos_as_xyz
  1  'x, y, z'
loop_
 _atom_site_type_symbol
 _atom_site_label
 _atom_site_symmetry_multiplicity
 _atom_site_fract_x
 _atom_site_fract_y
 _atom_site_fract_z
 _atom_site_occupancy
  Mo  Mo0  1  0.983799  0.445414  0.244531  1
  Mo  Mo1  1  0.958835  0.303824  0.739245  1
  Mo  Mo2  1  0.016201  0.945414  0.255469  1
  Mo  Mo3  1  0.041165  0.803824  0.760755  1
  Mo  Mo4  1  0.958835  0.196176  0.239245  1
  Mo  Mo5  1  0.041165  0.696176  0.260755  1
  Mo  Mo6  1  0.983799  0.054586  0.744531  1
  Mo  Mo7  1  0.016201  0.554586  0.755469  1
  P  P8  1  0.363128  0.172148  0.445408  1
  P  P9  1  0.456548  0.434596  0.331870  1
  P  P10  1  0.456548  0.065404  0.831870  1
  P  P11  1  0.363128  0.327852  0.945408  1
  P  P12  1  0.543452  0.565404  0.668130  1
  P  P13  1  0.636872  0.672148  0.054592  1
  P  P14  1  0.543452  0.934596  0.168130  1
  P  P15  1  0.636872  0.827852  0.554592  1
  Cl  Cl16  1  0.084048  0.678259  0.132439  1
  Cl  Cl17  1  0.080192  0.174092  0.141824  1
  Cl  Cl18  1  0.501012  0.960591  0.776352  1
  Cl  Cl19  1  0.003913  0.069434  0.888139  1
  Cl  Cl20  1  0.332103  0.070595  0.509516  1
  Cl  Cl21  1  0.084048  0.821741  0.632439  1
  Cl  Cl22  1  0.915952  0.178259  0.367561  1
  Cl  Cl23  1  0.498988  0.460591  0.723648  1
  Cl  Cl24  1  0.345171  0.226049  0.013164  1
  Cl  Cl25  1  0.638443  0.432354  0.455672  1
  Cl  Cl26  1  0.503321  0.335282  0.270371  1
  Cl  Cl27  1  0.332103  0.429405  0.009516  1
  Cl  Cl28  1  0.638443  0.067646  0.955672  1
  Cl  Cl29  1  0.345171  0.273951  0.513164  1
  Cl  Cl30  1  0.003913  0.430566  0.388139  1
  Cl  Cl31  1  0.946319  0.578091  0.873900  1
  Cl  Cl32  1  0.996087  0.930566  0.111861  1
  Cl  Cl33  1  0.398189  0.831887  0.533307  1
  Cl  Cl34  1  0.496679  0.835282  0.229629  1
  Cl  Cl35  1  0.601811  0.331887  0.966693  1
  Cl  Cl36  1  0.919808  0.825908  0.858176  1
  Cl  Cl37  1  0.053681  0.078091  0.626100  1
  Cl  Cl38  1  0.080192  0.325908  0.641824  1
  Cl  Cl39  1  0.654829  0.773951  0.986836  1
  Cl  Cl40  1  0.496679  0.664718  0.729629  1
  Cl  Cl41  1  0.667897  0.929405  0.490484  1
  Cl  Cl42  1  0.915952  0.321741  0.867561  1
  Cl  Cl43  1  0.498988  0.039409  0.223648  1
  Cl  Cl44  1  0.667897  0.570595  0.990484  1
  Cl  Cl45  1  0.398189  0.668113  0.033307  1
  Cl  Cl46  1  0.946319  0.921909  0.373900  1
  Cl  Cl47  1  0.601811  0.168113  0.466693  1
  Cl  Cl48  1  0.361557  0.567646  0.544328  1
  Cl  Cl49  1  0.361557  0.932354  0.044328  1
  Cl  Cl50  1  0.919808  0.674092  0.358176  1
  Cl  Cl51  1  0.654829  0.726049  0.486836  1
  Cl  Cl52  1  0.501012  0.539409  0.276352  1
  Cl  Cl53  1  0.996087  0.569434  0.611861  1
  Cl  Cl54  1  0.503321  0.164718  0.770371  1
  Cl  Cl55  1  0.053681  0.421909  0.126100  1
  O  O56  1  0.754215  0.199527  0.163447  1
  O  O57  1  0.010572  0.308948  0.256217  1
  O  O58  1  0.751062  0.674334  0.151117  1
  O  O59  1  0.711408  0.567373  0.670136  1
  O  O60  1  0.989428  0.691052  0.743783  1
  O  O61  1  0.228094  0.556627  0.814446  1
  O  O62  1  0.245785  0.699527  0.336553  1
  O  O63  1  0.248938  0.325666  0.848883  1
  O  O64  1  0.771906  0.056627  0.685554  1
  O  O65  1  0.989428  0.808948  0.243783  1
  O  O66  1  0.288592  0.067373  0.829864  1
  O  O67  1  0.245785  0.800473  0.836553  1
  O  O68  1  0.288592  0.432627  0.329864  1
  O  O69  1  0.974393  0.059410  0.246679  1
  O  O70  1  0.010572  0.191052  0.756217  1
  O  O71  1  0.248938  0.174334  0.348883  1
  O  O72  1  0.711408  0.932627  0.170136  1
  O  O73  1  0.228094  0.943373  0.314446  1
  O  O74  1  0.771906  0.443373  0.185554  1
  O  O75  1  0.751062  0.825666  0.651117  1
  O  O76  1  0.025607  0.940590  0.753321  1
  O  O77  1  0.974393  0.440590  0.746679  1
  O  O78  1  0.754215  0.300473  0.663447  1
  O  O79  1  0.025607  0.559410  0.253321  1
