# generated using pymatgen
data_TaBe12
_symmetry_space_group_name_H-M   'P 1'
_cell_length_a   5.57444543
_cell_length_b   5.57444543
_cell_length_c   5.57444543
_cell_angle_alpha   98.21350732
_cell_angle_beta   98.21350732
_cell_angle_gamma   135.58385244
_symmetry_Int_Tables_number   1
_chemical_formula_structural   TaBe12
_chemical_formula_sum   'Ta1 Be12'
_cell_volume   112.23915397
_cell_formula_units_Z   1
loop_
 _symmetry_equiv_pos_site_id
 _symmetry_equiv_pos_as_xyz
  1  'x, y, z'
loop_
 _atom_site_type_symbol
 _atom_site_label
 _atom_site_symmetry_multiplicity
 _atom_site_fract_x
 _atom_site_fract_y
 _atom_site_fract_z
 _atom_site_occupancy
  Ta  Ta0  1  0.000000  0.000000  0.000000  1
  Be  Be1  1  0.352721  0.000000  0.352721  1
  Be  Be2  1  0.000000  0.000000  0.500000  1
  Be  Be3  1  1.000000  0.647279  0.647279  1
  Be  Be4  1  0.284293  0.500000  0.784293  1
  Be  Be5  1  0.647279  0.000000  0.647279  1
  Be  Be6  1  0.000000  0.500000  0.000000  1
  Be  Be7  1  1.000000  0.352721  0.352721  1
  Be  Be8  1  0.500000  0.284293  0.784293  1
  Be  Be9  1  0.715707  0.500000  0.215707  1
  Be  Be10  1  0.500000  0.000000  0.000000  1
  Be  Be11  1  0.500000  0.715707  0.215707  1
  Be  Be12  1  0.500000  0.500000  0.500000  1
