# generated using pymatgen
data_Tm4Mn4Sn7
_symmetry_space_group_name_H-M   'P 1'
_cell_length_a   10.97189883
_cell_length_b   10.97189883
_cell_length_c   10.97189883
_cell_angle_alpha   94.02484633
_cell_angle_beta   94.02484633
_cell_angle_gamma   149.27415383
_symmetry_Int_Tables_number   1
_chemical_formula_structural   Tm4Mn4Sn7
_chemical_formula_sum   'Tm8 Mn8 Sn14'
_cell_volume   650.73586984
_cell_formula_units_Z   2
loop_
 _symmetry_equiv_pos_site_id
 _symmetry_equiv_pos_as_xyz
  1  'x, y, z'
loop_
 _atom_site_type_symbol
 _atom_site_label
 _atom_site_symmetry_multiplicity
 _atom_site_fract_x
 _atom_site_fract_y
 _atom_site_fract_z
 _atom_site_occupancy
  Tm  Tm0  1  0.693439  0.500000  0.193439  1
  Tm  Tm1  1  0.139127  0.139127  0.278255  1
  Tm  Tm2  1  0.860873  0.860873  0.721745  1
  Tm  Tm3  1  0.306561  0.500000  0.806561  1
  Tm  Tm4  1  0.500000  0.693439  0.193439  1
  Tm  Tm5  1  0.860873  0.139127  0.000000  1
  Tm  Tm6  1  0.139127  0.860873  0.000000  1
  Tm  Tm7  1  0.500000  0.306561  0.806561  1
  Mn  Mn8  1  0.100163  0.899837  0.500000  1
  Mn  Mn9  1  0.100163  0.600163  0.200325  1
  Mn  Mn10  1  0.899837  0.100163  0.500000  1
  Mn  Mn11  1  0.600163  0.399837  0.500000  1
  Mn  Mn12  1  0.600163  0.100163  0.200325  1
  Mn  Mn13  1  0.399837  0.899837  0.799675  1
  Mn  Mn14  1  0.899837  0.399837  0.799675  1
  Mn  Mn15  1  0.399837  0.600163  0.500000  1
  Sn  Sn16  1  0.296430  0.296430  0.592860  1
  Sn  Sn17  1  0.712803  1.000000  0.712803  1
  Sn  Sn18  1  0.249532  0.249532  0.000000  1
  Sn  Sn19  1  1.000000  0.287197  0.287197  1
  Sn  Sn20  1  0.703570  0.703570  0.407140  1
  Sn  Sn21  1  0.703570  0.296430  0.000000  1
  Sn  Sn22  1  0.500000  0.097053  0.597053  1
  Sn  Sn23  1  0.902947  0.500000  0.402947  1
  Sn  Sn24  1  1.000000  0.712803  0.712803  1
  Sn  Sn25  1  0.750468  0.750468  0.000000  1
  Sn  Sn26  1  0.097053  0.500000  0.597053  1
  Sn  Sn27  1  0.287197  1.000000  0.287197  1
  Sn  Sn28  1  0.500000  0.902947  0.402947  1
  Sn  Sn29  1  0.296430  0.703570  0.000000  1
