# generated using pymatgen
data_Cs3Tb10C4Cl21
_symmetry_space_group_name_H-M   'P 1'
_cell_length_a   13.36258160
_cell_length_b   13.36258160
_cell_length_c   15.28033872
_cell_angle_alpha   82.81812774
_cell_angle_beta   97.18187226
_cell_angle_gamma   123.50819838
_symmetry_Int_Tables_number   1
_chemical_formula_structural   Cs3Tb10C4Cl21
_chemical_formula_sum   'Cs6 Tb20 C8 Cl42'
_cell_volume   2251.96175151
_cell_formula_units_Z   2
loop_
 _symmetry_equiv_pos_site_id
 _symmetry_equiv_pos_as_xyz
  1  'x, y, z'
loop_
 _atom_site_type_symbol
 _atom_site_label
 _atom_site_symmetry_multiplicity
 _atom_site_fract_x
 _atom_site_fract_y
 _atom_site_fract_z
 _atom_site_occupancy
  Cs  Cs0  1  0.972743  0.972743  0.250000  1
  Cs  Cs1  1  0.027257  0.027257  0.750000  1
  Cs  Cs2  1  0.350304  0.140116  0.047507  1
  Cs  Cs3  1  0.140116  0.350304  0.452493  1
  Cs  Cs4  1  0.649696  0.859884  0.952493  1
  Cs  Cs5  1  0.859884  0.649696  0.547507  1
  Tb  Tb6  1  0.754516  0.496302  0.128706  1
  Tb  Tb7  1  0.232772  0.040280  0.516543  1
  Tb  Tb8  1  0.648024  0.080784  0.300180  1
  Tb  Tb9  1  0.751825  0.505511  0.881503  1
  Tb  Tb10  1  0.626062  0.099607  0.540383  1
  Tb  Tb11  1  0.900393  0.373938  0.040383  1
  Tb  Tb12  1  0.503698  0.245484  0.628706  1
  Tb  Tb13  1  0.248175  0.494489  0.118497  1
  Tb  Tb14  1  0.080784  0.648024  0.199820  1
  Tb  Tb15  1  0.767228  0.959720  0.483457  1
  Tb  Tb16  1  0.494489  0.248175  0.381503  1
  Tb  Tb17  1  0.373938  0.900393  0.459617  1
  Tb  Tb18  1  0.505511  0.751825  0.618497  1
  Tb  Tb19  1  0.245484  0.503698  0.871294  1
  Tb  Tb20  1  0.351976  0.919216  0.699820  1
  Tb  Tb21  1  0.040280  0.232772  0.983457  1
  Tb  Tb22  1  0.959720  0.767228  0.016543  1
  Tb  Tb23  1  0.919216  0.351976  0.800180  1
  Tb  Tb24  1  0.099607  0.626062  0.959617  1
  Tb  Tb25  1  0.496302  0.754516  0.371294  1
  C  C26  1  0.548574  0.879832  0.497973  1
  C  C27  1  0.034486  0.409014  0.923600  1
  C  C28  1  0.409014  0.034486  0.576400  1
  C  C29  1  0.965514  0.590986  0.076400  1
  C  C30  1  0.590986  0.965514  0.423600  1
  C  C31  1  0.120168  0.451426  0.997973  1
  C  C32  1  0.451426  0.120168  0.502027  1
  C  C33  1  0.879832  0.548574  0.002027  1
  Cl  Cl34  1  0.717172  0.273764  0.397601  1
  Cl  Cl35  1  0.777598  0.711752  0.113490  1
  Cl  Cl36  1  0.263140  0.187520  0.366011  1
  Cl  Cl37  1  0.943093  0.572844  0.778110  1
  Cl  Cl38  1  0.812480  0.736860  0.866011  1
  Cl  Cl39  1  0.288248  0.222402  0.613490  1
  Cl  Cl40  1  0.869352  0.122863  0.338694  1
  Cl  Cl41  1  0.572844  0.943093  0.721890  1
  Cl  Cl42  1  0.711752  0.777598  0.386510  1
  Cl  Cl43  1  0.431178  0.111311  0.789648  1
  Cl  Cl44  1  0.267569  0.707299  0.353403  1
  Cl  Cl45  1  0.282828  0.726236  0.602399  1
  Cl  Cl46  1  0.578733  0.426206  0.989632  1
  Cl  Cl47  1  0.142021  0.851586  0.420926  1
  Cl  Cl48  1  0.611170  0.447402  0.722467  1
  Cl  Cl49  1  0.573794  0.421267  0.489632  1
  Cl  Cl50  1  0.187520  0.263140  0.133989  1
  Cl  Cl51  1  0.732431  0.292701  0.646597  1
  Cl  Cl52  1  0.222402  0.288248  0.886510  1
  Cl  Cl53  1  0.111311  0.431178  0.710352  1
  Cl  Cl54  1  0.130648  0.877137  0.661306  1
  Cl  Cl55  1  0.292701  0.732431  0.853403  1
  Cl  Cl56  1  0.427156  0.056907  0.278110  1
  Cl  Cl57  1  0.888689  0.568822  0.289648  1
  Cl  Cl58  1  0.447402  0.611170  0.777533  1
  Cl  Cl59  1  0.707299  0.267569  0.146597  1
  Cl  Cl60  1  0.877137  0.130648  0.838694  1
  Cl  Cl61  1  1.000000  0.000000  0.500000  1
  Cl  Cl62  1  0.857979  0.148414  0.579074  1
  Cl  Cl63  1  0.421267  0.573794  0.010368  1
  Cl  Cl64  1  0.426206  0.578733  0.510368  1
  Cl  Cl65  1  0.056907  0.427156  0.221890  1
  Cl  Cl66  1  0.552598  0.388830  0.222467  1
  Cl  Cl67  1  0.568822  0.888689  0.210352  1
  Cl  Cl68  1  0.851586  0.142021  0.079074  1
  Cl  Cl69  1  0.726236  0.282828  0.897601  1
  Cl  Cl70  1  0.122863  0.869352  0.161306  1
  Cl  Cl71  1  0.736860  0.812480  0.633989  1
  Cl  Cl72  1  0.273764  0.717172  0.102399  1
  Cl  Cl73  1  0.388830  0.552598  0.277533  1
  Cl  Cl74  1  0.148414  0.857979  0.920926  1
  Cl  Cl75  1  0.000000  0.000000  0.000000  1
