# generated using pymatgen
data_Nb3Sb2Te5
_symmetry_space_group_name_H-M   'P 1'
_cell_length_a   8.59214002
_cell_length_b   8.59214002
_cell_length_c   8.59214002
_cell_angle_alpha   109.47122063
_cell_angle_beta   109.47122063
_cell_angle_gamma   109.47122063
_symmetry_Int_Tables_number   1
_chemical_formula_structural   Nb3Sb2Te5
_chemical_formula_sum   'Nb6 Sb4 Te10'
_cell_volume   488.29485378
_cell_formula_units_Z   2
loop_
 _symmetry_equiv_pos_site_id
 _symmetry_equiv_pos_as_xyz
  1  'x, y, z'
loop_
 _atom_site_type_symbol
 _atom_site_label
 _atom_site_symmetry_multiplicity
 _atom_site_fract_x
 _atom_site_fract_y
 _atom_site_fract_z
 _atom_site_occupancy
  Nb  Nb0  1  0.000000  0.342709  0.342709  1
  Nb  Nb1  1  0.342709  0.000000  0.342709  1
  Nb  Nb2  1  0.657291  1.000000  0.657291  1
  Nb  Nb3  1  0.657291  0.657291  0.000000  1
  Nb  Nb4  1  0.342709  0.342709  0.000000  1
  Nb  Nb5  1  1.000000  0.657291  0.657291  1
  Sb  Sb6  1  0.329742  1.000000  0.000000  1
  Sb  Sb7  1  1.000000  0.329742  0.000000  1
  Sb  Sb8  1  0.670258  0.670258  0.670258  1
  Sb  Sb9  1  0.000000  0.000000  0.329742  1
  Te  Te10  1  0.327908  0.327908  0.327908  1
  Te  Te11  1  0.250000  0.750000  0.500000  1
  Te  Te12  1  0.000000  0.672092  0.000000  1
  Te  Te13  1  0.500000  0.750000  0.250000  1
  Te  Te14  1  0.750000  0.250000  0.500000  1
  Te  Te15  1  0.500000  0.250000  0.750000  1
  Te  Te16  1  0.672092  0.000000  0.000000  1
  Te  Te17  1  1.000000  1.000000  0.672092  1
  Te  Te18  1  0.250000  0.500000  0.750000  1
  Te  Te19  1  0.750000  0.500000  0.250000  1
