# generated using pymatgen
data_Ba2Hg3(PdO2)7
_symmetry_space_group_name_H-M   'P 1'
_cell_length_a   6.27724715
_cell_length_b   6.27724715
_cell_length_c   11.11679202
_cell_angle_alpha   89.66086454
_cell_angle_beta   90.33913546
_cell_angle_gamma   119.09578332
_symmetry_Int_Tables_number   1
_chemical_formula_structural   Ba2Hg3(PdO2)7
_chemical_formula_sum   'Ba2 Hg3 Pd7 O14'
_cell_volume   382.75751135
_cell_formula_units_Z   1
loop_
 _symmetry_equiv_pos_site_id
 _symmetry_equiv_pos_as_xyz
  1  'x, y, z'
loop_
 _atom_site_type_symbol
 _atom_site_label
 _atom_site_symmetry_multiplicity
 _atom_site_fract_x
 _atom_site_fract_y
 _atom_site_fract_z
 _atom_site_occupancy
  Ba  Ba0  1  0.502524  0.497476  0.295249  1
  Ba  Ba1  1  0.497476  0.502524  0.704751  1
  Hg  Hg2  1  0.825087  0.174913  0.804503  1
  Hg  Hg3  1  0.174913  0.825087  0.195497  1
  Hg  Hg4  1  0.000000  1.000000  0.500000  1
  Pd  Pd5  1  0.000000  0.000000  0.000000  1
  Pd  Pd6  1  0.833273  0.166727  0.221590  1
  Pd  Pd7  1  0.166727  0.833273  0.778410  1
  Pd  Pd8  1  0.000000  0.500000  0.000000  1
  Pd  Pd9  1  0.500000  1.000000  0.500000  1
  Pd  Pd10  1  0.000000  0.500000  0.500000  1
  Pd  Pd11  1  0.500000  1.000000  0.000000  1
  O  O12  1  0.691191  0.876944  0.102291  1
  O  O13  1  0.688534  0.311466  0.100509  1
  O  O14  1  0.479726  0.991626  0.683651  1
  O  O15  1  0.363533  0.636467  0.497310  1
  O  O16  1  0.991626  0.479726  0.316349  1
  O  O17  1  0.005802  0.994198  0.686586  1
  O  O18  1  0.520274  0.008374  0.316349  1
  O  O19  1  0.123056  0.308809  0.102291  1
  O  O20  1  0.308809  0.123056  0.897709  1
  O  O21  1  0.636467  0.363533  0.502690  1
  O  O22  1  0.311466  0.688534  0.899491  1
  O  O23  1  0.008374  0.520274  0.683651  1
  O  O24  1  0.994198  0.005802  0.313414  1
  O  O25  1  0.876944  0.691191  0.897709  1
