# generated using pymatgen
data_Ba6Er2Ga4O15
_symmetry_space_group_name_H-M   'P 1'
_cell_length_a   8.03237133
_cell_length_b   6.02479800
_cell_length_c   18.63054812
_cell_angle_alpha   90.00000000
_cell_angle_beta   91.31456830
_cell_angle_gamma   90.00000000
_symmetry_Int_Tables_number   1
_chemical_formula_structural   Ba6Er2Ga4O15
_chemical_formula_sum   'Ba12 Er4 Ga8 O30'
_cell_volume   901.35854867
_cell_formula_units_Z   2
loop_
 _symmetry_equiv_pos_site_id
 _symmetry_equiv_pos_as_xyz
  1  'x, y, z'
loop_
 _atom_site_type_symbol
 _atom_site_label
 _atom_site_symmetry_multiplicity
 _atom_site_fract_x
 _atom_site_fract_y
 _atom_site_fract_z
 _atom_site_occupancy
  Ba  Ba0  1  0.473438  0.748059  0.910460  1
  Ba  Ba1  1  0.001116  0.755010  0.578634  1
  Ba  Ba2  1  0.998884  0.244990  0.421366  1
  Ba  Ba3  1  0.526562  0.251941  0.089540  1
  Ba  Ba4  1  0.000000  0.329494  0.750000  1
  Ba  Ba5  1  0.998884  0.755010  0.921366  1
  Ba  Ba6  1  0.500000  0.724491  0.250000  1
  Ba  Ba7  1  0.500000  0.275509  0.750000  1
  Ba  Ba8  1  0.001116  0.244990  0.078634  1
  Ba  Ba9  1  0.000000  0.670506  0.250000  1
  Ba  Ba10  1  0.473438  0.251941  0.410460  1
  Ba  Ba11  1  0.526562  0.748059  0.589540  1
  Er  Er12  1  0.252502  0.746584  0.089667  1
  Er  Er13  1  0.747498  0.746584  0.410333  1
  Er  Er14  1  0.747498  0.253416  0.910333  1
  Er  Er15  1  0.252502  0.253416  0.589667  1
  Ga  Ga16  1  0.745927  0.251936  0.557889  1
  Ga  Ga17  1  0.729981  0.773410  0.766983  1
  Ga  Ga18  1  0.270019  0.773410  0.733017  1
  Ga  Ga19  1  0.254073  0.251936  0.942111  1
  Ga  Ga20  1  0.745927  0.748064  0.057889  1
  Ga  Ga21  1  0.270019  0.226590  0.233017  1
  Ga  Ga22  1  0.729981  0.226590  0.266983  1
  Ga  Ga23  1  0.254073  0.748064  0.442111  1
  O  O24  1  0.968678  0.245048  0.590612  1
  O  O25  1  0.734212  0.509077  0.500391  1
  O  O26  1  0.225294  0.957153  0.188691  1
  O  O27  1  0.265451  0.008951  0.007292  1
  O  O28  1  0.500000  0.799337  0.750000  1
  O  O29  1  0.812462  0.328564  0.182916  1
  O  O30  1  0.225294  0.042847  0.688691  1
  O  O31  1  0.748746  0.546145  0.836679  1
  O  O32  1  0.251254  0.546145  0.663321  1
  O  O33  1  0.187538  0.328564  0.317084  1
  O  O34  1  0.734212  0.490923  0.000391  1
  O  O35  1  0.545592  0.237349  0.607634  1
  O  O36  1  0.774706  0.957153  0.311309  1
  O  O37  1  0.748746  0.453855  0.336679  1
  O  O38  1  0.812462  0.671436  0.682916  1
  O  O39  1  0.500000  0.200663  0.250000  1
  O  O40  1  0.454408  0.762651  0.392366  1
  O  O41  1  0.031322  0.754952  0.409388  1
  O  O42  1  0.734549  0.991049  0.992708  1
  O  O43  1  0.968678  0.754952  0.090612  1
  O  O44  1  0.454408  0.237349  0.892366  1
  O  O45  1  0.545592  0.762651  0.107634  1
  O  O46  1  0.265788  0.509077  0.999609  1
  O  O47  1  0.251254  0.453855  0.163321  1
  O  O48  1  0.734549  0.008951  0.492708  1
  O  O49  1  0.187538  0.671436  0.817084  1
  O  O50  1  0.774706  0.042847  0.811309  1
  O  O51  1  0.265451  0.991049  0.507292  1
  O  O52  1  0.031322  0.245048  0.909388  1
  O  O53  1  0.265788  0.490923  0.499609  1
