# generated using pymatgen
data_Sm3Mg13Zn30
_symmetry_space_group_name_H-M   'P 1'
_cell_length_a   14.64233014
_cell_length_b   14.64233014
_cell_length_c   8.66283575
_cell_angle_alpha   90.00000000
_cell_angle_beta   90.00000000
_cell_angle_gamma   120.00000000
_symmetry_Int_Tables_number   1
_chemical_formula_structural   Sm3Mg13Zn30
_chemical_formula_sum   'Sm6 Mg26 Zn60'
_cell_volume   1608.46309517
_cell_formula_units_Z   2
loop_
 _symmetry_equiv_pos_site_id
 _symmetry_equiv_pos_as_xyz
  1  'x, y, z'
loop_
 _atom_site_type_symbol
 _atom_site_label
 _atom_site_symmetry_multiplicity
 _atom_site_fract_x
 _atom_site_fract_y
 _atom_site_fract_z
 _atom_site_occupancy
  Sm  Sm0  1  0.459112  0.918223  0.250000  1
  Sm  Sm1  1  0.918223  0.459112  0.750000  1
  Sm  Sm2  1  0.081777  0.540888  0.250000  1
  Sm  Sm3  1  0.540888  0.459112  0.750000  1
  Sm  Sm4  1  0.540888  0.081777  0.750000  1
  Sm  Sm5  1  0.459112  0.540888  0.250000  1
  Mg  Mg6  1  0.884195  0.115805  0.065161  1
  Mg  Mg7  1  0.771939  0.228061  0.947923  1
  Mg  Mg8  1  0.884195  0.768391  0.065161  1
  Mg  Mg9  1  0.884195  0.768391  0.434839  1
  Mg  Mg10  1  0.333333  0.666667  0.750000  1
  Mg  Mg11  1  0.771939  0.543878  0.947923  1
  Mg  Mg12  1  0.771939  0.228061  0.552077  1
  Mg  Mg13  1  0.115805  0.231609  0.565161  1
  Mg  Mg14  1  0.231609  0.115805  0.434839  1
  Mg  Mg15  1  0.228061  0.771939  0.447923  1
  Mg  Mg16  1  0.768391  0.884195  0.565161  1
  Mg  Mg17  1  0.456122  0.228061  0.947923  1
  Mg  Mg18  1  0.543878  0.771939  0.052077  1
  Mg  Mg19  1  0.228061  0.456122  0.447923  1
  Mg  Mg20  1  0.231609  0.115805  0.065161  1
  Mg  Mg21  1  0.666667  0.333333  0.250000  1
  Mg  Mg22  1  0.115805  0.884195  0.934839  1
  Mg  Mg23  1  0.228061  0.771939  0.052077  1
  Mg  Mg24  1  0.228061  0.456122  0.052077  1
  Mg  Mg25  1  0.115805  0.884195  0.565161  1
  Mg  Mg26  1  0.771939  0.543878  0.552077  1
  Mg  Mg27  1  0.456122  0.228061  0.552077  1
  Mg  Mg28  1  0.768391  0.884195  0.934839  1
  Mg  Mg29  1  0.115805  0.231609  0.934839  1
  Mg  Mg30  1  0.884195  0.115805  0.434839  1
  Mg  Mg31  1  0.543878  0.771939  0.447923  1
  Zn  Zn32  1  0.290249  0.408587  0.750000  1
  Zn  Zn33  1  0.137616  0.568808  0.912798  1
  Zn  Zn34  1  0.118338  0.709751  0.750000  1
  Zn  Zn35  1  0.591413  0.709751  0.750000  1
  Zn  Zn36  1  0.568808  0.137616  0.087202  1
  Zn  Zn37  1  0.303106  0.239111  0.750000  1
  Zn  Zn38  1  0.641330  0.000000  0.500000  1
  Zn  Zn39  1  0.063995  0.760889  0.250000  1
  Zn  Zn40  1  0.666667  0.333333  0.599577  1
  Zn  Zn41  1  0.290249  0.881662  0.750000  1
  Zn  Zn42  1  0.936005  0.696894  0.750000  1
  Zn  Zn43  1  0.938545  0.061455  0.750000  1
  Zn  Zn44  1  0.641330  0.000000  0.000000  1
  Zn  Zn45  1  0.568808  0.431192  0.412798  1
  Zn  Zn46  1  0.760889  0.696894  0.750000  1
  Zn  Zn47  1  0.431192  0.568808  0.912798  1
  Zn  Zn48  1  0.000000  0.358670  0.500000  1
  Zn  Zn49  1  0.333333  0.666667  0.099577  1
  Zn  Zn50  1  0.568808  0.431192  0.087202  1
  Zn  Zn51  1  0.431192  0.568808  0.587202  1
  Zn  Zn52  1  0.936005  0.239111  0.750000  1
  Zn  Zn53  1  0.709751  0.118338  0.250000  1
  Zn  Zn54  1  0.696894  0.936005  0.250000  1
  Zn  Zn55  1  0.061455  0.938545  0.250000  1
  Zn  Zn56  1  0.431192  0.862384  0.912798  1
  Zn  Zn57  1  0.938545  0.877089  0.750000  1
  Zn  Zn58  1  0.358670  0.000000  0.000000  1
  Zn  Zn59  1  0.239111  0.936005  0.250000  1
  Zn  Zn60  1  0.666667  0.333333  0.900423  1
  Zn  Zn61  1  0.333333  0.666667  0.400423  1
  Zn  Zn62  1  0.000000  0.358670  0.000000  1
  Zn  Zn63  1  0.358670  0.358670  0.000000  1
  Zn  Zn64  1  0.709751  0.591413  0.250000  1
  Zn  Zn65  1  0.881662  0.290249  0.250000  1
  Zn  Zn66  1  0.000000  0.000000  0.500000  1
  Zn  Zn67  1  0.137616  0.568808  0.587202  1
  Zn  Zn68  1  0.118338  0.408587  0.750000  1
  Zn  Zn69  1  0.568808  0.137616  0.412798  1
  Zn  Zn70  1  0.760889  0.063995  0.750000  1
  Zn  Zn71  1  0.000000  0.641330  0.000000  1
  Zn  Zn72  1  0.862384  0.431192  0.087202  1
  Zn  Zn73  1  0.063995  0.303106  0.250000  1
  Zn  Zn74  1  0.591413  0.881662  0.750000  1
  Zn  Zn75  1  0.641330  0.641330  0.500000  1
  Zn  Zn76  1  0.696894  0.760889  0.250000  1
  Zn  Zn77  1  0.358670  0.358670  0.500000  1
  Zn  Zn78  1  0.408587  0.290249  0.250000  1
  Zn  Zn79  1  0.881662  0.591413  0.250000  1
  Zn  Zn80  1  0.641330  0.641330  0.000000  1
  Zn  Zn81  1  0.122911  0.061455  0.750000  1
  Zn  Zn82  1  0.303106  0.063995  0.750000  1
  Zn  Zn83  1  0.000000  0.641330  0.500000  1
  Zn  Zn84  1  0.061455  0.122911  0.250000  1
  Zn  Zn85  1  0.877089  0.938545  0.250000  1
  Zn  Zn86  1  0.000000  0.000000  0.000000  1
  Zn  Zn87  1  0.358670  0.000000  0.500000  1
  Zn  Zn88  1  0.431192  0.862384  0.587202  1
  Zn  Zn89  1  0.239111  0.303106  0.250000  1
  Zn  Zn90  1  0.862384  0.431192  0.412798  1
  Zn  Zn91  1  0.408587  0.118338  0.250000  1
