# generated using pymatgen
data_K2YbMoPO8
_symmetry_space_group_name_H-M   'P 1'
_cell_length_a   12.30937381
_cell_length_b   12.30937381
_cell_length_c   12.30937381
_cell_angle_alpha   147.01529444
_cell_angle_beta   119.57933653
_cell_angle_gamma   70.58280554
_symmetry_Int_Tables_number   1
_chemical_formula_structural   K2YbMoPO8
_chemical_formula_sum   'K8 Yb4 Mo4 P4 O32'
_cell_volume   869.84764490
_cell_formula_units_Z   4
loop_
 _symmetry_equiv_pos_site_id
 _symmetry_equiv_pos_as_xyz
  1  'x, y, z'
loop_
 _atom_site_type_symbol
 _atom_site_label
 _atom_site_symmetry_multiplicity
 _atom_site_fract_x
 _atom_site_fract_y
 _atom_site_fract_z
 _atom_site_occupancy
  K  K0  1  0.759649  0.367909  0.942101  1
  K  K1  1  0.740351  0.182452  0.108260  1
  K  K2  1  0.259649  0.817548  0.891740  1
  K  K3  1  0.425808  0.317548  0.557899  1
  K  K4  1  0.574192  0.682452  0.442101  1
  K  K5  1  0.925808  0.867909  0.608260  1
  K  K6  1  0.074192  0.132091  0.391740  1
  K  K7  1  0.240351  0.632091  0.057899  1
  Yb  Yb8  1  0.819921  0.250000  0.569921  1
  Yb  Yb9  1  0.680079  0.750000  0.930079  1
  Yb  Yb10  1  0.319921  0.250000  0.069921  1
  Yb  Yb11  1  0.180079  0.750000  0.430079  1
  Mo  Mo12  1  0.914073  0.664073  0.750000  1
  Mo  Mo13  1  0.585927  0.835927  0.250000  1
  Mo  Mo14  1  0.085927  0.335927  0.250000  1
  Mo  Mo15  1  0.414073  0.164073  0.750000  1
  P  P16  1  0.567738  0.250000  0.317738  1
  P  P17  1  0.932262  0.750000  0.182262  1
  P  P18  1  0.432262  0.750000  0.682262  1
  P  P19  1  0.067738  0.250000  0.817738  1
  O  O20  1  0.347206  0.915444  0.781059  1
  O  O21  1  0.338180  0.903909  0.514931  1
  O  O22  1  0.865615  0.933853  0.281059  1
  O  O23  1  0.847206  0.566147  0.931762  1
  O  O24  1  0.152794  0.433853  0.068238  1
  O  O25  1  0.067193  0.791885  0.235481  1
  O  O26  1  0.838180  0.823248  0.934271  1
  O  O27  1  0.943596  0.708115  0.275308  1
  O  O28  1  0.056404  0.291885  0.724692  1
  O  O29  1  0.443596  0.668289  0.735481  1
  O  O30  1  0.151882  0.334378  0.415060  1
  O  O31  1  0.932807  0.208115  0.764519  1
  O  O32  1  0.634385  0.415444  0.568238  1
  O  O33  1  0.919318  0.236823  0.084940  1
  O  O34  1  0.652794  0.084556  0.218941  1
  O  O35  1  0.365615  0.584556  0.431762  1
  O  O36  1  0.080682  0.763177  0.915060  1
  O  O37  1  0.134385  0.066147  0.718941  1
  O  O38  1  0.888977  0.403909  0.565729  1
  O  O39  1  0.419318  0.834378  0.182496  1
  O  O40  1  0.567193  0.831711  0.775308  1
  O  O41  1  0.651882  0.736823  0.317504  1
  O  O42  1  0.556404  0.331711  0.264519  1
  O  O43  1  0.580682  0.165622  0.817504  1
  O  O44  1  0.111023  0.596091  0.434271  1
  O  O45  1  0.161820  0.176752  0.065729  1
  O  O46  1  0.388977  0.323248  0.985069  1
  O  O47  1  0.432807  0.168289  0.224692  1
  O  O48  1  0.661820  0.096091  0.485069  1
  O  O49  1  0.848118  0.665622  0.584940  1
  O  O50  1  0.611023  0.676752  0.014931  1
  O  O51  1  0.348118  0.263177  0.682496  1
