# generated using pymatgen
data_Na3V(SO4)3
_symmetry_space_group_name_H-M   'P 1'
_cell_length_a   8.47281948
_cell_length_b   8.47281948
_cell_length_c   8.47281948
_cell_angle_alpha   107.50055535
_cell_angle_beta   107.50055535
_cell_angle_gamma   107.50055535
_symmetry_Int_Tables_number   1
_chemical_formula_structural   Na3V(SO4)3
_chemical_formula_sum   'Na6 V2 S6 O24'
_cell_volume   499.48020273
_cell_formula_units_Z   2
loop_
 _symmetry_equiv_pos_site_id
 _symmetry_equiv_pos_as_xyz
  1  'x, y, z'
loop_
 _atom_site_type_symbol
 _atom_site_label
 _atom_site_symmetry_multiplicity
 _atom_site_fract_x
 _atom_site_fract_y
 _atom_site_fract_z
 _atom_site_occupancy
  Na  Na0  1  0.384817  0.855773  0.235637  1
  Na  Na1  1  0.855773  0.235637  0.384817  1
  Na  Na2  1  0.235637  0.384817  0.855773  1
  Na  Na3  1  0.615183  0.144227  0.764363  1
  Na  Na4  1  0.144227  0.764363  0.615183  1
  Na  Na5  1  0.764363  0.615183  0.144227  1
  V  V6  1  0.000000  0.000000  0.000000  1
  V  V7  1  0.500000  0.500000  0.500000  1
  S  S8  1  0.098248  0.447802  0.235922  1
  S  S9  1  0.447802  0.235922  0.098248  1
  S  S10  1  0.235922  0.098248  0.447802  1
  S  S11  1  0.901752  0.552198  0.764078  1
  S  S12  1  0.552198  0.764078  0.901752  1
  S  S13  1  0.764078  0.901752  0.552198  1
  O  O14  1  0.243319  0.481283  0.413595  1
  O  O15  1  0.481283  0.413595  0.243319  1
  O  O16  1  0.413595  0.243319  0.481283  1
  O  O17  1  0.756681  0.518717  0.586405  1
  O  O18  1  0.518717  0.586405  0.756681  1
  O  O19  1  0.586405  0.756681  0.518717  1
  O  O20  1  0.178592  0.528129  0.132450  1
  O  O21  1  0.528129  0.132450  0.178592  1
  O  O22  1  0.132450  0.178592  0.528129  1
  O  O23  1  0.821408  0.471871  0.867550  1
  O  O24  1  0.471871  0.867550  0.821408  1
  O  O25  1  0.867550  0.821408  0.471871  1
  O  O26  1  0.974908  0.520498  0.289158  1
  O  O27  1  0.520498  0.289158  0.974908  1
  O  O28  1  0.289158  0.974908  0.520498  1
  O  O29  1  0.025092  0.479502  0.710842  1
  O  O30  1  0.479502  0.710842  0.025092  1
  O  O31  1  0.710842  0.025092  0.479502  1
  O  O32  1  0.987705  0.241527  0.128034  1
  O  O33  1  0.241527  0.128034  0.987705  1
  O  O34  1  0.128034  0.987705  0.241527  1
  O  O35  1  0.012295  0.758473  0.871966  1
  O  O36  1  0.758473  0.871966  0.012295  1
  O  O37  1  0.871966  0.012295  0.758473  1
