# generated using pymatgen
data_BaAg2GeSe4
_symmetry_space_group_name_H-M   'P 1'
_cell_length_a   6.65586598
_cell_length_b   6.65586598
_cell_length_c   6.65586598
_cell_angle_alpha   115.23608128
_cell_angle_beta   112.76396662
_cell_angle_gamma   100.76115112
_symmetry_Int_Tables_number   1
_chemical_formula_structural   BaAg2GeSe4
_chemical_formula_sum   'Ba1 Ag2 Ge1 Se4'
_cell_volume   223.01131058
_cell_formula_units_Z   1
loop_
 _symmetry_equiv_pos_site_id
 _symmetry_equiv_pos_as_xyz
  1  'x, y, z'
loop_
 _atom_site_type_symbol
 _atom_site_label
 _atom_site_symmetry_multiplicity
 _atom_site_fract_x
 _atom_site_fract_y
 _atom_site_fract_z
 _atom_site_occupancy
  Ba  Ba0  1  0.000000  0.000000  0.000000  1
  Ag  Ag1  1  0.292701  0.792701  0.500000  1
  Ag  Ag2  1  0.707299  0.207299  0.500000  1
  Ge  Ge3  1  0.500000  0.500000  0.000000  1
  Se  Se4  1  0.471565  0.468877  0.616614  1
  Se  Se5  1  0.852263  0.854951  0.383386  1
  Se  Se6  1  0.147737  0.531123  0.002688  1
  Se  Se7  1  0.528435  0.145049  0.997312  1
