# generated using pymatgen
data_Yb3Ag2
_symmetry_space_group_name_H-M   'P 1'
_cell_length_a   8.20910153
_cell_length_b   8.20910153
_cell_length_c   4.15792987
_cell_angle_alpha   90.00000000
_cell_angle_beta   90.00000000
_cell_angle_gamma   90.00000000
_symmetry_Int_Tables_number   1
_chemical_formula_structural   Yb3Ag2
_chemical_formula_sum   'Yb6 Ag4'
_cell_volume   280.20018268
_cell_formula_units_Z   2
loop_
 _symmetry_equiv_pos_site_id
 _symmetry_equiv_pos_as_xyz
  1  'x, y, z'
loop_
 _atom_site_type_symbol
 _atom_site_label
 _atom_site_symmetry_multiplicity
 _atom_site_fract_x
 _atom_site_fract_y
 _atom_site_fract_z
 _atom_site_occupancy
  Yb  Yb0  1  0.337916  0.837916  0.500000  1
  Yb  Yb1  1  0.837916  0.662084  0.500000  1
  Yb  Yb2  1  0.000000  0.000000  0.000000  1
  Yb  Yb3  1  0.662084  0.162084  0.500000  1
  Yb  Yb4  1  0.162084  0.337916  0.500000  1
  Yb  Yb5  1  0.500000  0.500000  0.000000  1
  Ag  Ag6  1  0.870726  0.370726  0.000000  1
  Ag  Ag7  1  0.129274  0.629274  0.000000  1
  Ag  Ag8  1  0.370726  0.129274  0.000000  1
  Ag  Ag9  1  0.629274  0.870726  0.000000  1
