# generated using pymatgen
data_Sc2CI3
_symmetry_space_group_name_H-M   'P 1'
_cell_length_a   11.06933159
_cell_length_b   11.16695170
_cell_length_c   14.23719635
_cell_angle_alpha   107.56456842
_cell_angle_beta   88.52966453
_cell_angle_gamma   119.20514664
_symmetry_Int_Tables_number   1
_chemical_formula_structural   Sc2CI3
_chemical_formula_sum   'Sc16 C8 I24'
_cell_volume   1448.81567591
_cell_formula_units_Z   8
loop_
 _symmetry_equiv_pos_site_id
 _symmetry_equiv_pos_as_xyz
  1  'x, y, z'
loop_
 _atom_site_type_symbol
 _atom_site_label
 _atom_site_symmetry_multiplicity
 _atom_site_fract_x
 _atom_site_fract_y
 _atom_site_fract_z
 _atom_site_occupancy
  Sc  Sc0  1  0.564667  0.406592  0.601903  1
  Sc  Sc1  1  0.435333  0.593408  0.398097  1
  Sc  Sc2  1  0.924831  0.644402  0.662893  1
  Sc  Sc3  1  0.075169  0.355598  0.337107  1
  Sc  Sc4  1  0.663500  0.532725  0.836772  1
  Sc  Sc5  1  0.336500  0.467275  0.163228  1
  Sc  Sc6  1  0.805910  0.909884  0.892610  1
  Sc  Sc7  1  0.194090  0.090116  0.107390  1
  Sc  Sc8  1  0.149069  0.158975  0.881254  1
  Sc  Sc9  1  0.850931  0.841025  0.118746  1
  Sc  Sc10  1  0.304082  0.518485  0.619611  1
  Sc  Sc11  1  0.695918  0.481515  0.380389  1
  Sc  Sc12  1  0.661467  0.715907  0.604562  1
  Sc  Sc13  1  0.338533  0.284093  0.395438  1
  Sc  Sc14  1  0.012993  0.805404  0.899610  1
  Sc  Sc15  1  0.987007  0.194596  0.100390  1
  C  C16  1  0.830267  0.712754  0.791791  1
  C  C17  1  0.169733  0.287246  0.208209  1
  C  C18  1  0.960171  0.957979  0.029180  1
  C  C19  1  0.039829  0.042021  0.970820  1
  C  C20  1  0.718807  0.613021  0.708111  1
  C  C21  1  0.281193  0.386979  0.291889  1
  C  C22  1  0.449129  0.502978  0.529960  1
  C  C23  1  0.550871  0.497022  0.470040  1
  I  I24  1  0.858580  0.579453  0.999634  1
  I  I25  1  0.141420  0.420547  0.000366  1
  I  I26  1  0.581245  0.714802  0.993610  1
  I  I27  1  0.418755  0.285198  0.006390  1
  I  I28  1  0.730148  0.127254  0.993603  1
  I  I29  1  0.269852  0.872746  0.006397  1
  I  I30  1  0.636681  0.897621  0.506509  1
  I  I31  1  0.363319  0.102379  0.493491  1
  I  I32  1  0.921871  0.770240  0.507144  1
  I  I33  1  0.078129  0.229760  0.492856  1
  I  I34  1  0.785027  0.358042  0.498981  1
  I  I35  1  0.214973  0.641958  0.501019  1
  I  I36  1  0.196241  0.931232  0.751139  1
  I  I37  1  0.803759  0.068768  0.248861  1
  I  I38  1  0.505071  0.802198  0.756072  1
  I  I39  1  0.494929  0.197802  0.243928  1
  I  I40  1  0.062104  0.530846  0.749502  1
  I  I41  1  0.937896  0.469154  0.250498  1
  I  I42  1  0.348286  0.378087  0.752445  1
  I  I43  1  0.651714  0.621913  0.247555  1
  I  I44  1  0.907555  0.064899  0.745317  1
  I  I45  1  0.092445  0.935101  0.254683  1
  I  I46  1  0.630112  0.259818  0.738148  1
  I  I47  1  0.369888  0.740182  0.261852  1
