# generated using pymatgen
data_Ba3Nb16O23
_symmetry_space_group_name_H-M   'P 1'
_cell_length_a   12.34588113
_cell_length_b   12.34588113
_cell_length_c   4.21702973
_cell_angle_alpha   90.00000000
_cell_angle_beta   90.00000000
_cell_angle_gamma   118.44531239
_symmetry_Int_Tables_number   1
_chemical_formula_structural   Ba3Nb16O23
_chemical_formula_sum   'Ba3 Nb16 O23'
_cell_volume   565.16357379
_cell_formula_units_Z   1
loop_
 _symmetry_equiv_pos_site_id
 _symmetry_equiv_pos_as_xyz
  1  'x, y, z'
loop_
 _atom_site_type_symbol
 _atom_site_label
 _atom_site_symmetry_multiplicity
 _atom_site_fract_x
 _atom_site_fract_y
 _atom_site_fract_z
 _atom_site_occupancy
  Ba  Ba0  1  0.200996  0.799004  0.000000  1
  Ba  Ba1  1  0.799004  0.200996  0.000000  1
  Ba  Ba2  1  0.000000  0.000000  0.000000  1
  Nb  Nb3  1  0.472007  0.861936  0.500000  1
  Nb  Nb4  1  0.527993  0.138064  0.500000  1
  Nb  Nb5  1  0.861936  0.472007  0.500000  1
  Nb  Nb6  1  0.138064  0.527993  0.500000  1
  Nb  Nb7  1  0.729709  0.931681  0.500000  1
  Nb  Nb8  1  0.270291  0.068319  0.500000  1
  Nb  Nb9  1  0.931681  0.729709  0.500000  1
  Nb  Nb10  1  0.068319  0.270291  0.500000  1
  Nb  Nb11  1  0.601321  0.398679  0.500000  1
  Nb  Nb12  1  0.398679  0.601321  0.500000  1
  Nb  Nb13  1  0.569279  0.772255  0.000000  1
  Nb  Nb14  1  0.430721  0.227745  0.000000  1
  Nb  Nb15  1  0.772255  0.569279  0.000000  1
  Nb  Nb16  1  0.227745  0.430721  0.000000  1
  Nb  Nb17  1  0.672438  0.672438  0.500000  1
  Nb  Nb18  1  0.327562  0.327562  0.500000  1
  O  O19  1  0.103013  0.896987  0.500000  1
  O  O20  1  0.896987  0.103013  0.500000  1
  O  O21  1  0.701214  0.298786  0.500000  1
  O  O22  1  0.298786  0.701214  0.500000  1
  O  O23  1  0.539264  0.140901  0.000000  1
  O  O24  1  0.460736  0.859099  0.000000  1
  O  O25  1  0.140901  0.539264  0.000000  1
  O  O26  1  0.859099  0.460736  0.000000  1
  O  O27  1  0.634090  0.033210  0.500000  1
  O  O28  1  0.365910  0.966790  0.500000  1
  O  O29  1  0.033210  0.634090  0.500000  1
  O  O30  1  0.966790  0.365910  0.500000  1
  O  O31  1  0.738882  0.937203  0.000000  1
  O  O32  1  0.261118  0.062797  0.000000  1
  O  O33  1  0.937203  0.738882  0.000000  1
  O  O34  1  0.062797  0.261118  0.000000  1
  O  O35  1  0.839959  0.839959  0.500000  1
  O  O36  1  0.160041  0.160041  0.500000  1
  O  O37  1  0.596379  0.403621  0.000000  1
  O  O38  1  0.500000  0.500000  0.500000  1
  O  O39  1  0.334088  0.334088  0.000000  1
  O  O40  1  0.665912  0.665912  0.000000  1
  O  O41  1  0.403621  0.596379  0.000000  1
