# generated using pymatgen
data_Sr2YCoCu2O7
_symmetry_space_group_name_H-M   'P 1'
_cell_length_a   12.20372889
_cell_length_b   12.20372889
_cell_length_c   12.20372889
_cell_angle_alpha   154.30780817
_cell_angle_beta   154.00753584
_cell_angle_gamma   36.87106201
_symmetry_Int_Tables_number   1
_chemical_formula_structural   Sr2YCoCu2O7
_chemical_formula_sum   'Sr4 Y2 Co2 Cu4 O14'
_cell_volume   344.84630789
_cell_formula_units_Z   2
loop_
 _symmetry_equiv_pos_site_id
 _symmetry_equiv_pos_as_xyz
  1  'x, y, z'
loop_
 _atom_site_type_symbol
 _atom_site_label
 _atom_site_symmetry_multiplicity
 _atom_site_fract_x
 _atom_site_fract_y
 _atom_site_fract_z
 _atom_site_occupancy
  Sr  Sr0  1  0.640565  0.639127  0.974798  1
  Sr  Sr1  1  0.359435  0.334233  0.998561  1
  Sr  Sr2  1  0.164328  0.139127  0.998561  1
  Sr  Sr3  1  0.835672  0.834233  0.974798  1
  Y  Y4  1  0.000000  0.986661  0.986661  1
  Y  Y5  1  0.500000  0.486661  0.986661  1
  Co  Co6  1  0.185546  0.769808  0.455354  1
  Co  Co7  1  0.814454  0.269808  0.584261  1
  Cu  Cu8  1  0.573109  0.056728  0.485772  1
  Cu  Cu9  1  0.426891  0.912663  0.483619  1
  Cu  Cu10  1  0.070956  0.556728  0.483619  1
  Cu  Cu11  1  0.929044  0.412663  0.485772  1
  O  O12  1  0.862370  0.629003  0.991372  1
  O  O13  1  0.137630  0.129003  0.766633  1
  O  O14  1  0.317417  0.301948  0.495301  1
  O  O15  1  0.682583  0.177884  0.984531  1
  O  O16  1  0.306647  0.801948  0.984531  1
  O  O17  1  0.693353  0.677884  0.495301  1
  O  O18  1  0.810117  0.796758  0.477691  1
  O  O19  1  0.189883  0.667574  0.986641  1
  O  O20  1  0.819067  0.296758  0.986641  1
  O  O21  1  0.180933  0.167574  0.477691  1
  O  O22  1  0.211356  0.641095  0.500224  1
  O  O23  1  0.788644  0.288868  0.429739  1
  O  O24  1  0.640872  0.141095  0.429739  1
  O  O25  1  0.359128  0.788868  0.500224  1
