# generated using pymatgen
data_Al(SeCl2)2
_symmetry_space_group_name_H-M   'P 1'
_cell_length_a   9.35202214
_cell_length_b   13.97263644
_cell_length_c   13.99036250
_cell_angle_alpha   90.00000000
_cell_angle_beta   90.00000000
_cell_angle_gamma   90.00000000
_symmetry_Int_Tables_number   1
_chemical_formula_structural   Al(SeCl2)2
_chemical_formula_sum   'Al8 Se16 Cl32'
_cell_volume   1828.15431947
_cell_formula_units_Z   8
loop_
 _symmetry_equiv_pos_site_id
 _symmetry_equiv_pos_as_xyz
  1  'x, y, z'
loop_
 _atom_site_type_symbol
 _atom_site_label
 _atom_site_symmetry_multiplicity
 _atom_site_fract_x
 _atom_site_fract_y
 _atom_site_fract_z
 _atom_site_occupancy
  Al  Al0  1  0.500000  0.601630  0.331598  1
  Al  Al1  1  0.000000  0.839403  0.384519  1
  Al  Al2  1  0.000000  0.339403  0.115481  1
  Al  Al3  1  0.500000  0.898370  0.831598  1
  Al  Al4  1  0.000000  0.160597  0.615481  1
  Al  Al5  1  0.500000  0.398370  0.668402  1
  Al  Al6  1  0.000000  0.660597  0.884519  1
  Al  Al7  1  0.500000  0.101630  0.168402  1
  Se  Se8  1  0.322618  0.500000  0.000000  1
  Se  Se9  1  0.000000  0.485889  0.617400  1
  Se  Se10  1  0.822693  0.500000  0.500000  1
  Se  Se11  1  0.500000  0.115628  0.525166  1
  Se  Se12  1  0.822693  0.000000  0.000000  1
  Se  Se13  1  0.000000  0.514111  0.382600  1
  Se  Se14  1  0.177307  0.500000  0.500000  1
  Se  Se15  1  0.322618  0.000000  0.500000  1
  Se  Se16  1  0.000000  0.014111  0.117400  1
  Se  Se17  1  0.500000  0.384372  0.025166  1
  Se  Se18  1  0.177307  0.000000  0.000000  1
  Se  Se19  1  0.000000  0.985889  0.882600  1
  Se  Se20  1  0.677382  0.500000  0.000000  1
  Se  Se21  1  0.500000  0.884372  0.474834  1
  Se  Se22  1  0.500000  0.615628  0.974834  1
  Se  Se23  1  0.677382  0.000000  0.500000  1
  Cl  Cl24  1  0.685123  0.989049  0.800145  1
  Cl  Cl25  1  0.314877  0.989049  0.800145  1
  Cl  Cl26  1  0.500000  0.274691  0.756863  1
  Cl  Cl27  1  0.500000  0.634656  0.481752  1
  Cl  Cl28  1  0.500000  0.225309  0.256863  1
  Cl  Cl29  1  0.814319  0.699540  0.971511  1
  Cl  Cl30  1  0.500000  0.865344  0.981752  1
  Cl  Cl31  1  0.000000  0.738206  0.753811  1
  Cl  Cl32  1  0.000000  0.238206  0.746189  1
  Cl  Cl33  1  0.314877  0.510951  0.300145  1
  Cl  Cl34  1  0.814319  0.800460  0.471511  1
  Cl  Cl35  1  0.000000  0.491931  0.135343  1
  Cl  Cl36  1  0.000000  0.991931  0.364657  1
  Cl  Cl37  1  0.000000  0.008069  0.635343  1
  Cl  Cl38  1  0.000000  0.761794  0.253811  1
  Cl  Cl39  1  0.814319  0.199540  0.528489  1
  Cl  Cl40  1  0.314877  0.489049  0.699855  1
  Cl  Cl41  1  0.185681  0.199540  0.528489  1
  Cl  Cl42  1  0.314877  0.010951  0.199855  1
  Cl  Cl43  1  0.685123  0.489049  0.699855  1
  Cl  Cl44  1  0.500000  0.725309  0.243137  1
  Cl  Cl45  1  0.185681  0.699540  0.971511  1
  Cl  Cl46  1  0.500000  0.365344  0.518248  1
  Cl  Cl47  1  0.185681  0.300460  0.028489  1
  Cl  Cl48  1  0.500000  0.134656  0.018248  1
  Cl  Cl49  1  0.685123  0.010951  0.199855  1
  Cl  Cl50  1  0.814319  0.300460  0.028489  1
  Cl  Cl51  1  0.185681  0.800460  0.471511  1
  Cl  Cl52  1  0.000000  0.261794  0.246189  1
  Cl  Cl53  1  0.685123  0.510951  0.300145  1
  Cl  Cl54  1  0.500000  0.774691  0.743137  1
  Cl  Cl55  1  0.000000  0.508069  0.864657  1
