# generated using pymatgen
data_GdVO3
_symmetry_space_group_name_H-M   'P 1'
_cell_length_a   5.41084948
_cell_length_b   5.69855337
_cell_length_c   7.72752236
_cell_angle_alpha   90.00000000
_cell_angle_beta   90.00000000
_cell_angle_gamma   90.00000000
_symmetry_Int_Tables_number   1
_chemical_formula_structural   GdVO3
_chemical_formula_sum   'Gd4 V4 O12'
_cell_volume   238.27053680
_cell_formula_units_Z   4
loop_
 _symmetry_equiv_pos_site_id
 _symmetry_equiv_pos_as_xyz
  1  'x, y, z'
loop_
 _atom_site_type_symbol
 _atom_site_label
 _atom_site_symmetry_multiplicity
 _atom_site_fract_x
 _atom_site_fract_y
 _atom_site_fract_z
 _atom_site_occupancy
  Gd  Gd0  1  0.978815  0.932793  0.250000  1
  Gd  Gd1  1  0.478815  0.567207  0.750000  1
  Gd  Gd2  1  0.521185  0.432793  0.250000  1
  Gd  Gd3  1  0.021185  0.067207  0.750000  1
  V  V4  1  0.500000  0.000000  0.000000  1
  V  V5  1  0.000000  0.500000  0.000000  1
  V  V6  1  0.000000  0.500000  0.500000  1
  V  V7  1  0.500000  0.000000  0.500000  1
  O  O8  1  0.110979  0.535877  0.250000  1
  O  O9  1  0.610979  0.964123  0.750000  1
  O  O10  1  0.389021  0.035877  0.250000  1
  O  O11  1  0.889021  0.464123  0.750000  1
  O  O12  1  0.689729  0.701712  0.056475  1
  O  O13  1  0.189729  0.798288  0.943525  1
  O  O14  1  0.810271  0.201712  0.443525  1
  O  O15  1  0.310271  0.298288  0.556475  1
  O  O16  1  0.310271  0.298288  0.943525  1
  O  O17  1  0.810271  0.201712  0.056475  1
  O  O18  1  0.189729  0.798288  0.556475  1
  O  O19  1  0.689729  0.701712  0.443525  1
