# generated using pymatgen
data_Cs2GeO3
_symmetry_space_group_name_H-M   'P 1'
_cell_length_a   7.06088203
_cell_length_b   14.35698860
_cell_length_c   17.74035363
_cell_angle_alpha   90.00000000
_cell_angle_beta   107.70403973
_cell_angle_gamma   90.00000000
_symmetry_Int_Tables_number   1
_chemical_formula_structural   Cs2GeO3
_chemical_formula_sum   'Cs24 Ge12 O36'
_cell_volume   1713.22110593
_cell_formula_units_Z   12
loop_
 _symmetry_equiv_pos_site_id
 _symmetry_equiv_pos_as_xyz
  1  'x, y, z'
loop_
 _atom_site_type_symbol
 _atom_site_label
 _atom_site_symmetry_multiplicity
 _atom_site_fract_x
 _atom_site_fract_y
 _atom_site_fract_z
 _atom_site_occupancy
  Cs  Cs0  1  0.222901  0.087014  0.969428  1
  Cs  Cs1  1  0.153554  0.491079  0.219703  1
  Cs  Cs2  1  0.624022  0.695592  0.305520  1
  Cs  Cs3  1  0.379551  0.880689  0.136873  1
  Cs  Cs4  1  0.153554  0.008921  0.719703  1
  Cs  Cs5  1  0.379551  0.619311  0.636873  1
  Cs  Cs6  1  0.846446  0.508921  0.780297  1
  Cs  Cs7  1  0.620449  0.380689  0.363127  1
  Cs  Cs8  1  0.375978  0.304408  0.694480  1
  Cs  Cs9  1  0.620449  0.119311  0.863127  1
  Cs  Cs10  1  0.777099  0.587014  0.530572  1
  Cs  Cs11  1  0.501601  0.611041  0.084633  1
  Cs  Cs12  1  0.222901  0.412986  0.469428  1
  Cs  Cs13  1  0.057290  0.348472  0.007426  1
  Cs  Cs14  1  0.942710  0.651528  0.992574  1
  Cs  Cs15  1  0.498399  0.111041  0.415367  1
  Cs  Cs16  1  0.375978  0.195592  0.194480  1
  Cs  Cs17  1  0.501601  0.888959  0.584633  1
  Cs  Cs18  1  0.624022  0.804408  0.805520  1
  Cs  Cs19  1  0.777099  0.912986  0.030572  1
  Cs  Cs20  1  0.942710  0.848472  0.492574  1
  Cs  Cs21  1  0.498399  0.388959  0.915367  1
  Cs  Cs22  1  0.057290  0.151528  0.507426  1
  Cs  Cs23  1  0.846446  0.991079  0.280297  1
  Ge  Ge24  1  0.041539  0.753346  0.717998  1
  Ge  Ge25  1  0.227818  0.653400  0.397378  1
  Ge  Ge26  1  0.772182  0.346600  0.602622  1
  Ge  Ge27  1  0.227818  0.846600  0.897378  1
  Ge  Ge28  1  0.772182  0.153400  0.102622  1
  Ge  Ge29  1  0.333265  0.874054  0.366004  1
  Ge  Ge30  1  0.666735  0.374054  0.133996  1
  Ge  Ge31  1  0.958461  0.253346  0.782002  1
  Ge  Ge32  1  0.666735  0.125946  0.633996  1
  Ge  Ge33  1  0.958461  0.246654  0.282002  1
  Ge  Ge34  1  0.333265  0.625946  0.866004  1
  Ge  Ge35  1  0.041539  0.746654  0.217998  1
  O  O36  1  0.219362  0.550473  0.916611  1
  O  O37  1  0.099945  0.863221  0.966413  1
  O  O38  1  0.794103  0.773008  0.166704  1
  O  O39  1  0.219362  0.949527  0.416611  1
  O  O40  1  0.393367  0.565290  0.389972  1
  O  O41  1  0.038648  0.670710  0.300983  1
  O  O42  1  0.436546  0.408184  0.142360  1
  O  O43  1  0.165891  0.854048  0.265275  1
  O  O44  1  0.165891  0.645952  0.765275  1
  O  O45  1  0.099945  0.636779  0.466413  1
  O  O46  1  0.834109  0.145952  0.734725  1
  O  O47  1  0.606633  0.065290  0.110028  1
  O  O48  1  0.436546  0.091816  0.642360  1
  O  O49  1  0.900055  0.363221  0.533587  1
  O  O50  1  0.393367  0.934710  0.889972  1
  O  O51  1  0.624828  0.238567  0.581548  1
  O  O52  1  0.810277  0.197942  0.335163  1
  O  O53  1  0.900055  0.136779  0.033587  1
  O  O54  1  0.563454  0.591816  0.857640  1
  O  O55  1  0.205897  0.226992  0.833296  1
  O  O56  1  0.834109  0.354048  0.234725  1
  O  O57  1  0.205897  0.273008  0.333296  1
  O  O58  1  0.189723  0.697942  0.164837  1
  O  O59  1  0.794103  0.726992  0.666704  1
  O  O60  1  0.810277  0.302058  0.835163  1
  O  O61  1  0.563454  0.908184  0.357640  1
  O  O62  1  0.375172  0.738567  0.918452  1
  O  O63  1  0.780638  0.449527  0.083389  1
  O  O64  1  0.189723  0.802058  0.664837  1
  O  O65  1  0.624828  0.261433  0.081548  1
  O  O66  1  0.606633  0.434710  0.610028  1
  O  O67  1  0.375172  0.761433  0.418452  1
  O  O68  1  0.961352  0.170710  0.199017  1
  O  O69  1  0.961352  0.329290  0.699017  1
  O  O70  1  0.780638  0.050473  0.583389  1
  O  O71  1  0.038648  0.829290  0.800983  1
