# generated using pymatgen
data_CsPd2F5
_symmetry_space_group_name_H-M   'P 1'
_cell_length_a   7.56533199
_cell_length_b   7.56533199
_cell_length_c   7.56533199
_cell_angle_alpha   127.45212550
_cell_angle_beta   116.66938498
_cell_angle_gamma   86.73581899
_symmetry_Int_Tables_number   1
_chemical_formula_structural   CsPd2F5
_chemical_formula_sum   'Cs2 Pd4 F10'
_cell_volume   292.58422328
_cell_formula_units_Z   2
loop_
 _symmetry_equiv_pos_site_id
 _symmetry_equiv_pos_as_xyz
  1  'x, y, z'
loop_
 _atom_site_type_symbol
 _atom_site_label
 _atom_site_symmetry_multiplicity
 _atom_site_fract_x
 _atom_site_fract_y
 _atom_site_fract_z
 _atom_site_occupancy
  Cs  Cs0  1  0.138395  0.388395  0.250000  1
  Cs  Cs1  1  0.861605  0.611605  0.750000  1
  Pd  Pd2  1  0.500000  1.000000  0.500000  1
  Pd  Pd3  1  0.500000  0.500000  0.000000  1
  Pd  Pd4  1  0.500000  1.000000  0.000000  1
  Pd  Pd5  1  1.000000  1.000000  0.500000  1
  F  F6  1  0.548951  0.369363  0.176831  1
  F  F7  1  0.451049  0.127880  0.320413  1
  F  F8  1  0.807468  0.630637  0.179587  1
  F  F9  1  0.192532  0.872120  0.323169  1
  F  F10  1  0.451049  0.630637  0.823169  1
  F  F11  1  0.548951  0.872120  0.679587  1
  F  F12  1  0.162831  0.912831  0.750000  1
  F  F13  1  0.837169  0.087169  0.250000  1
  F  F14  1  0.807468  0.127880  0.676831  1
  F  F15  1  0.192532  0.369363  0.820413  1
