# generated using pymatgen
data_AlPO4
_symmetry_space_group_name_H-M   'P 1'
_cell_length_a   13.38321450
_cell_length_b   13.38321450
_cell_length_c   14.23274171
_cell_angle_alpha   82.59023133
_cell_angle_beta   97.40976867
_cell_angle_gamma   117.44150712
_symmetry_Int_Tables_number   1
_chemical_formula_structural   AlPO4
_chemical_formula_sum   'Al16 P16 O64'
_cell_volume   2236.49134578
_cell_formula_units_Z   16
loop_
 _symmetry_equiv_pos_site_id
 _symmetry_equiv_pos_as_xyz
  1  'x, y, z'
loop_
 _atom_site_type_symbol
 _atom_site_label
 _atom_site_symmetry_multiplicity
 _atom_site_fract_x
 _atom_site_fract_y
 _atom_site_fract_z
 _atom_site_occupancy
  Al  Al0  1  0.144873  0.626908  0.562225  1
  Al  Al1  1  0.369191  0.036597  0.403893  1
  Al  Al2  1  0.271433  0.947393  0.696505  1
  Al  Al3  1  0.728567  0.052607  0.303495  1
  Al  Al4  1  0.947393  0.271433  0.803495  1
  Al  Al5  1  0.036597  0.369191  0.096107  1
  Al  Al6  1  0.181918  0.042407  0.008826  1
  Al  Al7  1  0.630809  0.963403  0.596107  1
  Al  Al8  1  0.042407  0.181918  0.491174  1
  Al  Al9  1  0.963403  0.630809  0.903893  1
  Al  Al10  1  0.626908  0.144873  0.937775  1
  Al  Al11  1  0.052607  0.728567  0.196505  1
  Al  Al12  1  0.818082  0.957593  0.991174  1
  Al  Al13  1  0.957593  0.818082  0.508826  1
  Al  Al14  1  0.855127  0.373092  0.437775  1
  Al  Al15  1  0.373092  0.855127  0.062225  1
  P  P16  1  0.814256  0.951589  0.489612  1
  P  P17  1  0.629941  0.150594  0.439771  1
  P  P18  1  0.632455  0.963658  0.100220  1
  P  P19  1  0.150594  0.629941  0.060229  1
  P  P20  1  0.046023  0.724192  0.698584  1
  P  P21  1  0.849406  0.370059  0.939771  1
  P  P22  1  0.953977  0.275808  0.301416  1
  P  P23  1  0.048411  0.185744  0.989612  1
  P  P24  1  0.367545  0.036342  0.899780  1
  P  P25  1  0.275808  0.953977  0.198584  1
  P  P26  1  0.036342  0.367545  0.600220  1
  P  P27  1  0.370059  0.849406  0.560229  1
  P  P28  1  0.963658  0.632455  0.399780  1
  P  P29  1  0.185744  0.048411  0.510388  1
  P  P30  1  0.724192  0.046023  0.801416  1
  P  P31  1  0.951589  0.814256  0.010388  1
  O  O32  1  0.827128  0.151955  0.764300  1
  O  O33  1  0.508981  0.137352  0.429684  1
  O  O34  1  0.919017  0.352095  0.347003  1
  O  O35  1  0.916082  0.062440  0.519408  1
  O  O36  1  0.062440  0.916082  0.980592  1
  O  O37  1  0.653258  0.095014  0.536431  1
  O  O38  1  0.083918  0.937560  0.480592  1
  O  O39  1  0.352095  0.919017  0.152997  1
  O  O40  1  0.904986  0.346742  0.036431  1
  O  O41  1  0.716274  0.926999  0.070533  1
  O  O42  1  0.128421  0.488457  0.576981  1
  O  O43  1  0.720753  0.918317  0.556526  1
  O  O44  1  0.711603  0.277476  0.435095  1
  O  O45  1  0.918317  0.720753  0.943474  1
  O  O46  1  0.081683  0.279247  0.056526  1
  O  O47  1  0.078238  0.649541  0.452424  1
  O  O48  1  0.847688  0.855404  0.497921  1
  O  O49  1  0.763890  0.973620  0.874356  1
  O  O50  1  0.649541  0.078238  0.047576  1
  O  O51  1  0.511543  0.871579  0.076981  1
  O  O52  1  0.350459  0.921762  0.952424  1
  O  O53  1  0.024507  0.343947  0.218382  1
  O  O54  1  0.279247  0.081683  0.443474  1
  O  O55  1  0.871579  0.511543  0.423019  1
  O  O56  1  0.236110  0.026380  0.125644  1
  O  O57  1  0.024597  0.349050  0.707588  1
  O  O58  1  0.905665  0.354988  0.858136  1
  O  O59  1  0.032449  0.228745  0.885777  1
  O  O60  1  0.855404  0.847688  0.002079  1
  O  O61  1  0.095014  0.653258  0.963569  1
  O  O62  1  0.848045  0.172872  0.264300  1
  O  O63  1  0.026380  0.236110  0.374356  1
  O  O64  1  0.277476  0.711603  0.064905  1
  O  O65  1  0.172872  0.848045  0.235700  1
  O  O66  1  0.354988  0.905665  0.641864  1
  O  O67  1  0.137352  0.508981  0.070316  1
  O  O68  1  0.080983  0.647905  0.652997  1
  O  O69  1  0.973620  0.763890  0.625644  1
  O  O70  1  0.771255  0.967551  0.385777  1
  O  O71  1  0.975493  0.656053  0.781618  1
  O  O72  1  0.491019  0.862648  0.570316  1
  O  O73  1  0.645012  0.094335  0.358136  1
  O  O74  1  0.151955  0.827128  0.735700  1
  O  O75  1  0.346742  0.904986  0.463569  1
  O  O76  1  0.967551  0.771255  0.114223  1
  O  O77  1  0.722524  0.288397  0.935095  1
  O  O78  1  0.144596  0.152312  0.997921  1
  O  O79  1  0.094335  0.645012  0.141864  1
  O  O80  1  0.650950  0.975403  0.207588  1
  O  O81  1  0.926999  0.716274  0.429467  1
  O  O82  1  0.656053  0.975493  0.718382  1
  O  O83  1  0.647905  0.080983  0.847003  1
  O  O84  1  0.862648  0.491019  0.929684  1
  O  O85  1  0.488457  0.128421  0.923019  1
  O  O86  1  0.283726  0.073001  0.929467  1
  O  O87  1  0.228745  0.032449  0.614223  1
  O  O88  1  0.975403  0.650950  0.292412  1
  O  O89  1  0.937560  0.083918  0.019408  1
  O  O90  1  0.288397  0.722524  0.564905  1
  O  O91  1  0.073001  0.283726  0.570533  1
  O  O92  1  0.921762  0.350459  0.547576  1
  O  O93  1  0.152312  0.144596  0.502079  1
  O  O94  1  0.343947  0.024507  0.281618  1
  O  O95  1  0.349050  0.024597  0.792412  1
