# generated using pymatgen
data_Li2Mn(PO3)4
_symmetry_space_group_name_H-M   'P 1'
_cell_length_a   9.43311234
_cell_length_b   9.43311234
_cell_length_c   4.67593991
_cell_angle_alpha   90.00000000
_cell_angle_beta   90.00000000
_cell_angle_gamma   90.00000000
_symmetry_Int_Tables_number   1
_chemical_formula_structural   Li2Mn(PO3)4
_chemical_formula_sum   'Li4 Mn2 P8 O24'
_cell_volume   416.08200571
_cell_formula_units_Z   2
loop_
 _symmetry_equiv_pos_site_id
 _symmetry_equiv_pos_as_xyz
  1  'x, y, z'
loop_
 _atom_site_type_symbol
 _atom_site_label
 _atom_site_symmetry_multiplicity
 _atom_site_fract_x
 _atom_site_fract_y
 _atom_site_fract_z
 _atom_site_occupancy
  Li  Li0  1  0.250000  0.250000  0.500000  1
  Li  Li1  1  0.750000  0.250000  0.500000  1
  Li  Li2  1  0.250000  0.750000  0.500000  1
  Li  Li3  1  0.750000  0.750000  0.500000  1
  Mn  Mn4  1  0.500000  0.500000  0.500000  1
  Mn  Mn5  1  0.000000  0.000000  0.500000  1
  P  P6  1  0.500000  0.221537  0.000000  1
  P  P7  1  0.278463  0.000000  0.000000  1
  P  P8  1  0.000000  0.278463  0.000000  1
  P  P9  1  0.778463  0.500000  0.000000  1
  P  P10  1  0.221537  0.500000  0.000000  1
  P  P11  1  0.721537  0.000000  0.000000  1
  P  P12  1  0.500000  0.778463  0.000000  1
  P  P13  1  0.000000  0.721537  0.000000  1
  O  O14  1  0.297551  0.571219  0.757454  1
  O  O15  1  0.928781  0.202449  0.757454  1
  O  O16  1  0.428781  0.297551  0.757454  1
  O  O17  1  0.571219  0.297551  0.242546  1
  O  O18  1  0.886699  0.386699  0.148898  1
  O  O19  1  0.113301  0.386699  0.851102  1
  O  O20  1  0.297551  0.428781  0.242546  1
  O  O21  1  0.702449  0.428781  0.757454  1
  O  O22  1  0.702449  0.571219  0.242546  1
  O  O23  1  0.071219  0.202449  0.242546  1
  O  O24  1  0.113301  0.613301  0.148898  1
  O  O25  1  0.886699  0.613301  0.851102  1
  O  O26  1  0.571219  0.702449  0.757454  1
  O  O27  1  0.428781  0.702449  0.242546  1
  O  O28  1  0.071219  0.797551  0.757454  1
  O  O29  1  0.613301  0.113301  0.851102  1
  O  O30  1  0.613301  0.886699  0.148898  1
  O  O31  1  0.386699  0.886699  0.851102  1
  O  O32  1  0.202449  0.928781  0.242546  1
  O  O33  1  0.797551  0.928781  0.757454  1
  O  O34  1  0.202449  0.071219  0.757454  1
  O  O35  1  0.797551  0.071219  0.242546  1
  O  O36  1  0.386699  0.113301  0.148898  1
  O  O37  1  0.928781  0.797551  0.242546  1
