# generated using pymatgen
data_Ba2TbBiO6
_symmetry_space_group_name_H-M   'P 1'
_cell_length_a   6.16068014
_cell_length_b   6.16068014
_cell_length_c   6.19091522
_cell_angle_alpha   59.95776869
_cell_angle_beta   120.04223131
_cell_angle_gamma   119.95092583
_symmetry_Int_Tables_number   1
_chemical_formula_structural   Ba2TbBiO6
_chemical_formula_sum   'Ba2 Tb1 Bi1 O6'
_cell_volume   166.10406830
_cell_formula_units_Z   1
loop_
 _symmetry_equiv_pos_site_id
 _symmetry_equiv_pos_as_xyz
  1  'x, y, z'
loop_
 _atom_site_type_symbol
 _atom_site_label
 _atom_site_symmetry_multiplicity
 _atom_site_fract_x
 _atom_site_fract_y
 _atom_site_fract_z
 _atom_site_occupancy
  Ba  Ba0  1  0.249044  0.750956  0.745911  1
  Ba  Ba1  1  0.750956  0.249044  0.254089  1
  Tb  Tb2  1  0.000000  0.000000  0.000000  1
  Bi  Bi3  1  0.500000  0.500000  0.500000  1
  O  O4  1  0.772688  0.716150  0.285539  1
  O  O5  1  0.716150  0.772688  0.714461  1
  O  O6  1  0.283850  0.227312  0.285539  1
  O  O7  1  0.256895  0.743105  0.203564  1
  O  O8  1  0.743105  0.256895  0.796436  1
  O  O9  1  0.227312  0.283850  0.714461  1
