# generated using pymatgen
data_Cr2PBrO4
_symmetry_space_group_name_H-M   'P 1'
_cell_length_a   6.33274009
_cell_length_b   11.86138300
_cell_length_c   6.50605380
_cell_angle_alpha   90.00000000
_cell_angle_beta   90.73707011
_cell_angle_gamma   90.00000000
_symmetry_Int_Tables_number   1
_chemical_formula_structural   Cr2PBrO4
_chemical_formula_sum   'Cr8 P4 Br4 O16'
_cell_volume   488.66215587
_cell_formula_units_Z   4
loop_
 _symmetry_equiv_pos_site_id
 _symmetry_equiv_pos_as_xyz
  1  'x, y, z'
loop_
 _atom_site_type_symbol
 _atom_site_label
 _atom_site_symmetry_multiplicity
 _atom_site_fract_x
 _atom_site_fract_y
 _atom_site_fract_z
 _atom_site_occupancy
  Cr  Cr0  1  0.493958  0.886544  0.857650  1
  Cr  Cr1  1  0.506042  0.113456  0.142350  1
  Cr  Cr2  1  0.347707  0.605363  0.467156  1
  Cr  Cr3  1  0.993958  0.613456  0.857650  1
  Cr  Cr4  1  0.152293  0.105363  0.532844  1
  Cr  Cr5  1  0.847707  0.894637  0.467156  1
  Cr  Cr6  1  0.006042  0.386544  0.142350  1
  Cr  Cr7  1  0.652293  0.394637  0.532844  1
  P  P8  1  0.365661  0.873071  0.357476  1
  P  P9  1  0.134339  0.373071  0.642524  1
  P  P10  1  0.865661  0.626929  0.357476  1
  P  P11  1  0.634339  0.126929  0.642524  1
  Br  Br12  1  0.510038  0.333717  0.128300  1
  Br  Br13  1  0.010038  0.166283  0.128300  1
  Br  Br14  1  0.989962  0.833717  0.871700  1
  Br  Br15  1  0.489962  0.666283  0.871700  1
  O  O16  1  0.182043  0.251212  0.690301  1
  O  O17  1  0.337646  0.439488  0.582015  1
  O  O18  1  0.682043  0.248788  0.690301  1
  O  O19  1  0.967294  0.565629  0.167010  1
  O  O20  1  0.032706  0.434371  0.832990  1
  O  O21  1  0.317957  0.751212  0.309699  1
  O  O22  1  0.662354  0.560512  0.417985  1
  O  O23  1  0.029283  0.616792  0.540899  1
  O  O24  1  0.532706  0.065629  0.832990  1
  O  O25  1  0.529283  0.883208  0.540899  1
  O  O26  1  0.837646  0.060512  0.582015  1
  O  O27  1  0.970717  0.383208  0.459101  1
  O  O28  1  0.162354  0.939488  0.417985  1
  O  O29  1  0.817957  0.748788  0.309699  1
  O  O30  1  0.467294  0.934371  0.167010  1
  O  O31  1  0.470717  0.116792  0.459101  1
