# generated using pymatgen
data_BaCrF5
_symmetry_space_group_name_H-M   'P 1'
_cell_length_a   5.06828248
_cell_length_b   5.82100004
_cell_length_c   14.20438020
_cell_angle_alpha   90.00000000
_cell_angle_beta   90.00000000
_cell_angle_gamma   90.00000000
_symmetry_Int_Tables_number   1
_chemical_formula_structural   BaCrF5
_chemical_formula_sum   'Ba4 Cr4 F20'
_cell_volume   419.06433650
_cell_formula_units_Z   4
loop_
 _symmetry_equiv_pos_site_id
 _symmetry_equiv_pos_as_xyz
  1  'x, y, z'
loop_
 _atom_site_type_symbol
 _atom_site_label
 _atom_site_symmetry_multiplicity
 _atom_site_fract_x
 _atom_site_fract_y
 _atom_site_fract_z
 _atom_site_occupancy
  Ba  Ba0  1  0.735299  0.661125  0.657304  1
  Ba  Ba1  1  0.235299  0.838875  0.342696  1
  Ba  Ba2  1  0.264701  0.161125  0.842696  1
  Ba  Ba3  1  0.764701  0.338875  0.157304  1
  Cr  Cr4  1  0.324090  0.148091  0.584952  1
  Cr  Cr5  1  0.824090  0.351909  0.415048  1
  Cr  Cr6  1  0.675910  0.648091  0.915048  1
  Cr  Cr7  1  0.175910  0.851909  0.084952  1
  F  F8  1  0.968499  0.607371  0.483543  1
  F  F9  1  0.468499  0.892629  0.516457  1
  F  F10  1  0.031501  0.107371  0.016457  1
  F  F11  1  0.531501  0.392629  0.983543  1
  F  F12  1  0.662308  0.564955  0.328473  1
  F  F13  1  0.162308  0.935045  0.671527  1
  F  F14  1  0.337692  0.064955  0.171527  1
  F  F15  1  0.837692  0.435045  0.828473  1
  F  F16  1  0.193906  0.403905  0.658986  1
  F  F17  1  0.693906  0.096095  0.341014  1
  F  F18  1  0.806094  0.903905  0.841014  1
  F  F19  1  0.306094  0.596095  0.158986  1
  F  F20  1  0.618518  0.149782  0.670320  1
  F  F21  1  0.118518  0.350218  0.329680  1
  F  F22  1  0.381482  0.649782  0.829680  1
  F  F23  1  0.881482  0.850218  0.170320  1
  F  F24  1  0.517542  0.366961  0.502841  1
  F  F25  1  0.017542  0.133039  0.497159  1
  F  F26  1  0.482458  0.866961  0.997159  1
  F  F27  1  0.982458  0.633039  0.002841  1
