# generated using pymatgen
data_RbNiF3
_symmetry_space_group_name_H-M   'P 1'
_cell_length_a   5.93181367
_cell_length_b   5.93181367
_cell_length_c   14.51240869
_cell_angle_alpha   90.00000000
_cell_angle_beta   90.00000000
_cell_angle_gamma   120.00000000
_symmetry_Int_Tables_number   1
_chemical_formula_structural   RbNiF3
_chemical_formula_sum   'Rb6 Ni6 F18'
_cell_volume   442.22687605
_cell_formula_units_Z   6
loop_
 _symmetry_equiv_pos_site_id
 _symmetry_equiv_pos_as_xyz
  1  'x, y, z'
loop_
 _atom_site_type_symbol
 _atom_site_label
 _atom_site_symmetry_multiplicity
 _atom_site_fract_x
 _atom_site_fract_y
 _atom_site_fract_z
 _atom_site_occupancy
  Rb  Rb0  1  0.333333  0.666667  0.407095  1
  Rb  Rb1  1  0.666667  0.333333  0.907095  1
  Rb  Rb2  1  0.666667  0.333333  0.592905  1
  Rb  Rb3  1  0.333333  0.666667  0.092905  1
  Rb  Rb4  1  0.000000  0.000000  0.750000  1
  Rb  Rb5  1  0.000000  0.000000  0.250000  1
  Ni  Ni6  1  0.333333  0.666667  0.655321  1
  Ni  Ni7  1  0.666667  0.333333  0.155321  1
  Ni  Ni8  1  0.666667  0.333333  0.344679  1
  Ni  Ni9  1  0.333333  0.666667  0.844679  1
  Ni  Ni10  1  0.000000  0.000000  0.500000  1
  Ni  Ni11  1  0.000000  0.000000  0.000000  1
  F  F12  1  0.834490  0.165510  0.419916  1
  F  F13  1  0.834490  0.668979  0.419916  1
  F  F14  1  0.331021  0.165510  0.419916  1
  F  F15  1  0.668979  0.834490  0.919916  1
  F  F16  1  0.165510  0.331021  0.580084  1
  F  F17  1  0.165510  0.834490  0.919916  1
  F  F18  1  0.165510  0.331021  0.919916  1
  F  F19  1  0.834490  0.165510  0.080084  1
  F  F20  1  0.331021  0.165510  0.080084  1
  F  F21  1  0.668979  0.834490  0.580084  1
  F  F22  1  0.165510  0.834490  0.580084  1
  F  F23  1  0.834490  0.668979  0.080084  1
  F  F24  1  0.518304  0.036609  0.250000  1
  F  F25  1  0.481696  0.518304  0.750000  1
  F  F26  1  0.036609  0.518304  0.750000  1
  F  F27  1  0.963391  0.481696  0.250000  1
  F  F28  1  0.518304  0.481696  0.250000  1
  F  F29  1  0.481696  0.963391  0.750000  1
