# generated using pymatgen
data_CaMgAsO4F
_symmetry_space_group_name_H-M   'P 1'
_cell_length_a   5.66172080
_cell_length_b   5.66172080
_cell_length_c   7.20674312
_cell_angle_alpha   76.13931775
_cell_angle_beta   103.86068225
_cell_angle_gamma   73.80843848
_symmetry_Int_Tables_number   1
_chemical_formula_structural   CaMgAsO4F
_chemical_formula_sum   'Ca2 Mg2 As2 O8 F2'
_cell_volume   203.42988004
_cell_formula_units_Z   2
loop_
 _symmetry_equiv_pos_site_id
 _symmetry_equiv_pos_as_xyz
  1  'x, y, z'
loop_
 _atom_site_type_symbol
 _atom_site_label
 _atom_site_symmetry_multiplicity
 _atom_site_fract_x
 _atom_site_fract_y
 _atom_site_fract_z
 _atom_site_occupancy
  Ca  Ca0  1  0.329757  0.335392  0.242432  1
  Ca  Ca1  1  0.664608  0.670243  0.742432  1
  Mg  Mg2  1  0.995349  0.002979  0.000472  1
  Mg  Mg3  1  0.997021  0.004651  0.500472  1
  As  As4  1  0.318113  0.323837  0.749379  1
  As  As5  1  0.676164  0.681887  0.249379  1
  O  O6  1  0.377947  0.743786  0.078115  1
  O  O7  1  0.325450  0.102920  0.620270  1
  O  O8  1  0.097202  0.330842  0.879188  1
  O  O9  1  0.614070  0.264648  0.922801  1
  O  O10  1  0.897080  0.674550  0.120270  1
  O  O11  1  0.669158  0.902798  0.379188  1
  O  O12  1  0.256214  0.622053  0.578115  1
  O  O13  1  0.735352  0.385930  0.422801  1
  F  F14  1  0.912434  0.922920  0.749544  1
  F  F15  1  0.077080  0.087566  0.249544  1
