# generated using pymatgen
data_SiO2
_symmetry_space_group_name_H-M   'P 1'
_cell_length_a   15.36322420
_cell_length_b   15.36322420
_cell_length_c   15.36322420
_cell_angle_alpha   109.76827767
_cell_angle_beta   109.55551682
_cell_angle_gamma   109.09060712
_symmetry_Int_Tables_number   1
_chemical_formula_structural   SiO2
_chemical_formula_sum   'Si16 O32'
_cell_volume   2791.31817769
_cell_formula_units_Z   16
loop_
 _symmetry_equiv_pos_site_id
 _symmetry_equiv_pos_as_xyz
  1  'x, y, z'
loop_
 _atom_site_type_symbol
 _atom_site_label
 _atom_site_symmetry_multiplicity
 _atom_site_fract_x
 _atom_site_fract_y
 _atom_site_fract_z
 _atom_site_occupancy
  Si  Si0  1  0.018456  0.055223  0.463233  1
  Si  Si1  1  0.793802  0.750709  0.702847  1
  Si  Si2  1  0.952138  0.749291  0.543092  1
  Si  Si3  1  0.793802  0.590954  0.543092  1
  Si  Si4  1  0.206198  0.249291  0.297152  1
  Si  Si5  1  0.952138  0.909046  0.702847  1
  Si  Si6  1  0.036907  0.054879  0.091786  1
  Si  Si7  1  0.206198  0.409046  0.456908  1
  Si  Si8  1  0.408009  0.444777  0.463233  1
  Si  Si9  1  0.963093  0.945121  0.908214  1
  Si  Si10  1  0.036907  0.445121  0.482029  1
  Si  Si11  1  0.047862  0.090954  0.297152  1
  Si  Si12  1  0.963093  0.554879  0.517971  1
  Si  Si13  1  0.591991  0.555223  0.536767  1
  Si  Si14  1  0.981544  0.944777  0.536767  1
  Si  Si15  1  0.047862  0.250709  0.456908  1
  O  O16  1  0.854082  0.521561  0.526946  1
  O  O17  1  0.145918  0.172864  0.167479  1
  O  O18  1  0.664656  0.522357  0.489723  1
  O  O19  1  0.053214  0.538338  0.591552  1
  O  O20  1  0.967367  0.825067  0.489723  1
  O  O21  1  0.005385  0.672864  0.526946  1
  O  O22  1  0.145918  0.478439  0.473054  1
  O  O23  1  0.994615  0.021561  0.167479  1
  O  O24  1  0.839059  0.667822  0.671237  1
  O  O25  1  0.854082  0.827136  0.832521  1
  O  O26  1  0.003415  0.832178  0.671237  1
  O  O27  1  0.946786  0.461662  0.408448  1
  O  O28  1  0.053214  0.961662  0.014877  1
  O  O29  1  0.907341  0.963223  0.444118  1
  O  O30  1  0.967367  0.977643  0.642300  1
  O  O31  1  0.664656  0.674933  0.642300  1
  O  O32  1  0.480895  0.536777  0.444118  1
  O  O33  1  0.032633  0.022357  0.357700  1
  O  O34  1  0.824708  0.667178  0.491886  1
  O  O35  1  0.946786  0.038338  0.985123  1
  O  O36  1  0.994615  0.327136  0.473054  1
  O  O37  1  0.160941  0.332178  0.328763  1
  O  O38  1  0.335344  0.325067  0.357700  1
  O  O39  1  0.335344  0.477643  0.510277  1
  O  O40  1  0.032633  0.174933  0.510277  1
  O  O41  1  0.092659  0.036777  0.555882  1
  O  O42  1  0.175292  0.332822  0.508114  1
  O  O43  1  0.996585  0.167822  0.328763  1
  O  O44  1  0.005385  0.978439  0.832521  1
  O  O45  1  0.824708  0.832822  0.657531  1
  O  O46  1  0.175292  0.167178  0.342469  1
  O  O47  1  0.519105  0.463223  0.555882  1
