# generated using pymatgen
data_Tb2Fe14B
_symmetry_space_group_name_H-M   'P 1'
_cell_length_a   8.73650157
_cell_length_b   8.73650157
_cell_length_c   11.92804651
_cell_angle_alpha   90.00000000
_cell_angle_beta   90.00000000
_cell_angle_gamma   90.00000000
_symmetry_Int_Tables_number   1
_chemical_formula_structural   Tb2Fe14B
_chemical_formula_sum   'Tb8 Fe56 B4'
_cell_volume   910.42556104
_cell_formula_units_Z   4
loop_
 _symmetry_equiv_pos_site_id
 _symmetry_equiv_pos_as_xyz
  1  'x, y, z'
loop_
 _atom_site_type_symbol
 _atom_site_label
 _atom_site_symmetry_multiplicity
 _atom_site_fract_x
 _atom_site_fract_y
 _atom_site_fract_z
 _atom_site_occupancy
  Tb  Tb0  1  0.356462  0.356462  0.000000  1
  Tb  Tb1  1  0.143538  0.856462  0.500000  1
  Tb  Tb2  1  0.856462  0.143538  0.500000  1
  Tb  Tb3  1  0.643538  0.643538  0.000000  1
  Tb  Tb4  1  0.767521  0.232479  0.000000  1
  Tb  Tb5  1  0.267521  0.267521  0.500000  1
  Tb  Tb6  1  0.732479  0.732479  0.500000  1
  Tb  Tb7  1  0.232479  0.767521  0.000000  1
  Fe  Fe8  1  0.000000  0.500000  0.000000  1
  Fe  Fe9  1  0.000000  0.500000  0.500000  1
  Fe  Fe10  1  0.500000  0.000000  0.500000  1
  Fe  Fe11  1  0.500000  0.000000  0.000000  1
  Fe  Fe12  1  0.000000  0.000000  0.115883  1
  Fe  Fe13  1  0.500000  0.500000  0.615883  1
  Fe  Fe14  1  0.500000  0.500000  0.384117  1
  Fe  Fe15  1  0.000000  0.000000  0.884117  1
  Fe  Fe16  1  0.097411  0.097411  0.299108  1
  Fe  Fe17  1  0.402589  0.597411  0.799108  1
  Fe  Fe18  1  0.597411  0.402589  0.799108  1
  Fe  Fe19  1  0.597411  0.402589  0.200892  1
  Fe  Fe20  1  0.402589  0.597411  0.200892  1
  Fe  Fe21  1  0.902589  0.902589  0.299108  1
  Fe  Fe22  1  0.097411  0.097411  0.700892  1
  Fe  Fe23  1  0.902589  0.902589  0.700892  1
  Fe  Fe24  1  0.317239  0.317239  0.254167  1
  Fe  Fe25  1  0.182761  0.817239  0.754167  1
  Fe  Fe26  1  0.817239  0.182761  0.754167  1
  Fe  Fe27  1  0.817239  0.182761  0.245833  1
  Fe  Fe28  1  0.182761  0.817239  0.245833  1
  Fe  Fe29  1  0.682761  0.682761  0.254167  1
  Fe  Fe30  1  0.317239  0.317239  0.745833  1
  Fe  Fe31  1  0.682761  0.682761  0.745833  1
  Fe  Fe32  1  0.566408  0.224537  0.373613  1
  Fe  Fe33  1  0.275463  0.066408  0.873613  1
  Fe  Fe34  1  0.724537  0.933592  0.873613  1
  Fe  Fe35  1  0.066408  0.275463  0.126387  1
  Fe  Fe36  1  0.933592  0.724537  0.126387  1
  Fe  Fe37  1  0.433592  0.775463  0.373613  1
  Fe  Fe38  1  0.224537  0.566408  0.626387  1
  Fe  Fe39  1  0.775463  0.433592  0.626387  1
  Fe  Fe40  1  0.433592  0.775463  0.626387  1
  Fe  Fe41  1  0.724537  0.933592  0.126387  1
  Fe  Fe42  1  0.275463  0.066408  0.126387  1
  Fe  Fe43  1  0.933592  0.724537  0.873613  1
  Fe  Fe44  1  0.066408  0.275463  0.873613  1
  Fe  Fe45  1  0.566408  0.224537  0.626387  1
  Fe  Fe46  1  0.775463  0.433592  0.373613  1
  Fe  Fe47  1  0.224537  0.566408  0.373613  1
  Fe  Fe48  1  0.140949  0.537009  0.174908  1
  Fe  Fe49  1  0.962991  0.640949  0.674908  1
  Fe  Fe50  1  0.037009  0.359051  0.674908  1
  Fe  Fe51  1  0.640949  0.962991  0.325092  1
  Fe  Fe52  1  0.359051  0.037009  0.325092  1
  Fe  Fe53  1  0.859051  0.462991  0.174908  1
  Fe  Fe54  1  0.537009  0.140949  0.825092  1
  Fe  Fe55  1  0.462991  0.859051  0.825092  1
  Fe  Fe56  1  0.859051  0.462991  0.825092  1
  Fe  Fe57  1  0.037009  0.359051  0.325092  1
  Fe  Fe58  1  0.962991  0.640949  0.325092  1
  Fe  Fe59  1  0.359051  0.037009  0.674908  1
  Fe  Fe60  1  0.640949  0.962991  0.674908  1
  Fe  Fe61  1  0.140949  0.537009  0.825092  1
  Fe  Fe62  1  0.462991  0.859051  0.174908  1
  Fe  Fe63  1  0.537009  0.140949  0.174908  1
  B  B64  1  0.124281  0.124281  0.000000  1
  B  B65  1  0.375719  0.624281  0.500000  1
  B  B66  1  0.624281  0.375719  0.500000  1
  B  B67  1  0.875719  0.875719  0.000000  1
