# generated using pymatgen
data_Ba2V3BiO11
_symmetry_space_group_name_H-M   'P 1'
_cell_length_a   11.54954114
_cell_length_b   7.84541011
_cell_length_c   12.56274506
_cell_angle_alpha   90.00000000
_cell_angle_beta   103.25900656
_cell_angle_gamma   90.00000000
_symmetry_Int_Tables_number   1
_chemical_formula_structural   Ba2V3BiO11
_chemical_formula_sum   'Ba8 V12 Bi4 O44'
_cell_volume   1107.97748255
_cell_formula_units_Z   4
loop_
 _symmetry_equiv_pos_site_id
 _symmetry_equiv_pos_as_xyz
  1  'x, y, z'
loop_
 _atom_site_type_symbol
 _atom_site_label
 _atom_site_symmetry_multiplicity
 _atom_site_fract_x
 _atom_site_fract_y
 _atom_site_fract_z
 _atom_site_occupancy
  Ba  Ba0  1  0.558091  0.728695  0.732596  1
  Ba  Ba1  1  0.058091  0.771305  0.732596  1
  Ba  Ba2  1  0.441909  0.271305  0.267404  1
  Ba  Ba3  1  0.889452  0.751273  0.054394  1
  Ba  Ba4  1  0.610548  0.251273  0.945606  1
  Ba  Ba5  1  0.110548  0.248727  0.945606  1
  Ba  Ba6  1  0.389452  0.748727  0.054394  1
  Ba  Ba7  1  0.941909  0.228695  0.267404  1
  V  V8  1  0.975670  0.752483  0.403196  1
  V  V9  1  0.169653  0.981390  0.186273  1
  V  V10  1  0.325905  0.020429  0.817310  1
  V  V11  1  0.825905  0.479571  0.817310  1
  V  V12  1  0.674095  0.979571  0.182690  1
  V  V13  1  0.024330  0.247517  0.596804  1
  V  V14  1  0.330347  0.481390  0.813727  1
  V  V15  1  0.669653  0.518610  0.186273  1
  V  V16  1  0.830347  0.018610  0.813727  1
  V  V17  1  0.174095  0.520429  0.182690  1
  V  V18  1  0.475670  0.747517  0.403196  1
  V  V19  1  0.524330  0.252483  0.596804  1
  Bi  Bi20  1  0.732498  0.002612  0.498191  1
  Bi  Bi21  1  0.232498  0.497388  0.498191  1
  Bi  Bi22  1  0.267502  0.997388  0.501809  1
  Bi  Bi23  1  0.767502  0.502612  0.501809  1
  O  O24  1  0.277887  0.942272  0.685128  1
  O  O25  1  0.946227  0.862788  0.283946  1
  O  O26  1  0.878594  0.200443  0.513375  1
  O  O27  1  0.267351  0.443667  0.106329  1
  O  O28  1  0.446227  0.637212  0.283946  1
  O  O29  1  0.732649  0.556333  0.893671  1
  O  O30  1  0.553773  0.362788  0.716054  1
  O  O31  1  0.471966  0.961226  0.378086  1
  O  O32  1  0.028034  0.461226  0.621914  1
  O  O33  1  0.222113  0.442272  0.314872  1
  O  O34  1  0.332434  0.251033  0.833261  1
  O  O35  1  0.720233  0.941011  0.869559  1
  O  O36  1  0.121406  0.799557  0.486625  1
  O  O37  1  0.220233  0.558989  0.869559  1
  O  O38  1  0.971966  0.538774  0.378086  1
  O  O39  1  0.633248  0.294222  0.517261  1
  O  O40  1  0.312628  0.553326  0.680289  1
  O  O41  1  0.767351  0.056333  0.106329  1
  O  O42  1  0.232649  0.943667  0.893671  1
  O  O43  1  0.964531  0.553910  0.875086  1
  O  O44  1  0.621406  0.700443  0.486625  1
  O  O45  1  0.464531  0.946090  0.875086  1
  O  O46  1  0.167566  0.751033  0.166739  1
  O  O47  1  0.866752  0.794222  0.482739  1
  O  O48  1  0.687372  0.446674  0.319711  1
  O  O49  1  0.961003  0.937975  0.888591  1
  O  O50  1  0.378594  0.299557  0.513375  1
  O  O51  1  0.187372  0.053326  0.319711  1
  O  O52  1  0.053773  0.137212  0.716054  1
  O  O53  1  0.461003  0.562025  0.888591  1
  O  O54  1  0.366752  0.705778  0.482739  1
  O  O55  1  0.667566  0.748967  0.166739  1
  O  O56  1  0.528034  0.038774  0.621914  1
  O  O57  1  0.035469  0.446090  0.124914  1
  O  O58  1  0.535469  0.053910  0.124914  1
  O  O59  1  0.722113  0.057728  0.314872  1
  O  O60  1  0.777887  0.557728  0.685128  1
  O  O61  1  0.779767  0.441011  0.130441  1
  O  O62  1  0.133248  0.205778  0.517261  1
  O  O63  1  0.538997  0.437975  0.111409  1
  O  O64  1  0.279767  0.058989  0.130441  1
  O  O65  1  0.832434  0.248967  0.833261  1
  O  O66  1  0.038997  0.062025  0.111409  1
  O  O67  1  0.812628  0.946674  0.680289  1
