# generated using pymatgen
data_Co2P3O10
_symmetry_space_group_name_H-M   'P 1'
_cell_length_a   7.85606413
_cell_length_b   8.07739438
_cell_length_c   9.51111953
_cell_angle_alpha   97.69099723
_cell_angle_beta   111.20391556
_cell_angle_gamma   113.16003867
_symmetry_Int_Tables_number   1
_chemical_formula_structural   Co2P3O10
_chemical_formula_sum   'Co4 P6 O20'
_cell_volume   489.76661328
_cell_formula_units_Z   2
loop_
 _symmetry_equiv_pos_site_id
 _symmetry_equiv_pos_as_xyz
  1  'x, y, z'
loop_
 _atom_site_type_symbol
 _atom_site_label
 _atom_site_symmetry_multiplicity
 _atom_site_fract_x
 _atom_site_fract_y
 _atom_site_fract_z
 _atom_site_occupancy
  Co  Co0  1  0.172760  0.256281  0.457273  1
  Co  Co1  1  0.298285  0.707371  0.032482  1
  Co  Co2  1  0.701715  0.292629  0.967518  1
  Co  Co3  1  0.827240  0.743719  0.542727  1
  P  P4  1  0.861137  0.449672  0.731235  1
  P  P5  1  0.830381  0.082611  0.755228  1
  P  P6  1  0.223774  0.136481  0.767256  1
  P  P7  1  0.776226  0.863519  0.232744  1
  P  P8  1  0.169619  0.917389  0.244772  1
  P  P9  1  0.138863  0.550328  0.268765  1
  O  O10  1  0.773084  0.504002  0.587481  1
  O  O11  1  0.101753  0.569912  0.825860  1
  O  O12  1  0.811927  0.232391  0.661975  1
  O  O13  1  0.239384  0.896563  0.116306  1
  O  O14  1  0.255925  0.283075  0.681929  1
  O  O15  1  0.874179  0.069066  0.332647  1
  O  O16  1  0.761873  0.452868  0.844135  1
  O  O17  1  0.075034  0.153605  0.847618  1
  O  O18  1  0.572219  0.805899  0.081085  1
  O  O19  1  0.284197  0.110444  0.366755  1
  O  O20  1  0.715803  0.889556  0.633245  1
  O  O21  1  0.427781  0.194101  0.918915  1
  O  O22  1  0.924966  0.846395  0.152382  1
  O  O23  1  0.238127  0.547132  0.155865  1
  O  O24  1  0.125821  0.930934  0.667353  1
  O  O25  1  0.744075  0.716925  0.318071  1
  O  O26  1  0.760616  0.103437  0.883694  1
  O  O27  1  0.188073  0.767609  0.338025  1
  O  O28  1  0.898247  0.430088  0.174140  1
  O  O29  1  0.226916  0.495998  0.412519  1
