# generated using pymatgen
data_La4Ru6O19
_symmetry_space_group_name_H-M   'P 1'
_cell_length_a   7.87265319
_cell_length_b   7.87265319
_cell_length_c   7.87265319
_cell_angle_alpha   109.47122063
_cell_angle_beta   109.47122063
_cell_angle_gamma   109.47122063
_symmetry_Int_Tables_number   1
_chemical_formula_structural   La4Ru6O19
_chemical_formula_sum   'La4 Ru6 O19'
_cell_volume   375.61373933
_cell_formula_units_Z   1
loop_
 _symmetry_equiv_pos_site_id
 _symmetry_equiv_pos_as_xyz
  1  'x, y, z'
loop_
 _atom_site_type_symbol
 _atom_site_label
 _atom_site_symmetry_multiplicity
 _atom_site_fract_x
 _atom_site_fract_y
 _atom_site_fract_z
 _atom_site_occupancy
  La  La0  1  0.319008  0.319008  0.319008  1
  La  La1  1  1.000000  0.680992  0.000000  1
  La  La2  1  1.000000  1.000000  0.680992  1
  La  La3  1  0.680992  1.000000  0.000000  1
  Ru  Ru4  1  0.500000  0.362134  0.862134  1
  Ru  Ru5  1  0.637866  0.137866  0.500000  1
  Ru  Ru6  1  0.137866  0.500000  0.637866  1
  Ru  Ru7  1  0.362134  0.862134  0.500000  1
  Ru  Ru8  1  0.862134  0.500000  0.362134  1
  Ru  Ru9  1  0.500000  0.637866  0.137866  1
  O  O10  1  1.000000  0.326337  0.326337  1
  O  O11  1  0.673663  0.673663  0.000000  1
  O  O12  1  0.673663  1.000000  0.673663  1
  O  O13  1  0.326337  0.326337  0.000000  1
  O  O14  1  0.326337  1.000000  0.326337  1
  O  O15  1  1.000000  0.673663  0.673663  1
  O  O16  1  1.000000  1.000000  0.000000  1
  O  O17  1  0.268460  0.326940  0.626830  1
  O  O18  1  0.641630  0.373170  0.700110  1
  O  O19  1  0.941519  0.299890  0.673060  1
  O  O20  1  0.358370  0.058481  0.731540  1
  O  O21  1  0.373170  0.700110  0.641630  1
  O  O22  1  0.673060  0.941519  0.299890  1
  O  O23  1  0.058481  0.731540  0.358370  1
  O  O24  1  0.626830  0.268460  0.326940  1
  O  O25  1  0.326940  0.626830  0.268460  1
  O  O26  1  0.700110  0.641630  0.373170  1
  O  O27  1  0.299890  0.673060  0.941519  1
  O  O28  1  0.731540  0.358370  0.058481  1
