# generated using pymatgen
data_CsB5O8
_symmetry_space_group_name_H-M   'P 1'
_cell_length_a   8.12663005
_cell_length_b   12.30490861
_cell_length_c   15.17116848
_cell_angle_alpha   90.00000000
_cell_angle_beta   90.00000000
_cell_angle_gamma   90.00000000
_symmetry_Int_Tables_number   1
_chemical_formula_structural   CsB5O8
_chemical_formula_sum   'Cs8 B40 O64'
_cell_volume   1517.07801091
_cell_formula_units_Z   8
loop_
 _symmetry_equiv_pos_site_id
 _symmetry_equiv_pos_as_xyz
  1  'x, y, z'
loop_
 _atom_site_type_symbol
 _atom_site_label
 _atom_site_symmetry_multiplicity
 _atom_site_fract_x
 _atom_site_fract_y
 _atom_site_fract_z
 _atom_site_occupancy
  Cs  Cs0  1  0.045539  0.212553  0.623107  1
  Cs  Cs1  1  0.545539  0.212553  0.876893  1
  Cs  Cs2  1  0.545539  0.287447  0.376893  1
  Cs  Cs3  1  0.454461  0.787447  0.123107  1
  Cs  Cs4  1  0.045539  0.287447  0.123107  1
  Cs  Cs5  1  0.954461  0.712553  0.876893  1
  Cs  Cs6  1  0.454461  0.712553  0.623107  1
  Cs  Cs7  1  0.954461  0.787447  0.376893  1
  B  B8  1  0.970063  0.730950  0.625071  1
  B  B9  1  0.512884  0.964724  0.337434  1
  B  B10  1  0.449995  0.905568  0.793348  1
  B  B11  1  0.949995  0.594432  0.206652  1
  B  B12  1  0.487116  0.464724  0.162566  1
  B  B13  1  0.619495  0.899832  0.922061  1
  B  B14  1  0.487116  0.035276  0.662566  1
  B  B15  1  0.119495  0.899832  0.577939  1
  B  B16  1  0.987116  0.464724  0.337434  1
  B  B17  1  0.677078  0.080089  0.547189  1
  B  B18  1  0.880505  0.100168  0.422061  1
  B  B19  1  0.470063  0.730950  0.874929  1
  B  B20  1  0.970063  0.769050  0.125071  1
  B  B21  1  0.012884  0.535276  0.662566  1
  B  B22  1  0.949995  0.905568  0.706652  1
  B  B23  1  0.550005  0.094432  0.206652  1
  B  B24  1  0.822922  0.919911  0.047189  1
  B  B25  1  0.987116  0.035276  0.837434  1
  B  B26  1  0.119495  0.600168  0.077939  1
  B  B27  1  0.529937  0.230950  0.625071  1
  B  B28  1  0.322922  0.919911  0.452811  1
  B  B29  1  0.050005  0.094432  0.293348  1
  B  B30  1  0.677078  0.419911  0.047189  1
  B  B31  1  0.822922  0.580089  0.547189  1
  B  B32  1  0.029937  0.230950  0.874929  1
  B  B33  1  0.380505  0.100168  0.077939  1
  B  B34  1  0.529937  0.269050  0.125071  1
  B  B35  1  0.050005  0.405568  0.793348  1
  B  B36  1  0.619495  0.600168  0.422061  1
  B  B37  1  0.012884  0.964724  0.162566  1
  B  B38  1  0.550005  0.405568  0.706652  1
  B  B39  1  0.029937  0.269050  0.374929  1
  B  B40  1  0.512884  0.535276  0.837434  1
  B  B41  1  0.322922  0.580089  0.952811  1
  B  B42  1  0.380505  0.399832  0.577939  1
  B  B43  1  0.880505  0.399832  0.922061  1
  B  B44  1  0.177078  0.080089  0.952811  1
  B  B45  1  0.177078  0.419911  0.452811  1
  B  B46  1  0.470063  0.769050  0.374929  1
  B  B47  1  0.449995  0.594432  0.293348  1
  O  O48  1  0.218320  0.543163  0.019115  1
  O  O49  1  0.946599  0.141215  0.826371  1
  O  O50  1  0.097850  0.499041  0.402457  1
  O  O51  1  0.946599  0.358785  0.326371  1
  O  O52  1  0.155439  0.312488  0.436052  1
  O  O53  1  0.844561  0.687512  0.563948  1
  O  O54  1  0.446599  0.141215  0.673629  1
  O  O55  1  0.952877  0.038961  0.354954  1
  O  O56  1  0.446599  0.358785  0.173629  1
  O  O57  1  0.344561  0.812488  0.436052  1
  O  O58  1  0.281680  0.043163  0.019115  1
  O  O59  1  0.416787  0.546042  0.213634  1
  O  O60  1  0.593579  0.791181  0.928143  1
  O  O61  1  0.083213  0.046042  0.213634  1
  O  O62  1  0.553401  0.641215  0.826371  1
  O  O63  1  0.093579  0.708819  0.071857  1
  O  O64  1  0.402150  0.999041  0.402457  1
  O  O65  1  0.593579  0.708819  0.428143  1
  O  O66  1  0.106635  0.303414  0.809000  1
  O  O67  1  0.053401  0.641215  0.673629  1
  O  O68  1  0.606635  0.303414  0.691000  1
  O  O69  1  0.053401  0.858785  0.173629  1
  O  O70  1  0.916787  0.546042  0.286366  1
  O  O71  1  0.902150  0.500959  0.597543  1
  O  O72  1  0.597850  0.000959  0.597543  1
  O  O73  1  0.393365  0.696586  0.309000  1
  O  O74  1  0.553401  0.858785  0.326371  1
  O  O75  1  0.344561  0.687512  0.936052  1
  O  O76  1  0.547123  0.538961  0.354954  1
  O  O77  1  0.844561  0.812488  0.063948  1
  O  O78  1  0.583213  0.453958  0.786366  1
  O  O79  1  0.047123  0.961039  0.645046  1
  O  O80  1  0.083213  0.453958  0.713634  1
  O  O81  1  0.906421  0.208819  0.428143  1
  O  O82  1  0.655439  0.187512  0.563948  1
  O  O83  1  0.406421  0.291181  0.571857  1
  O  O84  1  0.781680  0.456837  0.980885  1
  O  O85  1  0.906421  0.291181  0.928143  1
  O  O86  1  0.597850  0.499041  0.097543  1
  O  O87  1  0.781680  0.043163  0.480885  1
  O  O88  1  0.902150  0.999041  0.097543  1
  O  O89  1  0.452877  0.461039  0.645046  1
  O  O90  1  0.718320  0.956837  0.980885  1
  O  O91  1  0.406421  0.208819  0.071857  1
  O  O92  1  0.718320  0.543163  0.480885  1
  O  O93  1  0.093579  0.791181  0.571857  1
  O  O94  1  0.893365  0.696586  0.191000  1
  O  O95  1  0.416787  0.953958  0.713634  1
  O  O96  1  0.547123  0.961039  0.854954  1
  O  O97  1  0.655439  0.312488  0.063948  1
  O  O98  1  0.583213  0.046042  0.286366  1
  O  O99  1  0.606635  0.196586  0.191000  1
  O  O100  1  0.047123  0.538961  0.145046  1
  O  O101  1  0.893365  0.803414  0.691000  1
  O  O102  1  0.281680  0.456837  0.519115  1
  O  O103  1  0.402150  0.500959  0.902457  1
  O  O104  1  0.155439  0.187512  0.936052  1
  O  O105  1  0.106635  0.196586  0.309000  1
  O  O106  1  0.097850  0.000959  0.902457  1
  O  O107  1  0.393365  0.803414  0.809000  1
  O  O108  1  0.916787  0.953958  0.786366  1
  O  O109  1  0.952877  0.461039  0.854954  1
  O  O110  1  0.452877  0.038961  0.145046  1
  O  O111  1  0.218320  0.956837  0.519115  1
