# generated using pymatgen
data_V4P7O24
_symmetry_space_group_name_H-M   'P 1'
_cell_length_a   10.21001940
_cell_length_b   10.42625761
_cell_length_c   10.83657629
_cell_angle_alpha   109.12370240
_cell_angle_beta   111.59264693
_cell_angle_gamma   104.77469619
_symmetry_Int_Tables_number   1
_chemical_formula_structural   V4P7O24
_chemical_formula_sum   'V8 P14 O48'
_cell_volume   916.14684550
_cell_formula_units_Z   2
loop_
 _symmetry_equiv_pos_site_id
 _symmetry_equiv_pos_as_xyz
  1  'x, y, z'
loop_
 _atom_site_type_symbol
 _atom_site_label
 _atom_site_symmetry_multiplicity
 _atom_site_fract_x
 _atom_site_fract_y
 _atom_site_fract_z
 _atom_site_occupancy
  V  V0  1  0.500827  0.895039  0.743023  1
  V  V1  1  0.003944  0.389074  0.077694  1
  V  V2  1  0.512371  0.660244  0.886824  1
  V  V3  1  0.986408  0.829363  0.410777  1
  V  V4  1  0.013592  0.170637  0.589223  1
  V  V5  1  0.487629  0.339756  0.113176  1
  V  V6  1  0.996056  0.610926  0.922306  1
  V  V7  1  0.499173  0.104961  0.256977  1
  P  P8  1  0.772592  0.780326  0.770426  1
  P  P9  1  0.191862  0.621243  0.436534  1
  P  P10  1  0.195268  0.940885  0.258809  1
  P  P11  1  0.261400  0.032979  0.757963  1
  P  P12  1  0.250591  0.390365  0.523245  1
  P  P13  1  0.730244  0.173400  0.113492  1
  P  P14  1  0.751704  0.541754  0.052718  1
  P  P15  1  0.248296  0.458246  0.947282  1
  P  P16  1  0.269756  0.826600  0.886508  1
  P  P17  1  0.749409  0.609635  0.476755  1
  P  P18  1  0.738600  0.967021  0.242037  1
  P  P19  1  0.804732  0.059115  0.741191  1
  P  P20  1  0.808138  0.378757  0.563466  1
  P  P21  1  0.227408  0.219674  0.229574  1
  O  O22  1  0.880538  0.206213  0.880745  1
  O  O23  1  0.626010  0.985756  0.673570  1
  O  O24  1  0.116265  0.259513  0.133836  1
  O  O25  1  0.636053  0.053886  0.947156  1
  O  O26  1  0.368426  0.724720  0.554872  1
  O  O27  1  0.167695  0.562453  0.278076  1
  O  O28  1  0.658823  0.571797  0.925615  1
  O  O29  1  0.636052  0.783585  0.800488  1
  O  O30  1  0.151996  0.476910  0.467793  1
  O  O31  1  0.372129  0.995445  0.701407  1
  O  O32  1  0.310873  0.337579  0.404279  1
  O  O33  1  0.136259  0.058939  0.207899  1
  O  O34  1  0.151106  0.934996  0.375380  1
  O  O35  1  0.393445  0.496743  0.671530  1
  O  O36  1  0.875076  0.498806  0.013430  1
  O  O37  1  0.090944  0.695871  0.465489  1
  O  O38  1  0.861004  0.310941  0.152104  1
  O  O39  1  0.344207  0.175910  0.901510  1
  O  O40  1  0.187202  0.899026  0.789887  1
  O  O41  1  0.145262  0.249552  0.508162  1
  O  O42  1  0.120062  0.020633  0.627844  1
  O  O43  1  0.384848  0.790495  0.831503  1
  O  O44  1  0.843800  0.682397  0.206206  1
  O  O45  1  0.359906  0.585646  0.944557  1
  O  O46  1  0.640094  0.414354  0.055443  1
  O  O47  1  0.156200  0.317603  0.793794  1
  O  O48  1  0.615152  0.209505  0.168497  1
  O  O49  1  0.879938  0.979367  0.372156  1
  O  O50  1  0.854738  0.750448  0.491838  1
  O  O51  1  0.812798  0.100974  0.210113  1
  O  O52  1  0.655793  0.824090  0.098490  1
  O  O53  1  0.138996  0.689059  0.847896  1
  O  O54  1  0.909056  0.304129  0.534511  1
  O  O55  1  0.124924  0.501194  0.986570  1
  O  O56  1  0.606555  0.503257  0.328470  1
  O  O57  1  0.848894  0.065004  0.624620  1
  O  O58  1  0.863741  0.941061  0.792101  1
  O  O59  1  0.689127  0.662421  0.595721  1
  O  O60  1  0.627871  0.004555  0.298593  1
  O  O61  1  0.848004  0.523090  0.532207  1
  O  O62  1  0.363948  0.216415  0.199512  1
  O  O63  1  0.341177  0.428203  0.074385  1
  O  O64  1  0.832305  0.437547  0.721924  1
  O  O65  1  0.631574  0.275280  0.445128  1
  O  O66  1  0.363947  0.946114  0.052844  1
  O  O67  1  0.883735  0.740487  0.866164  1
  O  O68  1  0.373990  0.014244  0.326430  1
  O  O69  1  0.119462  0.793787  0.119255  1
