# generated using pymatgen
data_AgI
_symmetry_space_group_name_H-M   'P 1'
_cell_length_a   4.84863423
_cell_length_b   4.84863423
_cell_length_c   14.48723525
_cell_angle_alpha   90.00000000
_cell_angle_beta   90.00000000
_cell_angle_gamma   120.00000000
_symmetry_Int_Tables_number   1
_chemical_formula_structural   AgI
_chemical_formula_sum   'Ag4 I4'
_cell_volume   294.95447613
_cell_formula_units_Z   4
loop_
 _symmetry_equiv_pos_site_id
 _symmetry_equiv_pos_as_xyz
  1  'x, y, z'
loop_
 _atom_site_type_symbol
 _atom_site_label
 _atom_site_symmetry_multiplicity
 _atom_site_fract_x
 _atom_site_fract_y
 _atom_site_fract_z
 _atom_site_occupancy
  Ag  Ag0  1  0.000000  0.000000  0.268453  1
  Ag  Ag1  1  0.666667  0.333333  0.470335  1
  Ag  Ag2  1  0.333333  0.666667  0.970335  1
  Ag  Ag3  1  0.000000  0.000000  0.768453  1
  I  I4  1  0.000000  0.000000  0.006254  1
  I  I5  1  0.666667  0.333333  0.254958  1
  I  I6  1  0.333333  0.666667  0.754958  1
  I  I7  1  0.000000  0.000000  0.506254  1
