# generated using pymatgen
data_Ca3Mn2(Si2O7)2
_symmetry_space_group_name_H-M   'P 1'
_cell_length_a   9.41907023
_cell_length_b   9.41907023
_cell_length_c   10.17611781
_cell_angle_alpha   60.00865615
_cell_angle_beta   119.99134385
_cell_angle_gamma   131.48175356
_symmetry_Int_Tables_number   1
_chemical_formula_structural   Ca3Mn2(Si2O7)2
_chemical_formula_sum   'Ca6 Mn4 Si8 O28'
_cell_volume   565.63273117
_cell_formula_units_Z   2
loop_
 _symmetry_equiv_pos_site_id
 _symmetry_equiv_pos_as_xyz
  1  'x, y, z'
loop_
 _atom_site_type_symbol
 _atom_site_label
 _atom_site_symmetry_multiplicity
 _atom_site_fract_x
 _atom_site_fract_y
 _atom_site_fract_z
 _atom_site_occupancy
  Ca  Ca0  1  0.230859  0.838602  0.458141  1
  Ca  Ca1  1  0.838602  0.230859  0.041859  1
  Ca  Ca2  1  0.161398  0.769141  0.958141  1
  Ca  Ca3  1  0.654415  0.654415  0.750000  1
  Ca  Ca4  1  0.769141  0.161398  0.541859  1
  Ca  Ca5  1  0.345585  0.345585  0.250000  1
  Mn  Mn6  1  0.214177  0.214177  0.750000  1
  Mn  Mn7  1  0.785823  0.785823  0.250000  1
  Mn  Mn8  1  0.000000  0.000000  0.000000  1
  Mn  Mn9  1  1.000000  0.000000  0.500000  1
  Si  Si10  1  0.110866  0.465900  0.341176  1
  Si  Si11  1  0.534100  0.889134  0.841176  1
  Si  Si12  1  0.214159  0.467102  0.854131  1
  Si  Si13  1  0.532898  0.785841  0.354131  1
  Si  Si14  1  0.465900  0.110866  0.158824  1
  Si  Si15  1  0.785841  0.532898  0.145869  1
  Si  Si16  1  0.467102  0.214159  0.645869  1
  Si  Si17  1  0.889134  0.534100  0.658824  1
  O  O18  1  0.296358  0.124296  0.496295  1
  O  O19  1  0.895183  0.027961  0.281309  1
  O  O20  1  0.648942  0.542593  0.189714  1
  O  O21  1  0.972039  0.104817  0.781309  1
  O  O22  1  0.942798  0.735556  0.518232  1
  O  O23  1  0.508471  0.949860  0.185454  1
  O  O24  1  0.457407  0.351058  0.689714  1
  O  O25  1  0.735556  0.942798  0.981768  1
  O  O26  1  0.491529  0.050140  0.814546  1
  O  O27  1  0.675285  0.343321  0.593804  1
  O  O28  1  0.104817  0.972039  0.718691  1
  O  O29  1  0.057202  0.264444  0.481768  1
  O  O30  1  0.949860  0.508471  0.314546  1
  O  O31  1  0.875704  0.703642  0.996295  1
  O  O32  1  0.656679  0.324715  0.093804  1
  O  O33  1  0.264444  0.057202  0.018232  1
  O  O34  1  0.471105  0.105755  0.322065  1
  O  O35  1  0.324715  0.656679  0.406196  1
  O  O36  1  0.105755  0.471105  0.177935  1
  O  O37  1  0.343321  0.675285  0.906196  1
  O  O38  1  0.050140  0.491529  0.685454  1
  O  O39  1  0.027961  0.895183  0.218691  1
  O  O40  1  0.894245  0.528895  0.822065  1
  O  O41  1  0.351058  0.457407  0.810286  1
  O  O42  1  0.528895  0.894245  0.677935  1
  O  O43  1  0.542593  0.648942  0.310286  1
  O  O44  1  0.124296  0.296358  0.003705  1
  O  O45  1  0.703642  0.875704  0.503705  1
