# generated using pymatgen
data_FeTeCl7
_symmetry_space_group_name_H-M   'P 1'
_cell_length_a   6.78946818
_cell_length_b   8.67103676
_cell_length_c   10.33099951
_cell_angle_alpha   85.12470811
_cell_angle_beta   76.94683261
_cell_angle_gamma   83.24231100
_symmetry_Int_Tables_number   1
_chemical_formula_structural   FeTeCl7
_chemical_formula_sum   'Fe2 Te2 Cl14'
_cell_volume   587.29865924
_cell_formula_units_Z   2
loop_
 _symmetry_equiv_pos_site_id
 _symmetry_equiv_pos_as_xyz
  1  'x, y, z'
loop_
 _atom_site_type_symbol
 _atom_site_label
 _atom_site_symmetry_multiplicity
 _atom_site_fract_x
 _atom_site_fract_y
 _atom_site_fract_z
 _atom_site_occupancy
  Fe  Fe0  1  0.495876  0.123660  0.123856  1
  Fe  Fe1  1  0.748326  0.553698  0.563791  1
  Te  Te2  1  0.947981  0.492641  0.095711  1
  Te  Te3  1  0.200019  0.922615  0.543279  1
  Cl  Cl4  1  0.817887  0.182806  0.070088  1
  Cl  Cl5  1  0.291428  0.328694  0.208316  1
  Cl  Cl6  1  0.481113  0.925180  0.278688  1
  Cl  Cl7  1  0.411388  0.048349  0.952567  1
  Cl  Cl8  1  0.063620  0.727581  0.130550  1
  Cl  Cl9  1  0.164136  0.463279  0.886507  1
  Cl  Cl10  1  0.672753  0.613770  0.010282  1
  Cl  Cl11  1  0.071475  0.607372  0.521989  1
  Cl  Cl12  1  0.542092  0.753394  0.657386  1
  Cl  Cl13  1  0.669858  0.504009  0.374244  1
  Cl  Cl14  1  0.711382  0.352284  0.700829  1
  Cl  Cl15  1  0.323028  0.157034  0.568790  1
  Cl  Cl16  1  0.993671  0.918739  0.758188  1
  Cl  Cl17  1  0.940968  0.033995  0.437341  1
