# generated using pymatgen
data_CrPO4
_symmetry_space_group_name_H-M   'P 1'
_cell_length_a   7.37025490
_cell_length_b   7.37025490
_cell_length_c   9.49766203
_cell_angle_alpha   90.00000000
_cell_angle_beta   90.00000000
_cell_angle_gamma   120.00000000
_symmetry_Int_Tables_number   1
_chemical_formula_structural   CrPO4
_chemical_formula_sum   'Cr6 P6 O24'
_cell_volume   446.79917125
_cell_formula_units_Z   6
loop_
 _symmetry_equiv_pos_site_id
 _symmetry_equiv_pos_as_xyz
  1  'x, y, z'
loop_
 _atom_site_type_symbol
 _atom_site_label
 _atom_site_symmetry_multiplicity
 _atom_site_fract_x
 _atom_site_fract_y
 _atom_site_fract_z
 _atom_site_occupancy
  Cr  Cr0  1  0.457060  0.392636  0.974226  1
  Cr  Cr1  1  0.607364  0.064425  0.974226  1
  Cr  Cr2  1  0.935575  0.542940  0.974226  1
  Cr  Cr3  1  0.064425  0.607364  0.474226  1
  Cr  Cr4  1  0.542940  0.935575  0.474226  1
  Cr  Cr5  1  0.392636  0.457060  0.474226  1
  P  P6  1  0.000000  0.000000  0.531963  1
  P  P7  1  0.000000  0.000000  0.031963  1
  P  P8  1  0.666667  0.333333  0.280053  1
  P  P9  1  0.666667  0.333333  0.669416  1
  P  P10  1  0.333333  0.666667  0.169416  1
  P  P11  1  0.333333  0.666667  0.780053  1
  O  O12  1  0.000000  0.000000  0.687259  1
  O  O13  1  0.231574  0.112922  0.964452  1
  O  O14  1  0.464760  0.325028  0.621222  1
  O  O15  1  0.569456  0.462892  0.327996  1
  O  O16  1  0.537108  0.106564  0.327996  1
  O  O17  1  0.666667  0.333333  0.842729  1
  O  O18  1  0.666667  0.333333  0.109775  1
  O  O19  1  0.881348  0.768426  0.964452  1
  O  O20  1  0.860268  0.535240  0.621222  1
  O  O21  1  0.674972  0.139732  0.621222  1
  O  O22  1  0.118652  0.887078  0.464452  1
  O  O23  1  0.893436  0.430544  0.327996  1
  O  O24  1  0.139732  0.674972  0.121222  1
  O  O25  1  0.887078  0.118652  0.964452  1
  O  O26  1  0.106564  0.537108  0.827996  1
  O  O27  1  0.430544  0.893436  0.827996  1
  O  O28  1  0.333333  0.666667  0.342729  1
  O  O29  1  0.333333  0.666667  0.609775  1
  O  O30  1  0.112922  0.231574  0.464452  1
  O  O31  1  0.325028  0.464760  0.121222  1
  O  O32  1  0.535240  0.860268  0.121222  1
  O  O33  1  0.462892  0.569456  0.827996  1
  O  O34  1  0.768426  0.881348  0.464452  1
  O  O35  1  0.000000  0.000000  0.187259  1
