# generated using pymatgen
data_Nb2P
_symmetry_space_group_name_H-M   'P 1'
_cell_length_a   3.98060407
_cell_length_b   13.25761578
_cell_length_c   18.63925559
_cell_angle_alpha   90.00000000
_cell_angle_beta   90.00000000
_cell_angle_gamma   90.00000000
_symmetry_Int_Tables_number   1
_chemical_formula_structural   Nb2P
_chemical_formula_sum   'Nb36 P18'
_cell_volume   983.65538737
_cell_formula_units_Z   18
loop_
 _symmetry_equiv_pos_site_id
 _symmetry_equiv_pos_as_xyz
  1  'x, y, z'
loop_
 _atom_site_type_symbol
 _atom_site_label
 _atom_site_symmetry_multiplicity
 _atom_site_fract_x
 _atom_site_fract_y
 _atom_site_fract_z
 _atom_site_occupancy
  Nb  Nb0  1  0.000000  0.047357  0.750000  1
  Nb  Nb1  1  0.500000  0.441792  0.633777  1
  Nb  Nb2  1  0.500000  0.558208  0.366223  1
  Nb  Nb3  1  0.000000  0.228082  0.330115  1
  Nb  Nb4  1  0.000000  0.007251  0.118611  1
  Nb  Nb5  1  0.000000  0.150762  0.492318  1
  Nb  Nb6  1  0.000000  0.992749  0.881389  1
  Nb  Nb7  1  0.500000  0.890471  0.750000  1
  Nb  Nb8  1  0.000000  0.228082  0.169885  1
  Nb  Nb9  1  0.500000  0.558208  0.133777  1
  Nb  Nb10  1  0.500000  0.677215  0.578032  1
  Nb  Nb11  1  0.000000  0.849238  0.992318  1
  Nb  Nb12  1  0.000000  0.007251  0.381389  1
  Nb  Nb13  1  0.500000  0.605583  0.750000  1
  Nb  Nb14  1  0.500000  0.109529  0.250000  1
  Nb  Nb15  1  0.000000  0.771918  0.669885  1
  Nb  Nb16  1  0.500000  0.322785  0.421968  1
  Nb  Nb17  1  0.000000  0.230164  0.839560  1
  Nb  Nb18  1  0.000000  0.230164  0.660440  1
  Nb  Nb19  1  0.000000  0.769836  0.339560  1
  Nb  Nb20  1  0.000000  0.771918  0.830115  1
  Nb  Nb21  1  0.000000  0.769836  0.160440  1
  Nb  Nb22  1  0.000000  0.500000  0.500000  1
  Nb  Nb23  1  0.500000  0.394417  0.250000  1
  Nb  Nb24  1  0.500000  0.677215  0.921968  1
  Nb  Nb25  1  0.500000  0.355965  0.750000  1
  Nb  Nb26  1  0.000000  0.992749  0.618611  1
  Nb  Nb27  1  0.500000  0.644035  0.250000  1
  Nb  Nb28  1  0.000000  0.849238  0.507682  1
  Nb  Nb29  1  0.000000  0.150762  0.007682  1
  Nb  Nb30  1  0.500000  0.500000  0.000000  1
  Nb  Nb31  1  0.000000  0.952643  0.250000  1
  Nb  Nb32  1  0.500000  0.322785  0.078032  1
  Nb  Nb33  1  0.500000  0.441792  0.866223  1
  Nb  Nb34  1  0.500000  0.500000  0.500000  1
  Nb  Nb35  1  0.000000  0.500000  0.000000  1
  P  P36  1  0.000000  0.576483  0.649898  1
  P  P37  1  0.500000  0.120362  0.914231  1
  P  P38  1  0.000000  0.320653  0.541023  1
  P  P39  1  0.000000  0.679347  0.041023  1
  P  P40  1  0.500000  0.879638  0.414231  1
  P  P41  1  0.500000  0.879638  0.085769  1
  P  P42  1  0.500000  0.864544  0.605273  1
  P  P43  1  0.000000  0.320653  0.958977  1
  P  P44  1  0.500000  0.166077  0.750000  1
  P  P45  1  0.500000  0.120362  0.585769  1
  P  P46  1  0.500000  0.864544  0.894727  1
  P  P47  1  0.500000  0.833923  0.250000  1
  P  P48  1  0.500000  0.135456  0.105273  1
  P  P49  1  0.000000  0.679347  0.458977  1
  P  P50  1  0.000000  0.423517  0.149898  1
  P  P51  1  0.000000  0.423517  0.350102  1
  P  P52  1  0.500000  0.135456  0.394727  1
  P  P53  1  0.000000  0.576483  0.850102  1
