# generated using pymatgen
data_Li5B7S13
_symmetry_space_group_name_H-M   'P 1'
_cell_length_a   14.05147634
_cell_length_b   14.05147634
_cell_length_c   12.44121130
_cell_angle_alpha   63.75624948
_cell_angle_beta   116.24375052
_cell_angle_gamma   77.50544797
_symmetry_Int_Tables_number   1
_chemical_formula_structural   Li5B7S13
_chemical_formula_sum   'Li20 B28 S52'
_cell_volume   1697.47594597
_cell_formula_units_Z   4
loop_
 _symmetry_equiv_pos_site_id
 _symmetry_equiv_pos_as_xyz
  1  'x, y, z'
loop_
 _atom_site_type_symbol
 _atom_site_label
 _atom_site_symmetry_multiplicity
 _atom_site_fract_x
 _atom_site_fract_y
 _atom_site_fract_z
 _atom_site_occupancy
  Li  Li0  1  0.966775  0.315964  0.740383  1
  Li  Li1  1  0.684036  0.033225  0.240383  1
  Li  Li2  1  0.009493  0.977843  0.468688  1
  Li  Li3  1  0.321069  0.114317  0.107297  1
  Li  Li4  1  0.885683  0.678931  0.607297  1
  Li  Li5  1  0.442814  0.776668  0.409628  1
  Li  Li6  1  0.223332  0.557186  0.909628  1
  Li  Li7  1  0.782943  0.281486  0.896932  1
  Li  Li8  1  0.718514  0.217057  0.396932  1
  Li  Li9  1  0.545301  0.948492  0.566169  1
  Li  Li10  1  0.051508  0.454699  0.066169  1
  Li  Li11  1  0.298012  0.773900  0.613461  1
  Li  Li12  1  0.226100  0.701988  0.113461  1
  Li  Li13  1  0.778327  0.445940  0.082305  1
  Li  Li14  1  0.554060  0.221673  0.582305  1
  Li  Li15  1  0.112837  0.314942  0.414894  1
  Li  Li16  1  0.685058  0.887163  0.914894  1
  Li  Li17  1  0.301773  0.971430  0.746487  1
  Li  Li18  1  0.028570  0.698227  0.246487  1
  Li  Li19  1  0.022157  0.990507  0.968688  1
  B  B20  1  0.252961  0.693569  0.425272  1
  B  B21  1  0.544551  0.207484  0.860095  1
  B  B22  1  0.275304  0.273368  0.752141  1
  B  B23  1  0.476011  0.475096  0.749750  1
  B  B24  1  0.206898  0.544062  0.639881  1
  B  B25  1  0.694454  0.252666  0.074787  1
  B  B26  1  0.683725  0.566942  0.476922  1
  B  B27  1  0.433058  0.316275  0.976922  1
  B  B28  1  0.619748  0.826939  0.366869  1
  B  B29  1  0.173061  0.380252  0.866869  1
  B  B30  1  0.165955  0.984677  0.260598  1
  B  B31  1  0.091487  0.254264  0.076236  1
  B  B32  1  0.745736  0.908513  0.576236  1
  B  B33  1  0.015323  0.834045  0.760598  1
  B  B34  1  0.985163  0.168388  0.240550  1
  B  B35  1  0.254969  0.093977  0.420380  1
  B  B36  1  0.906023  0.745031  0.920380  1
  B  B37  1  0.831612  0.014837  0.740550  1
  B  B38  1  0.828817  0.619025  0.133563  1
  B  B39  1  0.380975  0.171183  0.633563  1
  B  B40  1  0.568492  0.684617  0.023249  1
  B  B41  1  0.315383  0.431508  0.523249  1
  B  B42  1  0.306431  0.747039  0.925272  1
  B  B43  1  0.792516  0.455449  0.360095  1
  B  B44  1  0.524904  0.523989  0.249750  1
  B  B45  1  0.726632  0.724696  0.252141  1
  B  B46  1  0.455938  0.793102  0.139881  1
  B  B47  1  0.747334  0.305546  0.574787  1
  S  S48  1  0.483088  0.371007  0.687396  1
  S  S49  1  0.204677  0.439807  0.576941  1
  S  S50  1  0.709949  0.139283  0.026829  1
  S  S51  1  0.140162  0.709365  0.473934  1
  S  S52  1  0.441562  0.204761  0.924874  1
  S  S53  1  0.177016  0.269090  0.817424  1
  S  S54  1  0.730910  0.822984  0.317424  1
  S  S55  1  0.371201  0.483425  0.811494  1
  S  S56  1  0.451350  0.896442  0.199472  1
  S  S57  1  0.103558  0.548650  0.699472  1
  S  S58  1  0.748381  0.403462  0.644881  1
  S  S59  1  0.596538  0.251619  0.144881  1
  S  S60  1  0.681898  0.666137  0.542935  1
  S  S61  1  0.204922  0.847953  0.251759  1
  S  S62  1  0.333863  0.318102  0.042935  1
  S  S63  1  0.130354  0.114954  0.074466  1
  S  S64  1  0.045710  0.401132  0.893848  1
  S  S65  1  0.598868  0.954290  0.393848  1
  S  S66  1  0.885046  0.869646  0.574466  1
  S  S67  1  0.152047  0.795078  0.751759  1
  S  S68  1  0.415841  0.637755  0.589367  1
  S  S69  1  0.021681  0.023842  0.251388  1
  S  S70  1  0.362245  0.584159  0.089367  1
  S  S71  1  0.942087  0.309354  0.059158  1
  S  S72  1  0.308519  0.943305  0.440163  1
  S  S73  1  0.226772  0.227152  0.246593  1
  S  S74  1  0.772848  0.773228  0.746593  1
  S  S75  1  0.690646  0.057913  0.559158  1
  S  S76  1  0.056695  0.691481  0.940163  1
  S  S77  1  0.639327  0.414152  0.909129  1
  S  S78  1  0.976158  0.978319  0.751388  1
  S  S79  1  0.585848  0.360673  0.409129  1
  S  S80  1  0.847826  0.205023  0.249663  1
  S  S81  1  0.117562  0.132867  0.425670  1
  S  S82  1  0.400291  0.046077  0.605027  1
  S  S83  1  0.953923  0.599709  0.105027  1
  S  S84  1  0.867133  0.882438  0.925670  1
  S  S85  1  0.667138  0.684485  0.956119  1
  S  S86  1  0.794977  0.152174  0.749663  1
  S  S87  1  0.315515  0.332862  0.456119  1
  S  S88  1  0.404584  0.750171  0.854674  1
  S  S89  1  0.249829  0.595416  0.354674  1
  S  S90  1  0.895601  0.450963  0.298129  1
  S  S91  1  0.549037  0.104399  0.798129  1
  S  S92  1  0.628993  0.516912  0.187396  1
  S  S93  1  0.273897  0.172483  0.690571  1
  S  S94  1  0.827517  0.726103  0.190571  1
  S  S95  1  0.560193  0.795323  0.076941  1
  S  S96  1  0.860717  0.290051  0.526829  1
  S  S97  1  0.290635  0.859838  0.973934  1
  S  S98  1  0.795239  0.558438  0.424874  1
  S  S99  1  0.516575  0.628799  0.311494  1
