# generated using pymatgen
data_HoH16C2S2NO12
_symmetry_space_group_name_H-M   'P 1'
_cell_length_a   10.11361735
_cell_length_b   10.91699750
_cell_length_c   11.75842518
_cell_angle_alpha   90.00000000
_cell_angle_beta   90.00000000
_cell_angle_gamma   90.00000000
_symmetry_Int_Tables_number   1
_chemical_formula_structural   HoH16C2S2NO12
_chemical_formula_sum   'Ho4 H64 C8 S8 N4 O48'
_cell_volume   1298.25166703
_cell_formula_units_Z   4
loop_
 _symmetry_equiv_pos_site_id
 _symmetry_equiv_pos_as_xyz
  1  'x, y, z'
loop_
 _atom_site_type_symbol
 _atom_site_label
 _atom_site_symmetry_multiplicity
 _atom_site_fract_x
 _atom_site_fract_y
 _atom_site_fract_z
 _atom_site_occupancy
  Ho  Ho0  1  0.033383  0.123696  0.750000  1
  Ho  Ho1  1  0.466618  0.623696  0.750000  1
  Ho  Ho2  1  0.966618  0.876304  0.250000  1
  Ho  Ho3  1  0.533382  0.376304  0.250000  1
  H  H4  1  0.968090  0.452277  0.073051  1
  H  H5  1  0.131009  0.898665  0.041150  1
  H  H6  1  0.386485  0.373080  0.817587  1
  H  H7  1  0.067834  0.347765  0.348585  1
  H  H8  1  0.621614  0.462773  0.912403  1
  H  H9  1  0.121614  0.037227  0.087597  1
  H  H10  1  0.792645  0.278979  0.682329  1
  H  H11  1  0.207355  0.721021  0.182329  1
  H  H12  1  0.378386  0.537227  0.087597  1
  H  H13  1  0.707355  0.778979  0.682329  1
  H  H14  1  0.113515  0.873080  0.682413  1
  H  H15  1  0.468090  0.047723  0.926949  1
  H  H16  1  0.051135  0.427982  0.750000  1
  H  H17  1  0.122053  0.503194  0.366559  1
  H  H18  1  0.292645  0.221021  0.182329  1
  H  H19  1  0.627714  0.938242  0.250000  1
  H  H20  1  0.877947  0.496806  0.633441  1
  H  H21  1  0.127714  0.561758  0.750000  1
  H  H22  1  0.531910  0.952277  0.426949  1
  H  H23  1  0.377947  0.003194  0.366559  1
  H  H24  1  0.877947  0.496806  0.866559  1
  H  H25  1  0.067834  0.347765  0.151415  1
  H  H26  1  0.468090  0.047723  0.573051  1
  H  H27  1  0.113515  0.873080  0.817587  1
  H  H28  1  0.886485  0.126920  0.317587  1
  H  H29  1  0.707355  0.778979  0.817671  1
  H  H30  1  0.378386  0.537227  0.412403  1
  H  H31  1  0.792645  0.278979  0.817671  1
  H  H32  1  0.621614  0.462773  0.587597  1
  H  H33  1  0.948865  0.572018  0.250000  1
  H  H34  1  0.613515  0.626920  0.317587  1
  H  H35  1  0.386485  0.373080  0.682413  1
  H  H36  1  0.432166  0.847765  0.348585  1
  H  H37  1  0.631009  0.601335  0.958850  1
  H  H38  1  0.868991  0.101335  0.958850  1
  H  H39  1  0.448865  0.927982  0.750000  1
  H  H40  1  0.031910  0.547723  0.926949  1
  H  H41  1  0.932166  0.652235  0.651415  1
  H  H42  1  0.292645  0.221021  0.317671  1
  H  H43  1  0.121614  0.037227  0.412403  1
  H  H44  1  0.622053  0.996806  0.866559  1
  H  H45  1  0.377947  0.003194  0.133441  1
  H  H46  1  0.567834  0.152235  0.848585  1
  H  H47  1  0.878386  0.962773  0.912403  1
  H  H48  1  0.432166  0.847765  0.151415  1
  H  H49  1  0.131009  0.898665  0.458850  1
  H  H50  1  0.878386  0.962773  0.587597  1
  H  H51  1  0.567834  0.152235  0.651415  1
  H  H52  1  0.872286  0.438242  0.250000  1
  H  H53  1  0.622053  0.996806  0.633441  1
  H  H54  1  0.531910  0.952277  0.073051  1
  H  H55  1  0.551135  0.072018  0.250000  1
  H  H56  1  0.886485  0.126920  0.182413  1
  H  H57  1  0.372286  0.061758  0.750000  1
  H  H58  1  0.368991  0.398665  0.458850  1
  H  H59  1  0.368991  0.398665  0.041150  1
  H  H60  1  0.613515  0.626920  0.182413  1
  H  H61  1  0.631009  0.601335  0.541150  1
  H  H62  1  0.932166  0.652235  0.848585  1
  H  H63  1  0.031910  0.547723  0.573051  1
  H  H64  1  0.207355  0.721021  0.317671  1
  H  H65  1  0.122053  0.503194  0.133441  1
  H  H66  1  0.968090  0.452277  0.426949  1
  H  H67  1  0.868991  0.101335  0.541150  1
  C  C68  1  0.536326  0.056733  0.644320  1
  C  C69  1  0.036326  0.443267  0.355680  1
  C  C70  1  0.036326  0.443267  0.144320  1
  C  C71  1  0.963674  0.556733  0.855680  1
  C  C72  1  0.963674  0.556733  0.644320  1
  C  C73  1  0.536326  0.056733  0.855680  1
  C  C74  1  0.463674  0.943267  0.144320  1
  C  C75  1  0.463674  0.943267  0.355680  1
  S  S76  1  0.204119  0.218882  0.941333  1
  S  S77  1  0.204119  0.218882  0.558667  1
  S  S78  1  0.704119  0.281118  0.441333  1
  S  S79  1  0.795881  0.781118  0.058667  1
  S  S80  1  0.795881  0.781118  0.441333  1
  S  S81  1  0.295881  0.718882  0.558667  1
  S  S82  1  0.704119  0.281118  0.058667  1
  S  S83  1  0.295881  0.718882  0.941333  1
  N  N84  1  0.965138  0.478622  0.250000  1
  N  N85  1  0.034862  0.521378  0.750000  1
  N  N86  1  0.534862  0.978622  0.250000  1
  N  N87  1  0.465138  0.021378  0.750000  1
  O  O88  1  0.083376  0.276949  0.611320  1
  O  O89  1  0.650290  0.767707  0.750000  1
  O  O90  1  0.681402  0.314506  0.937624  1
  O  O91  1  0.583376  0.223051  0.111320  1
  O  O92  1  0.916624  0.723051  0.111320  1
  O  O93  1  0.775355  0.895061  0.371412  1
  O  O94  1  0.819542  0.197854  0.066230  1
  O  O95  1  0.927050  0.086779  0.250000  1
  O  O96  1  0.180458  0.802146  0.933770  1
  O  O97  1  0.318598  0.685494  0.062376  1
  O  O98  1  0.180458  0.802146  0.566230  1
  O  O99  1  0.583376  0.223051  0.388680  1
  O  O100  1  0.318598  0.685494  0.437624  1
  O  O101  1  0.097627  0.950737  0.395480  1
  O  O102  1  0.402373  0.450737  0.104520  1
  O  O103  1  0.597627  0.549263  0.895480  1
  O  O104  1  0.681402  0.314506  0.562376  1
  O  O105  1  0.181402  0.185494  0.437624  1
  O  O106  1  0.572950  0.586779  0.250000  1
  O  O107  1  0.724645  0.395061  0.371412  1
  O  O108  1  0.402373  0.450737  0.395480  1
  O  O109  1  0.097627  0.950737  0.104520  1
  O  O110  1  0.680458  0.697854  0.433770  1
  O  O111  1  0.224645  0.104939  0.628588  1
  O  O112  1  0.083376  0.276949  0.888680  1
  O  O113  1  0.819542  0.197854  0.433770  1
  O  O114  1  0.416624  0.776949  0.611320  1
  O  O115  1  0.319542  0.302146  0.933770  1
  O  O116  1  0.902373  0.049263  0.895480  1
  O  O117  1  0.275355  0.604939  0.628588  1
  O  O118  1  0.818598  0.814506  0.937624  1
  O  O119  1  0.150290  0.732293  0.250000  1
  O  O120  1  0.597627  0.549263  0.604520  1
  O  O121  1  0.775355  0.895061  0.128588  1
  O  O122  1  0.849710  0.267707  0.750000  1
  O  O123  1  0.181402  0.185494  0.062376  1
  O  O124  1  0.072950  0.913221  0.750000  1
  O  O125  1  0.818598  0.814506  0.562376  1
  O  O126  1  0.275355  0.604939  0.871412  1
  O  O127  1  0.902373  0.049263  0.604520  1
  O  O128  1  0.319542  0.302146  0.566230  1
  O  O129  1  0.416624  0.776949  0.888680  1
  O  O130  1  0.916624  0.723051  0.388680  1
  O  O131  1  0.724645  0.395061  0.128588  1
  O  O132  1  0.427050  0.413221  0.750000  1
  O  O133  1  0.680458  0.697854  0.066230  1
  O  O134  1  0.224645  0.104939  0.871412  1
  O  O135  1  0.349710  0.232293  0.250000  1
