# generated using pymatgen
data_Ba3In2Br2O5
_symmetry_space_group_name_H-M   'P 1'
_cell_length_a   13.60382188
_cell_length_b   13.60382188
_cell_length_c   13.60382188
_cell_angle_alpha   161.69921295
_cell_angle_beta   161.69921295
_cell_angle_gamma   25.99368870
_symmetry_Int_Tables_number   1
_chemical_formula_structural   Ba3In2Br2O5
_chemical_formula_sum   'Ba3 In2 Br2 O5'
_cell_volume   248.14817650
_cell_formula_units_Z   1
loop_
 _symmetry_equiv_pos_site_id
 _symmetry_equiv_pos_as_xyz
  1  'x, y, z'
loop_
 _atom_site_type_symbol
 _atom_site_label
 _atom_site_symmetry_multiplicity
 _atom_site_fract_x
 _atom_site_fract_y
 _atom_site_fract_z
 _atom_site_occupancy
  Ba  Ba0  1  0.654295  0.654295  0.000000  1
  Ba  Ba1  1  0.345705  0.345705  0.000000  1
  Ba  Ba2  1  0.500000  0.500000  0.000000  1
  In  In3  1  0.920916  0.920916  0.000000  1
  In  In4  1  0.079084  0.079084  0.000000  1
  Br  Br5  1  0.795552  0.795552  0.000000  1
  Br  Br6  1  0.204448  0.204448  0.000000  1
  O  O7  1  0.410043  0.910043  0.500000  1
  O  O8  1  0.089957  0.589957  0.500000  1
  O  O9  1  0.910043  0.410043  0.500000  1
  O  O10  1  0.589957  0.089957  0.500000  1
  O  O11  1  0.000000  0.000000  0.000000  1
