# generated using pymatgen
data_LiV(PO3)4
_symmetry_space_group_name_H-M   'P 1'
_cell_length_a   7.32233279
_cell_length_b   7.32233279
_cell_length_c   9.98748710
_cell_angle_alpha   67.47764413
_cell_angle_beta   112.52235587
_cell_angle_gamma   109.59845896
_symmetry_Int_Tables_number   1
_chemical_formula_structural   LiV(PO3)4
_chemical_formula_sum   'Li2 V2 P8 O24'
_cell_volume   445.61177088
_cell_formula_units_Z   2
loop_
 _symmetry_equiv_pos_site_id
 _symmetry_equiv_pos_as_xyz
  1  'x, y, z'
loop_
 _atom_site_type_symbol
 _atom_site_label
 _atom_site_symmetry_multiplicity
 _atom_site_fract_x
 _atom_site_fract_y
 _atom_site_fract_z
 _atom_site_occupancy
  Li  Li0  1  0.032395  0.032395  0.750000  1
  Li  Li1  1  0.967605  0.967605  0.250000  1
  V  V2  1  0.500000  0.000000  0.000000  1
  V  V3  1  0.000000  0.500000  0.500000  1
  P  P4  1  0.317437  0.696948  0.303600  1
  P  P5  1  0.271144  0.259795  0.471818  1
  P  P6  1  0.682563  0.303052  0.696400  1
  P  P7  1  0.259795  0.271144  0.028182  1
  P  P8  1  0.303052  0.682563  0.803600  1
  P  P9  1  0.728856  0.740205  0.528182  1
  P  P10  1  0.740205  0.728856  0.971818  1
  P  P11  1  0.696948  0.317437  0.196400  1
  O  O12  1  0.192432  0.653963  0.649957  1
  O  O13  1  0.191356  0.315567  0.569150  1
  O  O14  1  0.325232  0.466469  0.339456  1
  O  O15  1  0.153114  0.091905  0.406786  1
  O  O16  1  0.297021  0.872528  0.827437  1
  O  O17  1  0.684433  0.808644  0.069150  1
  O  O18  1  0.494409  0.218741  0.569765  1
  O  O19  1  0.091905  0.153114  0.093214  1
  O  O20  1  0.218741  0.494409  0.930235  1
  O  O21  1  0.466469  0.325232  0.160544  1
  O  O22  1  0.346037  0.807568  0.149957  1
  O  O23  1  0.872528  0.297021  0.672563  1
  O  O24  1  0.127472  0.702979  0.327437  1
  O  O25  1  0.807568  0.346037  0.350043  1
  O  O26  1  0.533531  0.674768  0.839456  1
  O  O27  1  0.781259  0.505591  0.069765  1
  O  O28  1  0.653963  0.192432  0.850043  1
  O  O29  1  0.505591  0.781259  0.430235  1
  O  O30  1  0.315567  0.191356  0.930850  1
  O  O31  1  0.702979  0.127472  0.172563  1
  O  O32  1  0.846886  0.908095  0.593214  1
  O  O33  1  0.674768  0.533531  0.660544  1
  O  O34  1  0.808644  0.684433  0.430850  1
  O  O35  1  0.908095  0.846886  0.906786  1
