# generated using pymatgen
data_FeP2HO7
_symmetry_space_group_name_H-M   'P 1'
_cell_length_a   4.96486167
_cell_length_b   12.92191339
_cell_length_c   8.95646265
_cell_angle_alpha   90.00000000
_cell_angle_beta   114.80763817
_cell_angle_gamma   90.00000000
_symmetry_Int_Tables_number   1
_chemical_formula_structural   FeP2HO7
_chemical_formula_sum   'Fe4 P8 H4 O28'
_cell_volume   521.58265994
_cell_formula_units_Z   4
loop_
 _symmetry_equiv_pos_site_id
 _symmetry_equiv_pos_as_xyz
  1  'x, y, z'
loop_
 _atom_site_type_symbol
 _atom_site_label
 _atom_site_symmetry_multiplicity
 _atom_site_fract_x
 _atom_site_fract_y
 _atom_site_fract_z
 _atom_site_occupancy
  Fe  Fe0  1  0.090100  0.375316  0.992791  1
  Fe  Fe1  1  0.090100  0.124684  0.492791  1
  Fe  Fe2  1  0.909900  0.875316  0.507209  1
  Fe  Fe3  1  0.909900  0.624684  0.007209  1
  P  P4  1  0.775272  0.173376  0.746391  1
  P  P5  1  0.407258  0.459701  0.750672  1
  P  P6  1  0.592742  0.959701  0.749328  1
  P  P7  1  0.224728  0.673376  0.753609  1
  P  P8  1  0.775272  0.326624  0.246391  1
  P  P9  1  0.224728  0.826624  0.253609  1
  P  P10  1  0.592742  0.540299  0.249328  1
  P  P11  1  0.407258  0.040299  0.250672  1
  H  H12  1  0.436029  0.173903  0.101823  1
  H  H13  1  0.563971  0.826097  0.898177  1
  H  H14  1  0.563971  0.673903  0.398177  1
  H  H15  1  0.436029  0.326097  0.601823  1
  O  O16  1  0.524629  0.797910  0.396466  1
  O  O17  1  0.282049  0.521303  0.105029  1
  O  O18  1  0.984779  0.648264  0.810493  1
  O  O19  1  0.287009  0.929941  0.170299  1
  O  O20  1  0.569033  0.904478  0.896829  1
  O  O21  1  0.190270  0.091321  0.305553  1
  O  O22  1  0.809730  0.908679  0.694447  1
  O  O23  1  0.475371  0.202090  0.603534  1
  O  O24  1  0.287009  0.570059  0.670299  1
  O  O25  1  0.430967  0.095522  0.103171  1
  O  O26  1  0.717951  0.478697  0.894971  1
  O  O27  1  0.190270  0.408679  0.805553  1
  O  O28  1  0.569033  0.595522  0.396829  1
  O  O29  1  0.862681  0.246364  0.382422  1
  O  O30  1  0.717951  0.021303  0.394971  1
  O  O31  1  0.862681  0.253636  0.882422  1
  O  O32  1  0.524629  0.702090  0.896466  1
  O  O33  1  0.809730  0.591321  0.194447  1
  O  O34  1  0.137319  0.746364  0.117578  1
  O  O35  1  0.282049  0.978697  0.605029  1
  O  O36  1  0.137319  0.753636  0.617578  1
  O  O37  1  0.712991  0.070059  0.829701  1
  O  O38  1  0.015221  0.351736  0.189507  1
  O  O39  1  0.015221  0.148264  0.689507  1
  O  O40  1  0.984779  0.851736  0.310493  1
  O  O41  1  0.475371  0.297910  0.103534  1
  O  O42  1  0.712991  0.429941  0.329701  1
  O  O43  1  0.430967  0.404478  0.603171  1
