# generated using pymatgen
data_Nd10S14O
_symmetry_space_group_name_H-M   'P 1'
_cell_length_a   14.67889239
_cell_length_b   14.67889239
_cell_length_c   14.67889239
_cell_angle_alpha   117.88156659
_cell_angle_beta   117.88156659
_cell_angle_gamma   93.71014929
_symmetry_Int_Tables_number   1
_chemical_formula_structural   Nd10S14O
_chemical_formula_sum   'Nd40 S56 O4'
_cell_volume   2302.86870721
_cell_formula_units_Z   4
loop_
 _symmetry_equiv_pos_site_id
 _symmetry_equiv_pos_as_xyz
  1  'x, y, z'
loop_
 _atom_site_type_symbol
 _atom_site_label
 _atom_site_symmetry_multiplicity
 _atom_site_fract_x
 _atom_site_fract_y
 _atom_site_fract_z
 _atom_site_occupancy
  Nd  Nd0  1  0.115122  0.115122  0.730245  1
  Nd  Nd1  1  0.300910  0.706053  0.850448  1
  Nd  Nd2  1  0.793947  0.199090  0.149552  1
  Nd  Nd3  1  0.865122  0.634878  0.500000  1
  Nd  Nd4  1  0.800910  0.950462  0.594857  1
  Nd  Nd5  1  0.176271  0.814831  0.625849  1
  Nd  Nd6  1  0.185169  0.811018  0.361440  1
  Nd  Nd7  1  0.449090  0.543947  0.649552  1
  Nd  Nd8  1  0.456053  0.105605  0.905143  1
  Nd  Nd9  1  0.561018  0.699578  0.125849  1
  Nd  Nd10  1  0.061018  0.935169  0.861440  1
  Nd  Nd11  1  0.700462  0.605605  0.649552  1
  Nd  Nd12  1  0.949578  0.311018  0.625849  1
  Nd  Nd13  1  0.894395  0.799538  0.350448  1
  Nd  Nd14  1  0.134878  0.365122  0.500000  1
  Nd  Nd15  1  0.365122  0.865122  0.230245  1
  Nd  Nd16  1  0.688982  0.314831  0.638560  1
  Nd  Nd17  1  0.634878  0.134878  0.769755  1
  Nd  Nd18  1  0.549538  0.699090  0.405143  1
  Nd  Nd19  1  0.064831  0.926271  0.125849  1
  Nd  Nd20  1  0.300422  0.426271  0.861440  1
  Nd  Nd21  1  0.355605  0.206053  0.405143  1
  Nd  Nd22  1  0.685169  0.323729  0.374151  1
  Nd  Nd23  1  0.564831  0.438982  0.138560  1
  Nd  Nd24  1  0.676271  0.050422  0.361440  1
  Nd  Nd25  1  0.855605  0.450462  0.149552  1
  Nd  Nd26  1  0.200462  0.550910  0.094857  1
  Nd  Nd27  1  0.956053  0.050910  0.350448  1
  Nd  Nd28  1  0.573729  0.435169  0.874151  1
  Nd  Nd29  1  0.394395  0.043947  0.094857  1
  Nd  Nd30  1  0.049538  0.644395  0.850448  1
  Nd  Nd31  1  0.188982  0.550422  0.374151  1
  Nd  Nd32  1  0.800422  0.938982  0.874151  1
  Nd  Nd33  1  0.615122  0.884878  0.000000  1
  Nd  Nd34  1  0.384878  0.384878  0.269755  1
  Nd  Nd35  1  0.449578  0.823729  0.638560  1
  Nd  Nd36  1  0.884878  0.615122  0.000000  1
  Nd  Nd37  1  0.073729  0.199578  0.138560  1
  Nd  Nd38  1  0.293947  0.144395  0.594857  1
  Nd  Nd39  1  0.949090  0.299538  0.905143  1
  S  S40  1  0.975900  0.834742  0.217608  1
  S  S41  1  0.988761  0.646105  0.391874  1
  S  S42  1  0.853895  0.511239  0.608126  1
  S  S43  1  0.854491  0.188259  0.979313  1
  S  S44  1  0.477151  0.875000  0.102151  1
  S  S45  1  0.811741  0.791053  0.666232  1
  S  S46  1  0.754231  0.146105  0.657344  1
  S  S47  1  0.846886  0.004231  0.108126  1
  S  S48  1  0.895509  0.061741  0.520687  1
  S  S49  1  0.125178  0.958947  0.520687  1
  S  S50  1  0.896105  0.738761  0.891874  1
  S  S51  1  0.124822  0.145509  0.333768  1
  S  S52  1  0.632866  0.915258  0.641158  1
  S  S53  1  0.665258  0.524100  0.782392  1
  S  S54  1  0.495769  0.653114  0.891874  1
  S  S55  1  0.774100  0.415258  0.282392  1
  S  S56  1  0.475900  0.258292  0.141158  1
  S  S57  1  0.396105  0.504231  0.157344  1
  S  S58  1  0.624822  0.291053  0.979313  1
  S  S59  1  0.274100  0.991708  0.358842  1
  S  S60  1  0.254231  0.596886  0.608126  1
  S  S61  1  0.625000  0.022849  0.897849  1
  S  S62  1  0.241708  0.024100  0.858842  1
  S  S63  1  0.508292  0.225900  0.641158  1
  S  S64  1  0.617134  0.758292  0.782392  1
  S  S65  1  0.488761  0.096886  0.342656  1
  S  S66  1  0.541053  0.374822  0.479313  1
  S  S67  1  0.311741  0.645509  0.020687  1
  S  S68  1  0.584742  0.867134  0.358842  1
  S  S69  1  0.125000  0.727151  0.102151  1
  S  S70  1  0.761239  0.603895  0.108126  1
  S  S71  1  0.008292  0.367134  0.282392  1
  S  S72  1  0.084742  0.725900  0.717608  1
  S  S73  1  0.977151  0.875000  0.602151  1
  S  S74  1  0.708947  0.688259  0.333768  1
  S  S75  1  0.625178  0.104491  0.166232  1
  S  S76  1  0.395509  0.874822  0.833768  1
  S  S77  1  0.346886  0.238761  0.842656  1
  S  S78  1  0.995769  0.103895  0.842656  1
  S  S79  1  0.208947  0.875178  0.020687  1
  S  S80  1  0.772849  0.375000  0.897849  1
  S  S81  1  0.353895  0.745769  0.342656  1
  S  S82  1  0.938259  0.458947  0.833768  1
  S  S83  1  0.117134  0.334742  0.858842  1
  S  S84  1  0.132866  0.491708  0.717608  1
  S  S85  1  0.165258  0.382866  0.141158  1
  S  S86  1  0.125000  0.227151  0.602151  1
  S  S87  1  0.272849  0.375000  0.397849  1
  S  S88  1  0.041053  0.561741  0.166232  1
  S  S89  1  0.903114  0.245769  0.391874  1
  S  S90  1  0.625000  0.522849  0.397849  1
  S  S91  1  0.403114  0.011239  0.657344  1
  S  S92  1  0.741708  0.882866  0.217608  1
  S  S93  1  0.261239  0.153114  0.157344  1
  S  S94  1  0.354491  0.375178  0.666232  1
  S  S95  1  0.438259  0.604491  0.479313  1
  O  O96  1  1.000000  1.000000  0.000000  1
  O  O97  1  0.250000  0.750000  0.500000  1
  O  O98  1  0.750000  0.250000  0.500000  1
  O  O99  1  0.500000  0.500000  0.000000  1
