# generated using pymatgen
data_KPr(SO4)2
_symmetry_space_group_name_H-M   'P 1'
_cell_length_a   5.50169992
_cell_length_b   7.06333783
_cell_length_c   8.63155183
_cell_angle_alpha   85.82502092
_cell_angle_beta   88.62857546
_cell_angle_gamma   88.39206030
_symmetry_Int_Tables_number   1
_chemical_formula_structural   KPr(SO4)2
_chemical_formula_sum   'K2 Pr2 S4 O16'
_cell_volume   334.32280835
_cell_formula_units_Z   2
loop_
 _symmetry_equiv_pos_site_id
 _symmetry_equiv_pos_as_xyz
  1  'x, y, z'
loop_
 _atom_site_type_symbol
 _atom_site_label
 _atom_site_symmetry_multiplicity
 _atom_site_fract_x
 _atom_site_fract_y
 _atom_site_fract_z
 _atom_site_occupancy
  K  K0  1  0.247429  0.652772  0.313176  1
  K  K1  1  0.752571  0.347228  0.686824  1
  Pr  Pr2  1  0.812039  0.181197  0.205711  1
  Pr  Pr3  1  0.187961  0.818803  0.794289  1
  S  S4  1  0.720930  0.700734  0.046504  1
  S  S5  1  0.279070  0.299266  0.953496  1
  S  S6  1  0.257279  0.173161  0.430187  1
  S  S7  1  0.742721  0.826839  0.569813  1
  O  O8  1  0.271702  0.077308  0.587368  1
  O  O9  1  0.223321  0.038057  0.307446  1
  O  O10  1  0.776679  0.961943  0.692554  1
  O  O11  1  0.728298  0.922692  0.412632  1
  O  O12  1  0.531914  0.228078  0.987915  1
  O  O13  1  0.840090  0.627789  0.905184  1
  O  O14  1  0.159910  0.372211  0.094816  1
  O  O15  1  0.961530  0.693956  0.577210  1
  O  O16  1  0.711675  0.550744  0.175481  1
  O  O17  1  0.038470  0.306044  0.422790  1
  O  O18  1  0.481791  0.283850  0.394358  1
  O  O19  1  0.870466  0.862630  0.089972  1
  O  O20  1  0.129534  0.137370  0.910028  1
  O  O21  1  0.288325  0.449256  0.824519  1
  O  O22  1  0.468086  0.771922  0.012085  1
  O  O23  1  0.518209  0.716150  0.605642  1
