# generated using pymatgen
data_Mn(PO3)3
_symmetry_space_group_name_H-M   'P 1'
_cell_length_a   6.46537187
_cell_length_b   9.90166892
_cell_length_c   10.89400069
_cell_angle_alpha   90.00000000
_cell_angle_beta   90.00000000
_cell_angle_gamma   90.00000000
_symmetry_Int_Tables_number   1
_chemical_formula_structural   Mn(PO3)3
_chemical_formula_sum   'Mn4 P12 O36'
_cell_volume   697.41182789
_cell_formula_units_Z   4
loop_
 _symmetry_equiv_pos_site_id
 _symmetry_equiv_pos_as_xyz
  1  'x, y, z'
loop_
 _atom_site_type_symbol
 _atom_site_label
 _atom_site_symmetry_multiplicity
 _atom_site_fract_x
 _atom_site_fract_y
 _atom_site_fract_z
 _atom_site_occupancy
  Mn  Mn0  1  0.500000  0.000000  0.000000  1
  Mn  Mn1  1  0.500000  0.500000  0.500000  1
  Mn  Mn2  1  0.000000  0.000000  0.500000  1
  Mn  Mn3  1  0.000000  0.500000  0.000000  1
  P  P4  1  0.867315  0.714327  0.364410  1
  P  P5  1  0.632685  0.214327  0.364410  1
  P  P6  1  0.367315  0.285673  0.864410  1
  P  P7  1  0.250000  0.084943  0.250000  1
  P  P8  1  0.867315  0.214327  0.135590  1
  P  P9  1  0.750000  0.915057  0.750000  1
  P  P10  1  0.132685  0.785673  0.864410  1
  P  P11  1  0.367315  0.785673  0.635590  1
  P  P12  1  0.250000  0.584943  0.250000  1
  P  P13  1  0.132685  0.285673  0.635590  1
  P  P14  1  0.750000  0.415057  0.750000  1
  P  P15  1  0.632685  0.714327  0.135590  1
  O  O16  1  0.250000  0.214933  0.750000  1
  O  O17  1  0.390093  0.179979  0.963716  1
  O  O18  1  0.732254  0.085151  0.401107  1
  O  O19  1  0.232254  0.914849  0.901107  1
  O  O20  1  0.349242  0.997599  0.153682  1
  O  O21  1  0.109907  0.179979  0.536284  1
  O  O22  1  0.594285  0.809392  0.691740  1
  O  O23  1  0.094285  0.190608  0.191740  1
  O  O24  1  0.849242  0.502401  0.846318  1
  O  O25  1  0.650758  0.002401  0.846318  1
  O  O26  1  0.250000  0.714933  0.750000  1
  O  O27  1  0.767746  0.585151  0.401107  1
  O  O28  1  0.750000  0.785067  0.250000  1
  O  O29  1  0.650758  0.502401  0.653682  1
  O  O30  1  0.150758  0.997599  0.346318  1
  O  O31  1  0.849242  0.002401  0.653682  1
  O  O32  1  0.405715  0.190608  0.308260  1
  O  O33  1  0.267746  0.914849  0.598893  1
  O  O34  1  0.594285  0.309392  0.808260  1
  O  O35  1  0.405715  0.690608  0.191740  1
  O  O36  1  0.609907  0.320021  0.463716  1
  O  O37  1  0.905715  0.809392  0.808260  1
  O  O38  1  0.905715  0.309392  0.691740  1
  O  O39  1  0.767746  0.085151  0.098893  1
  O  O40  1  0.349242  0.497599  0.346318  1
  O  O41  1  0.109907  0.679979  0.963716  1
  O  O42  1  0.890093  0.820021  0.463716  1
  O  O43  1  0.732254  0.585151  0.098893  1
  O  O44  1  0.094285  0.690608  0.308260  1
  O  O45  1  0.150758  0.497599  0.153682  1
  O  O46  1  0.232254  0.414849  0.598893  1
  O  O47  1  0.390093  0.679979  0.536284  1
  O  O48  1  0.609907  0.820021  0.036284  1
  O  O49  1  0.267746  0.414849  0.901107  1
  O  O50  1  0.890093  0.320021  0.036284  1
  O  O51  1  0.750000  0.285067  0.250000  1
