# generated using pymatgen
data_Pb3SO6
_symmetry_space_group_name_H-M   'P 1'
_cell_length_a   5.89176088
_cell_length_b   7.43618681
_cell_length_c   8.32526950
_cell_angle_alpha   103.75733199
_cell_angle_beta   91.05770731
_cell_angle_gamma   91.58282613
_symmetry_Int_Tables_number   1
_chemical_formula_structural   Pb3SO6
_chemical_formula_sum   'Pb6 S2 O12'
_cell_volume   354.03176015
_cell_formula_units_Z   2
loop_
 _symmetry_equiv_pos_site_id
 _symmetry_equiv_pos_as_xyz
  1  'x, y, z'
loop_
 _atom_site_type_symbol
 _atom_site_label
 _atom_site_symmetry_multiplicity
 _atom_site_fract_x
 _atom_site_fract_y
 _atom_site_fract_z
 _atom_site_occupancy
  Pb  Pb0  1  0.742690  0.608815  0.413513  1
  Pb  Pb1  1  0.252179  0.923300  0.621664  1
  Pb  Pb2  1  0.232932  0.765024  0.157519  1
  Pb  Pb3  1  0.767068  0.234976  0.842481  1
  Pb  Pb4  1  0.257310  0.391185  0.586487  1
  Pb  Pb5  1  0.747821  0.076700  0.378336  1
  S  S6  1  0.264892  0.301144  0.144111  1
  S  S7  1  0.735108  0.698856  0.855889  1
  O  O8  1  0.080189  0.441855  0.172619  1
  O  O9  1  0.511966  0.595225  0.841784  1
  O  O10  1  0.993361  0.826698  0.378834  1
  O  O11  1  0.919811  0.558145  0.827381  1
  O  O12  1  0.251476  0.193839  0.277214  1
  O  O13  1  0.488034  0.404775  0.158216  1
  O  O14  1  0.493682  0.819600  0.380241  1
  O  O15  1  0.233874  0.172137  0.979949  1
  O  O16  1  0.006639  0.173302  0.621166  1
  O  O17  1  0.766126  0.827863  0.020051  1
  O  O18  1  0.748524  0.806161  0.722786  1
  O  O19  1  0.506318  0.180400  0.619759  1
