# generated using pymatgen
data_NaLa(SO4)2
_symmetry_space_group_name_H-M   'P 1'
_cell_length_a   6.49764339
_cell_length_b   6.84179354
_cell_length_c   7.16575520
_cell_angle_alpha   86.52723269
_cell_angle_beta   88.87799716
_cell_angle_gamma   78.21156768
_symmetry_Int_Tables_number   1
_chemical_formula_structural   NaLa(SO4)2
_chemical_formula_sum   'Na2 La2 S4 O16'
_cell_volume   311.25757861
_cell_formula_units_Z   2
loop_
 _symmetry_equiv_pos_site_id
 _symmetry_equiv_pos_as_xyz
  1  'x, y, z'
loop_
 _atom_site_type_symbol
 _atom_site_label
 _atom_site_symmetry_multiplicity
 _atom_site_fract_x
 _atom_site_fract_y
 _atom_site_fract_z
 _atom_site_occupancy
  Na  Na0  1  0.422520  0.781162  0.345487  1
  Na  Na1  1  0.577480  0.218838  0.654513  1
  La  La2  1  0.119232  0.729835  0.823103  1
  La  La3  1  0.880768  0.270165  0.176897  1
  S  S4  1  0.901561  0.795762  0.321624  1
  S  S5  1  0.620033  0.703829  0.837518  1
  S  S6  1  0.098439  0.204238  0.678376  1
  S  S7  1  0.379967  0.296171  0.162482  1
  O  O8  1  0.063941  0.745390  0.469691  1
  O  O9  1  0.197798  0.376663  0.704555  1
  O  O10  1  0.801051  0.544382  0.909296  1
  O  O11  1  0.736773  0.972753  0.364530  1
  O  O12  1  0.936059  0.254610  0.530309  1
  O  O13  1  0.508639  0.627680  0.685889  1
  O  O14  1  0.263227  0.027247  0.635470  1
  O  O15  1  0.198949  0.455618  0.090704  1
  O  O16  1  0.460606  0.761534  0.986773  1
  O  O17  1  0.006491  0.858667  0.144226  1
  O  O18  1  0.802202  0.623337  0.295445  1
  O  O19  1  0.279624  0.128511  0.230438  1
  O  O20  1  0.993509  0.141333  0.855774  1
  O  O21  1  0.491361  0.372320  0.314111  1
  O  O22  1  0.539394  0.238466  0.013227  1
  O  O23  1  0.720376  0.871489  0.769562  1
