# generated using pymatgen
data_KZnB(PO4)2
_symmetry_space_group_name_H-M   'P 1'
_cell_length_a   9.11501114
_cell_length_b   9.11501114
_cell_length_c   8.52347172
_cell_angle_alpha   89.07037000
_cell_angle_beta   90.92963000
_cell_angle_gamma   89.49231100
_symmetry_Int_Tables_number   1
_chemical_formula_structural   KZnB(PO4)2
_chemical_formula_sum   'K4 Zn4 B4 P8 O32'
_cell_volume   707.94335602
_cell_formula_units_Z   4
loop_
 _symmetry_equiv_pos_site_id
 _symmetry_equiv_pos_as_xyz
  1  'x, y, z'
loop_
 _atom_site_type_symbol
 _atom_site_label
 _atom_site_symmetry_multiplicity
 _atom_site_fract_x
 _atom_site_fract_y
 _atom_site_fract_z
 _atom_site_occupancy
  K  K0  1  0.030508  0.030508  0.750000  1
  K  K1  1  0.969492  0.969492  0.250000  1
  K  K2  1  0.597704  0.597704  0.250000  1
  K  K3  1  0.402296  0.402296  0.750000  1
  Zn  Zn4  1  0.066085  0.313645  0.438782  1
  Zn  Zn5  1  0.313645  0.066085  0.061218  1
  Zn  Zn6  1  0.686355  0.933915  0.938782  1
  Zn  Zn7  1  0.933915  0.686355  0.561218  1
  B  B8  1  0.423951  0.795450  0.573705  1
  B  B9  1  0.795450  0.423951  0.926295  1
  B  B10  1  0.576049  0.204550  0.426295  1
  B  B11  1  0.204550  0.576049  0.073705  1
  P  P12  1  0.947214  0.689367  0.940644  1
  P  P13  1  0.225815  0.611330  0.407479  1
  P  P14  1  0.388670  0.774185  0.907479  1
  P  P15  1  0.611330  0.225815  0.092521  1
  P  P16  1  0.310633  0.052786  0.440644  1
  P  P17  1  0.774185  0.388670  0.592521  1
  P  P18  1  0.052786  0.310633  0.059356  1
  P  P19  1  0.689367  0.947214  0.559356  1
  O  O20  1  0.734470  0.428137  0.764793  1
  O  O21  1  0.719946  0.097454  0.084499  1
  O  O22  1  0.329447  0.926067  0.566614  1
  O  O23  1  0.530585  0.801317  0.003020  1
  O  O24  1  0.824690  0.575187  0.980664  1
  O  O25  1  0.175310  0.424813  0.019336  1
  O  O26  1  0.329728  0.992200  0.276741  1
  O  O27  1  0.007800  0.670272  0.776741  1
  O  O28  1  0.469415  0.198683  0.996980  1
  O  O29  1  0.882743  0.842230  0.970634  1
  O  O30  1  0.265530  0.571863  0.235207  1
  O  O31  1  0.428137  0.734470  0.735207  1
  O  O32  1  0.902546  0.280054  0.584499  1
  O  O33  1  0.670553  0.073933  0.433386  1
  O  O34  1  0.323346  0.625797  0.968906  1
  O  O35  1  0.575187  0.824690  0.519336  1
  O  O36  1  0.992200  0.329728  0.223259  1
  O  O37  1  0.625797  0.323346  0.531094  1
  O  O38  1  0.926067  0.329447  0.933386  1
  O  O39  1  0.842230  0.882743  0.529366  1
  O  O40  1  0.571863  0.265530  0.264793  1
  O  O41  1  0.198683  0.469415  0.503020  1
  O  O42  1  0.374203  0.676654  0.468906  1
  O  O43  1  0.670272  0.007800  0.723259  1
  O  O44  1  0.801317  0.530585  0.496980  1
  O  O45  1  0.157770  0.117257  0.470634  1
  O  O46  1  0.073933  0.670553  0.066614  1
  O  O47  1  0.676654  0.374203  0.031094  1
  O  O48  1  0.117257  0.157770  0.029366  1
  O  O49  1  0.280054  0.902546  0.915501  1
  O  O50  1  0.097454  0.719946  0.415501  1
  O  O51  1  0.424813  0.175310  0.480664  1
