# generated using pymatgen
data_Li3Mn3(PO4)4
_symmetry_space_group_name_H-M   'P 1'
_cell_length_a   8.15786457
_cell_length_b   8.94412127
_cell_length_c   13.20023595
_cell_angle_alpha   84.16998255
_cell_angle_beta   87.58666777
_cell_angle_gamma   88.44687090
_symmetry_Int_Tables_number   1
_chemical_formula_structural   Li3Mn3(PO4)4
_chemical_formula_sum   'Li9 Mn9 P12 O48'
_cell_volume   957.07016836
_cell_formula_units_Z   3
loop_
 _symmetry_equiv_pos_site_id
 _symmetry_equiv_pos_as_xyz
  1  'x, y, z'
loop_
 _atom_site_type_symbol
 _atom_site_label
 _atom_site_symmetry_multiplicity
 _atom_site_fract_x
 _atom_site_fract_y
 _atom_site_fract_z
 _atom_site_occupancy
  Li  Li0  1  0.866228  0.766630  0.843982  1
  Li  Li1  1  0.133028  0.904651  0.492566  1
  Li  Li2  1  0.640448  0.246624  0.838661  1
  Li  Li3  1  0.635385  0.591758  0.505999  1
  Li  Li4  1  0.643704  0.932061  0.165643  1
  Li  Li5  1  0.364028  0.077753  0.825850  1
  Li  Li6  1  0.362959  0.414685  0.499068  1
  Li  Li7  1  0.867883  0.419481  0.166241  1
  Li  Li8  1  0.130577  0.242891  0.162882  1
  Mn  Mn9  1  0.513923  0.671699  0.834664  1
  Mn  Mn10  1  0.486809  0.995387  0.498714  1
  Mn  Mn11  1  0.148214  0.559144  0.831765  1
  Mn  Mn12  1  0.994607  0.149984  0.829859  1
  Mn  Mn13  1  0.003630  0.517557  0.506044  1
  Mn  Mn14  1  0.995478  0.838628  0.166713  1
  Mn  Mn15  1  0.364618  0.732142  0.177435  1
  Mn  Mn16  1  0.849750  0.109479  0.501309  1
  Mn  Mn17  1  0.506967  0.321741  0.161501  1
  P  P18  1  0.197000  0.853760  0.943731  1
  P  P19  1  0.698090  0.971249  0.724335  1
  P  P20  1  0.314580  0.353780  0.949292  1
  P  P21  1  0.301698  0.696065  0.608456  1
  P  P22  1  0.816431  0.473561  0.725844  1
  P  P23  1  0.806349  0.813729  0.389377  1
  P  P24  1  0.181066  0.196082  0.608726  1
  P  P25  1  0.179641  0.521657  0.282255  1
  P  P26  1  0.683966  0.313605  0.382089  1
  P  P27  1  0.695467  0.632481  0.058169  1
  P  P28  1  0.301395  0.031237  0.276264  1
  P  P29  1  0.818813  0.139156  0.052863  1
  O  O30  1  0.870708  0.974507  0.767238  1
  O  O31  1  0.374716  0.836520  0.898599  1
  O  O32  1  0.078743  0.745142  0.903782  1
  O  O33  1  0.700362  0.677830  0.942920  1
  O  O34  1  0.644949  0.802481  0.745466  1
  O  O35  1  0.353435  0.527113  0.908105  1
  O  O36  1  0.355625  0.865095  0.587469  1
  O  O37  1  0.291435  0.669447  0.728146  1
  O  O38  1  0.940222  0.576130  0.771261  1
  O  O39  1  0.298169  0.993904  0.392606  1
  O  O40  1  0.922101  0.922167  0.432056  1
  O  O41  1  0.643093  0.495878  0.775102  1
  O  O42  1  0.135564  0.357474  0.906097  1
  O  O43  1  0.628373  0.826963  0.435136  1
  O  O44  1  0.130133  0.693735  0.563937  1
  O  O45  1  0.427758  0.245209  0.901332  1
  O  O46  1  0.818342  0.164181  0.933180  1
  O  O47  1  0.423770  0.585714  0.567579  1
  O  O48  1  0.815838  0.513770  0.607923  1
  O  O49  1  0.864252  0.304980  0.747990  1
  O  O50  1  0.423991  0.919503  0.226802  1
  O  O51  1  0.808135  0.843237  0.270705  1
  O  O52  1  0.862509  0.645977  0.417154  1
  O  O53  1  0.144388  0.020735  0.915975  1
  O  O54  1  0.867298  0.966605  0.077089  1
  O  O55  1  0.132785  0.365552  0.587109  1
  O  O56  1  0.180812  0.155300  0.726240  1
  O  O57  1  0.576242  0.081274  0.765703  1
  O  O58  1  0.146297  0.700037  0.251342  1
  O  O59  1  0.184349  0.499006  0.399352  1
  O  O60  1  0.570611  0.423872  0.428707  1
  O  O61  1  0.194941  0.823527  0.063948  1
  O  O62  1  0.569846  0.742909  0.108599  1
  O  O63  1  0.862431  0.310581  0.426216  1
  O  O64  1  0.354121  0.175439  0.559350  1
  O  O65  1  0.860405  0.639298  0.108093  1
  O  O66  1  0.360512  0.518350  0.232558  1
  O  O67  1  0.057259  0.094581  0.562472  1
  O  O68  1  0.705743  0.998948  0.604291  1
  O  O69  1  0.066556  0.421360  0.236799  1
  O  O70  1  0.689589  0.327001  0.265484  1
  O  O71  1  0.644505  0.140751  0.424720  1
  O  O72  1  0.630594  0.468347  0.076507  1
  O  O73  1  0.369960  0.193884  0.252429  1
  O  O74  1  0.310392  0.338546  0.066126  1
  O  O75  1  0.932321  0.244702  0.095391  1
  O  O76  1  0.639479  0.147841  0.095605  1
  O  O77  1  0.133613  0.025946  0.229013  1
