# generated using pymatgen
data_La4B4Cl5
_symmetry_space_group_name_H-M   'P 1'
_cell_length_a   8.66856307
_cell_length_b   8.66856307
_cell_length_c   9.37609037
_cell_angle_alpha   60.42926672
_cell_angle_beta   119.57073328
_cell_angle_gamma   151.36617364
_symmetry_Int_Tables_number   1
_chemical_formula_structural   La4B4Cl5
_chemical_formula_sum   'La4 B4 Cl5'
_cell_volume   290.55820917
_cell_formula_units_Z   1
loop_
 _symmetry_equiv_pos_site_id
 _symmetry_equiv_pos_as_xyz
  1  'x, y, z'
loop_
 _atom_site_type_symbol
 _atom_site_label
 _atom_site_symmetry_multiplicity
 _atom_site_fract_x
 _atom_site_fract_y
 _atom_site_fract_z
 _atom_site_occupancy
  La  La0  1  0.160062  0.839938  0.236727  1
  La  La1  1  0.560448  0.439552  0.797649  1
  La  La2  1  0.439552  0.560448  0.202351  1
  La  La3  1  0.839938  0.160062  0.763273  1
  B  B4  1  0.023977  0.976023  0.923179  1
  B  B5  1  0.685367  0.685367  0.000000  1
  B  B6  1  0.976023  0.023977  0.076821  1
  B  B7  1  0.314633  0.314633  0.000000  1
  Cl  Cl8  1  0.247411  0.752589  0.848326  1
  Cl  Cl9  1  0.000000  0.000000  0.500000  1
  Cl  Cl10  1  0.351193  0.648807  0.556660  1
  Cl  Cl11  1  0.648807  0.351193  0.443340  1
  Cl  Cl12  1  0.752589  0.247411  0.151674  1
