# generated using pymatgen
data_Ga2PbO4
_symmetry_space_group_name_H-M   'P 1'
_cell_length_a   5.45248865
_cell_length_b   5.45248865
_cell_length_c   8.72008104
_cell_angle_alpha   89.98584556
_cell_angle_beta   90.01415444
_cell_angle_gamma   58.61755086
_symmetry_Int_Tables_number   1
_chemical_formula_structural   Ga2PbO4
_chemical_formula_sum   'Ga4 Pb2 O8'
_cell_volume   221.31994504
_cell_formula_units_Z   2
loop_
 _symmetry_equiv_pos_site_id
 _symmetry_equiv_pos_as_xyz
  1  'x, y, z'
loop_
 _atom_site_type_symbol
 _atom_site_label
 _atom_site_symmetry_multiplicity
 _atom_site_fract_x
 _atom_site_fract_y
 _atom_site_fract_z
 _atom_site_occupancy
  Ga  Ga0  1  0.709349  0.639977  0.941489  1
  Ga  Ga1  1  0.704251  0.632843  0.546041  1
  Ga  Ga2  1  0.367157  0.295749  0.046041  1
  Ga  Ga3  1  0.360023  0.290651  0.441489  1
  Pb  Pb4  1  0.027537  0.031701  0.743494  1
  Pb  Pb5  1  0.968299  0.972463  0.243494  1
  O  O6  1  0.675630  0.331523  0.999047  1
  O  O7  1  0.007767  0.631041  0.052549  1
  O  O8  1  0.368959  0.992233  0.552549  1
  O  O9  1  0.668477  0.324370  0.499047  1
  O  O10  1  0.001547  0.623359  0.435336  1
  O  O11  1  0.863227  0.516863  0.743473  1
  O  O12  1  0.483137  0.136773  0.243473  1
  O  O13  1  0.376641  0.998453  0.935336  1
