# generated using pymatgen
data_MnP4
_symmetry_space_group_name_H-M   'P 1'
_cell_length_a   5.84426079
_cell_length_b   5.84426079
_cell_length_c   21.78562011
_cell_angle_alpha   85.86012323
_cell_angle_beta   94.13987677
_cell_angle_gamma   128.29294318
_symmetry_Int_Tables_number   1
_chemical_formula_structural   MnP4
_chemical_formula_sum   'Mn8 P32'
_cell_volume   582.12375003
_cell_formula_units_Z   8
loop_
 _symmetry_equiv_pos_site_id
 _symmetry_equiv_pos_as_xyz
  1  'x, y, z'
loop_
 _atom_site_type_symbol
 _atom_site_label
 _atom_site_symmetry_multiplicity
 _atom_site_fract_x
 _atom_site_fract_y
 _atom_site_fract_z
 _atom_site_occupancy
  Mn  Mn0  1  0.882872  0.514487  0.818244  1
  Mn  Mn1  1  0.807885  0.956808  0.570379  1
  Mn  Mn2  1  0.956808  0.807885  0.929621  1
  Mn  Mn3  1  0.514487  0.882872  0.681756  1
  Mn  Mn4  1  0.043192  0.192115  0.070379  1
  Mn  Mn5  1  0.485513  0.117128  0.318244  1
  Mn  Mn6  1  0.192115  0.043192  0.429621  1
  Mn  Mn7  1  0.117128  0.485513  0.181756  1
  P  P8  1  0.007253  0.955517  0.829743  1
  P  P9  1  0.965033  0.413225  0.549211  1
  P  P10  1  0.571885  0.637341  0.199991  1
  P  P11  1  0.637341  0.571885  0.300009  1
  P  P12  1  0.413225  0.965033  0.950789  1
  P  P13  1  0.659213  0.501360  0.574382  1
  P  P14  1  0.178013  0.638004  0.083530  1
  P  P15  1  0.753942  0.905558  0.463460  1
  P  P16  1  0.050911  0.706625  0.715861  1
  P  P17  1  0.498640  0.340787  0.074382  1
  P  P18  1  0.044483  0.992747  0.329743  1
  P  P19  1  0.329637  0.651102  0.830690  1
  P  P20  1  0.670363  0.348898  0.169310  1
  P  P21  1  0.348898  0.670363  0.330690  1
  P  P22  1  0.992747  0.044483  0.170257  1
  P  P23  1  0.362659  0.428115  0.699991  1
  P  P24  1  0.638004  0.178013  0.416470  1
  P  P25  1  0.651102  0.329637  0.669310  1
  P  P26  1  0.094442  0.246058  0.963460  1
  P  P27  1  0.246058  0.094442  0.536540  1
  P  P28  1  0.706625  0.050911  0.784139  1
  P  P29  1  0.293375  0.949089  0.215861  1
  P  P30  1  0.949089  0.293375  0.284139  1
  P  P31  1  0.821987  0.361996  0.916470  1
  P  P32  1  0.955517  0.007253  0.670257  1
  P  P33  1  0.428115  0.362659  0.800009  1
  P  P34  1  0.361996  0.821987  0.583530  1
  P  P35  1  0.340787  0.498640  0.425618  1
  P  P36  1  0.905558  0.753942  0.036540  1
  P  P37  1  0.586775  0.034967  0.049211  1
  P  P38  1  0.034967  0.586775  0.450789  1
  P  P39  1  0.501360  0.659213  0.925618  1
