# generated using pymatgen
data_K4Sn(TeSe)2
_symmetry_space_group_name_H-M   'P 1'
_cell_length_a   8.56550886
_cell_length_b   10.83446247
_cell_length_c   15.24578970
_cell_angle_alpha   90.00000000
_cell_angle_beta   90.00000000
_cell_angle_gamma   90.00000000
_symmetry_Int_Tables_number   1
_chemical_formula_structural   K4Sn(TeSe)2
_chemical_formula_sum   'K16 Sn4 Te8 Se8'
_cell_volume   1414.85020813
_cell_formula_units_Z   4
loop_
 _symmetry_equiv_pos_site_id
 _symmetry_equiv_pos_as_xyz
  1  'x, y, z'
loop_
 _atom_site_type_symbol
 _atom_site_label
 _atom_site_symmetry_multiplicity
 _atom_site_fract_x
 _atom_site_fract_y
 _atom_site_fract_z
 _atom_site_occupancy
  K  K0  1  0.500000  0.500000  0.500000  1
  K  K1  1  0.144915  0.463156  0.271346  1
  K  K2  1  0.144915  0.036844  0.271346  1
  K  K3  1  0.981758  0.750000  0.435070  1
  K  K4  1  0.018242  0.250000  0.564930  1
  K  K5  1  0.644915  0.963156  0.228654  1
  K  K6  1  0.355085  0.036844  0.771346  1
  K  K7  1  0.855085  0.963156  0.728654  1
  K  K8  1  0.355085  0.463156  0.771346  1
  K  K9  1  0.000000  0.500000  0.000000  1
  K  K10  1  0.481758  0.250000  0.064930  1
  K  K11  1  0.644915  0.536844  0.228654  1
  K  K12  1  0.518242  0.750000  0.935070  1
  K  K13  1  0.000000  0.000000  0.000000  1
  K  K14  1  0.855085  0.536844  0.728654  1
  K  K15  1  0.500000  0.000000  0.500000  1
  Sn  Sn16  1  0.737381  0.250000  0.838316  1
  Sn  Sn17  1  0.762619  0.250000  0.338316  1
  Sn  Sn18  1  0.237381  0.750000  0.661684  1
  Sn  Sn19  1  0.262619  0.750000  0.161684  1
  Te  Te20  1  0.564038  0.750000  0.665894  1
  Te  Te21  1  0.435962  0.250000  0.334106  1
  Te  Te22  1  0.373206  0.750000  0.335174  1
  Te  Te23  1  0.126794  0.750000  0.835174  1
  Te  Te24  1  0.064038  0.250000  0.834106  1
  Te  Te25  1  0.935962  0.750000  0.165894  1
  Te  Te26  1  0.626794  0.250000  0.664826  1
  Te  Te27  1  0.873206  0.250000  0.164826  1
  Se  Se28  1  0.855541  0.444956  0.415835  1
  Se  Se29  1  0.644459  0.055044  0.915835  1
  Se  Se30  1  0.355541  0.944956  0.084165  1
  Se  Se31  1  0.355541  0.555044  0.084165  1
  Se  Se32  1  0.144459  0.555044  0.584165  1
  Se  Se33  1  0.855541  0.055044  0.415835  1
  Se  Se34  1  0.144459  0.944956  0.584165  1
  Se  Se35  1  0.644459  0.444956  0.915835  1
