# generated using pymatgen
data_Sb2TeSeF10
_symmetry_space_group_name_H-M   'P 1'
_cell_length_a   8.66148236
_cell_length_b   16.00609649
_cell_length_c   16.42173736
_cell_angle_alpha   90.00000000
_cell_angle_beta   90.00000000
_cell_angle_gamma   90.00000000
_symmetry_Int_Tables_number   1
_chemical_formula_structural   Sb2TeSeF10
_chemical_formula_sum   'Sb16 Te8 Se8 F80'
_cell_volume   2276.65255937
_cell_formula_units_Z   8
loop_
 _symmetry_equiv_pos_site_id
 _symmetry_equiv_pos_as_xyz
  1  'x, y, z'
loop_
 _atom_site_type_symbol
 _atom_site_label
 _atom_site_symmetry_multiplicity
 _atom_site_fract_x
 _atom_site_fract_y
 _atom_site_fract_z
 _atom_site_occupancy
  Sb  Sb0  1  0.358607  0.250000  0.181390  1
  Sb  Sb1  1  0.396029  0.750000  0.029024  1
  Sb  Sb2  1  0.096108  0.250000  0.767415  1
  Sb  Sb3  1  0.603971  0.750000  0.529024  1
  Sb  Sb4  1  0.603971  0.250000  0.970976  1
  Sb  Sb5  1  0.396029  0.250000  0.470976  1
  Sb  Sb6  1  0.358607  0.750000  0.318610  1
  Sb  Sb7  1  0.641393  0.750000  0.818610  1
  Sb  Sb8  1  0.641393  0.250000  0.681390  1
  Sb  Sb9  1  0.515179  0.500000  0.250000  1
  Sb  Sb10  1  0.515179  0.000000  0.250000  1
  Sb  Sb11  1  0.903892  0.750000  0.232585  1
  Sb  Sb12  1  0.484821  0.000000  0.750000  1
  Sb  Sb13  1  0.903892  0.250000  0.267415  1
  Sb  Sb14  1  0.096108  0.750000  0.732585  1
  Sb  Sb15  1  0.484821  0.500000  0.750000  1
  Te  Te16  1  0.166308  0.434321  0.984598  1
  Te  Te17  1  0.166308  0.565679  0.515402  1
  Te  Te18  1  0.833692  0.434321  0.484598  1
  Te  Te19  1  0.833692  0.934321  0.015402  1
  Te  Te20  1  0.166308  0.934321  0.515402  1
  Te  Te21  1  0.833692  0.565679  0.015402  1
  Te  Te22  1  0.833692  0.065679  0.484598  1
  Te  Te23  1  0.166308  0.065679  0.984598  1
  Se  Se24  1  0.003880  0.529430  0.896990  1
  Se  Se25  1  0.996120  0.529430  0.396990  1
  Se  Se26  1  0.996120  0.029430  0.103010  1
  Se  Se27  1  0.003880  0.029430  0.603010  1
  Se  Se28  1  0.003880  0.970570  0.896990  1
  Se  Se29  1  0.996120  0.970570  0.396990  1
  Se  Se30  1  0.003880  0.470570  0.603010  1
  Se  Se31  1  0.996120  0.470570  0.103010  1
  F  F32  1  0.257064  0.335574  0.112935  1
  F  F33  1  0.868017  0.750000  0.752833  1
  F  F34  1  0.080341  0.369411  0.767931  1
  F  F35  1  0.751527  0.334932  0.993617  1
  F  F36  1  0.881039  0.250000  0.152210  1
  F  F37  1  0.354902  0.250000  0.357030  1
  F  F38  1  0.054766  0.750000  0.618046  1
  F  F39  1  0.945234  0.250000  0.381954  1
  F  F40  1  0.742936  0.335574  0.612935  1
  F  F41  1  0.742936  0.164426  0.612935  1
  F  F42  1  0.673199  0.476506  0.329333  1
  F  F43  1  0.257064  0.164426  0.112935  1
  F  F44  1  0.516188  0.115016  0.213702  1
  F  F45  1  0.751527  0.665068  0.506383  1
  F  F46  1  0.919659  0.130589  0.267931  1
  F  F47  1  0.312674  0.250000  0.785959  1
  F  F48  1  0.080341  0.130589  0.767931  1
  F  F49  1  0.673199  0.976506  0.170667  1
  F  F50  1  0.673199  0.523494  0.170667  1
  F  F51  1  0.326801  0.476506  0.829333  1
  F  F52  1  0.551672  0.834338  0.040962  1
  F  F53  1  0.248473  0.334932  0.493617  1
  F  F54  1  0.257064  0.835574  0.387065  1
  F  F55  1  0.640005  0.026306  0.828545  1
  F  F56  1  0.551672  0.665662  0.040962  1
  F  F57  1  0.640005  0.973694  0.671455  1
  F  F58  1  0.645098  0.750000  0.642970  1
  F  F59  1  0.326801  0.523494  0.670667  1
  F  F60  1  0.483812  0.615016  0.786298  1
  F  F61  1  0.945234  0.750000  0.118046  1
  F  F62  1  0.516188  0.884984  0.286298  1
  F  F63  1  0.919659  0.369411  0.267931  1
  F  F64  1  0.354902  0.750000  0.142970  1
  F  F65  1  0.881039  0.750000  0.347790  1
  F  F66  1  0.645098  0.250000  0.857030  1
  F  F67  1  0.551672  0.165662  0.459038  1
  F  F68  1  0.448328  0.665662  0.540962  1
  F  F69  1  0.640005  0.473694  0.828545  1
  F  F70  1  0.448328  0.834338  0.540962  1
  F  F71  1  0.257064  0.664426  0.387065  1
  F  F72  1  0.131983  0.750000  0.252833  1
  F  F73  1  0.483812  0.115016  0.713702  1
  F  F74  1  0.919659  0.869411  0.232069  1
  F  F75  1  0.919659  0.630589  0.232069  1
  F  F76  1  0.751527  0.834932  0.506383  1
  F  F77  1  0.448328  0.334338  0.959038  1
  F  F78  1  0.326801  0.023494  0.829333  1
  F  F79  1  0.452717  0.750000  0.909954  1
  F  F80  1  0.673199  0.023494  0.329333  1
  F  F81  1  0.547283  0.250000  0.090046  1
  F  F82  1  0.483812  0.384984  0.713702  1
  F  F83  1  0.312674  0.750000  0.714041  1
  F  F84  1  0.452717  0.250000  0.590046  1
  F  F85  1  0.326801  0.976506  0.670667  1
  F  F86  1  0.687326  0.750000  0.214041  1
  F  F87  1  0.687326  0.250000  0.285959  1
  F  F88  1  0.359995  0.526306  0.171455  1
  F  F89  1  0.248473  0.834932  0.006383  1
  F  F90  1  0.547283  0.750000  0.409954  1
  F  F91  1  0.868017  0.250000  0.747167  1
  F  F92  1  0.359995  0.026306  0.328545  1
  F  F93  1  0.742936  0.664426  0.887065  1
  F  F94  1  0.742936  0.835574  0.887065  1
  F  F95  1  0.080341  0.869411  0.732069  1
  F  F96  1  0.516188  0.384984  0.213702  1
  F  F97  1  0.248473  0.665068  0.006383  1
  F  F98  1  0.751527  0.165068  0.993617  1
  F  F99  1  0.359995  0.473694  0.328545  1
  F  F100  1  0.054766  0.250000  0.881954  1
  F  F101  1  0.640005  0.526306  0.671455  1
  F  F102  1  0.551672  0.334338  0.459038  1
  F  F103  1  0.131983  0.250000  0.247167  1
  F  F104  1  0.248473  0.165068  0.493617  1
  F  F105  1  0.118961  0.250000  0.652210  1
  F  F106  1  0.080341  0.630589  0.732069  1
  F  F107  1  0.118961  0.750000  0.847790  1
  F  F108  1  0.448328  0.165662  0.959038  1
  F  F109  1  0.516188  0.615016  0.286298  1
  F  F110  1  0.359995  0.973694  0.171455  1
  F  F111  1  0.483812  0.884984  0.786298  1
