# generated using pymatgen
data_Al13Si5H14Cl(O17F2)2
_symmetry_space_group_name_H-M   'P 1'
_cell_length_a   9.87364703
_cell_length_b   9.89207060
_cell_length_c   9.89184983
_cell_angle_alpha   60.60621387
_cell_angle_beta   60.39589216
_cell_angle_gamma   60.20955806
_symmetry_Int_Tables_number   1
_chemical_formula_structural   Al13Si5H14Cl(O17F2)2
_chemical_formula_sum   'Al13 Si5 H14 Cl1 O34 F4'
_cell_volume   689.39108885
_cell_formula_units_Z   1
loop_
 _symmetry_equiv_pos_site_id
 _symmetry_equiv_pos_as_xyz
  1  'x, y, z'
loop_
 _atom_site_type_symbol
 _atom_site_label
 _atom_site_symmetry_multiplicity
 _atom_site_fract_x
 _atom_site_fract_y
 _atom_site_fract_z
 _atom_site_occupancy
  Al  Al0  1  0.233475  0.601038  0.228235  1
  Al  Al1  1  0.593697  0.234783  0.236853  1
  Al  Al2  1  0.935436  0.245774  0.231187  1
  Al  Al3  1  0.227290  0.939743  0.233535  1
  Al  Al4  1  0.233668  0.228162  0.600187  1
  Al  Al5  1  0.939250  0.599862  0.213289  1
  Al  Al6  1  0.597007  0.939787  0.230187  1
  Al  Al7  1  0.232617  0.236344  0.936938  1
  Al  Al8  1  0.940417  0.215916  0.606662  1
  Al  Al9  1  0.233361  0.934961  0.595825  1
  Al  Al10  1  0.594145  0.231383  0.938296  1
  Al  Al11  1  0.234494  0.593233  0.934077  1
  Al  Al12  1  0.247033  0.252974  0.248275  1
  Si  Si13  1  0.886512  0.886580  0.342328  1
  Si  Si14  1  0.751038  0.745148  0.746812  1
  Si  Si15  1  0.343862  0.884193  0.885342  1
  Si  Si16  1  0.885798  0.339304  0.888141  1
  Si  Si17  1  0.884380  0.882205  0.882342  1
  H  H18  1  0.650703  0.355871  0.345070  1
  H  H19  1  0.353597  0.650839  0.347859  1
  H  H20  1  0.654108  0.650583  0.320081  1
  H  H21  1  0.352051  0.346474  0.650923  1
  H  H22  1  0.650884  0.326079  0.651361  1
  H  H23  1  0.337262  0.646876  0.646835  1
  H  H24  1  0.988881  0.486785  0.483935  1
  H  H25  1  0.487968  0.063582  0.488318  1
  H  H26  1  0.797277  0.529551  0.528313  1
  H  H27  1  0.525752  0.811719  0.521124  1
  H  H28  1  0.507470  0.065904  0.913133  1
  H  H29  1  0.056767  0.466583  0.008237  1
  H  H30  1  0.527457  0.521812  0.818900  1
  H  H31  1  0.497183  0.496102  0.067890  1
  Cl  Cl32  1  0.500717  0.499946  0.499413  1
  O  O33  1  0.999632  0.726598  0.273941  1
  O  O34  1  0.726202  0.998976  0.275241  1
  O  O35  1  0.996915  0.999047  0.282968  1
  O  O36  1  0.275170  0.996551  0.726986  1
  O  O37  1  0.999143  0.271148  0.727597  1
  O  O38  1  0.813560  0.808848  0.545857  1
  O  O39  1  0.548194  0.812722  0.811502  1
  O  O40  1  0.724391  0.275445  0.999137  1
  O  O41  1  0.279203  0.724584  0.996302  1
  O  O42  1  0.813703  0.543388  0.811768  1
  O  O43  1  0.815912  0.813827  0.815065  1
  O  O44  1  0.999644  0.271917  0.999393  1
  O  O45  1  0.281771  0.995647  0.998531  1
  O  O46  1  0.453711  0.455874  0.187880  1
  O  O47  1  0.999079  0.992699  0.722806  1
  O  O48  1  0.450085  0.184113  0.455509  1
  O  O49  1  0.721320  0.275479  0.285291  1
  O  O50  1  0.274946  0.721232  0.286052  1
  O  O51  1  0.001396  0.730371  0.992328  1
  O  O52  1  0.723719  0.995697  0.995702  1
  O  O53  1  0.916081  0.450404  0.187205  1
  O  O54  1  0.273033  0.285749  0.719797  1
  O  O55  1  0.719267  0.719750  0.283219  1
  O  O56  1  0.457299  0.904112  0.456317  1
  O  O57  1  0.906715  0.466790  0.470023  1
  O  O58  1  0.283413  0.717615  0.715976  1
  O  O59  1  0.721388  0.283430  0.717498  1
  O  O60  1  0.457531  0.182974  0.899950  1
  O  O61  1  0.174346  0.450424  0.923787  1
  O  O62  1  0.177149  0.167274  0.180058  1
  O  O63  1  0.457400  0.455198  0.899737  1
  O  O64  1  0.472865  0.172954  0.174533  1
  O  O65  1  0.176209  0.476556  0.178805  1
  O  O66  1  0.170378  0.175774  0.475154  1
  F  F67  1  0.179417  0.453330  0.455428  1
  F  F68  1  0.451838  0.901992  0.193099  1
  F  F69  1  0.193712  0.906145  0.450362  1
  F  F70  1  0.902706  0.195269  0.457297  1
