# generated using pymatgen
data_Li3Ni2(PO4)3
_symmetry_space_group_name_H-M   'P 1'
_cell_length_a   8.52576695
_cell_length_b   8.52576695
_cell_length_c   6.31662317
_cell_angle_alpha   74.24038056
_cell_angle_beta   105.75961944
_cell_angle_gamma   85.48708975
_symmetry_Int_Tables_number   1
_chemical_formula_structural   Li3Ni2(PO4)3
_chemical_formula_sum   'Li6 Ni4 P6 O24'
_cell_volume   419.47681547
_cell_formula_units_Z   2
loop_
 _symmetry_equiv_pos_site_id
 _symmetry_equiv_pos_as_xyz
  1  'x, y, z'
loop_
 _atom_site_type_symbol
 _atom_site_label
 _atom_site_symmetry_multiplicity
 _atom_site_fract_x
 _atom_site_fract_y
 _atom_site_fract_z
 _atom_site_occupancy
  Li  Li0  1  0.019324  0.019324  0.250000  1
  Li  Li1  1  0.287157  0.287157  0.250000  1
  Li  Li2  1  0.500000  0.500000  0.500000  1
  Li  Li3  1  0.712843  0.712843  0.750000  1
  Li  Li4  1  0.980676  0.980676  0.750000  1
  Li  Li5  1  0.500000  0.500000  0.000000  1
  Ni  Ni6  1  0.946351  0.375129  0.369028  1
  Ni  Ni7  1  0.624871  0.053649  0.869028  1
  Ni  Ni8  1  0.375129  0.946351  0.130972  1
  Ni  Ni9  1  0.053649  0.624871  0.630972  1
  P  P10  1  0.335488  0.864662  0.634927  1
  P  P11  1  0.135338  0.664512  0.134927  1
  P  P12  1  0.287522  0.287522  0.750000  1
  P  P13  1  0.712478  0.712478  0.250000  1
  P  P14  1  0.664512  0.135338  0.365073  1
  P  P15  1  0.864662  0.335488  0.865073  1
  O  O16  1  0.847550  0.149953  0.896194  1
  O  O17  1  0.149953  0.847550  0.603806  1
  O  O18  1  0.398908  0.952616  0.823389  1
  O  O19  1  0.336602  0.991910  0.405536  1
  O  O20  1  0.991910  0.336602  0.094464  1
  O  O21  1  0.850047  0.152450  0.396194  1
  O  O22  1  0.601092  0.047384  0.176611  1
  O  O23  1  0.663398  0.008090  0.594464  1
  O  O24  1  0.008090  0.663398  0.905536  1
  O  O25  1  0.952616  0.398908  0.676611  1
  O  O26  1  0.548171  0.297510  0.301510  1
  O  O27  1  0.734541  0.533861  0.231801  1
  O  O28  1  0.739038  0.822267  0.027153  1
  O  O29  1  0.702490  0.451829  0.801510  1
  O  O30  1  0.152450  0.850047  0.103806  1
  O  O31  1  0.822267  0.739038  0.472847  1
  O  O32  1  0.177733  0.260962  0.527153  1
  O  O33  1  0.533861  0.734541  0.268199  1
  O  O34  1  0.297510  0.548171  0.198490  1
  O  O35  1  0.260962  0.177733  0.972847  1
  O  O36  1  0.265459  0.466139  0.768199  1
  O  O37  1  0.451829  0.702490  0.698490  1
  O  O38  1  0.047384  0.601092  0.323389  1
  O  O39  1  0.466139  0.265459  0.731801  1
