# generated using pymatgen
data_SmCo9Si4
_symmetry_space_group_name_H-M   'P 1'
_cell_length_a   7.90718955
_cell_length_b   7.90718955
_cell_length_c   7.90718955
_cell_angle_alpha   121.48396952
_cell_angle_beta   121.48396952
_cell_angle_gamma   87.44834982
_symmetry_Int_Tables_number   1
_chemical_formula_structural   SmCo9Si4
_chemical_formula_sum   'Sm2 Co18 Si8'
_cell_volume   341.37478402
_cell_formula_units_Z   2
loop_
 _symmetry_equiv_pos_site_id
 _symmetry_equiv_pos_as_xyz
  1  'x, y, z'
loop_
 _atom_site_type_symbol
 _atom_site_label
 _atom_site_symmetry_multiplicity
 _atom_site_fract_x
 _atom_site_fract_y
 _atom_site_fract_z
 _atom_site_occupancy
  Sm  Sm0  1  0.750000  0.750000  0.000000  1
  Sm  Sm1  1  0.250000  0.250000  0.000000  1
  Co  Co2  1  0.550141  0.050141  0.239421  1
  Co  Co3  1  0.189280  0.689280  0.239421  1
  Co  Co4  1  0.500000  0.000000  0.500000  1
  Co  Co5  1  0.429510  0.699358  0.128868  1
  Co  Co6  1  0.300642  0.429510  0.730153  1
  Co  Co7  1  0.949859  0.189280  0.500000  1
  Co  Co8  1  0.570490  0.300642  0.871132  1
  Co  Co9  1  0.310720  0.550141  0.500000  1
  Co  Co10  1  0.050141  0.810720  0.500000  1
  Co  Co11  1  0.449859  0.949859  0.760579  1
  Co  Co12  1  0.689280  0.449859  0.500000  1
  Co  Co13  1  0.800642  0.070490  0.871132  1
  Co  Co14  1  0.070490  0.199358  0.269847  1
  Co  Co15  1  0.929510  0.800642  0.730153  1
  Co  Co16  1  0.699358  0.570490  0.269847  1
  Co  Co17  1  0.199358  0.929510  0.128868  1
  Co  Co18  1  0.000000  0.500000  0.500000  1
  Co  Co19  1  0.810720  0.310720  0.760579  1
  Si  Si20  1  0.547404  0.709825  0.500000  1
  Si  Si21  1  0.709825  0.209825  0.162420  1
  Si  Si22  1  0.290175  0.790175  0.837580  1
  Si  Si23  1  0.952596  0.452596  0.162420  1
  Si  Si24  1  0.047404  0.547404  0.837580  1
  Si  Si25  1  0.452596  0.290175  0.500000  1
  Si  Si26  1  0.790175  0.952596  0.500000  1
  Si  Si27  1  0.209825  0.047404  0.500000  1
