# generated using pymatgen
data_Sr2Sc2B4O11
_symmetry_space_group_name_H-M   'P 1'
_cell_length_a   5.12904210
_cell_length_b   6.35125615
_cell_length_c   7.37256951
_cell_angle_alpha   101.74392953
_cell_angle_beta   89.18349183
_cell_angle_gamma   104.38256135
_symmetry_Int_Tables_number   1
_chemical_formula_structural   Sr2Sc2B4O11
_chemical_formula_sum   'Sr2 Sc2 B4 O11'
_cell_volume   227.60381521
_cell_formula_units_Z   1
loop_
 _symmetry_equiv_pos_site_id
 _symmetry_equiv_pos_as_xyz
  1  'x, y, z'
loop_
 _atom_site_type_symbol
 _atom_site_label
 _atom_site_symmetry_multiplicity
 _atom_site_fract_x
 _atom_site_fract_y
 _atom_site_fract_z
 _atom_site_occupancy
  Sr  Sr0  1  0.222810  0.805484  0.163277  1
  Sr  Sr1  1  0.777190  0.194516  0.836723  1
  Sc  Sc2  1  0.185898  0.718066  0.646461  1
  Sc  Sc3  1  0.814102  0.281934  0.353539  1
  B  B4  1  0.720893  0.780399  0.393522  1
  B  B5  1  0.353801  0.344114  0.101877  1
  B  B6  1  0.646199  0.655886  0.898123  1
  B  B7  1  0.279107  0.219601  0.606478  1
  O  O8  1  0.887386  0.644326  0.423458  1
  O  O9  1  0.909259  0.658203  0.867071  1
  O  O10  1  0.540890  0.255280  0.556822  1
  O  O11  1  0.459110  0.744720  0.443178  1
  O  O12  1  0.500000  0.500000  0.000000  1
  O  O13  1  0.507570  0.794325  0.847122  1
  O  O14  1  0.112614  0.355674  0.576542  1
  O  O15  1  0.826019  0.948181  0.297307  1
  O  O16  1  0.090741  0.341797  0.132929  1
  O  O17  1  0.173981  0.051819  0.702693  1
  O  O18  1  0.492430  0.205675  0.152878  1
