# generated using pymatgen
data_LaCo8P5
_symmetry_space_group_name_H-M   'P 1'
_cell_length_a   3.57012679
_cell_length_b   9.28172259
_cell_length_c   10.45438799
_cell_angle_alpha   90.00000000
_cell_angle_beta   90.00000000
_cell_angle_gamma   90.00000000
_symmetry_Int_Tables_number   1
_chemical_formula_structural   LaCo8P5
_chemical_formula_sum   'La2 Co16 P10'
_cell_volume   346.42628618
_cell_formula_units_Z   2
loop_
 _symmetry_equiv_pos_site_id
 _symmetry_equiv_pos_as_xyz
  1  'x, y, z'
loop_
 _atom_site_type_symbol
 _atom_site_label
 _atom_site_symmetry_multiplicity
 _atom_site_fract_x
 _atom_site_fract_y
 _atom_site_fract_z
 _atom_site_occupancy
  La  La0  1  0.000000  0.822650  0.000000  1
  La  La1  1  0.500000  0.177350  0.500000  1
  Co  Co2  1  0.000000  0.520814  0.167065  1
  Co  Co3  1  0.500000  0.479186  0.332935  1
  Co  Co4  1  0.000000  0.520814  0.832935  1
  Co  Co5  1  0.500000  0.479186  0.667065  1
  Co  Co6  1  0.000000  0.110763  0.245778  1
  Co  Co7  1  0.500000  0.889237  0.254222  1
  Co  Co8  1  0.000000  0.110763  0.754222  1
  Co  Co9  1  0.500000  0.889237  0.745778  1
  Co  Co10  1  0.000000  0.696253  0.359316  1
  Co  Co11  1  0.500000  0.303747  0.140684  1
  Co  Co12  1  0.000000  0.696253  0.640684  1
  Co  Co13  1  0.500000  0.303747  0.859316  1
  Co  Co14  1  0.000000  0.151092  0.000000  1
  Co  Co15  1  0.500000  0.848908  0.500000  1
  Co  Co16  1  0.500000  0.545999  0.000000  1
  Co  Co17  1  0.000000  0.454001  0.500000  1
  P  P18  1  0.000000  0.931532  0.379414  1
  P  P19  1  0.500000  0.068468  0.120586  1
  P  P20  1  0.000000  0.931532  0.620586  1
  P  P21  1  0.500000  0.068468  0.879414  1
  P  P22  1  0.000000  0.339815  0.306781  1
  P  P23  1  0.500000  0.660185  0.193219  1
  P  P24  1  0.000000  0.339815  0.693219  1
  P  P25  1  0.500000  0.660185  0.806781  1
  P  P26  1  0.000000  0.385318  0.000000  1
  P  P27  1  0.500000  0.614682  0.500000  1
