# generated using pymatgen
data_CuP4I
_symmetry_space_group_name_H-M   'P 1'
_cell_length_a   9.84123610
_cell_length_b   13.95739268
_cell_length_c   13.16877897
_cell_angle_alpha   90.00000000
_cell_angle_beta   109.10332543
_cell_angle_gamma   90.00000000
_symmetry_Int_Tables_number   1
_chemical_formula_structural   CuP4I
_chemical_formula_sum   'Cu12 P48 I12'
_cell_volume   1709.22429166
_cell_formula_units_Z   12
loop_
 _symmetry_equiv_pos_site_id
 _symmetry_equiv_pos_as_xyz
  1  'x, y, z'
loop_
 _atom_site_type_symbol
 _atom_site_label
 _atom_site_symmetry_multiplicity
 _atom_site_fract_x
 _atom_site_fract_y
 _atom_site_fract_z
 _atom_site_occupancy
  Cu  Cu0  1  0.790791  0.040432  0.151914  1
  Cu  Cu1  1  0.005744  0.107630  0.923561  1
  Cu  Cu2  1  0.904401  0.317403  0.061262  1
  Cu  Cu3  1  0.795083  0.763684  0.290062  1
  Cu  Cu4  1  0.209209  0.540432  0.848086  1
  Cu  Cu5  1  0.095599  0.817403  0.938738  1
  Cu  Cu6  1  0.789022  0.213716  0.487688  1
  Cu  Cu7  1  0.793583  0.489721  0.357734  1
  Cu  Cu8  1  0.206417  0.989721  0.642266  1
  Cu  Cu9  1  0.994256  0.607630  0.076439  1
  Cu  Cu10  1  0.204917  0.263684  0.709938  1
  Cu  Cu11  1  0.210978  0.713716  0.512312  1
  P  P12  1  0.589323  0.118991  0.441763  1
  P  P13  1  0.308374  0.393562  0.488072  1
  P  P14  1  0.385858  0.060174  0.097458  1
  P  P15  1  0.385437  0.197164  0.347819  1
  P  P16  1  0.450469  0.730045  0.337484  1
  P  P17  1  0.675884  0.798234  0.968579  1
  P  P18  1  0.467047  0.344697  0.409695  1
  P  P19  1  0.590726  0.135085  0.101616  1
  P  P20  1  0.307741  0.994500  0.825236  1
  P  P21  1  0.456303  0.522856  0.140021  1
  P  P22  1  0.466729  0.912376  0.076482  1
  P  P23  1  0.563944  0.171431  0.931633  1
  P  P24  1  0.692259  0.494500  0.174764  1
  P  P25  1  0.546402  0.281378  0.149323  1
  P  P26  1  0.695277  0.363237  0.077749  1
  P  P27  1  0.667008  0.719353  0.118384  1
  P  P28  1  0.458633  0.473428  0.630039  1
  P  P29  1  0.349619  0.807698  0.446243  1
  P  P30  1  0.332992  0.219353  0.881616  1
  P  P31  1  0.549531  0.230045  0.662516  1
  P  P32  1  0.233464  0.091917  0.929535  1
  P  P33  1  0.304723  0.863237  0.922251  1
  P  P34  1  0.330038  0.037709  0.532337  1
  P  P35  1  0.614142  0.560174  0.902542  1
  P  P36  1  0.532953  0.844697  0.590305  1
  P  P37  1  0.766536  0.591917  0.070465  1
  P  P38  1  0.533271  0.412376  0.923518  1
  P  P39  1  0.231403  0.167073  0.439997  1
  P  P40  1  0.541367  0.973428  0.369961  1
  P  P41  1  0.681026  0.455829  0.620422  1
  P  P42  1  0.435920  0.581672  0.401898  1
  P  P43  1  0.650381  0.307698  0.553757  1
  P  P44  1  0.648745  0.947142  0.018928  1
  P  P45  1  0.543697  0.022856  0.859979  1
  P  P46  1  0.410677  0.618991  0.558237  1
  P  P47  1  0.318974  0.955829  0.379578  1
  P  P48  1  0.436056  0.671431  0.068367  1
  P  P49  1  0.409274  0.635085  0.898384  1
  P  P50  1  0.669962  0.537709  0.467663  1
  P  P51  1  0.351255  0.447142  0.981072  1
  P  P52  1  0.314348  0.260329  0.582298  1
  P  P53  1  0.324116  0.298234  0.031421  1
  P  P54  1  0.685652  0.760329  0.417702  1
  P  P55  1  0.564080  0.081672  0.598102  1
  P  P56  1  0.453598  0.781378  0.850677  1
  P  P57  1  0.768597  0.667073  0.560003  1
  P  P58  1  0.691626  0.893562  0.511928  1
  P  P59  1  0.614563  0.697164  0.652181  1
  I  I60  1  0.896783  0.941286  0.324901  1
  I  I61  1  0.103896  0.814715  0.630279  1
  I  I62  1  0.901768  0.281954  0.862267  1
  I  I63  1  0.003014  0.138727  0.128085  1
  I  I64  1  0.103217  0.441286  0.675099  1
  I  I65  1  0.996986  0.638727  0.871915  1
  I  I66  1  0.110647  0.441321  0.153091  1
  I  I67  1  0.889353  0.941321  0.846909  1
  I  I68  1  0.896104  0.314715  0.369721  1
  I  I69  1  0.997391  0.626530  0.366905  1
  I  I70  1  0.098232  0.781954  0.137733  1
  I  I71  1  0.002609  0.126530  0.633095  1
