# generated using pymatgen
data_BaZr4(PO4)6
_symmetry_space_group_name_H-M   'P 1'
_cell_length_a   9.53511493
_cell_length_b   9.53511493
_cell_length_c   9.53511493
_cell_angle_alpha   55.32270036
_cell_angle_beta   55.32270036
_cell_angle_gamma   55.32270036
_symmetry_Int_Tables_number   1
_chemical_formula_structural   BaZr4(PO4)6
_chemical_formula_sum   'Ba1 Zr4 P6 O24'
_cell_volume   546.38167423
_cell_formula_units_Z   1
loop_
 _symmetry_equiv_pos_site_id
 _symmetry_equiv_pos_as_xyz
  1  'x, y, z'
loop_
 _atom_site_type_symbol
 _atom_site_label
 _atom_site_symmetry_multiplicity
 _atom_site_fract_x
 _atom_site_fract_y
 _atom_site_fract_z
 _atom_site_occupancy
  Ba  Ba0  1  0.000000  0.000000  0.000000  1
  Zr  Zr1  1  0.645519  0.645519  0.645519  1
  Zr  Zr2  1  0.354481  0.354481  0.354481  1
  Zr  Zr3  1  0.848989  0.848989  0.848989  1
  Zr  Zr4  1  0.151011  0.151011  0.151011  1
  P  P5  1  0.246883  0.540187  0.967940  1
  P  P6  1  0.753117  0.459813  0.032060  1
  P  P7  1  0.967940  0.246883  0.540187  1
  P  P8  1  0.032060  0.753117  0.459813  1
  P  P9  1  0.540187  0.967940  0.246883  1
  P  P10  1  0.459813  0.032060  0.753117  1
  O  O11  1  0.480426  0.857103  0.757042  1
  O  O12  1  0.142897  0.242958  0.519574  1
  O  O13  1  0.620305  0.000994  0.782120  1
  O  O14  1  0.379695  0.999006  0.217880  1
  O  O15  1  0.915735  0.087483  0.720105  1
  O  O16  1  0.757042  0.480426  0.857103  1
  O  O17  1  0.217880  0.379695  0.999006  1
  O  O18  1  0.720105  0.915735  0.087483  1
  O  O19  1  0.447748  0.189061  0.569848  1
  O  O20  1  0.084265  0.912517  0.279895  1
  O  O21  1  0.087483  0.720105  0.915735  1
  O  O22  1  0.279895  0.084265  0.912517  1
  O  O23  1  0.552252  0.810939  0.430152  1
  O  O24  1  0.189061  0.569848  0.447748  1
  O  O25  1  0.912517  0.279895  0.084265  1
  O  O26  1  0.999006  0.217880  0.379695  1
  O  O27  1  0.000994  0.782120  0.620305  1
  O  O28  1  0.430152  0.552252  0.810939  1
  O  O29  1  0.857103  0.757042  0.480426  1
  O  O30  1  0.242958  0.519574  0.142897  1
  O  O31  1  0.782120  0.620305  0.000994  1
  O  O32  1  0.519574  0.142897  0.242958  1
  O  O33  1  0.569848  0.447748  0.189061  1
  O  O34  1  0.810939  0.430152  0.552252  1
