# generated using pymatgen
data_ZnS
_symmetry_space_group_name_H-M   'P 1'
_cell_length_a   3.85345455
_cell_length_b   3.85345455
_cell_length_c   113.26671902
_cell_angle_alpha   90.00000000
_cell_angle_beta   90.00000000
_cell_angle_gamma   120.00000000
_symmetry_Int_Tables_number   1
_chemical_formula_structural   ZnS
_chemical_formula_sum   'Zn36 S36'
_cell_volume   1456.57695772
_cell_formula_units_Z   36
loop_
 _symmetry_equiv_pos_site_id
 _symmetry_equiv_pos_as_xyz
  1  'x, y, z'
loop_
 _atom_site_type_symbol
 _atom_site_label
 _atom_site_symmetry_multiplicity
 _atom_site_fract_x
 _atom_site_fract_y
 _atom_site_fract_z
 _atom_site_occupancy
  Zn  Zn0  1  0.000000  0.000000  0.166667  1
  Zn  Zn1  1  0.333333  0.666667  0.111110  1
  Zn  Zn2  1  0.333333  0.666667  0.916676  1
  Zn  Zn3  1  0.666667  0.333333  0.555557  1
  Zn  Zn4  1  0.000000  0.000000  0.416667  1
  Zn  Zn5  1  0.333333  0.666667  0.361111  1
  Zn  Zn6  1  0.666667  0.333333  0.138888  1
  Zn  Zn7  1  0.666667  0.333333  0.972221  1
  Zn  Zn8  1  0.666667  0.333333  0.722231  1
  Zn  Zn9  1  0.000000  0.000000  0.944439  1
  Zn  Zn10  1  0.000000  0.000000  0.833334  1
  Zn  Zn11  1  0.666667  0.333333  0.305557  1
  Zn  Zn12  1  0.333333  0.666667  0.277779  1
  Zn  Zn13  1  0.666667  0.333333  0.805557  1
  Zn  Zn14  1  0.333333  0.666667  0.027778  1
  Zn  Zn15  1  0.333333  0.666667  0.611109  1
  Zn  Zn16  1  0.666667  0.333333  0.888886  1
  Zn  Zn17  1  0.000000  0.000000  0.583329  1
  Zn  Zn18  1  0.333333  0.666667  0.194444  1
  Zn  Zn19  1  0.333333  0.666667  0.694442  1
  Zn  Zn20  1  0.666667  0.333333  0.222222  1
  Zn  Zn21  1  0.666667  0.333333  0.055557  1
  Zn  Zn22  1  0.000000  0.000000  0.500000  1
  Zn  Zn23  1  0.333333  0.666667  0.444444  1
  Zn  Zn24  1  0.333333  0.666667  0.861106  1
  Zn  Zn25  1  0.000000  0.000000  0.083333  1
  Zn  Zn26  1  0.666667  0.333333  0.388888  1
  Zn  Zn27  1  0.666667  0.333333  0.472222  1
  Zn  Zn28  1  0.333333  0.666667  0.527779  1
  Zn  Zn29  1  0.000000  0.000000  0.333333  1
  Zn  Zn30  1  0.333333  0.666667  0.777779  1
  Zn  Zn31  1  0.000000  0.000000  0.000008  1
  Zn  Zn32  1  0.666667  0.333333  0.666662  1
  Zn  Zn33  1  0.000000  0.000000  0.638896  1
  Zn  Zn34  1  0.000000  0.000000  0.750000  1
  Zn  Zn35  1  0.000000  0.000000  0.250000  1
  S  S36  1  0.333333  0.666667  0.881925  1
  S  S37  1  0.333333  0.666667  0.631962  1
  S  S38  1  0.000000  0.000000  0.270833  1
  S  S39  1  0.333333  0.666667  0.798612  1
  S  S40  1  0.666667  0.333333  0.076389  1
  S  S41  1  0.000000  0.000000  0.104166  1
  S  S42  1  0.333333  0.666667  0.465277  1
  S  S43  1  0.000000  0.000000  0.965259  1
  S  S44  1  0.333333  0.666667  0.215277  1
  S  S45  1  0.333333  0.666667  0.131943  1
  S  S46  1  0.666667  0.333333  0.993074  1
  S  S47  1  0.000000  0.000000  0.520833  1
  S  S48  1  0.000000  0.000000  0.770833  1
  S  S49  1  0.000000  0.000000  0.604148  1
  S  S50  1  0.666667  0.333333  0.243056  1
  S  S51  1  0.666667  0.333333  0.743056  1
  S  S52  1  0.666667  0.333333  0.687481  1
  S  S53  1  0.666667  0.333333  0.326389  1
  S  S54  1  0.333333  0.666667  0.048611  1
  S  S55  1  0.000000  0.000000  0.854165  1
  S  S56  1  0.666667  0.333333  0.909740  1
  S  S57  1  0.000000  0.000000  0.437500  1
  S  S58  1  0.333333  0.666667  0.548612  1
  S  S59  1  0.666667  0.333333  0.493056  1
  S  S60  1  0.666667  0.333333  0.826390  1
  S  S61  1  0.666667  0.333333  0.159721  1
  S  S62  1  0.333333  0.666667  0.715296  1
  S  S63  1  0.000000  0.000000  0.659721  1
  S  S64  1  0.333333  0.666667  0.381943  1
  S  S65  1  0.666667  0.333333  0.409721  1
  S  S66  1  0.000000  0.000000  0.187500  1
  S  S67  1  0.666667  0.333333  0.576389  1
  S  S68  1  0.000000  0.000000  0.354166  1
  S  S69  1  0.000000  0.000000  0.020833  1
  S  S70  1  0.333333  0.666667  0.937499  1
  S  S71  1  0.333333  0.666667  0.298612  1
