# generated using pymatgen
data_Er3Si3Ni
_symmetry_space_group_name_H-M   'P 1'
_cell_length_a   5.54018830
_cell_length_b   5.54018830
_cell_length_c   13.44288449
_cell_angle_alpha   71.02741505
_cell_angle_beta   108.97258495
_cell_angle_gamma   135.84442920
_symmetry_Int_Tables_number   1
_chemical_formula_structural   Er3Si3Ni
_chemical_formula_sum   'Er6 Si6 Ni2'
_cell_volume   269.15855156
_cell_formula_units_Z   2
loop_
 _symmetry_equiv_pos_site_id
 _symmetry_equiv_pos_as_xyz
  1  'x, y, z'
loop_
 _atom_site_type_symbol
 _atom_site_label
 _atom_site_symmetry_multiplicity
 _atom_site_fract_x
 _atom_site_fract_y
 _atom_site_fract_z
 _atom_site_occupancy
  Er  Er0  1  0.469724  0.530276  0.619718  1
  Er  Er1  1  0.602067  0.397933  0.921404  1
  Er  Er2  1  0.746979  0.253021  0.227616  1
  Er  Er3  1  0.530276  0.469724  0.380282  1
  Er  Er4  1  0.397933  0.602067  0.078596  1
  Er  Er5  1  0.253021  0.746979  0.772384  1
  Si  Si6  1  0.863803  0.136197  0.456717  1
  Si  Si7  1  0.954373  0.045627  0.763972  1
  Si  Si8  1  0.886031  0.113969  0.923932  1
  Si  Si9  1  0.113969  0.886031  0.076068  1
  Si  Si10  1  0.136197  0.863803  0.543283  1
  Si  Si11  1  0.045627  0.954373  0.236028  1
  Ni  Ni12  1  0.752459  0.247541  0.597485  1
  Ni  Ni13  1  0.247541  0.752459  0.402515  1
