# generated using pymatgen
data_Cs(BCl)6
_symmetry_space_group_name_H-M   'P 1'
_cell_length_a   16.44175861
_cell_length_b   16.44175861
_cell_length_c   16.44175861
_cell_angle_alpha   34.47512014
_cell_angle_beta   34.47512014
_cell_angle_gamma   34.47512014
_symmetry_Int_Tables_number   1
_chemical_formula_structural   Cs(BCl)6
_chemical_formula_sum   'Cs4 B24 Cl24'
_cell_volume   1270.45241357
_cell_formula_units_Z   4
loop_
 _symmetry_equiv_pos_site_id
 _symmetry_equiv_pos_as_xyz
  1  'x, y, z'
loop_
 _atom_site_type_symbol
 _atom_site_label
 _atom_site_symmetry_multiplicity
 _atom_site_fract_x
 _atom_site_fract_y
 _atom_site_fract_z
 _atom_site_occupancy
  Cs  Cs0  1  0.791600  0.791600  0.791600  1
  Cs  Cs1  1  0.626840  0.626840  0.626840  1
  Cs  Cs2  1  0.373160  0.373160  0.373160  1
  Cs  Cs3  1  0.208400  0.208400  0.208400  1
  B  B4  1  0.651601  0.317083  0.552174  1
  B  B5  1  0.348399  0.682917  0.447826  1
  B  B6  1  0.874874  0.951858  0.085216  1
  B  B7  1  0.439855  0.646787  0.500969  1
  B  B8  1  0.085216  0.874874  0.951858  1
  B  B9  1  0.500969  0.439855  0.646787  1
  B  B10  1  0.353213  0.499031  0.560145  1
  B  B11  1  0.976288  0.191298  0.853356  1
  B  B12  1  0.853356  0.976288  0.191298  1
  B  B13  1  0.499031  0.560145  0.353213  1
  B  B14  1  0.317083  0.552174  0.651601  1
  B  B15  1  0.951858  0.085216  0.874874  1
  B  B16  1  0.646787  0.500969  0.439855  1
  B  B17  1  0.023712  0.808702  0.146644  1
  B  B18  1  0.125126  0.048142  0.914784  1
  B  B19  1  0.447826  0.348399  0.682917  1
  B  B20  1  0.191298  0.853356  0.976288  1
  B  B21  1  0.914784  0.125126  0.048142  1
  B  B22  1  0.048142  0.914784  0.125126  1
  B  B23  1  0.146644  0.023712  0.808702  1
  B  B24  1  0.682917  0.447826  0.348399  1
  B  B25  1  0.560145  0.353213  0.499031  1
  B  B26  1  0.552174  0.651601  0.317083  1
  B  B27  1  0.808702  0.146644  0.023712  1
  Cl  Cl28  1  0.126065  0.606146  0.812600  1
  Cl  Cl29  1  0.951313  0.394214  0.699154  1
  Cl  Cl30  1  0.606146  0.812600  0.126065  1
  Cl  Cl31  1  0.393854  0.187400  0.873935  1
  Cl  Cl32  1  0.605787  0.300846  0.048687  1
  Cl  Cl33  1  0.176075  0.741957  0.902318  1
  Cl  Cl34  1  0.394214  0.699154  0.951313  1
  Cl  Cl35  1  0.498477  0.624420  0.197443  1
  Cl  Cl36  1  0.048687  0.605786  0.300846  1
  Cl  Cl37  1  0.501523  0.375580  0.802557  1
  Cl  Cl38  1  0.258043  0.097682  0.823925  1
  Cl  Cl39  1  0.823925  0.258043  0.097682  1
  Cl  Cl40  1  0.812600  0.126065  0.606146  1
  Cl  Cl41  1  0.624420  0.197443  0.498477  1
  Cl  Cl42  1  0.097682  0.823925  0.258043  1
  Cl  Cl43  1  0.375580  0.802557  0.501523  1
  Cl  Cl44  1  0.300846  0.048687  0.605786  1
  Cl  Cl45  1  0.197443  0.498477  0.624420  1
  Cl  Cl46  1  0.741957  0.902318  0.176075  1
  Cl  Cl47  1  0.902318  0.176075  0.741957  1
  Cl  Cl48  1  0.873935  0.393854  0.187400  1
  Cl  Cl49  1  0.802557  0.501523  0.375580  1
  Cl  Cl50  1  0.699154  0.951313  0.394214  1
  Cl  Cl51  1  0.187400  0.873935  0.393854  1
