# generated using pymatgen
data_CaVBiO5
_symmetry_space_group_name_H-M   'P 1'
_cell_length_a   5.53330596
_cell_length_b   11.38240630
_cell_length_c   15.80869111
_cell_angle_alpha   90.00000000
_cell_angle_beta   90.00000000
_cell_angle_gamma   90.00000000
_symmetry_Int_Tables_number   1
_chemical_formula_structural   CaVBiO5
_chemical_formula_sum   'Ca8 V8 Bi8 O40'
_cell_volume   995.66830499
_cell_formula_units_Z   8
loop_
 _symmetry_equiv_pos_site_id
 _symmetry_equiv_pos_as_xyz
  1  'x, y, z'
loop_
 _atom_site_type_symbol
 _atom_site_label
 _atom_site_symmetry_multiplicity
 _atom_site_fract_x
 _atom_site_fract_y
 _atom_site_fract_z
 _atom_site_occupancy
  Ca  Ca0  1  0.504665  0.358989  0.552134  1
  Ca  Ca1  1  0.004665  0.141011  0.552134  1
  Ca  Ca2  1  0.004665  0.641011  0.947866  1
  Ca  Ca3  1  0.995335  0.358989  0.052134  1
  Ca  Ca4  1  0.495335  0.141011  0.052134  1
  Ca  Ca5  1  0.995335  0.858989  0.447866  1
  Ca  Ca6  1  0.495335  0.641011  0.447866  1
  Ca  Ca7  1  0.504665  0.858989  0.947866  1
  V  V8  1  0.986039  0.404032  0.401593  1
  V  V9  1  0.513961  0.904032  0.598407  1
  V  V10  1  0.013961  0.595968  0.598407  1
  V  V11  1  0.486039  0.095968  0.401593  1
  V  V12  1  0.013961  0.095968  0.901593  1
  V  V13  1  0.986039  0.904032  0.098407  1
  V  V14  1  0.513961  0.404032  0.901593  1
  V  V15  1  0.486039  0.595968  0.098407  1
  Bi  Bi16  1  0.952146  0.845592  0.768268  1
  Bi  Bi17  1  0.047854  0.154408  0.231732  1
  Bi  Bi18  1  0.547854  0.345592  0.231732  1
  Bi  Bi19  1  0.047854  0.654408  0.268268  1
  Bi  Bi20  1  0.452146  0.154408  0.731732  1
  Bi  Bi21  1  0.452146  0.654408  0.768268  1
  Bi  Bi22  1  0.547854  0.845592  0.268268  1
  Bi  Bi23  1  0.952146  0.345592  0.731732  1
  O  O24  1  0.939131  0.326297  0.304913  1
  O  O25  1  0.295133  0.046500  0.933887  1
  O  O26  1  0.204867  0.546500  0.066113  1
  O  O27  1  0.242822  0.768941  0.846682  1
  O  O28  1  0.257178  0.268941  0.153318  1
  O  O29  1  0.939131  0.826297  0.195087  1
  O  O30  1  0.257178  0.768941  0.346682  1
  O  O31  1  0.560869  0.826297  0.695087  1
  O  O32  1  0.295133  0.546500  0.566113  1
  O  O33  1  0.060869  0.673703  0.695087  1
  O  O34  1  0.560869  0.326297  0.804913  1
  O  O35  1  0.624025  0.182944  0.475772  1
  O  O36  1  0.795133  0.953500  0.566113  1
  O  O37  1  0.757178  0.731059  0.346682  1
  O  O38  1  0.172210  0.024910  0.124890  1
  O  O39  1  0.795133  0.453500  0.933887  1
  O  O40  1  0.060869  0.173703  0.804913  1
  O  O41  1  0.742822  0.231059  0.653318  1
  O  O42  1  0.124025  0.817056  0.024228  1
  O  O43  1  0.204867  0.046500  0.433887  1
  O  O44  1  0.375975  0.817056  0.524228  1
  O  O45  1  0.827790  0.975090  0.875110  1
  O  O46  1  0.757178  0.231059  0.153318  1
  O  O47  1  0.672210  0.975090  0.375110  1
  O  O48  1  0.375975  0.317056  0.975772  1
  O  O49  1  0.124025  0.317056  0.475772  1
  O  O50  1  0.704867  0.453500  0.433887  1
  O  O51  1  0.704867  0.953500  0.066113  1
  O  O52  1  0.672210  0.475090  0.124890  1
  O  O53  1  0.875975  0.682944  0.524228  1
  O  O54  1  0.875975  0.182944  0.975772  1
  O  O55  1  0.624025  0.682944  0.024228  1
  O  O56  1  0.827790  0.475090  0.624890  1
  O  O57  1  0.742822  0.731059  0.846682  1
  O  O58  1  0.242822  0.268941  0.653318  1
  O  O59  1  0.172210  0.524910  0.375110  1
  O  O60  1  0.327790  0.524910  0.875110  1
  O  O61  1  0.439131  0.173703  0.304913  1
  O  O62  1  0.327790  0.024910  0.624890  1
  O  O63  1  0.439131  0.673703  0.195087  1
