# generated using pymatgen
data_Na4Zr2(SiO4)3
_symmetry_space_group_name_H-M   'P 1'
_cell_length_a   9.21699267
_cell_length_b   9.21699267
_cell_length_c   9.21699267
_cell_angle_alpha   60.74072708
_cell_angle_beta   60.74072708
_cell_angle_gamma   60.74072708
_symmetry_Int_Tables_number   1
_chemical_formula_structural   Na4Zr2(SiO4)3
_chemical_formula_sum   'Na8 Zr4 Si6 O24'
_cell_volume   562.92619199
_cell_formula_units_Z   2
loop_
 _symmetry_equiv_pos_site_id
 _symmetry_equiv_pos_as_xyz
  1  'x, y, z'
loop_
 _atom_site_type_symbol
 _atom_site_label
 _atom_site_symmetry_multiplicity
 _atom_site_fract_x
 _atom_site_fract_y
 _atom_site_fract_z
 _atom_site_occupancy
  Na  Na0  1  0.611509  0.250935  0.880859  1
  Na  Na1  1  0.380859  0.750935  0.111509  1
  Na  Na2  1  0.880859  0.611509  0.250935  1
  Na  Na3  1  0.111509  0.380859  0.750935  1
  Na  Na4  1  0.250935  0.880859  0.611509  1
  Na  Na5  1  0.501262  0.501262  0.501262  1
  Na  Na6  1  0.750935  0.111509  0.380859  1
  Na  Na7  1  0.001262  0.001262  0.001262  1
  Zr  Zr8  1  0.355450  0.355450  0.355450  1
  Zr  Zr9  1  0.148830  0.148830  0.148830  1
  Zr  Zr10  1  0.855450  0.855450  0.855450  1
  Zr  Zr11  1  0.648830  0.648830  0.648830  1
  Si  Si12  1  0.455730  0.049775  0.751626  1
  Si  Si13  1  0.251626  0.549775  0.955730  1
  Si  Si14  1  0.955730  0.251626  0.549775  1
  Si  Si15  1  0.549775  0.955730  0.251626  1
  Si  Si16  1  0.751626  0.455730  0.049775  1
  Si  Si17  1  0.049775  0.751626  0.455730  1
  O  O18  1  0.083557  0.732532  0.937693  1
  O  O19  1  0.418863  0.568358  0.771749  1
  O  O20  1  0.378477  0.993632  0.209110  1
  O  O21  1  0.437693  0.232532  0.583557  1
  O  O22  1  0.732532  0.937693  0.083557  1
  O  O23  1  0.232532  0.583557  0.437693  1
  O  O24  1  0.014416  0.795659  0.625276  1
  O  O25  1  0.125276  0.295659  0.514416  1
  O  O26  1  0.209110  0.378477  0.993632  1
  O  O27  1  0.583557  0.437693  0.232532  1
  O  O28  1  0.625276  0.014416  0.795659  1
  O  O29  1  0.271749  0.068358  0.918863  1
  O  O30  1  0.878477  0.709110  0.493632  1
  O  O31  1  0.918863  0.271749  0.068358  1
  O  O32  1  0.514416  0.125276  0.295659  1
  O  O33  1  0.493632  0.878477  0.709110  1
  O  O34  1  0.068358  0.918863  0.271749  1
  O  O35  1  0.295659  0.514416  0.125276  1
  O  O36  1  0.795659  0.625276  0.014416  1
  O  O37  1  0.771749  0.418863  0.568358  1
  O  O38  1  0.709110  0.493632  0.878477  1
  O  O39  1  0.568358  0.771749  0.418863  1
  O  O40  1  0.937693  0.083557  0.732532  1
  O  O41  1  0.993632  0.209110  0.378477  1
