# generated using pymatgen
data_PNF2
_symmetry_space_group_name_H-M   'P 1'
_cell_length_a   5.21061405
_cell_length_b   14.19437062
_cell_length_c   7.54315572
_cell_angle_alpha   90.00000000
_cell_angle_beta   109.04924394
_cell_angle_gamma   90.00000000
_symmetry_Int_Tables_number   1
_chemical_formula_structural   PNF2
_chemical_formula_sum   'P8 N8 F16'
_cell_volume   527.35064516
_cell_formula_units_Z   8
loop_
 _symmetry_equiv_pos_site_id
 _symmetry_equiv_pos_as_xyz
  1  'x, y, z'
loop_
 _atom_site_type_symbol
 _atom_site_label
 _atom_site_symmetry_multiplicity
 _atom_site_fract_x
 _atom_site_fract_y
 _atom_site_fract_z
 _atom_site_occupancy
  P  P0  1  0.924122  0.613219  0.310982  1
  P  P1  1  0.312748  0.922761  0.192767  1
  P  P2  1  0.075878  0.386781  0.689018  1
  P  P3  1  0.924122  0.886781  0.810982  1
  P  P4  1  0.687252  0.422761  0.307233  1
  P  P5  1  0.687252  0.077239  0.807233  1
  P  P6  1  0.312748  0.577239  0.692767  1
  P  P7  1  0.075878  0.113219  0.189018  1
  N  N8  1  0.839259  0.377376  0.500341  1
  N  N9  1  0.160741  0.877376  0.999659  1
  N  N10  1  0.746829  0.976754  0.748856  1
  N  N11  1  0.839259  0.122624  0.000341  1
  N  N12  1  0.160741  0.622624  0.499659  1
  N  N13  1  0.253171  0.023246  0.251144  1
  N  N14  1  0.746829  0.523246  0.248856  1
  N  N15  1  0.253171  0.476754  0.751144  1
  F  F16  1  0.376027  0.417611  0.279385  1
  F  F17  1  0.376027  0.082389  0.779385  1
  F  F18  1  0.271481  0.301576  0.705150  1
  F  F19  1  0.728519  0.801576  0.794850  1
  F  F20  1  0.696271  0.147273  0.650262  1
  F  F21  1  0.271481  0.198424  0.205150  1
  F  F22  1  0.623973  0.582389  0.720615  1
  F  F23  1  0.038916  0.638911  0.150593  1
  F  F24  1  0.961084  0.361089  0.849407  1
  F  F25  1  0.303729  0.647273  0.849738  1
  F  F26  1  0.728519  0.698424  0.294850  1
  F  F27  1  0.038916  0.861089  0.650593  1
  F  F28  1  0.961084  0.138911  0.349407  1
  F  F29  1  0.696271  0.352727  0.150262  1
  F  F30  1  0.303729  0.852727  0.349738  1
  F  F31  1  0.623973  0.917611  0.220615  1
