# generated using pymatgen
data_LaTiI5O16
_symmetry_space_group_name_H-M   'P 1'
_cell_length_a   7.52404572
_cell_length_b   18.24249307
_cell_length_c   12.86103013
_cell_angle_alpha   90.00000000
_cell_angle_beta   124.13169080
_cell_angle_gamma   90.00000000
_symmetry_Int_Tables_number   1
_chemical_formula_structural   LaTiI5O16
_chemical_formula_sum   'La4 Ti4 I20 O64'
_cell_volume   1461.20321963
_cell_formula_units_Z   4
loop_
 _symmetry_equiv_pos_site_id
 _symmetry_equiv_pos_as_xyz
  1  'x, y, z'
loop_
 _atom_site_type_symbol
 _atom_site_label
 _atom_site_symmetry_multiplicity
 _atom_site_fract_x
 _atom_site_fract_y
 _atom_site_fract_z
 _atom_site_occupancy
  La  La0  1  0.982996  0.233220  0.741201  1
  La  La1  1  0.982996  0.266780  0.241201  1
  La  La2  1  0.017004  0.766780  0.258799  1
  La  La3  1  0.017004  0.733220  0.758799  1
  Ti  Ti4  1  0.498657  0.501701  0.234265  1
  Ti  Ti5  1  0.501343  0.001701  0.265735  1
  Ti  Ti6  1  0.498657  0.998299  0.734265  1
  Ti  Ti7  1  0.501343  0.498299  0.765735  1
  I  I8  1  0.473315  0.622034  0.567031  1
  I  I9  1  0.117678  0.368165  0.550681  1
  I  I10  1  0.989999  0.505334  0.753118  1
  I  I11  1  0.473315  0.877966  0.067031  1
  I  I12  1  0.324113  0.679829  0.099068  1
  I  I13  1  0.666602  0.663747  0.937090  1
  I  I14  1  0.989999  0.994666  0.253118  1
  I  I15  1  0.526685  0.377966  0.432969  1
  I  I16  1  0.333398  0.336253  0.062910  1
  I  I17  1  0.675887  0.179829  0.400932  1
  I  I18  1  0.675887  0.320171  0.900932  1
  I  I19  1  0.526685  0.122034  0.932969  1
  I  I20  1  0.010001  0.494666  0.246882  1
  I  I21  1  0.324113  0.820171  0.599068  1
  I  I22  1  0.666602  0.836253  0.437090  1
  I  I23  1  0.010001  0.005334  0.746882  1
  I  I24  1  0.333398  0.163747  0.562910  1
  I  I25  1  0.117678  0.131835  0.050681  1
  I  I26  1  0.882322  0.631835  0.449319  1
  I  I27  1  0.882322  0.868165  0.949319  1
  O  O28  1  0.203999  0.200386  0.980609  1
  O  O29  1  0.697335  0.417210  0.860911  1
  O  O30  1  0.351078  0.587215  0.649629  1
  O  O31  1  0.998795  0.096875  0.801702  1
  O  O32  1  0.351078  0.912785  0.149629  1
  O  O33  1  0.596828  0.168927  0.585386  1
  O  O34  1  0.796001  0.700386  0.519391  1
  O  O35  1  0.737252  0.305196  0.520174  1
  O  O36  1  0.737252  0.194804  0.020174  1
  O  O37  1  0.944112  0.176070  0.548494  1
  O  O38  1  0.729336  0.226274  0.295625  1
  O  O39  1  0.203999  0.299614  0.480609  1
  O  O40  1  0.998795  0.403125  0.301702  1
  O  O41  1  0.262748  0.694804  0.479826  1
  O  O42  1  0.270664  0.726274  0.204375  1
  O  O43  1  0.944112  0.323930  0.048494  1
  O  O44  1  0.302665  0.582790  0.139089  1
  O  O45  1  0.212457  0.182982  0.194557  1
  O  O46  1  0.103381  0.948188  0.885187  1
  O  O47  1  0.349850  0.069735  0.109355  1
  O  O48  1  0.648922  0.087215  0.850371  1
  O  O49  1  0.702096  0.512628  0.207485  1
  O  O50  1  0.682657  0.936054  0.412472  1
  O  O51  1  0.055888  0.823930  0.451506  1
  O  O52  1  0.340409  0.185767  0.808973  1
  O  O53  1  0.702096  0.987372  0.707485  1
  O  O54  1  0.403172  0.668927  0.914614  1
  O  O55  1  0.691285  0.524129  0.697332  1
  O  O56  1  0.596828  0.331073  0.085386  1
  O  O57  1  0.308715  0.024129  0.802668  1
  O  O58  1  0.212457  0.317018  0.694557  1
  O  O59  1  0.682657  0.563946  0.912472  1
  O  O60  1  0.403172  0.831073  0.414614  1
  O  O61  1  0.164049  0.341506  0.892227  1
  O  O62  1  0.297904  0.487372  0.792515  1
  O  O63  1  0.297904  0.012628  0.292515  1
  O  O64  1  0.650150  0.930265  0.890645  1
  O  O65  1  0.055888  0.676070  0.951506  1
  O  O66  1  0.691285  0.975871  0.197332  1
  O  O67  1  0.164049  0.158494  0.392227  1
  O  O68  1  0.302665  0.917210  0.639089  1
  O  O69  1  0.697335  0.082790  0.360911  1
  O  O70  1  0.103381  0.551812  0.385187  1
  O  O71  1  0.835951  0.841506  0.607773  1
  O  O72  1  0.659591  0.814233  0.191027  1
  O  O73  1  0.349850  0.430265  0.609355  1
  O  O74  1  0.308715  0.475871  0.302668  1
  O  O75  1  0.659591  0.685767  0.691027  1
  O  O76  1  0.648922  0.412785  0.350371  1
  O  O77  1  0.317343  0.436054  0.087528  1
  O  O78  1  0.650150  0.569735  0.390645  1
  O  O79  1  0.317343  0.063946  0.587528  1
  O  O80  1  0.896619  0.051812  0.114813  1
  O  O81  1  0.001205  0.903125  0.198298  1
  O  O82  1  0.270664  0.773726  0.704375  1
  O  O83  1  0.340409  0.314233  0.308973  1
  O  O84  1  0.001205  0.596875  0.698298  1
  O  O85  1  0.729336  0.273726  0.795625  1
  O  O86  1  0.262748  0.805196  0.979826  1
  O  O87  1  0.896619  0.448188  0.614813  1
  O  O88  1  0.796001  0.799614  0.019391  1
  O  O89  1  0.835951  0.658494  0.107773  1
  O  O90  1  0.787543  0.817018  0.805443  1
  O  O91  1  0.787543  0.682982  0.305443  1
