# generated using pymatgen
data_Cr3Te4
_symmetry_space_group_name_H-M   'P 1'
_cell_length_a   4.02889113
_cell_length_b   4.02889113
_cell_length_c   12.64197711
_cell_angle_alpha   90.00000000
_cell_angle_beta   90.00000000
_cell_angle_gamma   120.00000000
_symmetry_Int_Tables_number   1
_chemical_formula_structural   Cr3Te4
_chemical_formula_sum   'Cr3 Te4'
_cell_volume   177.71197543
_cell_formula_units_Z   1
loop_
 _symmetry_equiv_pos_site_id
 _symmetry_equiv_pos_as_xyz
  1  'x, y, z'
loop_
 _atom_site_type_symbol
 _atom_site_label
 _atom_site_symmetry_multiplicity
 _atom_site_fract_x
 _atom_site_fract_y
 _atom_site_fract_z
 _atom_site_occupancy
  Cr  Cr0  1  0.000000  0.000000  0.500000  1
  Cr  Cr1  1  0.000000  0.000000  0.244084  1
  Cr  Cr2  1  0.000000  0.000000  0.755916  1
  Te  Te3  1  0.666667  0.333333  0.134790  1
  Te  Te4  1  0.666667  0.333333  0.625284  1
  Te  Te5  1  0.333333  0.666667  0.865210  1
  Te  Te6  1  0.333333  0.666667  0.374716  1
