# generated using pymatgen
data_DyNiSn
_symmetry_space_group_name_H-M   'P 1'
_cell_length_a   4.47766674
_cell_length_b   7.13285633
_cell_length_c   7.69137049
_cell_angle_alpha   90.00000000
_cell_angle_beta   90.00000000
_cell_angle_gamma   90.00000000
_symmetry_Int_Tables_number   1
_chemical_formula_structural   DyNiSn
_chemical_formula_sum   'Dy4 Ni4 Sn4'
_cell_volume   245.65124827
_cell_formula_units_Z   4
loop_
 _symmetry_equiv_pos_site_id
 _symmetry_equiv_pos_as_xyz
  1  'x, y, z'
loop_
 _atom_site_type_symbol
 _atom_site_label
 _atom_site_symmetry_multiplicity
 _atom_site_fract_x
 _atom_site_fract_y
 _atom_site_fract_z
 _atom_site_occupancy
  Dy  Dy0  1  0.750000  0.012881  0.702734  1
  Dy  Dy1  1  0.250000  0.987119  0.297266  1
  Dy  Dy2  1  0.750000  0.512881  0.797266  1
  Dy  Dy3  1  0.250000  0.487119  0.202734  1
  Ni  Ni4  1  0.750000  0.799328  0.084917  1
  Ni  Ni5  1  0.250000  0.200672  0.915083  1
  Ni  Ni6  1  0.750000  0.299328  0.415083  1
  Ni  Ni7  1  0.250000  0.700672  0.584917  1
  Sn  Sn8  1  0.750000  0.690612  0.413360  1
  Sn  Sn9  1  0.250000  0.309388  0.586640  1
  Sn  Sn10  1  0.750000  0.190612  0.086640  1
  Sn  Sn11  1  0.250000  0.809388  0.913360  1
