# generated using pymatgen
data_CaAl2O4
_symmetry_space_group_name_H-M   'P 1'
_cell_length_a   5.61105301
_cell_length_b   3.80716438
_cell_length_c   7.11233832
_cell_angle_alpha   90.00000000
_cell_angle_beta   101.12264357
_cell_angle_gamma   90.00000000
_symmetry_Int_Tables_number   1
_chemical_formula_structural   CaAl2O4
_chemical_formula_sum   'Ca2 Al4 O8'
_cell_volume   149.08132726
_cell_formula_units_Z   2
loop_
 _symmetry_equiv_pos_site_id
 _symmetry_equiv_pos_as_xyz
  1  'x, y, z'
loop_
 _atom_site_type_symbol
 _atom_site_label
 _atom_site_symmetry_multiplicity
 _atom_site_fract_x
 _atom_site_fract_y
 _atom_site_fract_z
 _atom_site_occupancy
  Ca  Ca0  1  0.731693  0.750000  0.428009  1
  Ca  Ca1  1  0.268307  0.250000  0.571991  1
  Al  Al2  1  0.847272  0.750000  0.870991  1
  Al  Al3  1  0.152728  0.250000  0.129009  1
  Al  Al4  1  0.344943  0.750000  0.887552  1
  Al  Al5  1  0.655057  0.250000  0.112448  1
  O  O6  1  0.941408  0.250000  0.307389  1
  O  O7  1  0.858745  0.250000  0.928837  1
  O  O8  1  0.455692  0.250000  0.303271  1
  O  O9  1  0.642696  0.750000  0.074495  1
  O  O10  1  0.544308  0.750000  0.696729  1
  O  O11  1  0.141255  0.750000  0.071163  1
  O  O12  1  0.357304  0.250000  0.925505  1
  O  O13  1  0.058592  0.750000  0.692611  1
