# generated using pymatgen
data_K3In2As3
_symmetry_space_group_name_H-M   'P 1'
_cell_length_a   10.61818749
_cell_length_b   10.61818749
_cell_length_c   15.09912121
_cell_angle_alpha   90.00000000
_cell_angle_beta   90.00000000
_cell_angle_gamma   142.07739989
_symmetry_Int_Tables_number   1
_chemical_formula_structural   K3In2As3
_chemical_formula_sum   'K12 In8 As12'
_cell_volume   1046.26684909
_cell_formula_units_Z   4
loop_
 _symmetry_equiv_pos_site_id
 _symmetry_equiv_pos_as_xyz
  1  'x, y, z'
loop_
 _atom_site_type_symbol
 _atom_site_label
 _atom_site_symmetry_multiplicity
 _atom_site_fract_x
 _atom_site_fract_y
 _atom_site_fract_z
 _atom_site_occupancy
  K  K0  1  0.613960  0.930235  0.675859  1
  K  K1  1  0.569765  0.886040  0.175859  1
  K  K2  1  0.069765  0.386040  0.324141  1
  K  K3  1  0.113960  0.430235  0.824141  1
  K  K4  1  0.651143  0.651143  0.862412  1
  K  K5  1  0.430235  0.113960  0.824141  1
  K  K6  1  0.348857  0.348857  0.137588  1
  K  K7  1  0.930235  0.613960  0.675859  1
  K  K8  1  0.151143  0.151143  0.637588  1
  K  K9  1  0.886040  0.569765  0.175859  1
  K  K10  1  0.848857  0.848857  0.362412  1
  K  K11  1  0.386040  0.069765  0.324141  1
  In  In12  1  0.238700  0.761300  0.500000  1
  In  In13  1  0.261300  0.738700  0.000000  1
  In  In14  1  0.738700  0.261300  0.000000  1
  In  In15  1  0.916535  0.083465  1.000000  1
  In  In16  1  0.761300  0.238700  0.500000  1
  In  In17  1  0.083465  0.916535  0.000000  1
  In  In18  1  0.416535  0.583465  0.500000  1
  In  In19  1  0.583465  0.416535  0.500000  1
  As  As20  1  0.050559  0.399516  0.097795  1
  As  As21  1  0.661883  0.661883  0.618521  1
  As  As22  1  0.399516  0.050559  0.097795  1
  As  As23  1  0.600484  0.949441  0.902205  1
  As  As24  1  0.949441  0.600484  0.902205  1
  As  As25  1  0.449441  0.100484  0.597795  1
  As  As26  1  0.550559  0.899516  0.402205  1
  As  As27  1  0.161883  0.161883  0.881479  1
  As  As28  1  0.100484  0.449441  0.597795  1
  As  As29  1  0.838117  0.838117  0.118521  1
  As  As30  1  0.338117  0.338117  0.381479  1
  As  As31  1  0.899516  0.550559  0.402205  1
