# generated using pymatgen
data_Nd6S4BrN3
_symmetry_space_group_name_H-M   'P 1'
_cell_length_a   4.02922899
_cell_length_b   11.53751515
_cell_length_c   27.39314356
_cell_angle_alpha   90.00000000
_cell_angle_beta   90.00000000
_cell_angle_gamma   90.00000000
_symmetry_Int_Tables_number   1
_chemical_formula_structural   Nd6S4BrN3
_chemical_formula_sum   'Nd24 S16 Br4 N12'
_cell_volume   1273.43302279
_cell_formula_units_Z   4
loop_
 _symmetry_equiv_pos_site_id
 _symmetry_equiv_pos_as_xyz
  1  'x, y, z'
loop_
 _atom_site_type_symbol
 _atom_site_label
 _atom_site_symmetry_multiplicity
 _atom_site_fract_x
 _atom_site_fract_y
 _atom_site_fract_z
 _atom_site_occupancy
  Nd  Nd0  1  0.250000  0.400594  0.535193  1
  Nd  Nd1  1  0.750000  0.057897  0.577999  1
  Nd  Nd2  1  0.750000  0.752138  0.064259  1
  Nd  Nd3  1  0.250000  0.375821  0.282871  1
  Nd  Nd4  1  0.250000  0.437531  0.807558  1
  Nd  Nd5  1  0.250000  0.875821  0.217129  1
  Nd  Nd6  1  0.250000  0.742969  0.829197  1
  Nd  Nd7  1  0.750000  0.624179  0.717129  1
  Nd  Nd8  1  0.750000  0.099406  0.035193  1
  Nd  Nd9  1  0.250000  0.942103  0.422001  1
  Nd  Nd10  1  0.250000  0.900594  0.964807  1
  Nd  Nd11  1  0.750000  0.124179  0.782871  1
  Nd  Nd12  1  0.250000  0.242969  0.670803  1
  Nd  Nd13  1  0.750000  0.562469  0.192442  1
  Nd  Nd14  1  0.750000  0.757031  0.329197  1
  Nd  Nd15  1  0.250000  0.747862  0.564259  1
  Nd  Nd16  1  0.750000  0.252138  0.435741  1
  Nd  Nd17  1  0.750000  0.062469  0.307558  1
  Nd  Nd18  1  0.250000  0.247862  0.935741  1
  Nd  Nd19  1  0.250000  0.937531  0.692442  1
  Nd  Nd20  1  0.250000  0.442103  0.077999  1
  Nd  Nd21  1  0.750000  0.257031  0.170803  1
  Nd  Nd22  1  0.750000  0.599406  0.464807  1
  Nd  Nd23  1  0.750000  0.557897  0.922001  1
  S  S24  1  0.250000  0.636874  0.264385  1
  S  S25  1  0.250000  0.143129  0.493596  1
  S  S26  1  0.250000  0.707461  0.397926  1
  S  S27  1  0.750000  0.856871  0.506404  1
  S  S28  1  0.250000  0.207461  0.102074  1
  S  S29  1  0.250000  0.192198  0.361907  1
  S  S30  1  0.750000  0.292539  0.602074  1
  S  S31  1  0.750000  0.356871  0.993596  1
  S  S32  1  0.750000  0.807802  0.638093  1
  S  S33  1  0.250000  0.136874  0.235615  1
  S  S34  1  0.250000  0.692198  0.138093  1
  S  S35  1  0.250000  0.643129  0.006404  1
  S  S36  1  0.750000  0.307802  0.861907  1
  S  S37  1  0.750000  0.792539  0.897926  1
  S  S38  1  0.750000  0.363126  0.735615  1
  S  S39  1  0.750000  0.863126  0.764385  1
  Br  Br40  1  0.250000  0.038172  0.862365  1
  Br  Br41  1  0.250000  0.538172  0.637635  1
  Br  Br42  1  0.750000  0.461828  0.362365  1
  Br  Br43  1  0.750000  0.961828  0.137635  1
  N  N44  1  0.750000  0.939291  0.374965  1
  N  N45  1  0.250000  0.598229  0.513932  1
  N  N46  1  0.250000  0.611788  0.762625  1
  N  N47  1  0.250000  0.060709  0.625035  1
  N  N48  1  0.250000  0.560709  0.874965  1
  N  N49  1  0.750000  0.888212  0.262625  1
  N  N50  1  0.250000  0.111788  0.737375  1
  N  N51  1  0.750000  0.439291  0.125035  1
  N  N52  1  0.250000  0.098229  0.986068  1
  N  N53  1  0.750000  0.401771  0.486068  1
  N  N54  1  0.750000  0.388212  0.237375  1
  N  N55  1  0.750000  0.901771  0.013932  1
