# generated using pymatgen
data_TmB4
_symmetry_space_group_name_H-M   'P 1'
_cell_length_a   7.05320928
_cell_length_b   7.05320928
_cell_length_c   3.98404523
_cell_angle_alpha   90.00000000
_cell_angle_beta   90.00000000
_cell_angle_gamma   90.00000000
_symmetry_Int_Tables_number   1
_chemical_formula_structural   TmB4
_chemical_formula_sum   'Tm4 B16'
_cell_volume   198.19733050
_cell_formula_units_Z   4
loop_
 _symmetry_equiv_pos_site_id
 _symmetry_equiv_pos_as_xyz
  1  'x, y, z'
loop_
 _atom_site_type_symbol
 _atom_site_label
 _atom_site_symmetry_multiplicity
 _atom_site_fract_x
 _atom_site_fract_y
 _atom_site_fract_z
 _atom_site_occupancy
  Tm  Tm0  1  0.816375  0.316375  0.000000  1
  Tm  Tm1  1  0.183625  0.683625  0.000000  1
  Tm  Tm2  1  0.316375  0.183625  0.000000  1
  Tm  Tm3  1  0.683625  0.816375  0.000000  1
  B  B4  1  0.500000  0.500000  0.797318  1
  B  B5  1  0.000000  0.000000  0.797318  1
  B  B6  1  0.500000  0.500000  0.202682  1
  B  B7  1  0.000000  0.000000  0.202682  1
  B  B8  1  0.586585  0.086585  0.500000  1
  B  B9  1  0.413415  0.913415  0.500000  1
  B  B10  1  0.086585  0.413415  0.500000  1
  B  B11  1  0.913415  0.586585  0.500000  1
  B  B12  1  0.676839  0.538502  0.500000  1
  B  B13  1  0.323161  0.461498  0.500000  1
  B  B14  1  0.176839  0.961498  0.500000  1
  B  B15  1  0.823161  0.038502  0.500000  1
  B  B16  1  0.461498  0.676839  0.500000  1
  B  B17  1  0.538502  0.323161  0.500000  1
  B  B18  1  0.038502  0.176839  0.500000  1
  B  B19  1  0.961498  0.823161  0.500000  1
