# generated using pymatgen
data_UCo5Si3
_symmetry_space_group_name_H-M   'P 1'
_cell_length_a   14.68438039
_cell_length_b   14.68438039
_cell_length_c   3.68013108
_cell_angle_alpha   90.00000000
_cell_angle_beta   90.00000000
_cell_angle_gamma   120.00000000
_symmetry_Int_Tables_number   1
_chemical_formula_structural   UCo5Si3
_chemical_formula_sum   'U6 Co30 Si18'
_cell_volume   687.23484570
_cell_formula_units_Z   6
loop_
 _symmetry_equiv_pos_site_id
 _symmetry_equiv_pos_as_xyz
  1  'x, y, z'
loop_
 _atom_site_type_symbol
 _atom_site_label
 _atom_site_symmetry_multiplicity
 _atom_site_fract_x
 _atom_site_fract_y
 _atom_site_fract_z
 _atom_site_occupancy
  U  U0  1  0.388917  0.100739  0.250000  1
  U  U1  1  0.288178  0.388917  0.750000  1
  U  U2  1  0.100739  0.711822  0.750000  1
  U  U3  1  0.899261  0.288178  0.250000  1
  U  U4  1  0.711822  0.611083  0.250000  1
  U  U5  1  0.611083  0.899261  0.750000  1
  Co  Co6  1  0.652416  0.225063  0.250000  1
  Co  Co7  1  0.427353  0.652416  0.750000  1
  Co  Co8  1  0.225063  0.572647  0.750000  1
  Co  Co9  1  0.774937  0.427353  0.250000  1
  Co  Co10  1  0.572647  0.347584  0.250000  1
  Co  Co11  1  0.347584  0.774937  0.750000  1
  Co  Co12  1  0.461865  0.925052  0.250000  1
  Co  Co13  1  0.536813  0.461865  0.750000  1
  Co  Co14  1  0.925052  0.463187  0.750000  1
  Co  Co15  1  0.074948  0.536813  0.250000  1
  Co  Co16  1  0.463187  0.538135  0.250000  1
  Co  Co17  1  0.538135  0.074948  0.750000  1
  Co  Co18  1  0.268365  0.228038  0.250000  1
  Co  Co19  1  0.040327  0.268365  0.750000  1
  Co  Co20  1  0.228038  0.959673  0.750000  1
  Co  Co21  1  0.771962  0.040327  0.250000  1
  Co  Co22  1  0.959673  0.731635  0.250000  1
  Co  Co23  1  0.731635  0.771962  0.750000  1
  Co  Co24  1  0.150582  0.413465  0.250000  1
  Co  Co25  1  0.737117  0.150582  0.750000  1
  Co  Co26  1  0.413465  0.262883  0.750000  1
  Co  Co27  1  0.586535  0.737117  0.250000  1
  Co  Co28  1  0.262883  0.849418  0.250000  1
  Co  Co29  1  0.849418  0.586535  0.750000  1
  Co  Co30  1  0.127832  0.033433  0.250000  1
  Co  Co31  1  0.094400  0.127832  0.750000  1
  Co  Co32  1  0.033433  0.905600  0.750000  1
  Co  Co33  1  0.966567  0.094400  0.250000  1
  Co  Co34  1  0.905600  0.872168  0.250000  1
  Co  Co35  1  0.872168  0.966567  0.750000  1
  Si  Si36  1  0.442861  0.761366  0.250000  1
  Si  Si37  1  0.681495  0.442861  0.750000  1
  Si  Si38  1  0.761366  0.318505  0.750000  1
  Si  Si39  1  0.238634  0.681495  0.250000  1
  Si  Si40  1  0.318505  0.557139  0.250000  1
  Si  Si41  1  0.557139  0.238634  0.750000  1
  Si  Si42  1  0.122292  0.244176  0.250000  1
  Si  Si43  1  0.878116  0.122292  0.750000  1
  Si  Si44  1  0.244176  0.121884  0.750000  1
  Si  Si45  1  0.755824  0.878116  0.250000  1
  Si  Si46  1  0.121884  0.877708  0.250000  1
  Si  Si47  1  0.877708  0.755824  0.750000  1
  Si  Si48  1  0.433459  0.371438  0.250000  1
  Si  Si49  1  0.062021  0.433459  0.750000  1
  Si  Si50  1  0.371438  0.937979  0.750000  1
  Si  Si51  1  0.628562  0.062021  0.250000  1
  Si  Si52  1  0.937979  0.566541  0.250000  1
  Si  Si53  1  0.566541  0.628562  0.750000  1
