# generated using pymatgen
data_CsS2N(O2F)2
_symmetry_space_group_name_H-M   'P 1'
_cell_length_a   8.11631816
_cell_length_b   8.69918919
_cell_length_c   12.39888497
_cell_angle_alpha   90.00000000
_cell_angle_beta   120.78136851
_cell_angle_gamma   90.00000000
_symmetry_Int_Tables_number   1
_chemical_formula_structural   CsS2N(O2F)2
_chemical_formula_sum   'Cs4 S8 N4 O16 F8'
_cell_volume   752.10333320
_cell_formula_units_Z   4
loop_
 _symmetry_equiv_pos_site_id
 _symmetry_equiv_pos_as_xyz
  1  'x, y, z'
loop_
 _atom_site_type_symbol
 _atom_site_label
 _atom_site_symmetry_multiplicity
 _atom_site_fract_x
 _atom_site_fract_y
 _atom_site_fract_z
 _atom_site_occupancy
  Cs  Cs0  1  0.766980  0.243876  0.911671  1
  Cs  Cs1  1  0.233020  0.743876  0.588329  1
  Cs  Cs2  1  0.233020  0.756124  0.088329  1
  Cs  Cs3  1  0.766980  0.256124  0.411671  1
  S  S4  1  0.356894  0.187545  0.538435  1
  S  S5  1  0.643106  0.687545  0.961565  1
  S  S6  1  0.643106  0.812455  0.461565  1
  S  S7  1  0.356894  0.312455  0.038435  1
  S  S8  1  0.208767  0.397776  0.343516  1
  S  S9  1  0.791233  0.897776  0.156484  1
  S  S10  1  0.791233  0.602224  0.656484  1
  S  S11  1  0.208767  0.102224  0.843516  1
  N  N12  1  0.380722  0.292095  0.442322  1
  N  N13  1  0.619278  0.792095  0.057678  1
  N  N14  1  0.619278  0.707905  0.557678  1
  N  N15  1  0.380722  0.207905  0.942322  1
  O  O16  1  0.179709  0.102460  0.485852  1
  O  O17  1  0.820291  0.602460  0.014148  1
  O  O18  1  0.820291  0.897540  0.514148  1
  O  O19  1  0.179709  0.397540  0.985852  1
  O  O20  1  0.535300  0.110884  0.619204  1
  O  O21  1  0.464700  0.610884  0.880796  1
  O  O22  1  0.464700  0.889116  0.380796  1
  O  O23  1  0.535300  0.389116  0.119204  1
  O  O24  1  0.280502  0.493218  0.282447  1
  O  O25  1  0.719498  0.993218  0.217553  1
  O  O26  1  0.719498  0.506782  0.717553  1
  O  O27  1  0.280502  0.006782  0.782447  1
  O  O28  1  0.089635  0.462708  0.386992  1
  O  O29  1  0.910365  0.962708  0.113008  1
  O  O30  1  0.910365  0.537292  0.613008  1
  O  O31  1  0.089635  0.037292  0.886992  1
  F  F32  1  0.339167  0.312010  0.630901  1
  F  F33  1  0.660833  0.812010  0.869099  1
  F  F34  1  0.660833  0.687990  0.369099  1
  F  F35  1  0.339167  0.187990  0.130901  1
  F  F36  1  0.067677  0.276473  0.236396  1
  F  F37  1  0.932323  0.776473  0.263604  1
  F  F38  1  0.932323  0.723527  0.763604  1
  F  F39  1  0.067677  0.223527  0.736396  1
