# generated using pymatgen
data_CdI2
_symmetry_space_group_name_H-M   'P 1'
_cell_length_a   4.33676807
_cell_length_b   4.33676807
_cell_length_c   100.60840444
_cell_angle_alpha   90.00000000
_cell_angle_beta   90.00000000
_cell_angle_gamma   120.00000000
_symmetry_Int_Tables_number   1
_chemical_formula_structural   CdI2
_chemical_formula_sum   'Cd13 I26'
_cell_volume   1638.69182447
_cell_formula_units_Z   13
loop_
 _symmetry_equiv_pos_site_id
 _symmetry_equiv_pos_as_xyz
  1  'x, y, z'
loop_
 _atom_site_type_symbol
 _atom_site_label
 _atom_site_symmetry_multiplicity
 _atom_site_fract_x
 _atom_site_fract_y
 _atom_site_fract_z
 _atom_site_occupancy
  Cd  Cd0  1  0.000000  0.000000  0.711530  1
  Cd  Cd1  1  0.333333  0.666667  0.865389  1
  Cd  Cd2  1  0.000000  0.000000  0.173137  1
  Cd  Cd3  1  0.000000  0.000000  0.403799  1
  Cd  Cd4  1  0.000000  0.000000  0.326945  1
  Cd  Cd5  1  0.333333  0.666667  0.942295  1
  Cd  Cd6  1  0.000000  0.000000  0.788465  1
  Cd  Cd7  1  0.333333  0.666667  0.480852  1
  Cd  Cd8  1  0.333333  0.666667  0.096174  1
  Cd  Cd9  1  0.333333  0.666667  0.634577  1
  Cd  Cd10  1  0.333333  0.666667  0.250003  1
  Cd  Cd11  1  0.000000  0.000000  0.557722  1
  Cd  Cd12  1  0.000000  0.000000  0.019122  1
  I  I13  1  0.666667  0.333333  0.805571  1
  I  I14  1  0.000000  0.000000  0.925198  1
  I  I15  1  0.333333  0.666667  0.540623  1
  I  I16  1  0.333333  0.666667  0.309846  1
  I  I17  1  0.666667  0.333333  0.651662  1
  I  I18  1  0.333333  0.666667  0.156042  1
  I  I19  1  0.666667  0.333333  0.344043  1
  I  I20  1  0.666667  0.333333  0.882477  1
  I  I21  1  0.666667  0.333333  0.036229  1
  I  I22  1  0.666667  0.333333  0.959389  1
  I  I23  1  0.000000  0.000000  0.232918  1
  I  I24  1  0.000000  0.000000  0.079081  1
  I  I25  1  0.333333  0.666667  0.771358  1
  I  I26  1  0.333333  0.666667  0.694446  1
  I  I27  1  0.666667  0.333333  0.420907  1
  I  I28  1  0.000000  0.000000  0.848295  1
  I  I29  1  0.666667  0.333333  0.267088  1
  I  I30  1  0.333333  0.666667  0.002006  1
  I  I31  1  0.666667  0.333333  0.113256  1
  I  I32  1  0.666667  0.333333  0.190239  1
  I  I33  1  0.666667  0.333333  0.728611  1
  I  I34  1  0.000000  0.000000  0.463757  1
  I  I35  1  0.000000  0.000000  0.617492  1
  I  I36  1  0.666667  0.333333  0.574827  1
  I  I37  1  0.333333  0.666667  0.386687  1
  I  I38  1  0.666667  0.333333  0.497943  1
