# generated using pymatgen
data_Ti4S8Br6O
_symmetry_space_group_name_H-M   'P 1'
_cell_length_a   9.70664518
_cell_length_b   11.84081303
_cell_length_c   20.08474628
_cell_angle_alpha   90.00000000
_cell_angle_beta   91.65223697
_cell_angle_gamma   90.00000000
_symmetry_Int_Tables_number   1
_chemical_formula_structural   Ti4S8Br6O
_chemical_formula_sum   'Ti16 S32 Br24 O4'
_cell_volume   2307.47194647
_cell_formula_units_Z   4
loop_
 _symmetry_equiv_pos_site_id
 _symmetry_equiv_pos_as_xyz
  1  'x, y, z'
loop_
 _atom_site_type_symbol
 _atom_site_label
 _atom_site_symmetry_multiplicity
 _atom_site_fract_x
 _atom_site_fract_y
 _atom_site_fract_z
 _atom_site_occupancy
  Ti  Ti0  1  0.124406  0.686781  0.119104  1
  Ti  Ti1  1  0.532094  0.201741  0.841042  1
  Ti  Ti2  1  0.467906  0.701741  0.658958  1
  Ti  Ti3  1  0.532094  0.298259  0.341042  1
  Ti  Ti4  1  0.636874  0.285793  0.982669  1
  Ti  Ti5  1  0.875594  0.186781  0.380896  1
  Ti  Ti6  1  0.363126  0.714207  0.017331  1
  Ti  Ti7  1  0.210422  0.556903  0.612630  1
  Ti  Ti8  1  0.210422  0.943097  0.112630  1
  Ti  Ti9  1  0.875594  0.313219  0.880896  1
  Ti  Ti10  1  0.789578  0.443097  0.387370  1
  Ti  Ti11  1  0.636874  0.214207  0.482669  1
  Ti  Ti12  1  0.124406  0.813219  0.619104  1
  Ti  Ti13  1  0.363126  0.785793  0.517331  1
  Ti  Ti14  1  0.467906  0.798259  0.158958  1
  Ti  Ti15  1  0.789578  0.056903  0.887370  1
  S  S16  1  0.456846  0.501037  0.638229  1
  S  S17  1  0.882591  0.352222  0.999124  1
  S  S18  1  0.041896  0.643912  0.682397  1
  S  S19  1  0.660804  0.452702  0.283123  1
  S  S20  1  0.985260  0.846180  0.083447  1
  S  S21  1  0.543154  0.001037  0.861771  1
  S  S22  1  0.339196  0.952702  0.216877  1
  S  S23  1  0.117409  0.852222  0.500876  1
  S  S24  1  0.014740  0.153820  0.916553  1
  S  S25  1  0.041896  0.856088  0.182397  1
  S  S26  1  0.450853  0.361035  0.914171  1
  S  S27  1  0.014740  0.346180  0.416553  1
  S  S28  1  0.958104  0.143912  0.817603  1
  S  S29  1  0.411340  0.301101  0.444636  1
  S  S30  1  0.985260  0.653820  0.583447  1
  S  S31  1  0.588660  0.801101  0.055364  1
  S  S32  1  0.543154  0.498963  0.361771  1
  S  S33  1  0.411340  0.198899  0.944636  1
  S  S34  1  0.882591  0.147778  0.499124  1
  S  S35  1  0.251790  0.542202  0.051200  1
  S  S36  1  0.549147  0.861035  0.585829  1
  S  S37  1  0.958104  0.356088  0.317603  1
  S  S38  1  0.251790  0.957798  0.551200  1
  S  S39  1  0.748210  0.042202  0.448800  1
  S  S40  1  0.588660  0.698899  0.555364  1
  S  S41  1  0.748210  0.457798  0.948800  1
  S  S42  1  0.456846  0.998963  0.138229  1
  S  S43  1  0.660804  0.047298  0.783123  1
  S  S44  1  0.117409  0.647778  0.000876  1
  S  S45  1  0.549147  0.638965  0.085829  1
  S  S46  1  0.339196  0.547298  0.716877  1
  S  S47  1  0.450853  0.138965  0.414171  1
  Br  Br48  1  0.433244  0.830018  0.406839  1
  Br  Br49  1  0.875522  0.632087  0.399151  1
  Br  Br50  1  0.346219  0.213713  0.761059  1
  Br  Br51  1  0.124478  0.367913  0.600849  1
  Br  Br52  1  0.694311  0.351977  0.779090  1
  Br  Br53  1  0.875522  0.867913  0.899151  1
  Br  Br54  1  0.954544  0.942274  0.657803  1
  Br  Br55  1  0.653781  0.786287  0.238941  1
  Br  Br56  1  0.694311  0.148023  0.279090  1
  Br  Br57  1  0.954544  0.557726  0.157803  1
  Br  Br58  1  0.045456  0.442274  0.842197  1
  Br  Br59  1  0.346219  0.286287  0.261059  1
  Br  Br60  1  0.566756  0.169982  0.593161  1
  Br  Br61  1  0.653781  0.713713  0.738941  1
  Br  Br62  1  0.566756  0.330018  0.093161  1
  Br  Br63  1  0.045456  0.057726  0.342197  1
  Br  Br64  1  0.305689  0.648023  0.220910  1
  Br  Br65  1  0.724307  0.424120  0.517560  1
  Br  Br66  1  0.275693  0.575880  0.482440  1
  Br  Br67  1  0.433244  0.669982  0.906839  1
  Br  Br68  1  0.275693  0.924120  0.982440  1
  Br  Br69  1  0.305689  0.851977  0.720910  1
  Br  Br70  1  0.724307  0.075880  0.017560  1
  Br  Br71  1  0.124478  0.132087  0.100849  1
  O  O72  1  0.709017  0.214211  0.898621  1
  O  O73  1  0.709017  0.285789  0.398621  1
  O  O74  1  0.290983  0.785789  0.101379  1
  O  O75  1  0.290983  0.714211  0.601379  1
