# generated using pymatgen
data_La3GaS5O
_symmetry_space_group_name_H-M   'P 1'
_cell_length_a   4.04931251
_cell_length_b   10.85557112
_cell_length_c   20.06910776
_cell_angle_alpha   90.00000000
_cell_angle_beta   90.00000000
_cell_angle_gamma   90.00000000
_symmetry_Int_Tables_number   1
_chemical_formula_structural   La3GaS5O
_chemical_formula_sum   'La12 Ga4 S20 O4'
_cell_volume   882.18981006
_cell_formula_units_Z   4
loop_
 _symmetry_equiv_pos_site_id
 _symmetry_equiv_pos_as_xyz
  1  'x, y, z'
loop_
 _atom_site_type_symbol
 _atom_site_label
 _atom_site_symmetry_multiplicity
 _atom_site_fract_x
 _atom_site_fract_y
 _atom_site_fract_z
 _atom_site_occupancy
  La  La0  1  0.750000  0.599418  0.163154  1
  La  La1  1  0.250000  0.520329  0.602962  1
  La  La2  1  0.250000  0.147348  0.509677  1
  La  La3  1  0.750000  0.852652  0.490323  1
  La  La4  1  0.250000  0.647348  0.990323  1
  La  La5  1  0.750000  0.979671  0.102962  1
  La  La6  1  0.750000  0.352652  0.009677  1
  La  La7  1  0.250000  0.900582  0.663154  1
  La  La8  1  0.750000  0.099418  0.336846  1
  La  La9  1  0.250000  0.400582  0.836846  1
  La  La10  1  0.750000  0.479671  0.397038  1
  La  La11  1  0.250000  0.020329  0.897038  1
  Ga  Ga12  1  0.250000  0.793513  0.289401  1
  Ga  Ga13  1  0.750000  0.206487  0.710599  1
  Ga  Ga14  1  0.750000  0.706487  0.789401  1
  Ga  Ga15  1  0.250000  0.293513  0.210599  1
  S  S16  1  0.750000  0.372667  0.534538  1
  S  S17  1  0.750000  0.084758  0.620032  1
  S  S18  1  0.250000  0.147693  0.761812  1
  S  S19  1  0.750000  0.221557  0.884619  1
  S  S20  1  0.250000  0.587947  0.288003  1
  S  S21  1  0.250000  0.778443  0.115381  1
  S  S22  1  0.250000  0.415242  0.120032  1
  S  S23  1  0.250000  0.127333  0.034538  1
  S  S24  1  0.250000  0.647693  0.738188  1
  S  S25  1  0.250000  0.087947  0.211997  1
  S  S26  1  0.250000  0.627333  0.465462  1
  S  S27  1  0.250000  0.278443  0.384619  1
  S  S28  1  0.750000  0.584758  0.879968  1
  S  S29  1  0.750000  0.721557  0.615381  1
  S  S30  1  0.750000  0.872667  0.965462  1
  S  S31  1  0.750000  0.412053  0.711997  1
  S  S32  1  0.250000  0.915242  0.379968  1
  S  S33  1  0.750000  0.852307  0.238188  1
  S  S34  1  0.750000  0.352307  0.261812  1
  S  S35  1  0.750000  0.912053  0.788003  1
  O  O36  1  0.250000  0.925166  0.542095  1
  O  O37  1  0.750000  0.074834  0.457905  1
  O  O38  1  0.750000  0.574834  0.042095  1
  O  O39  1  0.250000  0.425166  0.957905  1
