# generated using pymatgen
data_LiMn2NiO6
_symmetry_space_group_name_H-M   'P 1'
_cell_length_a   5.04871123
_cell_length_b   5.04871123
_cell_length_c   10.42146584
_cell_angle_alpha   86.40572448
_cell_angle_beta   93.59427552
_cell_angle_gamma   120.77577283
_symmetry_Int_Tables_number   1
_chemical_formula_structural   LiMn2NiO6
_chemical_formula_sum   'Li2 Mn4 Ni2 O12'
_cell_volume   227.63557412
_cell_formula_units_Z   2
loop_
 _symmetry_equiv_pos_site_id
 _symmetry_equiv_pos_as_xyz
  1  'x, y, z'
loop_
 _atom_site_type_symbol
 _atom_site_label
 _atom_site_symmetry_multiplicity
 _atom_site_fract_x
 _atom_site_fract_y
 _atom_site_fract_z
 _atom_site_occupancy
  Li  Li0  1  0.157686  0.157686  0.250000  1
  Li  Li1  1  0.842314  0.842314  0.750000  1
  Mn  Mn2  1  0.164636  0.330777  0.505171  1
  Mn  Mn3  1  0.330777  0.164636  0.994829  1
  Mn  Mn4  1  0.669223  0.835364  0.005171  1
  Mn  Mn5  1  0.835364  0.669223  0.494829  1
  Ni  Ni6  1  0.500000  1.000000  0.500000  1
  Ni  Ni7  1  1.000000  0.500000  0.000000  1
  O  O8  1  0.141363  0.984324  0.602422  1
  O  O9  1  0.015676  0.858637  0.102422  1
  O  O10  1  0.984324  0.141363  0.897578  1
  O  O11  1  0.519994  0.666178  0.594732  1
  O  O12  1  0.858637  0.015676  0.397578  1
  O  O13  1  0.164572  0.675781  0.407674  1
  O  O14  1  0.333822  0.480006  0.094732  1
  O  O15  1  0.666178  0.519994  0.905268  1
  O  O16  1  0.324219  0.835428  0.907674  1
  O  O17  1  0.835428  0.324219  0.592326  1
  O  O18  1  0.675781  0.164572  0.092326  1
  O  O19  1  0.480006  0.333822  0.405268  1
