# generated using pymatgen
data_KMnPO4
_symmetry_space_group_name_H-M   'P 1'
_cell_length_a   5.57825976
_cell_length_b   8.79270520
_cell_length_c   9.05146126
_cell_angle_alpha   88.02668998
_cell_angle_beta   89.19511697
_cell_angle_gamma   87.83093913
_symmetry_Int_Tables_number   1
_chemical_formula_structural   KMnPO4
_chemical_formula_sum   'K4 Mn4 P4 O16'
_cell_volume   443.33872994
_cell_formula_units_Z   4
loop_
 _symmetry_equiv_pos_site_id
 _symmetry_equiv_pos_as_xyz
  1  'x, y, z'
loop_
 _atom_site_type_symbol
 _atom_site_label
 _atom_site_symmetry_multiplicity
 _atom_site_fract_x
 _atom_site_fract_y
 _atom_site_fract_z
 _atom_site_occupancy
  K  K0  1  0.760594  0.999380  0.680534  1
  K  K1  1  0.781956  0.494767  0.823861  1
  K  K2  1  0.239406  0.000620  0.319466  1
  K  K3  1  0.218044  0.505233  0.176139  1
  Mn  Mn4  1  0.272783  0.176271  0.896111  1
  Mn  Mn5  1  0.727217  0.823729  0.103889  1
  Mn  Mn6  1  0.308397  0.658192  0.579417  1
  Mn  Mn7  1  0.691603  0.341808  0.420583  1
  P  P8  1  0.766851  0.202522  0.092769  1
  P  P9  1  0.781520  0.703279  0.443987  1
  P  P10  1  0.233149  0.797478  0.907231  1
  P  P11  1  0.218480  0.296721  0.556013  1
  O  O12  1  0.244402  0.957104  0.829114  1
  O  O13  1  0.002097  0.219487  0.487897  1
  O  O14  1  0.348640  0.674350  0.806327  1
  O  O15  1  0.651360  0.325650  0.193673  1
  O  O16  1  0.737370  0.547360  0.527094  1
  O  O17  1  0.965681  0.758039  0.938848  1
  O  O18  1  0.630670  0.206661  0.942735  1
  O  O19  1  0.262630  0.452640  0.472906  1
  O  O20  1  0.997903  0.780513  0.512103  1
  O  O21  1  0.171720  0.322933  0.723160  1
  O  O22  1  0.828280  0.677067  0.276840  1
  O  O23  1  0.034319  0.241961  0.061152  1
  O  O24  1  0.369330  0.793339  0.057265  1
  O  O25  1  0.449996  0.195561  0.532468  1
  O  O26  1  0.755598  0.042896  0.170886  1
  O  O27  1  0.550004  0.804439  0.467532  1
