# generated using pymatgen
data_CsScP2(HO4)2
_symmetry_space_group_name_H-M   'P 1'
_cell_length_a   5.42667712
_cell_length_b   9.32447862
_cell_length_c   14.93989553
_cell_angle_alpha   90.00000000
_cell_angle_beta   94.40640384
_cell_angle_gamma   90.00000000
_symmetry_Int_Tables_number   1
_chemical_formula_structural   CsScP2(HO4)2
_chemical_formula_sum   'Cs4 Sc4 P8 H8 O32'
_cell_volume   753.73815318
_cell_formula_units_Z   4
loop_
 _symmetry_equiv_pos_site_id
 _symmetry_equiv_pos_as_xyz
  1  'x, y, z'
loop_
 _atom_site_type_symbol
 _atom_site_label
 _atom_site_symmetry_multiplicity
 _atom_site_fract_x
 _atom_site_fract_y
 _atom_site_fract_z
 _atom_site_occupancy
  Cs  Cs0  1  0.731467  0.503715  0.888408  1
  Cs  Cs1  1  0.268533  0.003715  0.611592  1
  Cs  Cs2  1  0.268533  0.496285  0.111592  1
  Cs  Cs3  1  0.731467  0.996285  0.388408  1
  Sc  Sc4  1  0.748330  0.964005  0.849404  1
  Sc  Sc5  1  0.251670  0.464005  0.650596  1
  Sc  Sc6  1  0.251670  0.035995  0.150596  1
  Sc  Sc7  1  0.748330  0.535995  0.349404  1
  P  P8  1  0.278250  0.151430  0.938840  1
  P  P9  1  0.721750  0.651430  0.561160  1
  P  P10  1  0.721750  0.848570  0.061160  1
  P  P11  1  0.278250  0.348570  0.438840  1
  P  P12  1  0.773201  0.245476  0.693097  1
  P  P13  1  0.226799  0.745476  0.806903  1
  P  P14  1  0.226799  0.754524  0.306903  1
  P  P15  1  0.773201  0.254524  0.193097  1
  H  H16  1  0.833922  0.802193  0.670318  1
  H  H17  1  0.166078  0.302193  0.829682  1
  H  H18  1  0.166078  0.197807  0.329682  1
  H  H19  1  0.833922  0.697807  0.170318  1
  H  H20  1  0.746039  0.289620  0.547945  1
  H  H21  1  0.253961  0.789620  0.952055  1
  H  H22  1  0.253961  0.710380  0.452055  1
  H  H23  1  0.746039  0.210380  0.047945  1
  O  O24  1  0.088554  0.045021  0.897173  1
  O  O25  1  0.911446  0.545021  0.602827  1
  O  O26  1  0.911446  0.954979  0.102827  1
  O  O27  1  0.088554  0.454979  0.397173  1
  O  O28  1  0.256715  0.174297  0.039517  1
  O  O29  1  0.743285  0.674297  0.460483  1
  O  O30  1  0.743285  0.825703  0.960483  1
  O  O31  1  0.256715  0.325703  0.539517  1
  O  O32  1  0.545292  0.113968  0.918924  1
  O  O33  1  0.454708  0.613968  0.581076  1
  O  O34  1  0.454708  0.886032  0.081076  1
  O  O35  1  0.545292  0.386032  0.418924  1
  O  O36  1  0.783034  0.807744  0.604281  1
  O  O37  1  0.216966  0.307744  0.895719  1
  O  O38  1  0.216966  0.192256  0.395719  1
  O  O39  1  0.783034  0.692256  0.104281  1
  O  O40  1  0.738411  0.098839  0.736162  1
  O  O41  1  0.261589  0.598839  0.763838  1
  O  O42  1  0.261589  0.901161  0.263838  1
  O  O43  1  0.738411  0.401161  0.236162  1
  O  O44  1  0.564905  0.351257  0.708493  1
  O  O45  1  0.435095  0.851257  0.791507  1
  O  O46  1  0.435095  0.648743  0.291507  1
  O  O47  1  0.564905  0.148743  0.208493  1
  O  O48  1  0.031797  0.308301  0.720866  1
  O  O49  1  0.968203  0.808301  0.779134  1
  O  O50  1  0.968203  0.691699  0.279134  1
  O  O51  1  0.031797  0.191699  0.220866  1
  O  O52  1  0.762751  0.204872  0.587124  1
  O  O53  1  0.237249  0.704872  0.912876  1
  O  O54  1  0.237249  0.795128  0.412876  1
  O  O55  1  0.762751  0.295128  0.087124  1
