# generated using pymatgen
data_Lu2Fe14C
_symmetry_space_group_name_H-M   'P 1'
_cell_length_a   8.68875880
_cell_length_b   8.68875880
_cell_length_c   11.60045325
_cell_angle_alpha   90.00000000
_cell_angle_beta   90.00000000
_cell_angle_gamma   90.00000000
_symmetry_Int_Tables_number   1
_chemical_formula_structural   Lu2Fe14C
_chemical_formula_sum   'Lu8 Fe56 C4'
_cell_volume   875.77075992
_cell_formula_units_Z   4
loop_
 _symmetry_equiv_pos_site_id
 _symmetry_equiv_pos_as_xyz
  1  'x, y, z'
loop_
 _atom_site_type_symbol
 _atom_site_label
 _atom_site_symmetry_multiplicity
 _atom_site_fract_x
 _atom_site_fract_y
 _atom_site_fract_z
 _atom_site_occupancy
  Lu  Lu0  1  0.356548  0.356548  0.500000  1
  Lu  Lu1  1  0.856548  0.143452  0.000000  1
  Lu  Lu2  1  0.143452  0.856548  0.000000  1
  Lu  Lu3  1  0.741787  0.741787  0.000000  1
  Lu  Lu4  1  0.241787  0.758213  0.500000  1
  Lu  Lu5  1  0.758213  0.241787  0.500000  1
  Lu  Lu6  1  0.643452  0.643452  0.500000  1
  Lu  Lu7  1  0.258213  0.258213  0.000000  1
  Fe  Fe8  1  0.096776  0.096776  0.798606  1
  Fe  Fe9  1  0.642816  0.963956  0.825582  1
  Fe  Fe10  1  0.684187  0.684187  0.754592  1
  Fe  Fe11  1  0.564093  0.225176  0.119966  1
  Fe  Fe12  1  0.935907  0.725176  0.380034  1
  Fe  Fe13  1  0.142816  0.536044  0.674418  1
  Fe  Fe14  1  0.642816  0.963956  0.174418  1
  Fe  Fe15  1  0.774824  0.435907  0.880034  1
  Fe  Fe16  1  0.536044  0.142816  0.674418  1
  Fe  Fe17  1  0.857184  0.463956  0.674418  1
  Fe  Fe18  1  0.684187  0.684187  0.245408  1
  Fe  Fe19  1  0.000000  0.000000  0.608398  1
  Fe  Fe20  1  0.403224  0.596776  0.298606  1
  Fe  Fe21  1  0.225176  0.564093  0.880034  1
  Fe  Fe22  1  0.963956  0.642816  0.174418  1
  Fe  Fe23  1  0.357184  0.036044  0.825582  1
  Fe  Fe24  1  0.725176  0.935907  0.380034  1
  Fe  Fe25  1  0.064093  0.274824  0.619966  1
  Fe  Fe26  1  0.815813  0.184187  0.254592  1
  Fe  Fe27  1  0.274824  0.064093  0.380034  1
  Fe  Fe28  1  0.403224  0.596776  0.701394  1
  Fe  Fe29  1  0.225176  0.564093  0.119966  1
  Fe  Fe30  1  0.903224  0.903224  0.798606  1
  Fe  Fe31  1  0.463956  0.857184  0.325582  1
  Fe  Fe32  1  0.935907  0.725176  0.619966  1
  Fe  Fe33  1  0.142816  0.536044  0.325582  1
  Fe  Fe34  1  0.357184  0.036044  0.174418  1
  Fe  Fe35  1  0.725176  0.935907  0.619966  1
  Fe  Fe36  1  0.564093  0.225176  0.880034  1
  Fe  Fe37  1  0.903224  0.903224  0.201394  1
  Fe  Fe38  1  0.184187  0.815813  0.254592  1
  Fe  Fe39  1  0.536044  0.142816  0.325582  1
  Fe  Fe40  1  0.036044  0.357184  0.174418  1
  Fe  Fe41  1  0.274824  0.064093  0.619966  1
  Fe  Fe42  1  0.596776  0.403224  0.701394  1
  Fe  Fe43  1  0.500000  0.000000  0.000000  1
  Fe  Fe44  1  0.064093  0.274824  0.380034  1
  Fe  Fe45  1  0.315813  0.315813  0.245408  1
  Fe  Fe46  1  0.000000  0.000000  0.391602  1
  Fe  Fe47  1  0.184187  0.815813  0.745408  1
  Fe  Fe48  1  0.500000  0.500000  0.891602  1
  Fe  Fe49  1  0.435907  0.774824  0.119966  1
  Fe  Fe50  1  0.096776  0.096776  0.201394  1
  Fe  Fe51  1  0.463956  0.857184  0.674418  1
  Fe  Fe52  1  0.815813  0.184187  0.745408  1
  Fe  Fe53  1  0.963956  0.642816  0.825582  1
  Fe  Fe54  1  0.315813  0.315813  0.754592  1
  Fe  Fe55  1  0.857184  0.463956  0.325582  1
  Fe  Fe56  1  0.774824  0.435907  0.119966  1
  Fe  Fe57  1  0.500000  0.000000  0.500000  1
  Fe  Fe58  1  0.036044  0.357184  0.825582  1
  Fe  Fe59  1  0.596776  0.403224  0.298606  1
  Fe  Fe60  1  0.435907  0.774824  0.880034  1
  Fe  Fe61  1  0.000000  0.500000  0.000000  1
  Fe  Fe62  1  0.500000  0.500000  0.108398  1
  Fe  Fe63  1  0.000000  0.500000  0.500000  1
  C  C64  1  0.128045  0.128045  0.500000  1
  C  C65  1  0.871955  0.871955  0.500000  1
  C  C66  1  0.371955  0.628045  0.000000  1
  C  C67  1  0.628045  0.371955  0.000000  1
