# generated using pymatgen
data_KLa(PSe3)2
_symmetry_space_group_name_H-M   'P 1'
_cell_length_a   12.01401076
_cell_length_b   7.94587086
_cell_length_c   12.64140323
_cell_angle_alpha   90.00000000
_cell_angle_beta   109.39428465
_cell_angle_gamma   90.00000000
_symmetry_Int_Tables_number   1
_chemical_formula_structural   KLa(PSe3)2
_chemical_formula_sum   'K4 La4 P8 Se24'
_cell_volume   1138.29356752
_cell_formula_units_Z   4
loop_
 _symmetry_equiv_pos_site_id
 _symmetry_equiv_pos_as_xyz
  1  'x, y, z'
loop_
 _atom_site_type_symbol
 _atom_site_label
 _atom_site_symmetry_multiplicity
 _atom_site_fract_x
 _atom_site_fract_y
 _atom_site_fract_z
 _atom_site_occupancy
  K  K0  1  0.873787  0.587974  0.128373  1
  K  K1  1  0.626213  0.087974  0.871627  1
  K  K2  1  0.126213  0.412026  0.871627  1
  K  K3  1  0.373787  0.912026  0.128373  1
  La  La4  1  0.403564  0.603292  0.648900  1
  La  La5  1  0.596436  0.396708  0.351100  1
  La  La6  1  0.903564  0.896708  0.648900  1
  La  La7  1  0.096436  0.103292  0.351100  1
  P  P8  1  0.746758  0.403177  0.675306  1
  P  P9  1  0.232376  0.883701  0.788961  1
  P  P10  1  0.253242  0.596823  0.324694  1
  P  P11  1  0.246758  0.096823  0.675306  1
  P  P12  1  0.767624  0.116299  0.211039  1
  P  P13  1  0.267624  0.383701  0.211039  1
  P  P14  1  0.753242  0.903177  0.324694  1
  P  P15  1  0.732376  0.616299  0.788961  1
  Se  Se16  1  0.639268  0.711780  0.215667  1
  Se  Se17  1  0.317657  0.972857  0.552384  1
  Se  Se18  1  0.086416  0.287529  0.130110  1
  Se  Se19  1  0.633934  0.810741  0.670534  1
  Se  Se20  1  0.860732  0.211780  0.784333  1
  Se  Se21  1  0.413584  0.787529  0.869890  1
  Se  Se22  1  0.434920  0.689582  0.411660  1
  Se  Se23  1  0.372272  0.480608  0.111968  1
  Se  Se24  1  0.065080  0.189582  0.588340  1
  Se  Se25  1  0.934920  0.810418  0.411660  1
  Se  Se26  1  0.817657  0.527143  0.552384  1
  Se  Se27  1  0.565080  0.310418  0.588340  1
  Se  Se28  1  0.682343  0.027143  0.447616  1
  Se  Se29  1  0.182343  0.472857  0.447616  1
  Se  Se30  1  0.627728  0.519392  0.888032  1
  Se  Se31  1  0.133934  0.689259  0.670534  1
  Se  Se32  1  0.586416  0.212471  0.130110  1
  Se  Se33  1  0.360732  0.288220  0.784333  1
  Se  Se34  1  0.866066  0.310741  0.329466  1
  Se  Se35  1  0.913584  0.712471  0.869890  1
  Se  Se36  1  0.872272  0.019392  0.111968  1
  Se  Se37  1  0.366066  0.189259  0.329466  1
  Se  Se38  1  0.139268  0.788220  0.215667  1
  Se  Se39  1  0.127728  0.980608  0.888032  1
