# generated using pymatgen
data_K3Nb2Cu3S8
_symmetry_space_group_name_H-M   'P 1'
_cell_length_a   12.24860505
_cell_length_b   12.24860505
_cell_length_c   14.52351477
_cell_angle_alpha   60.54422896
_cell_angle_beta   119.45577104
_cell_angle_gamma   153.69764604
_symmetry_Int_Tables_number   1
_chemical_formula_structural   K3Nb2Cu3S8
_chemical_formula_sum   'K6 Nb4 Cu6 S16'
_cell_volume   833.34844427
_cell_formula_units_Z   2
loop_
 _symmetry_equiv_pos_site_id
 _symmetry_equiv_pos_as_xyz
  1  'x, y, z'
loop_
 _atom_site_type_symbol
 _atom_site_label
 _atom_site_symmetry_multiplicity
 _atom_site_fract_x
 _atom_site_fract_y
 _atom_site_fract_z
 _atom_site_occupancy
  K  K0  1  0.267291  0.652986  0.905332  1
  K  K1  1  0.652986  0.267291  0.594668  1
  K  K2  1  0.732709  0.347014  0.094668  1
  K  K3  1  0.000000  0.000000  0.000000  1
  K  K4  1  0.000000  0.000000  0.500000  1
  K  K5  1  0.347014  0.732709  0.405332  1
  Nb  Nb6  1  0.842428  0.591895  0.779258  1
  Nb  Nb7  1  0.408105  0.157572  0.279258  1
  Nb  Nb8  1  0.591895  0.842428  0.720742  1
  Nb  Nb9  1  0.157572  0.408105  0.220742  1
  Cu  Cu10  1  0.339518  0.095505  0.780076  1
  Cu  Cu11  1  0.660482  0.904495  0.219924  1
  Cu  Cu12  1  0.904495  0.660482  0.280076  1
  Cu  Cu13  1  0.278741  0.278741  0.250000  1
  Cu  Cu14  1  0.095505  0.339518  0.719924  1
  Cu  Cu15  1  0.721259  0.721259  0.750000  1
  S  S16  1  0.185737  0.873678  0.186644  1
  S  S17  1  0.323919  0.741062  0.110115  1
  S  S18  1  0.517791  0.440845  0.661460  1
  S  S19  1  0.126322  0.814263  0.686644  1
  S  S20  1  0.873678  0.185737  0.313356  1
  S  S21  1  0.135449  0.956478  0.371064  1
  S  S22  1  0.559155  0.482209  0.161460  1
  S  S23  1  0.440845  0.517791  0.838540  1
  S  S24  1  0.043522  0.864551  0.871064  1
  S  S25  1  0.258938  0.676081  0.610115  1
  S  S26  1  0.482209  0.559155  0.338540  1
  S  S27  1  0.676081  0.258938  0.889885  1
  S  S28  1  0.814263  0.126322  0.813356  1
  S  S29  1  0.741062  0.323919  0.389885  1
  S  S30  1  0.956478  0.135449  0.128936  1
  S  S31  1  0.864551  0.043522  0.628936  1
