# generated using pymatgen
data_NaCu4(AsO4)3
_symmetry_space_group_name_H-M   'P 1'
_cell_length_a   8.74516320
_cell_length_b   8.74516320
_cell_length_c   7.53493783
_cell_angle_alpha   70.55684928
_cell_angle_beta   109.44315072
_cell_angle_gamma   88.45439556
_symmetry_Int_Tables_number   1
_chemical_formula_structural   NaCu4(AsO4)3
_chemical_formula_sum   'Na2 Cu8 As6 O24'
_cell_volume   506.21674179
_cell_formula_units_Z   2
loop_
 _symmetry_equiv_pos_site_id
 _symmetry_equiv_pos_as_xyz
  1  'x, y, z'
loop_
 _atom_site_type_symbol
 _atom_site_label
 _atom_site_symmetry_multiplicity
 _atom_site_fract_x
 _atom_site_fract_y
 _atom_site_fract_z
 _atom_site_occupancy
  Na  Na0  1  0.506046  0.506046  0.750000  1
  Na  Na1  1  0.493954  0.493954  0.250000  1
  Cu  Cu2  1  0.993296  0.993296  0.750000  1
  Cu  Cu3  1  0.006704  0.006704  0.250000  1
  Cu  Cu4  1  0.877148  0.434983  0.141518  1
  Cu  Cu5  1  0.434983  0.877148  0.358482  1
  Cu  Cu6  1  0.122852  0.565017  0.858482  1
  Cu  Cu7  1  0.565017  0.122852  0.641518  1
  Cu  Cu8  1  0.235527  0.235527  0.750000  1
  Cu  Cu9  1  0.764473  0.764473  0.250000  1
  As  As10  1  0.392238  0.845372  0.881225  1
  As  As11  1  0.845372  0.392238  0.618775  1
  As  As12  1  0.607762  0.154628  0.118775  1
  As  As13  1  0.154628  0.607762  0.381225  1
  As  As14  1  0.772899  0.772899  0.750000  1
  As  As15  1  0.227101  0.227101  0.250000  1
  O  O16  1  0.330878  0.659535  0.885169  1
  O  O17  1  0.659535  0.330878  0.614831  1
  O  O18  1  0.669122  0.340465  0.114831  1
  O  O19  1  0.340465  0.669122  0.385169  1
  O  O20  1  0.980799  0.773483  0.760398  1
  O  O21  1  0.773483  0.980799  0.739602  1
  O  O22  1  0.019201  0.226517  0.239602  1
  O  O23  1  0.226517  0.019201  0.260398  1
  O  O24  1  0.226752  0.995262  0.823936  1
  O  O25  1  0.995262  0.226752  0.676064  1
  O  O26  1  0.773248  0.004738  0.176064  1
  O  O27  1  0.004738  0.773248  0.323936  1
  O  O28  1  0.474355  0.915146  0.694616  1
  O  O29  1  0.915146  0.474355  0.805384  1
  O  O30  1  0.525645  0.084854  0.305384  1
  O  O31  1  0.084854  0.525645  0.194616  1
  O  O32  1  0.522851  0.809826  0.125929  1
  O  O33  1  0.809826  0.522851  0.374071  1
  O  O34  1  0.477149  0.190174  0.874071  1
  O  O35  1  0.190174  0.477149  0.625929  1
  O  O36  1  0.741920  0.653860  0.962949  1
  O  O37  1  0.653860  0.741920  0.537051  1
  O  O38  1  0.258080  0.346140  0.037051  1
  O  O39  1  0.346140  0.258080  0.462949  1
