# generated using pymatgen
data_BaH2N2O5
_symmetry_space_group_name_H-M   'P 1'
_cell_length_a   7.17570906
_cell_length_b   7.17570906
_cell_length_c   18.22568289
_cell_angle_alpha   90.00000000
_cell_angle_beta   90.00000000
_cell_angle_gamma   120.00000000
_symmetry_Int_Tables_number   1
_chemical_formula_structural   BaH2N2O5
_chemical_formula_sum   'Ba6 H12 N12 O30'
_cell_volume   812.72587169
_cell_formula_units_Z   6
loop_
 _symmetry_equiv_pos_site_id
 _symmetry_equiv_pos_as_xyz
  1  'x, y, z'
loop_
 _atom_site_type_symbol
 _atom_site_label
 _atom_site_symmetry_multiplicity
 _atom_site_fract_x
 _atom_site_fract_y
 _atom_site_fract_z
 _atom_site_occupancy
  Ba  Ba0  1  0.857033  0.431587  0.998008  1
  Ba  Ba1  1  0.425446  0.857033  0.164674  1
  Ba  Ba2  1  0.431587  0.574554  0.831341  1
  Ba  Ba3  1  0.568413  0.425446  0.331341  1
  Ba  Ba4  1  0.574554  0.142967  0.664674  1
  Ba  Ba5  1  0.142967  0.568413  0.498008  1
  H  H6  1  0.027029  0.170269  0.378499  1
  H  H7  1  0.856760  0.027029  0.545165  1
  H  H8  1  0.170269  0.143240  0.211832  1
  H  H9  1  0.829731  0.856760  0.711832  1
  H  H10  1  0.143240  0.972971  0.045165  1
  H  H11  1  0.972971  0.829731  0.878499  1
  H  H12  1  0.145877  0.103840  0.435269  1
  H  H13  1  0.042037  0.145877  0.601936  1
  H  H14  1  0.103840  0.957963  0.268603  1
  H  H15  1  0.896160  0.042037  0.768603  1
  H  H16  1  0.957963  0.854123  0.101936  1
  H  H17  1  0.854123  0.896160  0.935269  1
  N  N18  1  0.036782  0.246695  0.145303  1
  N  N19  1  0.790087  0.036782  0.311969  1
  N  N20  1  0.246695  0.209913  0.978636  1
  N  N21  1  0.753305  0.790087  0.478636  1
  N  N22  1  0.209913  0.963218  0.811969  1
  N  N23  1  0.963218  0.753305  0.645303  1
  N  N24  1  0.124860  0.570478  0.325063  1
  N  N25  1  0.554382  0.124860  0.491729  1
  N  N26  1  0.570478  0.445618  0.158396  1
  N  N27  1  0.429522  0.554382  0.658396  1
  N  N28  1  0.445618  0.875140  0.991729  1
  N  N29  1  0.875140  0.429522  0.825063  1
  O  O30  1  0.105312  0.437874  0.123324  1
  O  O31  1  0.667438  0.105312  0.289990  1
  O  O32  1  0.437874  0.332562  0.956657  1
  O  O33  1  0.562126  0.667438  0.456657  1
  O  O34  1  0.332562  0.894688  0.789990  1
  O  O35  1  0.894688  0.562126  0.623324  1
  O  O36  1  0.868273  0.105007  0.112894  1
  O  O37  1  0.763266  0.868273  0.279560  1
  O  O38  1  0.105007  0.236734  0.946227  1
  O  O39  1  0.894993  0.763266  0.446227  1
  O  O40  1  0.236734  0.131727  0.779560  1
  O  O41  1  0.131727  0.894993  0.612894  1
  O  O42  1  0.297003  0.596057  0.295537  1
  O  O43  1  0.700946  0.297003  0.462204  1
  O  O44  1  0.596057  0.299054  0.128871  1
  O  O45  1  0.403943  0.700946  0.628871  1
  O  O46  1  0.299054  0.702997  0.962204  1
  O  O47  1  0.702997  0.403943  0.795537  1
  O  O48  1  0.010875  0.617570  0.284778  1
  O  O49  1  0.393305  0.010875  0.451444  1
  O  O50  1  0.617570  0.606695  0.118111  1
  O  O51  1  0.382430  0.393305  0.618111  1
  O  O52  1  0.606695  0.989125  0.951444  1
  O  O53  1  0.989125  0.382430  0.784778  1
  O  O54  1  0.154547  0.231000  0.411727  1
  O  O55  1  0.923547  0.154547  0.578394  1
  O  O56  1  0.231000  0.076453  0.245060  1
  O  O57  1  0.769000  0.923547  0.745060  1
  O  O58  1  0.076453  0.845453  0.078394  1
  O  O59  1  0.845453  0.769000  0.911727  1
