# generated using pymatgen
data_K2RuN3Cl3O5
_symmetry_space_group_name_H-M   'P 1'
_cell_length_a   7.19459810
_cell_length_b   7.68874873
_cell_length_c   10.46708336
_cell_angle_alpha   90.40703098
_cell_angle_beta   102.11787209
_cell_angle_gamma   90.53827488
_symmetry_Int_Tables_number   1
_chemical_formula_structural   K2RuN3Cl3O5
_chemical_formula_sum   'K4 Ru2 N6 Cl6 O10'
_cell_volume   566.06138920
_cell_formula_units_Z   2
loop_
 _symmetry_equiv_pos_site_id
 _symmetry_equiv_pos_as_xyz
  1  'x, y, z'
loop_
 _atom_site_type_symbol
 _atom_site_label
 _atom_site_symmetry_multiplicity
 _atom_site_fract_x
 _atom_site_fract_y
 _atom_site_fract_z
 _atom_site_occupancy
  K  K0  1  0.769536  0.748372  0.022009  1
  K  K1  1  0.618557  0.254405  0.636450  1
  K  K2  1  0.381443  0.745595  0.363550  1
  K  K3  1  0.230464  0.251628  0.977991  1
  Ru  Ru4  1  0.129002  0.754074  0.738951  1
  Ru  Ru5  1  0.870998  0.245926  0.261049  1
  N  N6  1  0.308355  0.952536  0.697319  1
  N  N7  1  0.676139  0.433565  0.294675  1
  N  N8  1  0.986079  0.254962  0.426227  1
  N  N9  1  0.323861  0.566435  0.705325  1
  N  N10  1  0.691645  0.047464  0.302681  1
  N  N11  1  0.013921  0.745038  0.573773  1
  Cl  Cl12  1  0.087997  0.027967  0.207199  1
  Cl  Cl13  1  0.291362  0.768551  0.957265  1
  Cl  Cl14  1  0.912003  0.972033  0.792801  1
  Cl  Cl15  1  0.070897  0.476603  0.200010  1
  Cl  Cl16  1  0.708638  0.231449  0.042735  1
  Cl  Cl17  1  0.929103  0.523397  0.799990  1
  O  O18  1  0.598229  0.532703  0.206644  1
  O  O19  1  0.642641  0.446781  0.407371  1
  O  O20  1  0.347409  0.955686  0.585989  1
  O  O21  1  0.357359  0.553219  0.592629  1
  O  O22  1  0.652591  0.044314  0.414011  1
  O  O23  1  0.054929  0.259567  0.537636  1
  O  O24  1  0.372522  0.067427  0.779454  1
  O  O25  1  0.401771  0.467297  0.793356  1
  O  O26  1  0.945071  0.740433  0.462364  1
  O  O27  1  0.627478  0.932573  0.220546  1
