# generated using pymatgen
data_La2Si2O7
_symmetry_space_group_name_H-M   'P 1'
_cell_length_a   7.41487528
_cell_length_b   23.60618962
_cell_length_c   10.21394587
_cell_angle_alpha   90.00000000
_cell_angle_beta   90.65030563
_cell_angle_gamma   90.00000000
_symmetry_Int_Tables_number   1
_chemical_formula_structural   La2Si2O7
_chemical_formula_sum   'La24 Si24 O84'
_cell_volume   1787.70279865
_cell_formula_units_Z   12
loop_
 _symmetry_equiv_pos_site_id
 _symmetry_equiv_pos_as_xyz
  1  'x, y, z'
loop_
 _atom_site_type_symbol
 _atom_site_label
 _atom_site_symmetry_multiplicity
 _atom_site_fract_x
 _atom_site_fract_y
 _atom_site_fract_z
 _atom_site_occupancy
  La  La0  1  0.089870  0.315840  0.235848  1
  La  La1  1  0.594797  0.184183  0.760830  1
  La  La2  1  0.850519  0.157942  0.139039  1
  La  La3  1  0.910130  0.684160  0.764152  1
  La  La4  1  0.910130  0.815840  0.264152  1
  La  La5  1  0.089870  0.184160  0.735848  1
  La  La6  1  0.356864  0.074759  0.992723  1
  La  La7  1  0.405203  0.815817  0.239170  1
  La  La8  1  0.356864  0.425241  0.492723  1
  La  La9  1  0.672182  0.665572  0.135647  1
  La  La10  1  0.594797  0.315817  0.260830  1
  La  La11  1  0.672182  0.834428  0.635647  1
  La  La12  1  0.866234  0.076852  0.491997  1
  La  La13  1  0.866234  0.423148  0.991997  1
  La  La14  1  0.850519  0.342058  0.639039  1
  La  La15  1  0.643136  0.574759  0.507277  1
  La  La16  1  0.133766  0.576852  0.008003  1
  La  La17  1  0.149481  0.657942  0.360961  1
  La  La18  1  0.405203  0.684183  0.739170  1
  La  La19  1  0.149481  0.842058  0.860961  1
  La  La20  1  0.643136  0.925241  0.007277  1
  La  La21  1  0.133766  0.923148  0.508003  1
  La  La22  1  0.327818  0.165572  0.364353  1
  La  La23  1  0.327818  0.334428  0.864353  1
  Si  Si24  1  0.148641  0.579883  0.627262  1
  Si  Si25  1  0.192759  0.724172  0.057730  1
  Si  Si26  1  0.418176  0.966926  0.733777  1
  Si  Si27  1  0.581824  0.466926  0.766223  1
  Si  Si28  1  0.581824  0.033074  0.266223  1
  Si  Si29  1  0.840973  0.535054  0.238756  1
  Si  Si30  1  0.307720  0.280320  0.564706  1
  Si  Si31  1  0.851359  0.079883  0.872738  1
  Si  Si32  1  0.307720  0.219680  0.064706  1
  Si  Si33  1  0.851359  0.420117  0.372738  1
  Si  Si34  1  0.358717  0.416997  0.117193  1
  Si  Si35  1  0.641283  0.916997  0.382807  1
  Si  Si36  1  0.641283  0.583003  0.882807  1
  Si  Si37  1  0.692280  0.719680  0.435294  1
  Si  Si38  1  0.418176  0.533074  0.233777  1
  Si  Si39  1  0.840973  0.964946  0.738756  1
  Si  Si40  1  0.159027  0.464946  0.761244  1
  Si  Si41  1  0.148641  0.920117  0.127262  1
  Si  Si42  1  0.192759  0.775828  0.557730  1
  Si  Si43  1  0.358717  0.083003  0.617193  1
  Si  Si44  1  0.807241  0.224172  0.442270  1
  Si  Si45  1  0.807241  0.275828  0.942270  1
  Si  Si46  1  0.159027  0.035054  0.261244  1
  Si  Si47  1  0.692280  0.780320  0.935294  1
  O  O48  1  0.791905  0.224601  0.603999  1
  O  O49  1  0.132858  0.710598  0.598740  1
  O  O50  1  0.425177  0.508137  0.380045  1
  O  O51  1  0.618362  0.215485  0.356371  1
  O  O52  1  0.652371  0.987195  0.377638  1
  O  O53  1  0.047909  0.675862  0.101940  1
  O  O54  1  0.630441  0.785288  0.399625  1
  O  O55  1  0.288541  0.280869  0.403185  1
  O  O56  1  0.831774  0.490955  0.365654  1
  O  O57  1  0.323323  0.606203  0.550444  1
  O  O58  1  0.952091  0.175862  0.398060  1
  O  O59  1  0.179614  0.108896  0.542597  1
  O  O60  1  0.867142  0.289402  0.401260  1
  O  O61  1  0.381638  0.784515  0.643629  1
  O  O62  1  0.288541  0.219131  0.903185  1
  O  O63  1  0.436840  0.332474  0.615842  1
  O  O64  1  0.627786  0.948969  0.696526  1
  O  O65  1  0.093879  0.097483  0.218432  1
  O  O66  1  0.820386  0.891104  0.457403  1
  O  O67  1  0.648292  0.609727  0.732557  1
  O  O68  1  0.876095  0.715120  0.345043  1
  O  O69  1  0.053952  0.493853  0.879119  1
  O  O70  1  0.152209  0.609325  0.774667  1
  O  O71  1  0.962822  0.899895  0.054502  1
  O  O72  1  0.946048  0.506147  0.120881  1
  O  O73  1  0.906121  0.902517  0.781568  1
  O  O74  1  0.372214  0.051031  0.303474  1
  O  O75  1  0.037178  0.399895  0.445498  1
  O  O76  1  0.093879  0.402517  0.718432  1
  O  O77  1  0.037178  0.100105  0.945498  1
  O  O78  1  0.381638  0.715485  0.143629  1
  O  O79  1  0.820386  0.608896  0.957403  1
  O  O80  1  0.295965  0.910775  0.717721  1
  O  O81  1  0.711459  0.719131  0.596815  1
  O  O82  1  0.906121  0.597483  0.281568  1
  O  O83  1  0.372214  0.448969  0.803474  1
  O  O84  1  0.047909  0.824138  0.601940  1
  O  O85  1  0.323323  0.893797  0.050444  1
  O  O86  1  0.847791  0.109325  0.725333  1
  O  O87  1  0.791905  0.275399  0.103999  1
  O  O88  1  0.369559  0.285288  0.100375  1
  O  O89  1  0.461702  0.606442  0.954872  1
  O  O90  1  0.295965  0.589225  0.217721  1
  O  O91  1  0.123905  0.284880  0.654957  1
  O  O92  1  0.574823  0.008137  0.119955  1
  O  O93  1  0.436840  0.167526  0.115842  1
  O  O94  1  0.369559  0.214712  0.600375  1
  O  O95  1  0.538298  0.106442  0.545128  1
  O  O96  1  0.876095  0.784880  0.845043  1
  O  O97  1  0.461702  0.893558  0.454872  1
  O  O98  1  0.962822  0.600105  0.554502  1
  O  O99  1  0.627786  0.551031  0.196526  1
  O  O100  1  0.574823  0.491863  0.619955  1
  O  O101  1  0.676677  0.393797  0.449556  1
  O  O102  1  0.652371  0.512805  0.877638  1
  O  O103  1  0.704035  0.410775  0.782279  1
  O  O104  1  0.618362  0.284515  0.856371  1
  O  O105  1  0.208095  0.724601  0.896001  1
  O  O106  1  0.351708  0.390273  0.267443  1
  O  O107  1  0.538298  0.393558  0.045128  1
  O  O108  1  0.630441  0.714712  0.899625  1
  O  O109  1  0.132858  0.789402  0.098740  1
  O  O110  1  0.351708  0.109727  0.767443  1
  O  O111  1  0.563160  0.832474  0.884158  1
  O  O112  1  0.648292  0.890273  0.232557  1
  O  O113  1  0.704035  0.089225  0.282279  1
  O  O114  1  0.946048  0.993853  0.620881  1
  O  O115  1  0.425177  0.991863  0.880045  1
  O  O116  1  0.831774  0.009045  0.865654  1
  O  O117  1  0.208095  0.775399  0.396001  1
  O  O118  1  0.847791  0.390675  0.225333  1
  O  O119  1  0.168226  0.990955  0.134346  1
  O  O120  1  0.053952  0.006147  0.379119  1
  O  O121  1  0.676677  0.106203  0.949556  1
  O  O122  1  0.347629  0.487195  0.122362  1
  O  O123  1  0.867142  0.210598  0.901260  1
  O  O124  1  0.168226  0.509045  0.634346  1
  O  O125  1  0.347629  0.012805  0.622362  1
  O  O126  1  0.152209  0.890675  0.274667  1
  O  O127  1  0.563160  0.667526  0.384158  1
  O  O128  1  0.123905  0.215120  0.154957  1
  O  O129  1  0.952091  0.324138  0.898060  1
  O  O130  1  0.711459  0.780869  0.096815  1
  O  O131  1  0.179614  0.391104  0.042597  1
