# generated using pymatgen
data_Rb2AgBr3
_symmetry_space_group_name_H-M   'P 1'
_cell_length_a   4.72445282
_cell_length_b   9.85655540
_cell_length_c   19.16944615
_cell_angle_alpha   90.00000000
_cell_angle_beta   90.00000000
_cell_angle_gamma   90.00000000
_symmetry_Int_Tables_number   1
_chemical_formula_structural   Rb2AgBr3
_chemical_formula_sum   'Rb8 Ag4 Br12'
_cell_volume   892.66035837
_cell_formula_units_Z   4
loop_
 _symmetry_equiv_pos_site_id
 _symmetry_equiv_pos_as_xyz
  1  'x, y, z'
loop_
 _atom_site_type_symbol
 _atom_site_label
 _atom_site_symmetry_multiplicity
 _atom_site_fract_x
 _atom_site_fract_y
 _atom_site_fract_z
 _atom_site_occupancy
  Rb  Rb0  1  0.750000  0.422013  0.787191  1
  Rb  Rb1  1  0.750000  0.754311  0.458315  1
  Rb  Rb2  1  0.750000  0.922013  0.712809  1
  Rb  Rb3  1  0.250000  0.077987  0.287191  1
  Rb  Rb4  1  0.250000  0.245689  0.541685  1
  Rb  Rb5  1  0.750000  0.254311  0.041685  1
  Rb  Rb6  1  0.250000  0.745689  0.958315  1
  Rb  Rb7  1  0.250000  0.577987  0.212809  1
  Ag  Ag8  1  0.250000  0.627874  0.634188  1
  Ag  Ag9  1  0.750000  0.872126  0.134188  1
  Ag  Ag10  1  0.750000  0.372126  0.365812  1
  Ag  Ag11  1  0.250000  0.127874  0.865812  1
  Br  Br12  1  0.750000  0.622931  0.072327  1
  Br  Br13  1  0.250000  0.685242  0.773968  1
  Br  Br14  1  0.250000  0.877069  0.572327  1
  Br  Br15  1  0.250000  0.500951  0.400008  1
  Br  Br16  1  0.750000  0.999049  0.900008  1
  Br  Br17  1  0.750000  0.814758  0.273967  1
  Br  Br18  1  0.250000  0.000951  0.099992  1
  Br  Br19  1  0.750000  0.499049  0.599992  1
  Br  Br20  1  0.250000  0.377069  0.927673  1
  Br  Br21  1  0.250000  0.185242  0.726032  1
  Br  Br22  1  0.750000  0.122931  0.427673  1
  Br  Br23  1  0.750000  0.314758  0.226032  1
