# generated using pymatgen
data_Na2Si2O5
_symmetry_space_group_name_H-M   'P 1'
_cell_length_a   4.89165600
_cell_length_b   8.22514600
_cell_length_c   12.11926200
_cell_angle_alpha   90.00000000
_cell_angle_beta   90.00000000
_cell_angle_gamma   90.00000000
_symmetry_Int_Tables_number   1
_chemical_formula_structural   Na2Si2O5
_chemical_formula_sum   'Na8 Si8 O20'
_cell_volume   487.61347443
_cell_formula_units_Z   4
loop_
 _symmetry_equiv_pos_site_id
 _symmetry_equiv_pos_as_xyz
  1  'x, y, z'
loop_
 _atom_site_type_symbol
 _atom_site_label
 _atom_site_symmetry_multiplicity
 _atom_site_fract_x
 _atom_site_fract_y
 _atom_site_fract_z
 _atom_site_occupancy
  Na  Na0  1  0.573033  0.436173  0.274325  1
  Na  Na1  1  0.097387  0.688222  0.190359  1
  Na  Na2  1  0.073033  0.063827  0.774325  1
  Na  Na3  1  0.097387  0.188222  0.309641  1
  Na  Na4  1  0.073033  0.563827  0.725675  1
  Na  Na5  1  0.573033  0.936173  0.225675  1
  Na  Na6  1  0.597387  0.811778  0.690359  1
  Na  Na7  1  0.597387  0.311778  0.809641  1
  Si  Si8  1  0.526765  0.947082  0.932680  1
  Si  Si9  1  0.026765  0.552918  0.432680  1
  Si  Si10  1  0.526765  0.447082  0.567320  1
  Si  Si11  1  0.637585  0.108041  0.474041  1
  Si  Si12  1  0.137585  0.391959  0.974041  1
  Si  Si13  1  0.137585  0.891959  0.525959  1
  Si  Si14  1  0.026765  0.052918  0.067320  1
  Si  Si15  1  0.637585  0.608041  0.025959  1
  O  O16  1  0.198012  0.972528  0.962893  1
  O  O17  1  0.964513  0.055133  0.486217  1
  O  O18  1  0.578326  0.664148  0.150207  1
  O  O19  1  0.078326  0.835852  0.650207  1
  O  O20  1  0.078326  0.335852  0.849793  1
  O  O21  1  0.589309  0.026477  0.815127  1
  O  O22  1  0.083670  0.251285  0.069529  1
  O  O23  1  0.698012  0.527472  0.462893  1
  O  O24  1  0.464513  0.444867  0.986217  1
  O  O25  1  0.089309  0.473523  0.315127  1
  O  O26  1  0.583670  0.748715  0.930471  1
  O  O27  1  0.964513  0.555133  0.013783  1
  O  O28  1  0.698012  0.027472  0.037107  1
  O  O29  1  0.083670  0.751285  0.430471  1
  O  O30  1  0.464513  0.944867  0.513783  1
  O  O31  1  0.589309  0.526477  0.684873  1
  O  O32  1  0.583670  0.248715  0.569529  1
  O  O33  1  0.089309  0.973523  0.184873  1
  O  O34  1  0.578326  0.164148  0.349793  1
  O  O35  1  0.198012  0.472528  0.537107  1
