# generated using pymatgen
data_K2U(MoO5)2
_symmetry_space_group_name_H-M   'P 1'
_cell_length_a   12.47696919
_cell_length_b   13.72691167
_cell_length_c   13.26191585
_cell_angle_alpha   90.00000000
_cell_angle_beta   94.74762909
_cell_angle_gamma   90.00000000
_symmetry_Int_Tables_number   1
_chemical_formula_structural   K2U(MoO5)2
_chemical_formula_sum   'K16 U8 Mo16 O80'
_cell_volume   2263.57845713
_cell_formula_units_Z   8
loop_
 _symmetry_equiv_pos_site_id
 _symmetry_equiv_pos_as_xyz
  1  'x, y, z'
loop_
 _atom_site_type_symbol
 _atom_site_label
 _atom_site_symmetry_multiplicity
 _atom_site_fract_x
 _atom_site_fract_y
 _atom_site_fract_z
 _atom_site_occupancy
  K  K0  1  0.036258  0.677294  0.808561  1
  K  K1  1  0.271217  0.956510  0.818415  1
  K  K2  1  0.036258  0.822706  0.308561  1
  K  K3  1  0.239857  0.130154  0.281650  1
  K  K4  1  0.760143  0.630154  0.218350  1
  K  K5  1  0.760143  0.869846  0.718350  1
  K  K6  1  0.963742  0.177294  0.691439  1
  K  K7  1  0.538584  0.158507  0.786202  1
  K  K8  1  0.728783  0.043490  0.181585  1
  K  K9  1  0.271217  0.543490  0.318415  1
  K  K10  1  0.461416  0.841493  0.213798  1
  K  K11  1  0.461416  0.658507  0.713798  1
  K  K12  1  0.239857  0.369846  0.781650  1
  K  K13  1  0.963742  0.322706  0.191439  1
  K  K14  1  0.728783  0.456510  0.681585  1
  K  K15  1  0.538584  0.341493  0.286202  1
  U  U16  1  0.153910  0.182686  0.968462  1
  U  U17  1  0.846090  0.682686  0.531538  1
  U  U18  1  0.331611  0.819428  0.488230  1
  U  U19  1  0.331611  0.680572  0.988230  1
  U  U20  1  0.668389  0.180572  0.511770  1
  U  U21  1  0.846090  0.817314  0.031538  1
  U  U22  1  0.668389  0.319428  0.011770  1
  U  U23  1  0.153910  0.317314  0.468462  1
  Mo  Mo24  1  0.849686  0.086160  0.935285  1
  Mo  Mo25  1  0.150314  0.586160  0.564715  1
  Mo  Mo26  1  0.358269  0.096262  0.550525  1
  Mo  Mo27  1  0.555341  0.624335  0.423274  1
  Mo  Mo28  1  0.056057  0.612181  0.100271  1
  Mo  Mo29  1  0.444659  0.124335  0.076726  1
  Mo  Mo30  1  0.943943  0.387819  0.899729  1
  Mo  Mo31  1  0.444659  0.375665  0.576726  1
  Mo  Mo32  1  0.358269  0.403738  0.050525  1
  Mo  Mo33  1  0.056057  0.887819  0.600271  1
  Mo  Mo34  1  0.641731  0.596262  0.949475  1
  Mo  Mo35  1  0.641731  0.903738  0.449475  1
  Mo  Mo36  1  0.943943  0.112181  0.399729  1
  Mo  Mo37  1  0.150314  0.913840  0.064715  1
  Mo  Mo38  1  0.555341  0.875665  0.923274  1
  Mo  Mo39  1  0.849686  0.413840  0.435285  1
  O  O40  1  0.848463  0.145753  0.493344  1
  O  O41  1  0.464096  0.804846  0.996186  1
  O  O42  1  0.682959  0.008218  0.526778  1
  O  O43  1  0.800063  0.459119  0.316321  1
  O  O44  1  0.299006  0.800479  0.352504  1
  O  O45  1  0.684928  0.596430  0.492995  1
  O  O46  1  0.706121  0.702374  0.011051  1
  O  O47  1  0.031168  0.657352  0.583149  1
  O  O48  1  0.490780  0.515412  0.379817  1
  O  O49  1  0.822938  0.829142  0.165611  1
  O  O50  1  0.177062  0.329142  0.334389  1
  O  O51  1  0.323683  0.419368  0.174637  1
  O  O52  1  0.968832  0.157352  0.916851  1
  O  O53  1  0.874856  0.805540  0.898347  1
  O  O54  1  0.125144  0.305540  0.601653  1
  O  O55  1  0.151537  0.854247  0.506656  1
  O  O56  1  0.248650  0.665118  0.514514  1
  O  O57  1  0.800063  0.040881  0.816321  1
  O  O58  1  0.706121  0.797626  0.511051  1
  O  O59  1  0.418377  0.308373  0.685796  1
  O  O60  1  0.684928  0.903570  0.992995  1
  O  O61  1  0.955974  0.985098  0.389417  1
  O  O62  1  0.848463  0.354247  0.993344  1
  O  O63  1  0.364630  0.665309  0.124189  1
  O  O64  1  0.635370  0.165309  0.375811  1
  O  O65  1  0.125144  0.194460  0.101653  1
  O  O66  1  0.299006  0.699521  0.852504  1
  O  O67  1  0.682959  0.491782  0.026778  1
  O  O68  1  0.502171  0.112721  0.556976  1
  O  O69  1  0.293879  0.297626  0.988949  1
  O  O70  1  0.031168  0.842648  0.083149  1
  O  O71  1  0.078332  0.166660  0.426721  1
  O  O72  1  0.880501  0.510848  0.525427  1
  O  O73  1  0.119499  0.489152  0.474573  1
  O  O74  1  0.323683  0.080632  0.674637  1
  O  O75  1  0.921668  0.666660  0.073279  1
  O  O76  1  0.535904  0.304846  0.503814  1
  O  O77  1  0.151537  0.645753  0.006656  1
  O  O78  1  0.364630  0.834691  0.624189  1
  O  O79  1  0.535904  0.195154  0.003814  1
  O  O80  1  0.751350  0.334882  0.485486  1
  O  O81  1  0.199937  0.959119  0.183679  1
  O  O82  1  0.874856  0.694460  0.398347  1
  O  O83  1  0.464096  0.695154  0.496186  1
  O  O84  1  0.892480  0.346769  0.779053  1
  O  O85  1  0.315072  0.403570  0.507005  1
  O  O86  1  0.892480  0.153231  0.279053  1
  O  O87  1  0.751350  0.165118  0.985486  1
  O  O88  1  0.509220  0.484588  0.620183  1
  O  O89  1  0.119499  0.010848  0.974573  1
  O  O90  1  0.317041  0.991782  0.473222  1
  O  O91  1  0.968832  0.342648  0.416851  1
  O  O92  1  0.107520  0.653231  0.220947  1
  O  O93  1  0.199937  0.540881  0.683679  1
  O  O94  1  0.880501  0.989152  0.025427  1
  O  O95  1  0.317041  0.508218  0.973222  1
  O  O96  1  0.044026  0.014902  0.610583  1
  O  O97  1  0.248650  0.834882  0.014514  1
  O  O98  1  0.293879  0.202374  0.488949  1
  O  O99  1  0.497829  0.887279  0.443024  1
  O  O100  1  0.497829  0.612721  0.943024  1
  O  O101  1  0.700994  0.300479  0.147496  1
  O  O102  1  0.635370  0.334691  0.875811  1
  O  O103  1  0.502171  0.387279  0.056976  1
  O  O104  1  0.107520  0.846769  0.720947  1
  O  O105  1  0.315072  0.096430  0.007005  1
  O  O106  1  0.509220  0.015412  0.120183  1
  O  O107  1  0.581623  0.808373  0.814204  1
  O  O108  1  0.078332  0.333340  0.926721  1
  O  O109  1  0.676317  0.919368  0.325363  1
  O  O110  1  0.581623  0.691627  0.314204  1
  O  O111  1  0.822938  0.670858  0.665611  1
  O  O112  1  0.955974  0.514902  0.889417  1
  O  O113  1  0.700994  0.199521  0.647496  1
  O  O114  1  0.044026  0.485098  0.110583  1
  O  O115  1  0.921668  0.833340  0.573279  1
  O  O116  1  0.676317  0.580632  0.825363  1
  O  O117  1  0.418377  0.191627  0.185796  1
  O  O118  1  0.490780  0.984588  0.879817  1
  O  O119  1  0.177062  0.170858  0.834389  1
