# generated using pymatgen
data_LaNb2ClO6
_symmetry_space_group_name_H-M   'P 1'
_cell_length_a   7.40815186
_cell_length_b   8.43792063
_cell_length_c   9.95731409
_cell_angle_alpha   90.00000000
_cell_angle_beta   90.00000000
_cell_angle_gamma   90.00000000
_symmetry_Int_Tables_number   1
_chemical_formula_structural   LaNb2ClO6
_chemical_formula_sum   'La4 Nb8 Cl4 O24'
_cell_volume   622.42570358
_cell_formula_units_Z   4
loop_
 _symmetry_equiv_pos_site_id
 _symmetry_equiv_pos_as_xyz
  1  'x, y, z'
loop_
 _atom_site_type_symbol
 _atom_site_label
 _atom_site_symmetry_multiplicity
 _atom_site_fract_x
 _atom_site_fract_y
 _atom_site_fract_z
 _atom_site_occupancy
  La  La0  1  0.750000  0.310015  0.822356  1
  La  La1  1  0.250000  0.689985  0.177644  1
  La  La2  1  0.250000  0.810015  0.677644  1
  La  La3  1  0.750000  0.189985  0.322356  1
  Nb  Nb4  1  0.500000  0.000000  0.000000  1
  Nb  Nb5  1  0.750000  0.732201  0.235653  1
  Nb  Nb6  1  0.250000  0.232201  0.264347  1
  Nb  Nb7  1  0.750000  0.767799  0.735653  1
  Nb  Nb8  1  0.250000  0.267799  0.764347  1
  Nb  Nb9  1  0.000000  0.500000  0.500000  1
  Nb  Nb10  1  0.500000  0.500000  0.500000  1
  Nb  Nb11  1  0.000000  0.000000  0.000000  1
  Cl  Cl12  1  0.750000  0.073275  0.605235  1
  Cl  Cl13  1  0.750000  0.426725  0.105235  1
  Cl  Cl14  1  0.250000  0.926725  0.394765  1
  Cl  Cl15  1  0.250000  0.573275  0.894765  1
  O  O16  1  0.445105  0.200080  0.895894  1
  O  O17  1  0.451744  0.114743  0.173815  1
  O  O18  1  0.945105  0.700080  0.604106  1
  O  O19  1  0.750000  0.420063  0.503234  1
  O  O20  1  0.250000  0.084241  0.670825  1
  O  O21  1  0.445105  0.299920  0.395894  1
  O  O22  1  0.054895  0.200080  0.895894  1
  O  O23  1  0.250000  0.579937  0.496766  1
  O  O24  1  0.451744  0.385257  0.673815  1
  O  O25  1  0.750000  0.079937  0.003234  1
  O  O26  1  0.554895  0.700080  0.604106  1
  O  O27  1  0.048256  0.385257  0.673815  1
  O  O28  1  0.250000  0.920063  0.996766  1
  O  O29  1  0.548256  0.614743  0.326185  1
  O  O30  1  0.951744  0.614743  0.326185  1
  O  O31  1  0.054895  0.299920  0.395894  1
  O  O32  1  0.250000  0.415759  0.170825  1
  O  O33  1  0.945105  0.799920  0.104106  1
  O  O34  1  0.750000  0.584241  0.829175  1
  O  O35  1  0.750000  0.915759  0.329175  1
  O  O36  1  0.951744  0.885257  0.826185  1
  O  O37  1  0.554895  0.799920  0.104106  1
  O  O38  1  0.048256  0.114743  0.173815  1
  O  O39  1  0.548256  0.885257  0.826185  1
