# generated using pymatgen
data_KCrF3
_symmetry_space_group_name_H-M   'P 1'
_cell_length_a   5.99177614
_cell_length_b   5.99177614
_cell_length_c   5.95453125
_cell_angle_alpha   62.20016096
_cell_angle_beta   117.79983904
_cell_angle_gamma   86.05316937
_symmetry_Int_Tables_number   1
_chemical_formula_structural   KCrF3
_chemical_formula_sum   'K2 Cr2 F6'
_cell_volume   155.67387093
_cell_formula_units_Z   2
loop_
 _symmetry_equiv_pos_site_id
 _symmetry_equiv_pos_as_xyz
  1  'x, y, z'
loop_
 _atom_site_type_symbol
 _atom_site_label
 _atom_site_symmetry_multiplicity
 _atom_site_fract_x
 _atom_site_fract_y
 _atom_site_fract_z
 _atom_site_occupancy
  K  K0  1  0.748662  0.748662  0.000000  1
  K  K1  1  0.251338  0.251338  0.000000  1
  Cr  Cr2  1  0.500000  0.500000  0.500000  1
  Cr  Cr3  1  0.000000  0.000000  0.500000  1
  F  F4  1  0.730191  0.730191  0.500000  1
  F  F5  1  0.719371  0.280629  0.438131  1
  F  F6  1  0.280629  0.719371  0.561869  1
  F  F7  1  0.800002  0.199998  0.039609  1
  F  F8  1  0.269809  0.269809  0.500000  1
  F  F9  1  0.199998  0.800002  0.960391  1
