# generated using pymatgen
data_Pb2CCl2O3
_symmetry_space_group_name_H-M   'P 1'
_cell_length_a   8.26758051
_cell_length_b   8.26758051
_cell_length_c   9.02824226
_cell_angle_alpha   90.00000000
_cell_angle_beta   90.00000000
_cell_angle_gamma   90.00000000
_symmetry_Int_Tables_number   1
_chemical_formula_structural   Pb2CCl2O3
_chemical_formula_sum   'Pb8 C4 Cl8 O12'
_cell_volume   617.10642742
_cell_formula_units_Z   4
loop_
 _symmetry_equiv_pos_site_id
 _symmetry_equiv_pos_as_xyz
  1  'x, y, z'
loop_
 _atom_site_type_symbol
 _atom_site_label
 _atom_site_symmetry_multiplicity
 _atom_site_fract_x
 _atom_site_fract_y
 _atom_site_fract_z
 _atom_site_occupancy
  Pb  Pb0  1  0.167263  0.667263  0.258885  1
  Pb  Pb1  1  0.332737  0.167263  0.258885  1
  Pb  Pb2  1  0.667263  0.832737  0.258885  1
  Pb  Pb3  1  0.667263  0.832737  0.741115  1
  Pb  Pb4  1  0.332737  0.167263  0.741115  1
  Pb  Pb5  1  0.832737  0.332737  0.258885  1
  Pb  Pb6  1  0.167263  0.667263  0.741115  1
  Pb  Pb7  1  0.832737  0.332737  0.741115  1
  C  C8  1  0.323239  0.823239  0.000000  1
  C  C9  1  0.176761  0.323239  0.000000  1
  C  C10  1  0.823239  0.676761  0.000000  1
  C  C11  1  0.676761  0.176761  0.000000  1
  Cl  Cl12  1  0.000000  0.000000  0.244894  1
  Cl  Cl13  1  0.500000  0.500000  0.755106  1
  Cl  Cl14  1  0.000000  0.000000  0.755106  1
  Cl  Cl15  1  0.500000  0.500000  0.244894  1
  Cl  Cl16  1  0.352315  0.852315  0.500000  1
  Cl  Cl17  1  0.147685  0.352315  0.500000  1
  Cl  Cl18  1  0.852315  0.647685  0.500000  1
  Cl  Cl19  1  0.647685  0.147685  0.500000  1
  O  O20  1  0.210721  0.710721  0.000000  1
  O  O21  1  0.289279  0.210721  0.000000  1
  O  O22  1  0.710721  0.789279  0.000000  1
  O  O23  1  0.789279  0.289279  0.000000  1
  O  O24  1  0.372977  0.872977  0.127813  1
  O  O25  1  0.127023  0.372977  0.127813  1
  O  O26  1  0.872977  0.627023  0.127813  1
  O  O27  1  0.872977  0.627023  0.872187  1
  O  O28  1  0.127023  0.372977  0.872187  1
  O  O29  1  0.627023  0.127023  0.127813  1
  O  O30  1  0.372977  0.872977  0.872187  1
  O  O31  1  0.627023  0.127023  0.872187  1
