# generated using pymatgen
data_Er5Zr3(Ni4As3)4
_symmetry_space_group_name_H-M   'P 1'
_cell_length_a   12.75037843
_cell_length_b   12.75037843
_cell_length_c   3.91094556
_cell_angle_alpha   90.00000000
_cell_angle_beta   90.00000000
_cell_angle_gamma   120.00000000
_symmetry_Int_Tables_number   1
_chemical_formula_structural   Er5Zr3(Ni4As3)4
_chemical_formula_sum   'Er5 Zr3 Ni16 As12'
_cell_volume   550.62832973
_cell_formula_units_Z   1
loop_
 _symmetry_equiv_pos_site_id
 _symmetry_equiv_pos_as_xyz
  1  'x, y, z'
loop_
 _atom_site_type_symbol
 _atom_site_label
 _atom_site_symmetry_multiplicity
 _atom_site_fract_x
 _atom_site_fract_y
 _atom_site_fract_z
 _atom_site_occupancy
  Er  Er0  1  0.816525  0.000000  0.500000  1
  Er  Er1  1  0.183475  0.183475  0.500000  1
  Er  Er2  1  0.000000  0.816525  0.500000  1
  Er  Er3  1  0.666667  0.333333  0.000000  1
  Er  Er4  1  0.333333  0.666667  0.000000  1
  Zr  Zr5  1  0.562377  0.562377  0.000000  1
  Zr  Zr6  1  0.000000  0.437623  0.000000  1
  Zr  Zr7  1  0.437623  0.000000  0.000000  1
  Ni  Ni8  1  0.878680  0.517386  0.500000  1
  Ni  Ni9  1  0.517386  0.878680  0.500000  1
  Ni  Ni10  1  0.000000  0.275597  0.500000  1
  Ni  Ni11  1  0.361295  0.482614  0.500000  1
  Ni  Ni12  1  0.192662  0.816948  0.000000  1
  Ni  Ni13  1  0.275597  0.000000  0.500000  1
  Ni  Ni14  1  0.375714  0.183052  0.000000  1
  Ni  Ni15  1  0.624286  0.807338  0.000000  1
  Ni  Ni16  1  0.000000  0.000000  0.000000  1
  Ni  Ni17  1  0.121320  0.638705  0.500000  1
  Ni  Ni18  1  0.482614  0.361295  0.500000  1
  Ni  Ni19  1  0.816948  0.192662  0.000000  1
  Ni  Ni20  1  0.724403  0.724403  0.500000  1
  Ni  Ni21  1  0.183052  0.375714  0.000000  1
  Ni  Ni22  1  0.807338  0.624286  0.000000  1
  Ni  Ni23  1  0.638705  0.121320  0.500000  1
  As  As24  1  0.177579  0.000000  0.000000  1
  As  As25  1  0.645549  0.000000  0.000000  1
  As  As26  1  0.520053  0.692743  0.500000  1
  As  As27  1  0.479947  0.172690  0.500000  1
  As  As28  1  0.692743  0.520053  0.500000  1
  As  As29  1  0.307257  0.827310  0.500000  1
  As  As30  1  0.827310  0.307257  0.500000  1
  As  As31  1  0.822421  0.822421  0.000000  1
  As  As32  1  0.000000  0.645549  0.000000  1
  As  As33  1  0.000000  0.177579  0.000000  1
  As  As34  1  0.172690  0.479947  0.500000  1
  As  As35  1  0.354451  0.354451  0.000000  1
