# generated using pymatgen
data_ZrP2NCl11
_symmetry_space_group_name_H-M   'P 1'
_cell_length_a   11.09999191
_cell_length_b   11.09999191
_cell_length_c   16.27777922
_cell_angle_alpha   90.00000000
_cell_angle_beta   90.00000000
_cell_angle_gamma   114.23704757
_symmetry_Int_Tables_number   1
_chemical_formula_structural   ZrP2NCl11
_chemical_formula_sum   'Zr4 P8 N4 Cl44'
_cell_volume   1828.79994277
_cell_formula_units_Z   4
loop_
 _symmetry_equiv_pos_site_id
 _symmetry_equiv_pos_as_xyz
  1  'x, y, z'
loop_
 _atom_site_type_symbol
 _atom_site_label
 _atom_site_symmetry_multiplicity
 _atom_site_fract_x
 _atom_site_fract_y
 _atom_site_fract_z
 _atom_site_occupancy
  Zr  Zr0  1  0.352044  0.352044  0.066385  1
  Zr  Zr1  1  0.147956  0.147956  0.566385  1
  Zr  Zr2  1  0.647956  0.647956  0.933615  1
  Zr  Zr3  1  0.852044  0.852044  0.433615  1
  P  P4  1  0.801569  0.195651  0.183255  1
  P  P5  1  0.304349  0.698431  0.683255  1
  P  P6  1  0.198431  0.804349  0.816745  1
  P  P7  1  0.695651  0.301569  0.316745  1
  P  P8  1  0.195651  0.801569  0.183255  1
  P  P9  1  0.698431  0.304349  0.683255  1
  P  P10  1  0.804349  0.198431  0.816745  1
  P  P11  1  0.301569  0.695651  0.316745  1
  N  N12  1  0.297659  0.797659  0.750000  1
  N  N13  1  0.202341  0.702341  0.250000  1
  N  N14  1  0.797659  0.297659  0.750000  1
  N  N15  1  0.702341  0.202341  0.250000  1
  Cl  Cl16  1  0.292637  0.528872  0.729044  1
  Cl  Cl17  1  0.926821  0.926821  0.586165  1
  Cl  Cl18  1  0.974320  0.278862  0.875548  1
  Cl  Cl19  1  0.474320  0.778862  0.624452  1
  Cl  Cl20  1  0.207363  0.971128  0.229044  1
  Cl  Cl21  1  0.846535  0.336145  0.098829  1
  Cl  Cl22  1  0.792637  0.028872  0.770956  1
  Cl  Cl23  1  0.528872  0.292637  0.729044  1
  Cl  Cl24  1  0.025680  0.721138  0.124452  1
  Cl  Cl25  1  0.778862  0.474320  0.624452  1
  Cl  Cl26  1  0.653465  0.163855  0.598829  1
  Cl  Cl27  1  0.831844  0.831844  0.285486  1
  Cl  Cl28  1  0.221138  0.525680  0.375548  1
  Cl  Cl29  1  0.573179  0.573179  0.086165  1
  Cl  Cl30  1  0.707363  0.471128  0.270956  1
  Cl  Cl31  1  0.775129  0.511373  0.938833  1
  Cl  Cl32  1  0.511373  0.775129  0.938833  1
  Cl  Cl33  1  0.163855  0.653465  0.598829  1
  Cl  Cl34  1  0.836145  0.346535  0.401171  1
  Cl  Cl35  1  0.011373  0.275129  0.561167  1
  Cl  Cl36  1  0.988627  0.724871  0.438833  1
  Cl  Cl37  1  0.724871  0.988627  0.438833  1
  Cl  Cl38  1  0.426821  0.426821  0.913835  1
  Cl  Cl39  1  0.331844  0.331844  0.214514  1
  Cl  Cl40  1  0.525680  0.221138  0.375548  1
  Cl  Cl41  1  0.028872  0.792637  0.770956  1
  Cl  Cl42  1  0.668156  0.668156  0.785486  1
  Cl  Cl43  1  0.663855  0.153465  0.901171  1
  Cl  Cl44  1  0.721138  0.025680  0.124452  1
  Cl  Cl45  1  0.168156  0.168156  0.714514  1
  Cl  Cl46  1  0.224871  0.488627  0.061167  1
  Cl  Cl47  1  0.336145  0.846535  0.098829  1
  Cl  Cl48  1  0.275129  0.011373  0.561167  1
  Cl  Cl49  1  0.073179  0.073179  0.413835  1
  Cl  Cl50  1  0.660167  0.660167  0.474683  1
  Cl  Cl51  1  0.488627  0.224871  0.061167  1
  Cl  Cl52  1  0.160167  0.160167  0.025317  1
  Cl  Cl53  1  0.339833  0.339833  0.525317  1
  Cl  Cl54  1  0.278862  0.974320  0.875548  1
  Cl  Cl55  1  0.971128  0.207363  0.229044  1
  Cl  Cl56  1  0.346535  0.836145  0.401171  1
  Cl  Cl57  1  0.471128  0.707363  0.270956  1
  Cl  Cl58  1  0.839833  0.839833  0.974683  1
  Cl  Cl59  1  0.153465  0.663855  0.901171  1
