# generated using pymatgen
data_SiO2
_symmetry_space_group_name_H-M   'P 1'
_cell_length_a   5.15137374
_cell_length_b   14.04005363
_cell_length_c   25.84398496
_cell_angle_alpha   90.00000000
_cell_angle_beta   90.00000000
_cell_angle_gamma   90.00000000
_symmetry_Int_Tables_number   1
_chemical_formula_structural   SiO2
_chemical_formula_sum   'Si32 O64'
_cell_volume   1869.18077733
_cell_formula_units_Z   32
loop_
 _symmetry_equiv_pos_site_id
 _symmetry_equiv_pos_as_xyz
  1  'x, y, z'
loop_
 _atom_site_type_symbol
 _atom_site_label
 _atom_site_symmetry_multiplicity
 _atom_site_fract_x
 _atom_site_fract_y
 _atom_site_fract_z
 _atom_site_occupancy
  Si  Si0  1  0.235740  0.500000  0.703751  1
  Si  Si1  1  0.756302  0.804070  0.141987  1
  Si  Si2  1  0.209768  0.209976  0.306806  1
  Si  Si3  1  0.195614  0.110875  0.963178  1
  Si  Si4  1  0.299058  0.803921  0.853480  1
  Si  Si5  1  0.246738  0.500000  0.222720  1
  Si  Si6  1  0.209768  0.790024  0.306806  1
  Si  Si7  1  0.308150  0.389114  0.531329  1
  Si  Si8  1  0.700942  0.303921  0.353480  1
  Si  Si9  1  0.266533  0.000000  0.272252  1
  Si  Si10  1  0.299058  0.196079  0.853480  1
  Si  Si11  1  0.804386  0.389125  0.463178  1
  Si  Si12  1  0.243698  0.304070  0.641987  1
  Si  Si13  1  0.261774  0.709241  0.189524  1
  Si  Si14  1  0.804386  0.610875  0.463178  1
  Si  Si15  1  0.744851  0.500000  0.291281  1
  Si  Si16  1  0.790232  0.709976  0.806806  1
  Si  Si17  1  0.764260  0.000000  0.203751  1
  Si  Si18  1  0.733467  0.500000  0.772252  1
  Si  Si19  1  0.790232  0.290024  0.806806  1
  Si  Si20  1  0.700942  0.696079  0.353480  1
  Si  Si21  1  0.308150  0.610886  0.531329  1
  Si  Si22  1  0.195614  0.889125  0.963178  1
  Si  Si23  1  0.738226  0.790759  0.689524  1
  Si  Si24  1  0.255149  0.000000  0.791281  1
  Si  Si25  1  0.243698  0.695930  0.641987  1
  Si  Si26  1  0.738226  0.209241  0.689524  1
  Si  Si27  1  0.691850  0.110886  0.031329  1
  Si  Si28  1  0.753262  0.000000  0.722720  1
  Si  Si29  1  0.756302  0.195930  0.141987  1
  Si  Si30  1  0.261774  0.290759  0.189524  1
  Si  Si31  1  0.691850  0.889114  0.031329  1
  O  O32  1  0.566642  0.000000  0.252684  1
  O  O33  1  0.764426  0.682066  0.414464  1
  O  O34  1  0.041883  0.235316  0.156624  1
  O  O35  1  0.065398  0.000000  0.223223  1
  O  O36  1  0.199168  0.595394  0.188248  1
  O  O37  1  0.706424  0.093761  0.169383  1
  O  O38  1  0.578527  0.751384  0.847640  1
  O  O39  1  0.199168  0.404606  0.188248  1
  O  O40  1  0.433358  0.500000  0.752684  1
  O  O41  1  0.311995  0.092743  0.826141  1
  O  O42  1  0.743038  0.818111  0.079692  1
  O  O43  1  0.764426  0.317934  0.414464  1
  O  O44  1  0.269328  0.252025  0.249103  1
  O  O45  1  0.311995  0.907257  0.826141  1
  O  O46  1  0.079439  0.260400  0.825357  1
  O  O47  1  0.730672  0.752025  0.749103  1
  O  O48  1  0.295736  0.500000  0.550753  1
  O  O49  1  0.706424  0.906239  0.169383  1
  O  O50  1  0.406689  0.864796  0.008008  1
  O  O51  1  0.228528  0.000000  0.944507  1
  O  O52  1  0.779840  0.594315  0.807224  1
  O  O53  1  0.688005  0.592743  0.326141  1
  O  O54  1  0.235574  0.182066  0.914464  1
  O  O55  1  0.406689  0.135204  0.008008  1
  O  O56  1  0.779840  0.405685  0.807224  1
  O  O57  1  0.269328  0.747975  0.249103  1
  O  O58  1  0.704264  0.000000  0.050753  1
  O  O59  1  0.041883  0.764684  0.156624  1
  O  O60  1  0.256962  0.318111  0.579692  1
  O  O61  1  0.547318  0.500000  0.242265  1
  O  O62  1  0.293576  0.406239  0.669383  1
  O  O63  1  0.093345  0.628536  0.486276  1
  O  O64  1  0.934602  0.500000  0.723223  1
  O  O65  1  0.093345  0.371464  0.486276  1
  O  O66  1  0.771472  0.500000  0.444507  1
  O  O67  1  0.688005  0.407257  0.326141  1
  O  O68  1  0.045790  0.500000  0.271743  1
  O  O69  1  0.743038  0.181889  0.079692  1
  O  O70  1  0.958117  0.735316  0.656624  1
  O  O71  1  0.459433  0.227947  0.661895  1
  O  O72  1  0.079439  0.739600  0.825357  1
  O  O73  1  0.220160  0.905685  0.307224  1
  O  O74  1  0.954210  0.000000  0.771743  1
  O  O75  1  0.421473  0.251384  0.347640  1
  O  O76  1  0.593311  0.364796  0.508008  1
  O  O77  1  0.293576  0.593761  0.669383  1
  O  O78  1  0.220160  0.094315  0.307224  1
  O  O79  1  0.920561  0.760400  0.325357  1
  O  O80  1  0.730672  0.247975  0.749103  1
  O  O81  1  0.540567  0.727947  0.161895  1
  O  O82  1  0.256962  0.681889  0.579692  1
  O  O83  1  0.906655  0.128536  0.986276  1
  O  O84  1  0.459433  0.772053  0.661895  1
  O  O85  1  0.800832  0.904606  0.688248  1
  O  O86  1  0.578527  0.248616  0.847640  1
  O  O87  1  0.540567  0.272053  0.161895  1
  O  O88  1  0.452682  0.000000  0.742265  1
  O  O89  1  0.235574  0.817934  0.914464  1
  O  O90  1  0.800832  0.095394  0.688248  1
  O  O91  1  0.958117  0.264684  0.656624  1
  O  O92  1  0.920561  0.239600  0.325357  1
  O  O93  1  0.593311  0.635204  0.508008  1
  O  O94  1  0.421473  0.748616  0.347640  1
  O  O95  1  0.906655  0.871464  0.986276  1
