# generated using pymatgen
data_Cs2SeO4
_symmetry_space_group_name_H-M   'P 1'
_cell_length_a   6.57429955
_cell_length_b   8.54940193
_cell_length_c   11.53184077
_cell_angle_alpha   90.00000000
_cell_angle_beta   90.00000000
_cell_angle_gamma   90.00000000
_symmetry_Int_Tables_number   1
_chemical_formula_structural   Cs2SeO4
_chemical_formula_sum   'Cs8 Se4 O16'
_cell_volume   648.16243931
_cell_formula_units_Z   4
loop_
 _symmetry_equiv_pos_site_id
 _symmetry_equiv_pos_as_xyz
  1  'x, y, z'
loop_
 _atom_site_type_symbol
 _atom_site_label
 _atom_site_symmetry_multiplicity
 _atom_site_fract_x
 _atom_site_fract_y
 _atom_site_fract_z
 _atom_site_occupancy
  Cs  Cs0  1  0.750000  0.176464  0.089148  1
  Cs  Cs1  1  0.750000  0.990471  0.704345  1
  Cs  Cs2  1  0.250000  0.009529  0.295655  1
  Cs  Cs3  1  0.250000  0.509529  0.204345  1
  Cs  Cs4  1  0.750000  0.490471  0.795655  1
  Cs  Cs5  1  0.250000  0.823536  0.910852  1
  Cs  Cs6  1  0.750000  0.676464  0.410852  1
  Cs  Cs7  1  0.250000  0.323536  0.589148  1
  Se  Se8  1  0.250000  0.265599  0.919443  1
  Se  Se9  1  0.750000  0.734401  0.080557  1
  Se  Se10  1  0.750000  0.234401  0.419443  1
  Se  Se11  1  0.250000  0.765599  0.580557  1
  O  O12  1  0.750000  0.538629  0.082688  1
  O  O13  1  0.458948  0.697685  0.648188  1
  O  O14  1  0.041052  0.197685  0.851812  1
  O  O15  1  0.250000  0.698705  0.443029  1
  O  O16  1  0.750000  0.038629  0.417312  1
  O  O17  1  0.541052  0.802315  0.148188  1
  O  O18  1  0.958948  0.802315  0.148188  1
  O  O19  1  0.958948  0.302315  0.351812  1
  O  O20  1  0.750000  0.301295  0.556971  1
  O  O21  1  0.458948  0.197685  0.851812  1
  O  O22  1  0.041052  0.697685  0.648188  1
  O  O23  1  0.250000  0.198705  0.056971  1
  O  O24  1  0.250000  0.961371  0.582688  1
  O  O25  1  0.750000  0.801295  0.943029  1
  O  O26  1  0.541052  0.302315  0.351812  1
  O  O27  1  0.250000  0.461371  0.917312  1
