# generated using pymatgen
data_Rb3Mo12PO40
_symmetry_space_group_name_H-M   'P 1'
_cell_length_a   12.03358108
_cell_length_b   12.03358108
_cell_length_c   12.03358108
_cell_angle_alpha   90.00000000
_cell_angle_beta   90.00000000
_cell_angle_gamma   90.00000000
_symmetry_Int_Tables_number   1
_chemical_formula_structural   Rb3Mo12PO40
_chemical_formula_sum   'Rb6 Mo24 P2 O80'
_cell_volume   1742.54766123
_cell_formula_units_Z   2
loop_
 _symmetry_equiv_pos_site_id
 _symmetry_equiv_pos_as_xyz
  1  'x, y, z'
loop_
 _atom_site_type_symbol
 _atom_site_label
 _atom_site_symmetry_multiplicity
 _atom_site_fract_x
 _atom_site_fract_y
 _atom_site_fract_z
 _atom_site_occupancy
  Rb  Rb0  1  0.000000  0.500000  0.500000  1
  Rb  Rb1  1  0.500000  0.500000  0.000000  1
  Rb  Rb2  1  0.500000  0.000000  0.000000  1
  Rb  Rb3  1  0.500000  0.000000  0.500000  1
  Rb  Rb4  1  0.000000  0.500000  0.000000  1
  Rb  Rb5  1  0.000000  0.000000  0.500000  1
  Mo  Mo6  1  0.787657  0.787657  0.992060  1
  Mo  Mo7  1  0.507940  0.287657  0.287657  1
  Mo  Mo8  1  0.992060  0.212343  0.212343  1
  Mo  Mo9  1  0.492060  0.712343  0.287657  1
  Mo  Mo10  1  0.287657  0.507940  0.287657  1
  Mo  Mo11  1  0.507940  0.712343  0.712343  1
  Mo  Mo12  1  0.712343  0.492060  0.287657  1
  Mo  Mo13  1  0.992060  0.787657  0.787657  1
  Mo  Mo14  1  0.492060  0.287657  0.712343  1
  Mo  Mo15  1  0.007940  0.212343  0.787657  1
  Mo  Mo16  1  0.787657  0.992060  0.787657  1
  Mo  Mo17  1  0.287657  0.492060  0.712343  1
  Mo  Mo18  1  0.787657  0.007940  0.212343  1
  Mo  Mo19  1  0.212343  0.787657  0.007940  1
  Mo  Mo20  1  0.007940  0.787657  0.212343  1
  Mo  Mo21  1  0.712343  0.712343  0.507940  1
  Mo  Mo22  1  0.712343  0.507940  0.712343  1
  Mo  Mo23  1  0.212343  0.992060  0.212343  1
  Mo  Mo24  1  0.787657  0.212343  0.007940  1
  Mo  Mo25  1  0.287657  0.712343  0.492060  1
  Mo  Mo26  1  0.287657  0.287657  0.507940  1
  Mo  Mo27  1  0.212343  0.007940  0.787657  1
  Mo  Mo28  1  0.212343  0.212343  0.992060  1
  Mo  Mo29  1  0.712343  0.287657  0.492060  1
  P  P30  1  0.500000  0.500000  0.500000  1
  P  P31  1  0.000000  0.000000  0.000000  1
  O  O32  1  0.717913  0.123583  0.123583  1
  O  O33  1  0.574236  0.574236  0.574236  1
  O  O34  1  0.515786  0.811657  0.188343  1
  O  O35  1  0.123583  0.717913  0.123583  1
  O  O36  1  0.425764  0.425764  0.574236  1
  O  O37  1  0.597354  0.597354  0.247654  1
  O  O38  1  0.282087  0.123583  0.876417  1
  O  O39  1  0.623583  0.623583  0.782087  1
  O  O40  1  0.376417  0.623583  0.217913  1
  O  O41  1  0.123583  0.123583  0.717913  1
  O  O42  1  0.097354  0.097354  0.252346  1
  O  O43  1  0.123583  0.282087  0.876417  1
  O  O44  1  0.984214  0.688343  0.311657  1
  O  O45  1  0.484214  0.811657  0.811657  1
  O  O46  1  0.811657  0.188343  0.515786  1
  O  O47  1  0.097354  0.902646  0.747654  1
  O  O48  1  0.252346  0.097354  0.097354  1
  O  O49  1  0.811657  0.484214  0.811657  1
  O  O50  1  0.097354  0.747654  0.902646  1
  O  O51  1  0.188343  0.188343  0.484214  1
  O  O52  1  0.311657  0.688343  0.984214  1
  O  O53  1  0.311657  0.984214  0.688343  1
  O  O54  1  0.597354  0.247654  0.597354  1
  O  O55  1  0.282087  0.876417  0.123583  1
  O  O56  1  0.217913  0.623583  0.376417  1
  O  O57  1  0.074236  0.925764  0.074236  1
  O  O58  1  0.782087  0.376417  0.376417  1
  O  O59  1  0.623583  0.782087  0.623583  1
  O  O60  1  0.515786  0.188343  0.811657  1
  O  O61  1  0.402646  0.402646  0.247654  1
  O  O62  1  0.688343  0.688343  0.015786  1
  O  O63  1  0.984214  0.311657  0.688343  1
  O  O64  1  0.902646  0.097354  0.747654  1
  O  O65  1  0.688343  0.984214  0.311657  1
  O  O66  1  0.597354  0.402646  0.752346  1
  O  O67  1  0.597354  0.752346  0.402646  1
  O  O68  1  0.247654  0.597354  0.597354  1
  O  O69  1  0.902646  0.902646  0.252346  1
  O  O70  1  0.925764  0.925764  0.925764  1
  O  O71  1  0.188343  0.811657  0.515786  1
  O  O72  1  0.717913  0.876417  0.876417  1
  O  O73  1  0.876417  0.123583  0.282087  1
  O  O74  1  0.376417  0.782087  0.376417  1
  O  O75  1  0.925764  0.074236  0.074236  1
  O  O76  1  0.402646  0.597354  0.752346  1
  O  O77  1  0.876417  0.876417  0.717913  1
  O  O78  1  0.752346  0.402646  0.597354  1
  O  O79  1  0.074236  0.074236  0.925764  1
  O  O80  1  0.247654  0.402646  0.402646  1
  O  O81  1  0.217913  0.376417  0.623583  1
  O  O82  1  0.376417  0.376417  0.782087  1
  O  O83  1  0.574236  0.425764  0.425764  1
  O  O84  1  0.688343  0.311657  0.984214  1
  O  O85  1  0.811657  0.811657  0.484214  1
  O  O86  1  0.311657  0.015786  0.311657  1
  O  O87  1  0.811657  0.515786  0.188343  1
  O  O88  1  0.623583  0.376417  0.217913  1
  O  O89  1  0.252346  0.902646  0.902646  1
  O  O90  1  0.402646  0.752346  0.597354  1
  O  O91  1  0.747654  0.902646  0.097354  1
  O  O92  1  0.876417  0.717913  0.876417  1
  O  O93  1  0.782087  0.623583  0.623583  1
  O  O94  1  0.376417  0.217913  0.623583  1
  O  O95  1  0.752346  0.597354  0.402646  1
  O  O96  1  0.311657  0.311657  0.015786  1
  O  O97  1  0.688343  0.015786  0.688343  1
  O  O98  1  0.484214  0.188343  0.188343  1
  O  O99  1  0.015786  0.311657  0.311657  1
  O  O100  1  0.747654  0.097354  0.902646  1
  O  O101  1  0.623583  0.217913  0.376417  1
  O  O102  1  0.097354  0.252346  0.097354  1
  O  O103  1  0.876417  0.282087  0.123583  1
  O  O104  1  0.188343  0.484214  0.188343  1
  O  O105  1  0.015786  0.688343  0.688343  1
  O  O106  1  0.425764  0.574236  0.425764  1
  O  O107  1  0.902646  0.747654  0.097354  1
  O  O108  1  0.402646  0.247654  0.402646  1
  O  O109  1  0.902646  0.252346  0.902646  1
  O  O110  1  0.123583  0.876417  0.282087  1
  O  O111  1  0.188343  0.515786  0.811657  1
