# generated using pymatgen
data_Li2U5MoO19
_symmetry_space_group_name_H-M   'P 1'
_cell_length_a   8.00843228
_cell_length_b   20.25926206
_cell_length_c   10.22175482
_cell_angle_alpha   90.00000000
_cell_angle_beta   91.39975377
_cell_angle_gamma   90.00000000
_symmetry_Int_Tables_number   1
_chemical_formula_structural   Li2U5MoO19
_chemical_formula_sum   'Li8 U20 Mo4 O76'
_cell_volume   1657.93299413
_cell_formula_units_Z   4
loop_
 _symmetry_equiv_pos_site_id
 _symmetry_equiv_pos_as_xyz
  1  'x, y, z'
loop_
 _atom_site_type_symbol
 _atom_site_label
 _atom_site_symmetry_multiplicity
 _atom_site_fract_x
 _atom_site_fract_y
 _atom_site_fract_z
 _atom_site_occupancy
  Li  Li0  1  0.743801  0.881555  0.831973  1
  Li  Li1  1  0.706509  0.393208  0.661727  1
  Li  Li2  1  0.743801  0.618445  0.331973  1
  Li  Li3  1  0.293491  0.606792  0.338273  1
  Li  Li4  1  0.256199  0.118445  0.168027  1
  Li  Li5  1  0.256199  0.381555  0.668027  1
  Li  Li6  1  0.293491  0.893208  0.838273  1
  Li  Li7  1  0.706509  0.106792  0.161727  1
  U  U8  1  0.720946  0.253373  0.407441  1
  U  U9  1  0.026932  0.640202  0.815031  1
  U  U10  1  0.026932  0.859798  0.315031  1
  U  U11  1  0.720946  0.246627  0.907441  1
  U  U12  1  0.481909  0.363967  0.181011  1
  U  U13  1  0.770934  0.764198  0.560593  1
  U  U14  1  0.481909  0.136033  0.681011  1
  U  U15  1  0.279054  0.753373  0.092559  1
  U  U16  1  0.500000  0.500000  0.500000  1
  U  U17  1  0.973068  0.359798  0.184969  1
  U  U18  1  0.518091  0.863967  0.318989  1
  U  U19  1  0.518091  0.636033  0.818989  1
  U  U20  1  0.000000  0.000000  0.000000  1
  U  U21  1  0.500000  0.000000  0.000000  1
  U  U22  1  0.973068  0.140202  0.684969  1
  U  U23  1  0.229066  0.264198  0.939407  1
  U  U24  1  0.279054  0.746627  0.592559  1
  U  U25  1  0.000000  0.500000  0.500000  1
  U  U26  1  0.229066  0.235802  0.439407  1
  U  U27  1  0.770934  0.735802  0.060593  1
  Mo  Mo28  1  0.206174  0.987931  0.532077  1
  Mo  Mo29  1  0.793826  0.012069  0.467923  1
  Mo  Mo30  1  0.206174  0.512069  0.032077  1
  Mo  Mo31  1  0.793826  0.487931  0.967923  1
  O  O32  1  0.453678  0.431427  0.618886  1
  O  O33  1  0.938688  0.199562  0.532654  1
  O  O34  1  0.367851  0.450525  0.042810  1
  O  O35  1  0.771021  0.662632  0.164580  1
  O  O36  1  0.747492  0.030754  0.024288  1
  O  O37  1  0.491133  0.802848  0.469098  1
  O  O38  1  0.990376  0.781878  0.171204  1
  O  O39  1  0.227294  0.163090  0.632830  1
  O  O40  1  0.972363  0.944944  0.459510  1
  O  O41  1  0.067969  0.064326  0.118013  1
  O  O42  1  0.780948  0.449395  0.817358  1
  O  O43  1  0.546322  0.568573  0.381114  1
  O  O44  1  0.027637  0.444944  0.040490  1
  O  O45  1  0.457016  0.426341  0.318166  1
  O  O46  1  0.252508  0.530754  0.475712  1
  O  O47  1  0.228979  0.337368  0.835420  1
  O  O48  1  0.445659  0.215083  0.830041  1
  O  O49  1  0.990376  0.718122  0.671204  1
  O  O50  1  0.938688  0.300438  0.032654  1
  O  O51  1  0.027637  0.055056  0.540490  1
  O  O52  1  0.542984  0.926341  0.181834  1
  O  O53  1  0.718156  0.070622  0.594053  1
  O  O54  1  0.554341  0.715083  0.669959  1
  O  O55  1  0.747492  0.469246  0.524288  1
  O  O56  1  0.234041  0.195094  0.053069  1
  O  O57  1  0.932031  0.935674  0.881987  1
  O  O58  1  0.713669  0.315561  0.793696  1
  O  O59  1  0.286331  0.684439  0.206304  1
  O  O60  1  0.632149  0.549475  0.957190  1
  O  O61  1  0.718156  0.429378  0.094053  1
  O  O62  1  0.272287  0.820817  0.975071  1
  O  O63  1  0.445659  0.284917  0.330041  1
  O  O64  1  0.632149  0.950525  0.457190  1
  O  O65  1  0.727713  0.179183  0.024929  1
  O  O66  1  0.219052  0.550605  0.182642  1
  O  O67  1  0.765959  0.804906  0.946931  1
  O  O68  1  0.061312  0.699562  0.967346  1
  O  O69  1  0.015535  0.422705  0.320720  1
  O  O70  1  0.227294  0.336910  0.132830  1
  O  O71  1  0.765959  0.695094  0.446931  1
  O  O72  1  0.009624  0.218122  0.828796  1
  O  O73  1  0.491133  0.697152  0.969098  1
  O  O74  1  0.219052  0.949395  0.682642  1
  O  O75  1  0.546322  0.931427  0.881114  1
  O  O76  1  0.457016  0.073659  0.818166  1
  O  O77  1  0.015535  0.077295  0.820720  1
  O  O78  1  0.984465  0.922705  0.179280  1
  O  O79  1  0.772706  0.663090  0.867170  1
  O  O80  1  0.067969  0.435674  0.618013  1
  O  O81  1  0.542984  0.573659  0.681834  1
  O  O82  1  0.780948  0.050605  0.317358  1
  O  O83  1  0.367851  0.049475  0.542810  1
  O  O84  1  0.725385  0.330287  0.248921  1
  O  O85  1  0.727713  0.320817  0.524929  1
  O  O86  1  0.771021  0.837368  0.664580  1
  O  O87  1  0.281844  0.929378  0.405947  1
  O  O88  1  0.274615  0.830287  0.251079  1
  O  O89  1  0.234041  0.304906  0.553069  1
  O  O90  1  0.508867  0.302848  0.030902  1
  O  O91  1  0.286331  0.815561  0.706304  1
  O  O92  1  0.508867  0.197152  0.530902  1
  O  O93  1  0.725385  0.169713  0.748921  1
  O  O94  1  0.713669  0.184439  0.293696  1
  O  O95  1  0.972363  0.555056  0.959510  1
  O  O96  1  0.984465  0.577295  0.679280  1
  O  O97  1  0.932031  0.564326  0.381987  1
  O  O98  1  0.274615  0.669713  0.751079  1
  O  O99  1  0.009624  0.281878  0.328796  1
  O  O100  1  0.061312  0.800438  0.467346  1
  O  O101  1  0.228979  0.162632  0.335420  1
  O  O102  1  0.453678  0.068573  0.118886  1
  O  O103  1  0.772706  0.836910  0.367170  1
  O  O104  1  0.281844  0.570622  0.905947  1
  O  O105  1  0.272287  0.679183  0.475071  1
  O  O106  1  0.554341  0.784917  0.169959  1
  O  O107  1  0.252508  0.969246  0.975712  1
