# generated using pymatgen
data_Zn2Si3Pb4SO15
_symmetry_space_group_name_H-M   'P 1'
_cell_length_a   11.50292258
_cell_length_b   5.33115378
_cell_length_c   12.80522830
_cell_angle_alpha   90.00000000
_cell_angle_beta   107.99658077
_cell_angle_gamma   90.00000000
_symmetry_Int_Tables_number   1
_chemical_formula_structural   Zn2Si3Pb4SO15
_chemical_formula_sum   'Zn4 Si6 Pb8 S2 O30'
_cell_volume   746.84672086
_cell_formula_units_Z   2
loop_
 _symmetry_equiv_pos_site_id
 _symmetry_equiv_pos_as_xyz
  1  'x, y, z'
loop_
 _atom_site_type_symbol
 _atom_site_label
 _atom_site_symmetry_multiplicity
 _atom_site_fract_x
 _atom_site_fract_y
 _atom_site_fract_z
 _atom_site_occupancy
  Zn  Zn0  1  0.639313  0.018611  0.612990  1
  Zn  Zn1  1  0.920966  0.990068  0.354268  1
  Zn  Zn2  1  0.079034  0.490068  0.645732  1
  Zn  Zn3  1  0.360687  0.518611  0.387010  1
  Si  Si4  1  0.361324  0.441174  0.816306  1
  Si  Si5  1  0.922654  0.979067  0.624294  1
  Si  Si6  1  0.077346  0.479067  0.375706  1
  Si  Si7  1  0.638676  0.941174  0.183694  1
  Si  Si8  1  0.485572  0.017549  0.344484  1
  Si  Si9  1  0.514428  0.517549  0.655516  1
  Pb  Pb10  1  0.732045  0.614607  0.436948  1
  Pb  Pb11  1  0.267955  0.114607  0.563052  1
  Pb  Pb12  1  0.456700  0.453888  0.113228  1
  Pb  Pb13  1  0.184516  0.980530  0.871641  1
  Pb  Pb14  1  0.543300  0.953888  0.886772  1
  Pb  Pb15  1  0.847415  0.496711  0.782562  1
  Pb  Pb16  1  0.152585  0.996711  0.217438  1
  Pb  Pb17  1  0.815484  0.480530  0.128359  1
  S  S18  1  0.147332  0.508704  0.032698  1
  S  S19  1  0.852668  0.008704  0.967302  1
  O  O20  1  0.783179  0.769146  0.930454  1
  O  O21  1  0.192950  0.365966  0.338462  1
  O  O22  1  0.949530  0.329243  0.310361  1
  O  O23  1  0.345711  0.736723  0.840199  1
  O  O24  1  0.600026  0.931473  0.452415  1
  O  O25  1  0.807050  0.865966  0.661538  1
  O  O26  1  0.763821  0.223650  0.929466  1
  O  O27  1  0.522549  0.908020  0.235994  1
  O  O28  1  0.113390  0.410691  0.507773  1
  O  O29  1  0.641848  0.377653  0.653989  1
  O  O30  1  0.239045  0.314181  0.727389  1
  O  O31  1  0.654289  0.236723  0.159801  1
  O  O32  1  0.937352  0.281809  0.649058  1
  O  O33  1  0.046945  0.531522  0.080699  1
  O  O34  1  0.477451  0.408020  0.764006  1
  O  O35  1  0.062648  0.781809  0.350942  1
  O  O36  1  0.399974  0.431473  0.547585  1
  O  O37  1  0.050470  0.829243  0.689639  1
  O  O38  1  0.103490  0.515270  0.909444  1
  O  O39  1  0.471517  0.320837  0.330138  1
  O  O40  1  0.596939  0.767206  0.072386  1
  O  O41  1  0.236179  0.723650  0.070534  1
  O  O42  1  0.358152  0.877653  0.346011  1
  O  O43  1  0.528483  0.820837  0.669862  1
  O  O44  1  0.403061  0.267206  0.927614  1
  O  O45  1  0.216821  0.269146  0.069546  1
  O  O46  1  0.896510  0.015270  0.090556  1
  O  O47  1  0.953055  0.031522  0.919301  1
  O  O48  1  0.760955  0.814181  0.272611  1
  O  O49  1  0.886610  0.910691  0.492227  1
