# generated using pymatgen
data_Pr2Ni2I
_symmetry_space_group_name_H-M   'P 1'
_cell_length_a   4.08974201
_cell_length_b   4.08974201
_cell_length_c   17.53737831
_cell_angle_alpha   90.00000000
_cell_angle_beta   90.00000000
_cell_angle_gamma   120.00000000
_symmetry_Int_Tables_number   1
_chemical_formula_structural   Pr2Ni2I
_chemical_formula_sum   'Pr4 Ni4 I2'
_cell_volume   254.03123950
_cell_formula_units_Z   2
loop_
 _symmetry_equiv_pos_site_id
 _symmetry_equiv_pos_as_xyz
  1  'x, y, z'
loop_
 _atom_site_type_symbol
 _atom_site_label
 _atom_site_symmetry_multiplicity
 _atom_site_fract_x
 _atom_site_fract_y
 _atom_site_fract_z
 _atom_site_occupancy
  Pr  Pr0  1  0.000000  0.000000  0.605730  1
  Pr  Pr1  1  0.000000  0.000000  0.394270  1
  Pr  Pr2  1  0.000000  0.000000  0.105730  1
  Pr  Pr3  1  0.000000  0.000000  0.894270  1
  Ni  Ni4  1  0.666667  0.333333  0.500737  1
  Ni  Ni5  1  0.333333  0.666667  0.000737  1
  Ni  Ni6  1  0.666667  0.333333  0.999263  1
  Ni  Ni7  1  0.333333  0.666667  0.499263  1
  I  I8  1  0.666667  0.333333  0.250000  1
  I  I9  1  0.333333  0.666667  0.750000  1
