# generated using pymatgen
data_V8C7
_symmetry_space_group_name_H-M   'P 1'
_cell_length_a   8.33487482
_cell_length_b   8.33487482
_cell_length_c   8.33487482
_cell_angle_alpha   90.00000000
_cell_angle_beta   90.00000000
_cell_angle_gamma   90.00000000
_symmetry_Int_Tables_number   1
_chemical_formula_structural   V8C7
_chemical_formula_sum   'V32 C28'
_cell_volume   579.02490617
_cell_formula_units_Z   4
loop_
 _symmetry_equiv_pos_site_id
 _symmetry_equiv_pos_as_xyz
  1  'x, y, z'
loop_
 _atom_site_type_symbol
 _atom_site_label
 _atom_site_symmetry_multiplicity
 _atom_site_fract_x
 _atom_site_fract_y
 _atom_site_fract_z
 _atom_site_occupancy
  V  V0  1  0.378166  0.378166  0.378166  1
  V  V1  1  0.128166  0.371834  0.628166  1
  V  V2  1  0.628166  0.128166  0.371834  1
  V  V3  1  0.371834  0.628166  0.128166  1
  V  V4  1  0.121834  0.621834  0.878166  1
  V  V5  1  0.878166  0.121834  0.621834  1
  V  V6  1  0.621834  0.878166  0.121834  1
  V  V7  1  0.871834  0.871834  0.871834  1
  V  V8  1  0.144200  0.372430  0.119606  1
  V  V9  1  0.894200  0.630394  0.622430  1
  V  V10  1  0.394200  0.869606  0.377570  1
  V  V11  1  0.369606  0.122430  0.605800  1
  V  V12  1  0.630394  0.622430  0.894200  1
  V  V13  1  0.377570  0.394200  0.869606  1
  V  V14  1  0.122430  0.605800  0.369606  1
  V  V15  1  0.119606  0.144200  0.372430  1
  V  V16  1  0.372430  0.119606  0.144200  1
  V  V17  1  0.127570  0.880394  0.644200  1
  V  V18  1  0.619606  0.355800  0.627570  1
  V  V19  1  0.627570  0.619606  0.355800  1
  V  V20  1  0.380394  0.855800  0.872430  1
  V  V21  1  0.880394  0.644200  0.127570  1
  V  V22  1  0.872430  0.380394  0.855800  1
  V  V23  1  0.644200  0.127570  0.880394  1
  V  V24  1  0.855800  0.872430  0.380394  1
  V  V25  1  0.355800  0.627570  0.619606  1
  V  V26  1  0.622430  0.894200  0.630394  1
  V  V27  1  0.877570  0.105800  0.130394  1
  V  V28  1  0.869606  0.377570  0.394200  1
  V  V29  1  0.130394  0.877570  0.105800  1
  V  V30  1  0.605800  0.369606  0.122430  1
  V  V31  1  0.105800  0.130394  0.877570  1
  C  C32  1  0.125000  0.125000  0.125000  1
  C  C33  1  0.875000  0.625000  0.375000  1
  C  C34  1  0.375000  0.875000  0.625000  1
  C  C35  1  0.625000  0.375000  0.875000  1
  C  C36  1  0.125000  0.628804  0.621196  1
  C  C37  1  0.875000  0.128804  0.878804  1
  C  C38  1  0.375000  0.371196  0.121196  1
  C  C39  1  0.871196  0.378804  0.625000  1
  C  C40  1  0.128804  0.878804  0.875000  1
  C  C41  1  0.121196  0.375000  0.371196  1
  C  C42  1  0.378804  0.625000  0.871196  1
  C  C43  1  0.621196  0.125000  0.628804  1
  C  C44  1  0.628804  0.621196  0.125000  1
  C  C45  1  0.371196  0.121196  0.375000  1
  C  C46  1  0.878804  0.875000  0.128804  1
  C  C47  1  0.625000  0.871196  0.378804  1
  C  C48  1  0.125000  0.373803  0.876197  1
  C  C49  1  0.875000  0.873803  0.623803  1
  C  C50  1  0.375000  0.626197  0.376197  1
  C  C51  1  0.126197  0.123803  0.625000  1
  C  C52  1  0.873803  0.623803  0.875000  1
  C  C53  1  0.376197  0.375000  0.626197  1
  C  C54  1  0.123803  0.625000  0.126197  1
  C  C55  1  0.876197  0.125000  0.373803  1
  C  C56  1  0.373803  0.876197  0.125000  1
  C  C57  1  0.626197  0.376197  0.375000  1
  C  C58  1  0.623803  0.875000  0.873803  1
  C  C59  1  0.625000  0.126197  0.123803  1
