# generated using pymatgen
data_KCeF4
_symmetry_space_group_name_H-M   'P 1'
_cell_length_a   3.79474470
_cell_length_b   6.37701259
_cell_length_c   15.83038461
_cell_angle_alpha   90.00000000
_cell_angle_beta   90.00000000
_cell_angle_gamma   90.00000000
_symmetry_Int_Tables_number   1
_chemical_formula_structural   KCeF4
_chemical_formula_sum   'K4 Ce4 F16'
_cell_volume   383.08160997
_cell_formula_units_Z   4
loop_
 _symmetry_equiv_pos_site_id
 _symmetry_equiv_pos_as_xyz
  1  'x, y, z'
loop_
 _atom_site_type_symbol
 _atom_site_label
 _atom_site_symmetry_multiplicity
 _atom_site_fract_x
 _atom_site_fract_y
 _atom_site_fract_z
 _atom_site_occupancy
  K  K0  1  0.250000  0.723009  0.201715  1
  K  K1  1  0.750000  0.276991  0.798285  1
  K  K2  1  0.250000  0.223009  0.298285  1
  K  K3  1  0.750000  0.776991  0.701715  1
  Ce  Ce4  1  0.750000  0.748991  0.438066  1
  Ce  Ce5  1  0.250000  0.251009  0.561934  1
  Ce  Ce6  1  0.750000  0.248991  0.061934  1
  Ce  Ce7  1  0.250000  0.751009  0.938066  1
  F  F8  1  0.750000  0.863821  0.036132  1
  F  F9  1  0.250000  0.136179  0.963868  1
  F  F10  1  0.750000  0.363821  0.463868  1
  F  F11  1  0.250000  0.636179  0.536132  1
  F  F12  1  0.250000  0.004669  0.440858  1
  F  F13  1  0.750000  0.995331  0.559142  1
  F  F14  1  0.250000  0.504669  0.059142  1
  F  F15  1  0.750000  0.495331  0.940858  1
  F  F16  1  0.250000  0.603796  0.363905  1
  F  F17  1  0.750000  0.396204  0.636095  1
  F  F18  1  0.250000  0.103796  0.136095  1
  F  F19  1  0.750000  0.896204  0.863905  1
  F  F20  1  0.750000  0.911624  0.305852  1
  F  F21  1  0.250000  0.088376  0.694148  1
  F  F22  1  0.750000  0.411624  0.194148  1
  F  F23  1  0.250000  0.588376  0.805852  1
