# generated using pymatgen
data_TmZn2
_symmetry_space_group_name_H-M   'P 1'
_cell_length_a   5.60074090
_cell_length_b   5.60074090
_cell_length_c   5.60074090
_cell_angle_alpha   132.86503017
_cell_angle_beta   102.61118481
_cell_angle_gamma   95.81936876
_symmetry_Int_Tables_number   1
_chemical_formula_structural   TmZn2
_chemical_formula_sum   'Tm2 Zn4'
_cell_volume   117.74333656
_cell_formula_units_Z   2
loop_
 _symmetry_equiv_pos_site_id
 _symmetry_equiv_pos_as_xyz
  1  'x, y, z'
loop_
 _atom_site_type_symbol
 _atom_site_label
 _atom_site_symmetry_multiplicity
 _atom_site_fract_x
 _atom_site_fract_y
 _atom_site_fract_z
 _atom_site_occupancy
  Tm  Tm0  1  0.780757  0.530757  0.750000  1
  Tm  Tm1  1  0.219243  0.469243  0.250000  1
  Zn  Zn2  1  0.623521  0.166511  0.957009  1
  Zn  Zn3  1  0.376479  0.833489  0.042991  1
  Zn  Zn4  1  0.790498  0.833489  0.457009  1
  Zn  Zn5  1  0.209502  0.166511  0.542991  1
