# generated using pymatgen
data_Zn3(BO3)2
_symmetry_space_group_name_H-M   'P 1'
_cell_length_a   12.53384565
_cell_length_b   12.53384565
_cell_length_c   8.48526161
_cell_angle_alpha   76.81228850
_cell_angle_beta   103.18771150
_cell_angle_gamma   156.59633158
_symmetry_Int_Tables_number   1
_chemical_formula_structural   Zn3(BO3)2
_chemical_formula_sum   'Zn12 B8 O24'
_cell_volume   514.91000311
_cell_formula_units_Z   4
loop_
 _symmetry_equiv_pos_site_id
 _symmetry_equiv_pos_as_xyz
  1  'x, y, z'
loop_
 _atom_site_type_symbol
 _atom_site_label
 _atom_site_symmetry_multiplicity
 _atom_site_fract_x
 _atom_site_fract_y
 _atom_site_fract_z
 _atom_site_occupancy
  Zn  Zn0  1  0.555160  0.810705  0.370602  1
  Zn  Zn1  1  0.442845  0.190724  0.130337  1
  Zn  Zn2  1  0.098821  0.519349  0.538033  1
  Zn  Zn3  1  0.127675  0.227816  0.575792  1
  Zn  Zn4  1  0.480651  0.901179  0.038033  1
  Zn  Zn5  1  0.900220  0.483215  0.962263  1
  Zn  Zn6  1  0.809276  0.557155  0.630337  1
  Zn  Zn7  1  0.772184  0.872325  0.075792  1
  Zn  Zn8  1  0.516785  0.099780  0.462263  1
  Zn  Zn9  1  0.189295  0.444840  0.870602  1
  Zn  Zn10  1  0.219957  0.124820  0.425347  1
  Zn  Zn11  1  0.875180  0.780043  0.925347  1
  B  B12  1  0.392108  0.263898  0.788237  1
  B  B13  1  0.626931  0.003265  0.730154  1
  B  B14  1  0.000411  0.627302  0.270301  1
  B  B15  1  0.612981  0.745985  0.713174  1
  B  B16  1  0.254015  0.387019  0.213174  1
  B  B17  1  0.996735  0.373069  0.230154  1
  B  B18  1  0.372698  0.999589  0.770301  1
  B  B19  1  0.736102  0.607892  0.288237  1
  O  O20  1  0.490536  0.329658  0.291816  1
  O  O21  1  0.893643  0.736907  0.430887  1
  O  O22  1  0.836459  0.510749  0.130095  1
  O  O23  1  0.334471  0.498290  0.710969  1
  O  O24  1  0.096861  0.530196  0.090707  1
  O  O25  1  0.828765  0.758998  0.149311  1
  O  O26  1  0.241002  0.171235  0.649311  1
  O  O27  1  0.096948  0.731557  0.770614  1
  O  O28  1  0.160667  0.489561  0.370582  1
  O  O29  1  0.529263  0.099237  0.909915  1
  O  O30  1  0.510439  0.839333  0.870582  1
  O  O31  1  0.670342  0.509464  0.791816  1
  O  O32  1  0.263093  0.106357  0.930887  1
  O  O33  1  0.501710  0.665529  0.210969  1
  O  O34  1  0.902539  0.271184  0.729634  1
  O  O35  1  0.489251  0.163541  0.630095  1
  O  O36  1  0.096955  0.260120  0.070396  1
  O  O37  1  0.766985  0.841724  0.851085  1
  O  O38  1  0.728816  0.097461  0.229634  1
  O  O39  1  0.268443  0.903052  0.270614  1
  O  O40  1  0.158276  0.233015  0.351085  1
  O  O41  1  0.469804  0.903139  0.590707  1
  O  O42  1  0.900763  0.470737  0.409915  1
  O  O43  1  0.739880  0.903045  0.570396  1
