# generated using pymatgen
data_Tl2CdSnTe4
_symmetry_space_group_name_H-M   'P 1'
_cell_length_a   7.13660350
_cell_length_b   7.13660350
_cell_length_c   7.13660350
_cell_angle_alpha   105.17151806
_cell_angle_beta   105.17151806
_cell_angle_gamma   118.46234750
_symmetry_Int_Tables_number   1
_chemical_formula_structural   Tl2CdSnTe4
_chemical_formula_sum   'Tl2 Cd1 Sn1 Te4'
_cell_volume   274.56280911
_cell_formula_units_Z   1
loop_
 _symmetry_equiv_pos_site_id
 _symmetry_equiv_pos_as_xyz
  1  'x, y, z'
loop_
 _atom_site_type_symbol
 _atom_site_label
 _atom_site_symmetry_multiplicity
 _atom_site_fract_x
 _atom_site_fract_y
 _atom_site_fract_z
 _atom_site_occupancy
  Tl  Tl0  1  0.500000  0.000000  0.500000  1
  Tl  Tl1  1  0.000000  0.500000  0.500000  1
  Cd  Cd2  1  0.500000  0.500000  0.000000  1
  Sn  Sn3  1  0.000000  0.000000  0.000000  1
  Te  Te4  1  0.940440  0.579947  0.000000  1
  Te  Te5  1  0.059560  0.059560  0.639506  1
  Te  Te6  1  0.420053  0.420053  0.360494  1
  Te  Te7  1  0.579947  0.940440  0.000000  1
