# generated using pymatgen
data_La10Se14O
_symmetry_space_group_name_H-M   'P 1'
_cell_length_a   15.49724777
_cell_length_b   15.49724777
_cell_length_c   15.49724777
_cell_angle_alpha   117.85110332
_cell_angle_beta   117.85110332
_cell_angle_gamma   93.76412560
_symmetry_Int_Tables_number   1
_chemical_formula_structural   La10Se14O
_chemical_formula_sum   'La40 Se56 O4'
_cell_volume   2710.92788501
_cell_formula_units_Z   4
loop_
 _symmetry_equiv_pos_site_id
 _symmetry_equiv_pos_as_xyz
  1  'x, y, z'
loop_
 _atom_site_type_symbol
 _atom_site_label
 _atom_site_symmetry_multiplicity
 _atom_site_fract_x
 _atom_site_fract_y
 _atom_site_fract_z
 _atom_site_occupancy
  La  La0  1  0.866517  0.633483  0.500000  1
  La  La1  1  0.792435  0.199037  0.147137  1
  La  La2  1  0.366517  0.866517  0.233034  1
  La  La3  1  0.198100  0.550963  0.093398  1
  La  La4  1  0.560845  0.694514  0.124490  1
  La  La5  1  0.944514  0.310845  0.624490  1
  La  La6  1  0.686354  0.320024  0.375510  1
  La  La7  1  0.551900  0.699037  0.406602  1
  La  La8  1  0.854702  0.448100  0.147137  1
  La  La9  1  0.457565  0.104702  0.906602  1
  La  La10  1  0.679976  0.055486  0.366331  1
  La  La11  1  0.698100  0.604702  0.647137  1
  La  La12  1  0.133483  0.366517  0.500000  1
  La  La13  1  0.354702  0.207565  0.406602  1
  La  La14  1  0.179976  0.813646  0.624490  1
  La  La15  1  0.305486  0.429976  0.866331  1
  La  La16  1  0.949037  0.301900  0.906602  1
  La  La17  1  0.570024  0.436354  0.875510  1
  La  La18  1  0.063646  0.929976  0.124490  1
  La  La19  1  0.563646  0.439155  0.133669  1
  La  La20  1  0.051900  0.645298  0.852863  1
  La  La21  1  0.805486  0.939155  0.875510  1
  La  La22  1  0.070024  0.194514  0.133669  1
  La  La23  1  0.186354  0.810845  0.366331  1
  La  La24  1  0.449037  0.542435  0.647137  1
  La  La25  1  0.060845  0.936354  0.866331  1
  La  La26  1  0.883483  0.616517  1.000000  1
  La  La27  1  0.300963  0.707565  0.852863  1
  La  La28  1  0.395298  0.042435  0.093398  1
  La  La29  1  0.292435  0.145298  0.593398  1
  La  La30  1  0.189155  0.555486  0.375510  1
  La  La31  1  0.800963  0.948100  0.593398  1
  La  La32  1  0.616517  0.883483  0.000000  1
  La  La33  1  0.957565  0.050963  0.352863  1
  La  La34  1  0.116517  0.116517  0.733034  1
  La  La35  1  0.689155  0.313646  0.633669  1
  La  La36  1  0.895298  0.801900  0.352863  1
  La  La37  1  0.633483  0.133483  0.766966  1
  La  La38  1  0.444514  0.820024  0.633669  1
  La  La39  1  0.383483  0.383483  0.266966  1
  Se  Se40  1  0.491821  0.100927  0.346137  1
  Se  Se41  1  0.273851  0.991969  0.359618  1
  Se  Se42  1  0.396913  0.875167  0.836671  1
  Se  Se43  1  0.895684  0.741821  0.890894  1
  Se  Se44  1  0.479987  0.875000  0.104987  1
  Se  Se45  1  0.254790  0.600927  0.609106  1
  Se  Se46  1  0.038497  0.560242  0.163329  1
  Se  Se47  1  0.853087  0.189758  0.978255  1
  Se  Se48  1  0.991821  0.645684  0.390894  1
  Se  Se49  1  0.625000  0.520013  0.395013  1
  Se  Se50  1  0.125000  0.229987  0.604987  1
  Se  Se51  1  0.773851  0.414233  0.281882  1
  Se  Se52  1  0.976149  0.835767  0.218118  1
  Se  Se53  1  0.625000  0.020013  0.895013  1
  Se  Se54  1  0.624833  0.103087  0.163329  1
  Se  Se55  1  0.124833  0.961503  0.521745  1
  Se  Se56  1  0.850927  0.004790  0.109106  1
  Se  Se57  1  0.508031  0.226149  0.640382  1
  Se  Se58  1  0.132351  0.491969  0.718118  1
  Se  Se59  1  0.270013  0.375000  0.395013  1
  Se  Se60  1  0.399073  0.008179  0.653863  1
  Se  Se61  1  0.899073  0.245210  0.390894  1
  Se  Se62  1  0.585767  0.867649  0.359618  1
  Se  Se63  1  0.995210  0.104316  0.846137  1
  Se  Se64  1  0.664233  0.523851  0.781882  1
  Se  Se65  1  0.117649  0.335767  0.859618  1
  Se  Se66  1  0.241969  0.023851  0.859618  1
  Se  Se67  1  0.354316  0.745210  0.346137  1
  Se  Se68  1  0.085767  0.726149  0.718118  1
  Se  Se69  1  0.896913  0.060242  0.521745  1
  Se  Se70  1  0.770013  0.375000  0.895013  1
  Se  Se71  1  0.164233  0.382351  0.140382  1
  Se  Se72  1  0.810242  0.788497  0.663329  1
  Se  Se73  1  0.538497  0.375167  0.478255  1
  Se  Se74  1  0.353087  0.374833  0.663329  1
  Se  Se75  1  0.350927  0.241821  0.846137  1
  Se  Se76  1  0.125167  0.146913  0.336671  1
  Se  Se77  1  0.125000  0.729987  0.104987  1
  Se  Se78  1  0.754790  0.145684  0.653863  1
  Se  Se79  1  0.310242  0.646913  0.021745  1
  Se  Se80  1  0.758179  0.604316  0.109106  1
  Se  Se81  1  0.625167  0.288497  0.978255  1
  Se  Se82  1  0.395684  0.504790  0.153863  1
  Se  Se83  1  0.741969  0.882351  0.218118  1
  Se  Se84  1  0.211503  0.874833  0.021745  1
  Se  Se85  1  0.711503  0.689758  0.336671  1
  Se  Se86  1  0.854316  0.508179  0.609106  1
  Se  Se87  1  0.439758  0.603087  0.478255  1
  Se  Se88  1  0.008031  0.367649  0.281882  1
  Se  Se89  1  0.632351  0.914233  0.640382  1
  Se  Se90  1  0.617649  0.758031  0.781882  1
  Se  Se91  1  0.979987  0.875000  0.604987  1
  Se  Se92  1  0.476149  0.258031  0.140382  1
  Se  Se93  1  0.939758  0.461503  0.836671  1
  Se  Se94  1  0.258179  0.149073  0.153863  1
  Se  Se95  1  0.495210  0.649073  0.890894  1
  O  O96  1  0.500000  0.500000  0.000000  1
  O  O97  1  0.750000  0.250000  0.500000  1
  O  O98  1  0.000000  0.000000  0.000000  1
  O  O99  1  0.250000  0.750000  0.500000  1
