# generated using pymatgen
data_Na3Sc2(BO3)3
_symmetry_space_group_name_H-M   'P 1'
_cell_length_a   8.37151004
_cell_length_b   8.37151004
_cell_length_c   8.37151004
_cell_angle_alpha   62.55807193
_cell_angle_beta   62.55807193
_cell_angle_gamma   62.55807193
_symmetry_Int_Tables_number   1
_chemical_formula_structural   Na3Sc2(BO3)3
_chemical_formula_sum   'Na6 Sc4 B6 O18'
_cell_volume   438.49453873
_cell_formula_units_Z   2
loop_
 _symmetry_equiv_pos_site_id
 _symmetry_equiv_pos_as_xyz
  1  'x, y, z'
loop_
 _atom_site_type_symbol
 _atom_site_label
 _atom_site_symmetry_multiplicity
 _atom_site_fract_x
 _atom_site_fract_y
 _atom_site_fract_z
 _atom_site_occupancy
  Na  Na0  1  0.750000  0.084508  0.415492  1
  Na  Na1  1  0.250000  0.915492  0.584508  1
  Na  Na2  1  0.084508  0.415492  0.750000  1
  Na  Na3  1  0.584508  0.250000  0.915492  1
  Na  Na4  1  0.415492  0.750000  0.084508  1
  Na  Na5  1  0.915492  0.584508  0.250000  1
  Sc  Sc6  1  0.171885  0.171885  0.171885  1
  Sc  Sc7  1  0.828115  0.828115  0.828115  1
  Sc  Sc8  1  0.328115  0.328115  0.328115  1
  Sc  Sc9  1  0.671885  0.671885  0.671885  1
  B  B10  1  0.750000  0.411138  0.088862  1
  B  B11  1  0.411138  0.088862  0.750000  1
  B  B12  1  0.250000  0.588862  0.911138  1
  B  B13  1  0.911138  0.250000  0.588862  1
  B  B14  1  0.088862  0.750000  0.411138  1
  B  B15  1  0.588862  0.911138  0.250000  1
  O  O16  1  0.686078  0.849216  0.093476  1
  O  O17  1  0.349216  0.186078  0.593476  1
  O  O18  1  0.313922  0.150784  0.906524  1
  O  O19  1  0.849216  0.093476  0.686078  1
  O  O20  1  0.593476  0.349216  0.186078  1
  O  O21  1  0.071237  0.250000  0.428763  1
  O  O22  1  0.813922  0.406524  0.650784  1
  O  O23  1  0.928763  0.750000  0.571237  1
  O  O24  1  0.406524  0.650784  0.813922  1
  O  O25  1  0.093476  0.686078  0.849216  1
  O  O26  1  0.650784  0.813922  0.406524  1
  O  O27  1  0.906524  0.313922  0.150784  1
  O  O28  1  0.250000  0.428763  0.071237  1
  O  O29  1  0.186078  0.593476  0.349216  1
  O  O30  1  0.571237  0.928763  0.750000  1
  O  O31  1  0.750000  0.571237  0.928763  1
  O  O32  1  0.150784  0.906524  0.313922  1
  O  O33  1  0.428763  0.071237  0.250000  1
