# generated using pymatgen
data_CsMo3Br3Cl4
_symmetry_space_group_name_H-M   'P 1'
_cell_length_a   10.31268518
_cell_length_b   10.31268518
_cell_length_c   15.81032505
_cell_angle_alpha   90.00000000
_cell_angle_beta   90.00000000
_cell_angle_gamma   120.00000000
_symmetry_Int_Tables_number   1
_chemical_formula_structural   CsMo3Br3Cl4
_chemical_formula_sum   'Cs4 Mo12 Br12 Cl16'
_cell_volume   1456.17962739
_cell_formula_units_Z   4
loop_
 _symmetry_equiv_pos_site_id
 _symmetry_equiv_pos_as_xyz
  1  'x, y, z'
loop_
 _atom_site_type_symbol
 _atom_site_label
 _atom_site_symmetry_multiplicity
 _atom_site_fract_x
 _atom_site_fract_y
 _atom_site_fract_z
 _atom_site_occupancy
  Cs  Cs0  1  0.000000  0.000000  0.517905  1
  Cs  Cs1  1  0.000000  0.000000  0.017905  1
  Cs  Cs2  1  0.333333  0.666667  0.243935  1
  Cs  Cs3  1  0.666667  0.333333  0.743935  1
  Mo  Mo4  1  0.516376  0.327556  0.317425  1
  Mo  Mo5  1  0.672444  0.188820  0.317425  1
  Mo  Mo6  1  0.340736  0.817580  0.681877  1
  Mo  Mo7  1  0.476844  0.659264  0.681877  1
  Mo  Mo8  1  0.327556  0.516376  0.817425  1
  Mo  Mo9  1  0.483624  0.811180  0.817425  1
  Mo  Mo10  1  0.188820  0.672444  0.817425  1
  Mo  Mo11  1  0.811180  0.483624  0.317425  1
  Mo  Mo12  1  0.523156  0.182420  0.181877  1
  Mo  Mo13  1  0.817580  0.340736  0.181877  1
  Mo  Mo14  1  0.182420  0.523156  0.681877  1
  Mo  Mo15  1  0.659264  0.476844  0.181877  1
  Br  Br16  1  0.360155  0.039630  0.592637  1
  Br  Br17  1  0.974930  0.670944  0.906065  1
  Br  Br18  1  0.670944  0.974930  0.406065  1
  Br  Br19  1  0.696015  0.025070  0.906065  1
  Br  Br20  1  0.639845  0.679475  0.092637  1
  Br  Br21  1  0.329056  0.303985  0.906065  1
  Br  Br22  1  0.303985  0.329056  0.406065  1
  Br  Br23  1  0.025070  0.696015  0.406065  1
  Br  Br24  1  0.039630  0.360155  0.092637  1
  Br  Br25  1  0.320525  0.960370  0.092637  1
  Br  Br26  1  0.679475  0.639845  0.592637  1
  Br  Br27  1  0.960370  0.320525  0.592637  1
  Cl  Cl28  1  0.333333  0.666667  0.557137  1
  Cl  Cl29  1  0.656673  0.607034  0.315206  1
  Cl  Cl30  1  0.380482  0.318388  0.184017  1
  Cl  Cl31  1  0.619518  0.937906  0.684017  1
  Cl  Cl32  1  0.937906  0.619518  0.184017  1
  Cl  Cl33  1  0.318388  0.380482  0.684017  1
  Cl  Cl34  1  0.049639  0.392966  0.815206  1
  Cl  Cl35  1  0.343327  0.950361  0.815206  1
  Cl  Cl36  1  0.392966  0.049639  0.315206  1
  Cl  Cl37  1  0.666667  0.333333  0.441742  1
  Cl  Cl38  1  0.062094  0.681612  0.684017  1
  Cl  Cl39  1  0.607034  0.656673  0.815206  1
  Cl  Cl40  1  0.681612  0.062094  0.184017  1
  Cl  Cl41  1  0.333333  0.666667  0.941742  1
  Cl  Cl42  1  0.950361  0.343327  0.315206  1
  Cl  Cl43  1  0.666667  0.333333  0.057137  1
