# generated using pymatgen
data_K2SnP2O7
_symmetry_space_group_name_H-M   'P 1'
_cell_length_a   10.02094555
_cell_length_b   6.88209844
_cell_length_c   13.37016399
_cell_angle_alpha   90.00000000
_cell_angle_beta   117.64574947
_cell_angle_gamma   90.00000000
_symmetry_Int_Tables_number   1
_chemical_formula_structural   K2SnP2O7
_chemical_formula_sum   'K8 Sn4 P8 O28'
_cell_volume   816.80493075
_cell_formula_units_Z   4
loop_
 _symmetry_equiv_pos_site_id
 _symmetry_equiv_pos_as_xyz
  1  'x, y, z'
loop_
 _atom_site_type_symbol
 _atom_site_label
 _atom_site_symmetry_multiplicity
 _atom_site_fract_x
 _atom_site_fract_y
 _atom_site_fract_z
 _atom_site_occupancy
  K  K0  1  0.515318  0.128977  0.146868  1
  K  K1  1  0.484682  0.871023  0.853132  1
  K  K2  1  0.021073  0.146815  0.840135  1
  K  K3  1  0.484682  0.628977  0.353132  1
  K  K4  1  0.978927  0.853185  0.159865  1
  K  K5  1  0.515318  0.371023  0.646868  1
  K  K6  1  0.021073  0.353185  0.340135  1
  K  K7  1  0.978927  0.646815  0.659865  1
  Sn  Sn8  1  0.748025  0.152709  0.494956  1
  Sn  Sn9  1  0.748025  0.347291  0.994956  1
  Sn  Sn10  1  0.251975  0.847291  0.505044  1
  Sn  Sn11  1  0.251975  0.652709  0.005044  1
  P  P12  1  0.151410  0.358990  0.144557  1
  P  P13  1  0.151410  0.141010  0.644557  1
  P  P14  1  0.637740  0.632587  0.149364  1
  P  P15  1  0.637740  0.867413  0.649364  1
  P  P16  1  0.362260  0.367413  0.850636  1
  P  P17  1  0.848590  0.858990  0.355443  1
  P  P18  1  0.848590  0.641010  0.855443  1
  P  P19  1  0.362260  0.132587  0.350636  1
  O  O20  1  0.167735  0.120610  0.534468  1
  O  O21  1  0.503990  0.475635  0.863777  1
  O  O22  1  0.819889  0.451660  0.791166  1
  O  O23  1  0.496010  0.524365  0.136223  1
  O  O24  1  0.389841  0.190419  0.923955  1
  O  O25  1  0.167735  0.379390  0.034468  1
  O  O26  1  0.496010  0.975635  0.636223  1
  O  O27  1  0.610159  0.690419  0.576045  1
  O  O28  1  0.714298  0.799239  0.783014  1
  O  O29  1  0.832265  0.879390  0.465532  1
  O  O30  1  0.714298  0.700761  0.283014  1
  O  O31  1  0.754522  0.012172  0.643918  1
  O  O32  1  0.503990  0.024365  0.363777  1
  O  O33  1  0.180111  0.548340  0.208834  1
  O  O34  1  0.285702  0.200761  0.216986  1
  O  O35  1  0.610159  0.809581  0.076045  1
  O  O36  1  0.819889  0.048340  0.291166  1
  O  O37  1  0.832265  0.620610  0.965532  1
  O  O38  1  0.180111  0.951660  0.708834  1
  O  O39  1  0.995674  0.745636  0.878420  1
  O  O40  1  0.285702  0.299239  0.716986  1
  O  O41  1  0.389841  0.309581  0.423955  1
  O  O42  1  0.754522  0.487828  0.143918  1
  O  O43  1  0.995674  0.754364  0.378420  1
  O  O44  1  0.245478  0.512172  0.856082  1
  O  O45  1  0.004326  0.245636  0.621580  1
  O  O46  1  0.245478  0.987828  0.356082  1
  O  O47  1  0.004326  0.254364  0.121580  1
