# generated using pymatgen
data_Sm2EuBeO5
_symmetry_space_group_name_H-M   'P 1'
_cell_length_a   7.21522952
_cell_length_b   6.56484191
_cell_length_c   9.54022595
_cell_angle_alpha   90.00000000
_cell_angle_beta   90.39391682
_cell_angle_gamma   90.00000000
_symmetry_Int_Tables_number   1
_chemical_formula_structural   Sm2EuBeO5
_chemical_formula_sum   'Sm8 Eu4 Be4 O20'
_cell_volume   451.87968737
_cell_formula_units_Z   4
loop_
 _symmetry_equiv_pos_site_id
 _symmetry_equiv_pos_as_xyz
  1  'x, y, z'
loop_
 _atom_site_type_symbol
 _atom_site_label
 _atom_site_symmetry_multiplicity
 _atom_site_fract_x
 _atom_site_fract_y
 _atom_site_fract_z
 _atom_site_occupancy
  Sm  Sm0  1  0.249574  0.405142  0.977714  1
  Sm  Sm1  1  0.522464  0.081104  0.176130  1
  Sm  Sm2  1  0.750426  0.905142  0.522286  1
  Sm  Sm3  1  0.249574  0.094858  0.477714  1
  Sm  Sm4  1  0.477536  0.581104  0.323870  1
  Sm  Sm5  1  0.750426  0.594858  0.022286  1
  Sm  Sm6  1  0.522464  0.418896  0.676130  1
  Sm  Sm7  1  0.477536  0.918896  0.823870  1
  Eu  Eu8  1  0.020769  0.580231  0.327326  1
  Eu  Eu9  1  0.979231  0.419769  0.672674  1
  Eu  Eu10  1  0.020769  0.919769  0.827326  1
  Eu  Eu11  1  0.979231  0.080231  0.172674  1
  Be  Be12  1  0.746143  0.192965  0.900201  1
  Be  Be13  1  0.253857  0.692965  0.599799  1
  Be  Be14  1  0.253857  0.807035  0.099799  1
  Be  Be15  1  0.746143  0.307035  0.400201  1
  O  O16  1  0.268011  0.479317  0.509429  1
  O  O17  1  0.731989  0.520683  0.490571  1
  O  O18  1  0.272806  0.333726  0.220725  1
  O  O19  1  0.940190  0.306993  0.933427  1
  O  O20  1  0.268011  0.020683  0.009429  1
  O  O21  1  0.727194  0.666274  0.779275  1
  O  O22  1  0.443095  0.683283  0.068985  1
  O  O23  1  0.059810  0.693007  0.066573  1
  O  O24  1  0.732599  0.133640  0.725886  1
  O  O25  1  0.272806  0.166274  0.720725  1
  O  O26  1  0.556905  0.316717  0.931015  1
  O  O27  1  0.556905  0.183283  0.431015  1
  O  O28  1  0.731989  0.979317  0.990571  1
  O  O29  1  0.267401  0.633640  0.774114  1
  O  O30  1  0.443095  0.816717  0.568985  1
  O  O31  1  0.059810  0.806993  0.566573  1
  O  O32  1  0.940190  0.193007  0.433427  1
  O  O33  1  0.732599  0.366360  0.225886  1
  O  O34  1  0.267401  0.866360  0.274114  1
  O  O35  1  0.727194  0.833726  0.279275  1
