# generated using pymatgen
data_SrTeO3
_symmetry_space_group_name_H-M   'P 1'
_cell_length_a   14.62139728
_cell_length_b   14.62139728
_cell_length_c   15.61244571
_cell_angle_alpha   58.54838855
_cell_angle_beta   121.45161145
_cell_angle_gamma   156.39489856
_symmetry_Int_Tables_number   1
_chemical_formula_structural   SrTeO3
_chemical_formula_sum   'Sr12 Te12 O36'
_cell_volume   1130.81100555
_cell_formula_units_Z   12
loop_
 _symmetry_equiv_pos_site_id
 _symmetry_equiv_pos_as_xyz
  1  'x, y, z'
loop_
 _atom_site_type_symbol
 _atom_site_label
 _atom_site_symmetry_multiplicity
 _atom_site_fract_x
 _atom_site_fract_y
 _atom_site_fract_z
 _atom_site_occupancy
  Sr  Sr0  1  0.209111  0.965742  0.606358  1
  Sr  Sr1  1  0.289160  0.784764  0.888460  1
  Sr  Sr2  1  0.965742  0.209111  0.393642  1
  Sr  Sr3  1  0.093785  0.093785  0.000000  1
  Sr  Sr4  1  0.439374  0.693565  0.842745  1
  Sr  Sr5  1  0.683391  0.436710  0.418633  1
  Sr  Sr6  1  0.784764  0.289160  0.111540  1
  Sr  Sr7  1  0.693565  0.439374  0.157255  1
  Sr  Sr8  1  0.797398  0.285691  0.720204  1
  Sr  Sr9  1  0.606041  0.606041  0.500000  1
  Sr  Sr10  1  0.436710  0.683391  0.581367  1
  Sr  Sr11  1  0.285691  0.797398  0.279796  1
  Te  Te12  1  0.549111  0.590978  0.146913  1
  Te  Te13  1  0.286753  0.812214  0.583105  1
  Te  Te14  1  0.057581  0.073087  0.649902  1
  Te  Te15  1  0.073087  0.057581  0.350098  1
  Te  Te16  1  0.396993  0.690305  0.221724  1
  Te  Te17  1  0.233364  0.933406  0.003060  1
  Te  Te18  1  0.812214  0.286753  0.416895  1
  Te  Te19  1  0.945855  0.172261  0.722731  1
  Te  Te20  1  0.590978  0.549111  0.853087  1
  Te  Te21  1  0.172261  0.945855  0.277269  1
  Te  Te22  1  0.690305  0.396993  0.778276  1
  Te  Te23  1  0.933406  0.233364  0.996940  1
  O  O24  1  0.096386  0.904131  0.145139  1
  O  O25  1  0.631589  0.973828  0.931790  1
  O  O26  1  0.448558  0.087172  0.119476  1
  O  O27  1  0.378368  0.551150  0.348685  1
  O  O28  1  0.904665  0.781486  0.428784  1
  O  O29  1  0.937538  0.354211  0.017437  1
  O  O30  1  0.904131  0.096386  0.854861  1
  O  O31  1  0.087172  0.448558  0.880524  1
  O  O32  1  0.449593  0.113338  0.315184  1
  O  O33  1  0.919307  0.006618  0.380613  1
  O  O34  1  0.260816  0.354348  0.560868  1
  O  O35  1  0.605712  0.992903  0.427007  1
  O  O36  1  0.376699  0.476917  0.020666  1
  O  O37  1  0.434676  0.545390  0.784575  1
  O  O38  1  0.093586  0.458367  0.454150  1
  O  O39  1  0.781486  0.904665  0.571216  1
  O  O40  1  0.531850  0.143649  0.769782  1
  O  O41  1  0.623722  0.975696  0.247393  1
  O  O42  1  0.992903  0.605712  0.572993  1
  O  O43  1  0.551150  0.378368  0.651315  1
  O  O44  1  0.476917  0.376699  0.979334  1
  O  O45  1  0.837366  0.372829  0.277500  1
  O  O46  1  0.849268  0.888377  0.113319  1
  O  O47  1  0.973214  0.650499  0.338763  1
  O  O48  1  0.354211  0.937538  0.982563  1
  O  O49  1  0.650499  0.973214  0.661237  1
  O  O50  1  0.354348  0.260816  0.439132  1
  O  O51  1  0.006618  0.919307  0.619387  1
  O  O52  1  0.143649  0.531850  0.230218  1
  O  O53  1  0.888377  0.849268  0.886681  1
  O  O54  1  0.458367  0.093586  0.545850  1
  O  O55  1  0.545390  0.434676  0.215425  1
  O  O56  1  0.113338  0.449593  0.684816  1
  O  O57  1  0.975696  0.623722  0.752607  1
  O  O58  1  0.973828  0.631589  0.068210  1
  O  O59  1  0.372829  0.837366  0.722500  1
