# generated using pymatgen
data_P3S3N6F5
_symmetry_space_group_name_H-M   'P 1'
_cell_length_a   10.00561522
_cell_length_b   15.13817317
_cell_length_c   16.39256957
_cell_angle_alpha   90.00000000
_cell_angle_beta   90.00000000
_cell_angle_gamma   90.00000000
_symmetry_Int_Tables_number   1
_chemical_formula_structural   P3S3N6F5
_chemical_formula_sum   'P24 S24 N48 F40'
_cell_volume   2482.92900533
_cell_formula_units_Z   8
loop_
 _symmetry_equiv_pos_site_id
 _symmetry_equiv_pos_as_xyz
  1  'x, y, z'
loop_
 _atom_site_type_symbol
 _atom_site_label
 _atom_site_symmetry_multiplicity
 _atom_site_fract_x
 _atom_site_fract_y
 _atom_site_fract_z
 _atom_site_occupancy
  P  P0  1  0.793325  0.916491  0.742955  1
  P  P1  1  0.546092  0.286206  0.317937  1
  P  P2  1  0.453908  0.213794  0.817937  1
  P  P3  1  0.206675  0.083509  0.257045  1
  P  P4  1  0.201994  0.115256  0.423668  1
  P  P5  1  0.293325  0.083509  0.757045  1
  P  P6  1  0.798006  0.884744  0.576332  1
  P  P7  1  0.293325  0.583509  0.742955  1
  P  P8  1  0.706675  0.416491  0.257045  1
  P  P9  1  0.298006  0.115256  0.923668  1
  P  P10  1  0.298006  0.615256  0.576332  1
  P  P11  1  0.546092  0.786206  0.182063  1
  P  P12  1  0.953908  0.286206  0.817937  1
  P  P13  1  0.046092  0.213794  0.317937  1
  P  P14  1  0.798006  0.384744  0.923668  1
  P  P15  1  0.706675  0.916491  0.242955  1
  P  P16  1  0.046092  0.713794  0.182063  1
  P  P17  1  0.701994  0.384744  0.423668  1
  P  P18  1  0.701994  0.884744  0.076332  1
  P  P19  1  0.953908  0.786206  0.682063  1
  P  P20  1  0.206675  0.583509  0.242955  1
  P  P21  1  0.453908  0.713794  0.682063  1
  P  P22  1  0.201994  0.615256  0.076332  1
  P  P23  1  0.793325  0.416491  0.757045  1
  S  S24  1  0.182804  0.956205  0.522890  1
  S  S25  1  0.127633  0.858057  0.418513  1
  S  S26  1  0.627633  0.141943  0.081487  1
  S  S27  1  0.627633  0.641943  0.418513  1
  S  S28  1  0.101937  0.884846  0.932472  1
  S  S29  1  0.127633  0.358057  0.081487  1
  S  S30  1  0.872367  0.141943  0.581487  1
  S  S31  1  0.682804  0.043795  0.977110  1
  S  S32  1  0.817196  0.543795  0.022890  1
  S  S33  1  0.398063  0.884846  0.432472  1
  S  S34  1  0.317196  0.456205  0.477110  1
  S  S35  1  0.872367  0.641943  0.918513  1
  S  S36  1  0.898063  0.615154  0.432472  1
  S  S37  1  0.372367  0.358057  0.581487  1
  S  S38  1  0.182804  0.456205  0.977110  1
  S  S39  1  0.101937  0.384846  0.567528  1
  S  S40  1  0.898063  0.115154  0.067528  1
  S  S41  1  0.601937  0.115154  0.567528  1
  S  S42  1  0.398063  0.384846  0.067528  1
  S  S43  1  0.817196  0.043795  0.477110  1
  S  S44  1  0.601937  0.615154  0.932472  1
  S  S45  1  0.682804  0.543795  0.522890  1
  S  S46  1  0.372367  0.858057  0.918513  1
  S  S47  1  0.317196  0.956205  0.022890  1
  N  N48  1  0.276937  0.845172  0.383658  1
  N  N49  1  0.400391  0.658980  0.757790  1
  N  N50  1  0.223063  0.845172  0.883658  1
  N  N51  1  0.223063  0.345172  0.616342  1
  N  N52  1  0.599609  0.341020  0.242210  1
  N  N53  1  0.404374  0.692110  0.593320  1
  N  N54  1  0.900391  0.341020  0.742210  1
  N  N55  1  0.352629  0.553314  0.502375  1
  N  N56  1  0.904374  0.807890  0.593320  1
  N  N57  1  0.647371  0.446686  0.497625  1
  N  N58  1  0.099609  0.658980  0.257790  1
  N  N59  1  0.723063  0.654828  0.883658  1
  N  N60  1  0.352629  0.053314  0.997625  1
  N  N61  1  0.776937  0.654828  0.383658  1
  N  N62  1  0.657943  0.067764  0.487672  1
  N  N63  1  0.599609  0.841020  0.257790  1
  N  N64  1  0.342057  0.932236  0.512328  1
  N  N65  1  0.595626  0.807890  0.093320  1
  N  N66  1  0.595626  0.307890  0.406680  1
  N  N67  1  0.657943  0.567764  0.012328  1
  N  N68  1  0.244419  0.061412  0.845924  1
  N  N69  1  0.744419  0.938588  0.654076  1
  N  N70  1  0.095626  0.692110  0.093320  1
  N  N71  1  0.147371  0.553314  0.002375  1
  N  N72  1  0.842057  0.567764  0.512328  1
  N  N73  1  0.904374  0.307890  0.906680  1
  N  N74  1  0.276937  0.345172  0.116342  1
  N  N75  1  0.723063  0.154828  0.616342  1
  N  N76  1  0.099609  0.158980  0.242210  1
  N  N77  1  0.255581  0.561412  0.154076  1
  N  N78  1  0.755581  0.938588  0.154076  1
  N  N79  1  0.400391  0.158980  0.742210  1
  N  N80  1  0.744419  0.438588  0.845924  1
  N  N81  1  0.852629  0.446686  0.997625  1
  N  N82  1  0.852629  0.946686  0.502375  1
  N  N83  1  0.255581  0.061412  0.345924  1
  N  N84  1  0.755581  0.438588  0.345924  1
  N  N85  1  0.842057  0.067764  0.987672  1
  N  N86  1  0.900391  0.841020  0.757790  1
  N  N87  1  0.776937  0.154828  0.116342  1
  N  N88  1  0.342057  0.432236  0.987672  1
  N  N89  1  0.095626  0.192110  0.406680  1
  N  N90  1  0.157943  0.932236  0.012328  1
  N  N91  1  0.647371  0.946686  0.002375  1
  N  N92  1  0.147371  0.053314  0.497625  1
  N  N93  1  0.404374  0.192110  0.906680  1
  N  N94  1  0.157943  0.432236  0.487672  1
  N  N95  1  0.244419  0.561412  0.654076  1
  F  F96  1  0.828503  0.838041  0.037530  1
  F  F97  1  0.889524  0.711409  0.184212  1
  F  F98  1  0.564124  0.185797  0.299808  1
  F  F99  1  0.935876  0.685797  0.700192  1
  F  F100  1  0.435876  0.814203  0.700192  1
  F  F101  1  0.435876  0.314203  0.799808  1
  F  F102  1  0.170311  0.100600  0.700297  1
  F  F103  1  0.844115  0.502751  0.714858  1
  F  F104  1  0.670311  0.899400  0.799703  1
  F  F105  1  0.829689  0.399400  0.200297  1
  F  F106  1  0.671497  0.838041  0.537530  1
  F  F107  1  0.564124  0.685797  0.200192  1
  F  F108  1  0.344115  0.497249  0.785142  1
  F  F109  1  0.110476  0.788591  0.684212  1
  F  F110  1  0.110476  0.288591  0.815788  1
  F  F111  1  0.329689  0.600600  0.299703  1
  F  F112  1  0.389524  0.788591  0.184212  1
  F  F113  1  0.328503  0.161959  0.462470  1
  F  F114  1  0.170311  0.600600  0.799703  1
  F  F115  1  0.935876  0.185797  0.799808  1
  F  F116  1  0.344115  0.997249  0.714858  1
  F  F117  1  0.328503  0.661959  0.037530  1
  F  F118  1  0.655885  0.002751  0.285142  1
  F  F119  1  0.171497  0.661959  0.537530  1
  F  F120  1  0.155885  0.997249  0.214858  1
  F  F121  1  0.670311  0.399400  0.700297  1
  F  F122  1  0.329689  0.100600  0.200297  1
  F  F123  1  0.155885  0.497249  0.285142  1
  F  F124  1  0.844115  0.002751  0.785142  1
  F  F125  1  0.064124  0.314203  0.299808  1
  F  F126  1  0.610476  0.211409  0.815788  1
  F  F127  1  0.389524  0.288591  0.315788  1
  F  F128  1  0.671497  0.338041  0.962470  1
  F  F129  1  0.655885  0.502751  0.214858  1
  F  F130  1  0.610476  0.711409  0.684212  1
  F  F131  1  0.064124  0.814203  0.200192  1
  F  F132  1  0.829689  0.899400  0.299703  1
  F  F133  1  0.171497  0.161959  0.962470  1
  F  F134  1  0.828503  0.338041  0.462470  1
  F  F135  1  0.889524  0.211409  0.315788  1
