# generated using pymatgen
data_SmAgPb
_symmetry_space_group_name_H-M   'P 1'
_cell_length_a   4.86838181
_cell_length_b   4.86838181
_cell_length_c   7.62548557
_cell_angle_alpha   90.00000000
_cell_angle_beta   90.00000000
_cell_angle_gamma   120.00000000
_symmetry_Int_Tables_number   1
_chemical_formula_structural   SmAgPb
_chemical_formula_sum   'Sm2 Ag2 Pb2'
_cell_volume   156.51912003
_cell_formula_units_Z   2
loop_
 _symmetry_equiv_pos_site_id
 _symmetry_equiv_pos_as_xyz
  1  'x, y, z'
loop_
 _atom_site_type_symbol
 _atom_site_label
 _atom_site_symmetry_multiplicity
 _atom_site_fract_x
 _atom_site_fract_y
 _atom_site_fract_z
 _atom_site_occupancy
  Sm  Sm0  1  0.000000  0.000000  0.001499  1
  Sm  Sm1  1  0.000000  0.000000  0.501499  1
  Ag  Ag2  1  0.333333  0.666667  0.809411  1
  Ag  Ag3  1  0.666667  0.333333  0.309411  1
  Pb  Pb4  1  0.666667  0.333333  0.722090  1
  Pb  Pb5  1  0.333333  0.666667  0.222090  1
