# generated using pymatgen
data_MgCrF6
_symmetry_space_group_name_H-M   'P 1'
_cell_length_a   5.39765747
_cell_length_b   5.39765747
_cell_length_c   5.39765747
_cell_angle_alpha   58.14379995
_cell_angle_beta   58.14379995
_cell_angle_gamma   58.14379995
_symmetry_Int_Tables_number   1
_chemical_formula_structural   MgCrF6
_chemical_formula_sum   'Mg1 Cr1 F6'
_cell_volume   106.46795559
_cell_formula_units_Z   1
loop_
 _symmetry_equiv_pos_site_id
 _symmetry_equiv_pos_as_xyz
  1  'x, y, z'
loop_
 _atom_site_type_symbol
 _atom_site_label
 _atom_site_symmetry_multiplicity
 _atom_site_fract_x
 _atom_site_fract_y
 _atom_site_fract_z
 _atom_site_occupancy
  Mg  Mg0  1  0.500000  0.500000  0.500000  1
  Cr  Cr1  1  0.000000  0.000000  0.000000  1
  F  F2  1  0.846343  0.238241  0.674270  1
  F  F3  1  0.238241  0.674270  0.846343  1
  F  F4  1  0.325730  0.153657  0.761759  1
  F  F5  1  0.761759  0.325730  0.153657  1
  F  F6  1  0.153657  0.761759  0.325730  1
  F  F7  1  0.674270  0.846343  0.238241  1
