# generated using pymatgen
data_Na2U(MoO5)2
_symmetry_space_group_name_H-M   'P 1'
_cell_length_a   7.32983390
_cell_length_b   11.65246066
_cell_length_c   12.15502684
_cell_angle_alpha   90.00000000
_cell_angle_beta   90.00000000
_cell_angle_gamma   90.00000000
_symmetry_Int_Tables_number   1
_chemical_formula_structural   Na2U(MoO5)2
_chemical_formula_sum   'Na8 U4 Mo8 O40'
_cell_volume   1038.16814957
_cell_formula_units_Z   4
loop_
 _symmetry_equiv_pos_site_id
 _symmetry_equiv_pos_as_xyz
  1  'x, y, z'
loop_
 _atom_site_type_symbol
 _atom_site_label
 _atom_site_symmetry_multiplicity
 _atom_site_fract_x
 _atom_site_fract_y
 _atom_site_fract_z
 _atom_site_occupancy
  Na  Na0  1  0.585946  0.442246  0.191577  1
  Na  Na1  1  0.914054  0.557754  0.691577  1
  Na  Na2  1  0.082020  0.550705  0.428723  1
  Na  Na3  1  0.414054  0.942246  0.308423  1
  Na  Na4  1  0.917980  0.050705  0.071277  1
  Na  Na5  1  0.417980  0.449295  0.928723  1
  Na  Na6  1  0.085946  0.057754  0.808423  1
  Na  Na7  1  0.582020  0.949295  0.571277  1
  U  U8  1  0.821086  0.758297  0.231004  1
  U  U9  1  0.321086  0.741703  0.768996  1
  U  U10  1  0.178914  0.258297  0.268996  1
  U  U11  1  0.678914  0.241703  0.731004  1
  Mo  Mo12  1  0.334243  0.712718  0.099470  1
  Mo  Mo13  1  0.080278  0.831278  0.513249  1
  Mo  Mo14  1  0.834243  0.787282  0.900530  1
  Mo  Mo15  1  0.165757  0.287282  0.599470  1
  Mo  Mo16  1  0.919722  0.331278  0.986751  1
  Mo  Mo17  1  0.419722  0.168722  0.013249  1
  Mo  Mo18  1  0.665757  0.212718  0.400530  1
  Mo  Mo19  1  0.580278  0.668722  0.486751  1
  O  O20  1  0.307902  0.765825  0.960926  1
  O  O21  1  0.366423  0.282740  0.113304  1
  O  O22  1  0.902061  0.916361  0.565118  1
  O  O23  1  0.102098  0.432837  0.593254  1
  O  O24  1  0.602098  0.067163  0.406746  1
  O  O25  1  0.855525  0.912406  0.212740  1
  O  O26  1  0.005728  0.706663  0.825248  1
  O  O27  1  0.879607  0.228045  0.329168  1
  O  O28  1  0.723881  0.416030  0.014850  1
  O  O29  1  0.897902  0.932837  0.906746  1
  O  O30  1  0.218346  0.103595  0.251266  1
  O  O31  1  0.494272  0.293337  0.325248  1
  O  O32  1  0.223881  0.083970  0.985150  1
  O  O33  1  0.781654  0.603595  0.248734  1
  O  O34  1  0.512487  0.740691  0.614332  1
  O  O35  1  0.144475  0.412406  0.287260  1
  O  O36  1  0.718346  0.396405  0.748734  1
  O  O37  1  0.597939  0.083639  0.065118  1
  O  O38  1  0.097939  0.416361  0.934882  1
  O  O39  1  0.379607  0.271955  0.670832  1
  O  O40  1  0.397902  0.567163  0.093254  1
  O  O41  1  0.633577  0.782740  0.386696  1
  O  O42  1  0.276119  0.916030  0.485150  1
  O  O43  1  0.505728  0.793337  0.174752  1
  O  O44  1  0.012487  0.759309  0.385668  1
  O  O45  1  0.133577  0.717260  0.613304  1
  O  O46  1  0.620393  0.771955  0.829168  1
  O  O47  1  0.402061  0.583639  0.434882  1
  O  O48  1  0.120393  0.728045  0.170832  1
  O  O49  1  0.776119  0.583970  0.514850  1
  O  O50  1  0.355525  0.587594  0.787260  1
  O  O51  1  0.866423  0.217260  0.886696  1
  O  O52  1  0.192098  0.234175  0.460926  1
  O  O53  1  0.994272  0.206663  0.674752  1
  O  O54  1  0.807902  0.734175  0.039074  1
  O  O55  1  0.692098  0.265825  0.539074  1
  O  O56  1  0.644475  0.087594  0.712740  1
  O  O57  1  0.987513  0.259309  0.114332  1
  O  O58  1  0.281654  0.896405  0.751266  1
  O  O59  1  0.487513  0.240691  0.885668  1
