# generated using pymatgen
data_LiV2(PO4)3
_symmetry_space_group_name_H-M   'P 1'
_cell_length_a   8.50541381
_cell_length_b   8.66639564
_cell_length_c   14.64941720
_cell_angle_alpha   90.00000000
_cell_angle_beta   125.42959915
_cell_angle_gamma   90.00000000
_symmetry_Int_Tables_number   1
_chemical_formula_structural   LiV2(PO4)3
_chemical_formula_sum   'Li4 V8 P12 O48'
_cell_volume   879.87399079
_cell_formula_units_Z   4
loop_
 _symmetry_equiv_pos_site_id
 _symmetry_equiv_pos_as_xyz
  1  'x, y, z'
loop_
 _atom_site_type_symbol
 _atom_site_label
 _atom_site_symmetry_multiplicity
 _atom_site_fract_x
 _atom_site_fract_y
 _atom_site_fract_z
 _atom_site_occupancy
  Li  Li0  1  0.018612  0.279128  0.821200  1
  Li  Li1  1  0.981388  0.779128  0.678800  1
  Li  Li2  1  0.018612  0.220872  0.321200  1
  Li  Li3  1  0.981388  0.720872  0.178800  1
  V  V4  1  0.371004  0.531670  0.119029  1
  V  V5  1  0.628996  0.031670  0.380971  1
  V  V6  1  0.858180  0.460779  0.613530  1
  V  V7  1  0.141820  0.960779  0.886470  1
  V  V8  1  0.858180  0.039221  0.113530  1
  V  V9  1  0.141820  0.539221  0.386470  1
  V  V10  1  0.371004  0.968330  0.619029  1
  V  V11  1  0.628996  0.468330  0.880971  1
  P  P12  1  0.538329  0.751496  0.506914  1
  P  P13  1  0.250257  0.883368  0.146275  1
  P  P14  1  0.965324  0.608788  0.857409  1
  P  P15  1  0.749743  0.383368  0.353725  1
  P  P16  1  0.034676  0.108788  0.642591  1
  P  P17  1  0.461671  0.251496  0.993086  1
  P  P18  1  0.538329  0.748504  0.006914  1
  P  P19  1  0.965324  0.891212  0.357409  1
  P  P20  1  0.250257  0.616632  0.646275  1
  P  P21  1  0.034676  0.391212  0.142591  1
  P  P22  1  0.749743  0.116632  0.853725  1
  P  P23  1  0.461671  0.248504  0.493086  1
  O  O24  1  0.625524  0.369912  0.565785  1
  O  O25  1  0.198357  0.384691  0.128294  1
  O  O26  1  0.484202  0.182517  0.403835  1
  O  O27  1  0.909875  0.080052  0.835828  1
  O  O28  1  0.524320  0.870354  0.426193  1
  O  O29  1  0.283041  0.708036  0.165724  1
  O  O30  1  0.180868  0.929783  0.027954  1
  O  O31  1  0.925660  0.488139  0.767629  1
  O  O32  1  0.735956  0.669106  0.570473  1
  O  O33  1  0.992703  0.768784  0.819992  1
  O  O34  1  0.429938  0.981992  0.231297  1
  O  O35  1  0.158044  0.558637  0.966444  1
  O  O36  1  0.570062  0.481992  0.268703  1
  O  O37  1  0.841956  0.058637  0.533556  1
  O  O38  1  0.007297  0.268784  0.680008  1
  O  O39  1  0.264044  0.169106  0.929527  1
  O  O40  1  0.819132  0.429783  0.472046  1
  O  O41  1  0.074340  0.988139  0.732371  1
  O  O42  1  0.716959  0.208036  0.334276  1
  O  O43  1  0.475680  0.370354  0.073807  1
  O  O44  1  0.515798  0.682517  0.096165  1
  O  O45  1  0.801643  0.884691  0.371706  1
  O  O46  1  0.090125  0.580052  0.664172  1
  O  O47  1  0.374476  0.869912  0.934215  1
  O  O48  1  0.625524  0.130088  0.065785  1
  O  O49  1  0.909875  0.419948  0.335828  1
  O  O50  1  0.198357  0.115309  0.628294  1
  O  O51  1  0.484202  0.317483  0.903835  1
  O  O52  1  0.524320  0.629646  0.926193  1
  O  O53  1  0.283041  0.791964  0.665724  1
  O  O54  1  0.925660  0.011861  0.267629  1
  O  O55  1  0.180868  0.570217  0.527954  1
  O  O56  1  0.735956  0.830894  0.070473  1
  O  O57  1  0.992703  0.731216  0.319992  1
  O  O58  1  0.158044  0.941363  0.466444  1
  O  O59  1  0.429938  0.518008  0.731297  1
  O  O60  1  0.841956  0.441363  0.033556  1
  O  O61  1  0.570062  0.018008  0.768703  1
  O  O62  1  0.007297  0.231216  0.180008  1
  O  O63  1  0.264044  0.330894  0.429527  1
  O  O64  1  0.074340  0.511861  0.232371  1
  O  O65  1  0.819132  0.070217  0.972046  1
  O  O66  1  0.716959  0.291964  0.834276  1
  O  O67  1  0.475680  0.129646  0.573807  1
  O  O68  1  0.090125  0.919948  0.164172  1
  O  O69  1  0.515798  0.817483  0.596165  1
  O  O70  1  0.801643  0.615309  0.871706  1
  O  O71  1  0.374476  0.630088  0.434215  1
