# generated using pymatgen
data_BaBiClO2
_symmetry_space_group_name_H-M   'P 1'
_cell_length_a   7.33603524
_cell_length_b   7.33603524
_cell_length_c   5.78393049
_cell_angle_alpha   90.00000000
_cell_angle_beta   90.00000000
_cell_angle_gamma   131.77465100
_symmetry_Int_Tables_number   1
_chemical_formula_structural   BaBiClO2
_chemical_formula_sum   'Ba2 Bi2 Cl2 O4'
_cell_volume   232.14068820
_cell_formula_units_Z   2
loop_
 _symmetry_equiv_pos_site_id
 _symmetry_equiv_pos_as_xyz
  1  'x, y, z'
loop_
 _atom_site_type_symbol
 _atom_site_label
 _atom_site_symmetry_multiplicity
 _atom_site_fract_x
 _atom_site_fract_y
 _atom_site_fract_z
 _atom_site_occupancy
  Ba  Ba0  1  0.617443  0.382557  0.750000  1
  Ba  Ba1  1  0.382557  0.617443  0.250000  1
  Bi  Bi2  1  0.925932  0.074068  0.750000  1
  Bi  Bi3  1  0.074068  0.925932  0.250000  1
  Cl  Cl4  1  0.254142  0.745858  0.750000  1
  Cl  Cl5  1  0.745858  0.254142  0.250000  1
  O  O6  1  0.772374  0.772374  0.500000  1
  O  O7  1  0.227626  0.227626  0.500000  1
  O  O8  1  0.772374  0.772374  0.000000  1
  O  O9  1  0.227626  0.227626  0.000000  1
