# generated using pymatgen
data_Ca2MnFeO5
_symmetry_space_group_name_H-M   'P 1'
_cell_length_a   5.43713940
_cell_length_b   5.64741084
_cell_length_c   15.14717075
_cell_angle_alpha   90.00000000
_cell_angle_beta   90.00000000
_cell_angle_gamma   90.00000000
_symmetry_Int_Tables_number   1
_chemical_formula_structural   Ca2MnFeO5
_chemical_formula_sum   'Ca8 Mn4 Fe4 O20'
_cell_volume   465.10538952
_cell_formula_units_Z   4
loop_
 _symmetry_equiv_pos_site_id
 _symmetry_equiv_pos_as_xyz
  1  'x, y, z'
loop_
 _atom_site_type_symbol
 _atom_site_label
 _atom_site_symmetry_multiplicity
 _atom_site_fract_x
 _atom_site_fract_y
 _atom_site_fract_z
 _atom_site_occupancy
  Ca  Ca0  1  0.019558  0.026744  0.108549  1
  Ca  Ca1  1  0.519558  0.473256  0.391451  1
  Ca  Ca2  1  0.480442  0.526744  0.891451  1
  Ca  Ca3  1  0.980442  0.973256  0.608549  1
  Ca  Ca4  1  0.980442  0.973256  0.891451  1
  Ca  Ca5  1  0.480442  0.526744  0.608549  1
  Ca  Ca6  1  0.519558  0.473256  0.108549  1
  Ca  Ca7  1  0.019558  0.026744  0.391451  1
  Mn  Mn8  1  0.000000  0.500000  0.000000  1
  Mn  Mn9  1  0.500000  0.000000  0.500000  1
  Mn  Mn10  1  0.500000  0.000000  0.000000  1
  Mn  Mn11  1  0.000000  0.500000  0.500000  1
  Fe  Fe12  1  0.052234  0.566519  0.250000  1
  Fe  Fe13  1  0.552234  0.933481  0.250000  1
  Fe  Fe14  1  0.447766  0.066519  0.750000  1
  Fe  Fe15  1  0.947766  0.433481  0.750000  1
  O  O16  1  0.743095  0.264239  0.984336  1
  O  O17  1  0.243095  0.235761  0.515664  1
  O  O18  1  0.756905  0.764239  0.015664  1
  O  O19  1  0.256905  0.735761  0.484336  1
  O  O20  1  0.256905  0.735761  0.015664  1
  O  O21  1  0.756905  0.764239  0.484336  1
  O  O22  1  0.243095  0.235761  0.984336  1
  O  O23  1  0.743095  0.264239  0.515664  1
  O  O24  1  0.968051  0.425307  0.142730  1
  O  O25  1  0.468051  0.074693  0.357270  1
  O  O26  1  0.531949  0.925307  0.857270  1
  O  O27  1  0.031949  0.574693  0.642730  1
  O  O28  1  0.031949  0.574693  0.857270  1
  O  O29  1  0.531949  0.925307  0.642730  1
  O  O30  1  0.468051  0.074693  0.142730  1
  O  O31  1  0.968051  0.425307  0.357270  1
  O  O32  1  0.910299  0.883219  0.250000  1
  O  O33  1  0.410299  0.616781  0.250000  1
  O  O34  1  0.589701  0.383219  0.750000  1
  O  O35  1  0.089701  0.116781  0.750000  1
