# generated using pymatgen
data_Zr3Cd3AgF20
_symmetry_space_group_name_H-M   'P 1'
_cell_length_a   10.75703711
_cell_length_b   10.75703711
_cell_length_c   8.52095076
_cell_angle_alpha   90.00000000
_cell_angle_beta   90.00000000
_cell_angle_gamma   120.00000000
_symmetry_Int_Tables_number   1
_chemical_formula_structural   Zr3Cd3AgF20
_chemical_formula_sum   'Zr6 Cd6 Ag2 F40'
_cell_volume   853.89411561
_cell_formula_units_Z   2
loop_
 _symmetry_equiv_pos_site_id
 _symmetry_equiv_pos_as_xyz
  1  'x, y, z'
loop_
 _atom_site_type_symbol
 _atom_site_label
 _atom_site_symmetry_multiplicity
 _atom_site_fract_x
 _atom_site_fract_y
 _atom_site_fract_z
 _atom_site_occupancy
  Zr  Zr0  1  0.584627  0.722462  0.250000  1
  Zr  Zr1  1  0.862165  0.584627  0.750000  1
  Zr  Zr2  1  0.415373  0.277538  0.750000  1
  Zr  Zr3  1  0.137835  0.415373  0.250000  1
  Zr  Zr4  1  0.277538  0.862165  0.250000  1
  Zr  Zr5  1  0.722462  0.137835  0.750000  1
  Cd  Cd6  1  0.162678  0.433915  0.750000  1
  Cd  Cd7  1  0.566085  0.728763  0.750000  1
  Cd  Cd8  1  0.837322  0.566085  0.250000  1
  Cd  Cd9  1  0.728763  0.162678  0.250000  1
  Cd  Cd10  1  0.271237  0.837322  0.750000  1
  Cd  Cd11  1  0.433915  0.271237  0.250000  1
  Ag  Ag12  1  0.000000  0.000000  0.250000  1
  Ag  Ag13  1  0.000000  0.000000  0.750000  1
  F  F14  1  0.366530  0.550135  0.250000  1
  F  F15  1  0.720189  0.145417  0.987761  1
  F  F16  1  0.765000  0.965007  0.750000  1
  F  F17  1  0.775364  0.719434  0.750000  1
  F  F18  1  0.000000  0.000000  0.000000  1
  F  F19  1  0.200006  0.235000  0.750000  1
  F  F20  1  0.034993  0.799994  0.750000  1
  F  F21  1  0.055930  0.775364  0.250000  1
  F  F22  1  0.279811  0.854583  0.487761  1
  F  F23  1  0.145417  0.425228  0.487761  1
  F  F24  1  0.633470  0.449865  0.750000  1
  F  F25  1  0.940698  0.413138  0.250000  1
  F  F26  1  0.799994  0.765000  0.250000  1
  F  F27  1  0.854583  0.574772  0.987761  1
  F  F28  1  0.574772  0.720189  0.012239  1
  F  F29  1  0.235000  0.034993  0.250000  1
  F  F30  1  0.719434  0.944070  0.250000  1
  F  F31  1  0.816395  0.366530  0.750000  1
  F  F32  1  0.224636  0.280566  0.250000  1
  F  F33  1  0.472440  0.059302  0.250000  1
  F  F34  1  0.279811  0.854583  0.012239  1
  F  F35  1  0.527560  0.940698  0.750000  1
  F  F36  1  0.425228  0.279811  0.987761  1
  F  F37  1  0.413138  0.472440  0.750000  1
  F  F38  1  0.145417  0.425228  0.012239  1
  F  F39  1  0.720189  0.145417  0.512239  1
  F  F40  1  0.280566  0.055930  0.750000  1
  F  F41  1  0.854583  0.574772  0.512239  1
  F  F42  1  0.059302  0.586862  0.750000  1
  F  F43  1  0.449865  0.816395  0.250000  1
  F  F44  1  0.000000  0.000000  0.500000  1
  F  F45  1  0.586862  0.527560  0.250000  1
  F  F46  1  0.550135  0.183605  0.750000  1
  F  F47  1  0.944070  0.224636  0.750000  1
  F  F48  1  0.425228  0.279811  0.512239  1
  F  F49  1  0.666667  0.333333  0.250000  1
  F  F50  1  0.965007  0.200006  0.250000  1
  F  F51  1  0.574772  0.720189  0.487761  1
  F  F52  1  0.183605  0.633470  0.250000  1
  F  F53  1  0.333333  0.666667  0.750000  1
