# generated using pymatgen
data_BaTi2O5
_symmetry_space_group_name_H-M   'P 1'
_cell_length_a   3.94525054
_cell_length_b   10.52300339
_cell_length_c   11.00939889
_cell_angle_alpha   90.00000000
_cell_angle_beta   90.00000000
_cell_angle_gamma   90.00000000
_symmetry_Int_Tables_number   1
_chemical_formula_structural   BaTi2O5
_chemical_formula_sum   'Ba4 Ti8 O20'
_cell_volume   457.06493611
_cell_formula_units_Z   4
loop_
 _symmetry_equiv_pos_site_id
 _symmetry_equiv_pos_as_xyz
  1  'x, y, z'
loop_
 _atom_site_type_symbol
 _atom_site_label
 _atom_site_symmetry_multiplicity
 _atom_site_fract_x
 _atom_site_fract_y
 _atom_site_fract_z
 _atom_site_occupancy
  Ba  Ba0  1  0.250000  0.050941  0.178164  1
  Ba  Ba1  1  0.750000  0.449059  0.678164  1
  Ba  Ba2  1  0.250000  0.550941  0.321836  1
  Ba  Ba3  1  0.750000  0.949059  0.821836  1
  Ti  Ti4  1  0.750000  0.235714  0.397708  1
  Ti  Ti5  1  0.750000  0.852067  0.407338  1
  Ti  Ti6  1  0.250000  0.147933  0.592662  1
  Ti  Ti7  1  0.750000  0.352067  0.092662  1
  Ti  Ti8  1  0.750000  0.735714  0.102292  1
  Ti  Ti9  1  0.250000  0.264286  0.897708  1
  Ti  Ti10  1  0.250000  0.764286  0.602292  1
  Ti  Ti11  1  0.250000  0.647933  0.907338  1
  O  O12  1  0.750000  0.234212  0.220591  1
  O  O13  1  0.250000  0.324561  0.068962  1
  O  O14  1  0.750000  0.300653  0.916782  1
  O  O15  1  0.750000  0.507359  0.149904  1
  O  O16  1  0.250000  0.492641  0.850096  1
  O  O17  1  0.250000  0.699347  0.083218  1
  O  O18  1  0.250000  0.992641  0.649904  1
  O  O19  1  0.250000  0.265788  0.720591  1
  O  O20  1  0.750000  0.800653  0.583218  1
  O  O21  1  0.250000  0.599650  0.575723  1
  O  O22  1  0.750000  0.734212  0.279409  1
  O  O23  1  0.250000  0.824561  0.431038  1
  O  O24  1  0.750000  0.675439  0.931038  1
  O  O25  1  0.750000  0.900350  0.075723  1
  O  O26  1  0.750000  0.400350  0.424277  1
  O  O27  1  0.750000  0.175439  0.568962  1
  O  O28  1  0.250000  0.199347  0.416782  1
  O  O29  1  0.750000  0.007359  0.350096  1
  O  O30  1  0.250000  0.099650  0.924277  1
  O  O31  1  0.250000  0.765788  0.779409  1
