# generated using pymatgen
data_Nd2Fe14B
_symmetry_space_group_name_H-M   'P 1'
_cell_length_a   8.77600436
_cell_length_b   8.77600436
_cell_length_c   12.11943164
_cell_angle_alpha   90.00000000
_cell_angle_beta   90.00000000
_cell_angle_gamma   90.00000000
_symmetry_Int_Tables_number   1
_chemical_formula_structural   Nd2Fe14B
_chemical_formula_sum   'Nd8 Fe56 B4'
_cell_volume   933.41744653
_cell_formula_units_Z   4
loop_
 _symmetry_equiv_pos_site_id
 _symmetry_equiv_pos_as_xyz
  1  'x, y, z'
loop_
 _atom_site_type_symbol
 _atom_site_label
 _atom_site_symmetry_multiplicity
 _atom_site_fract_x
 _atom_site_fract_y
 _atom_site_fract_z
 _atom_site_occupancy
  Nd  Nd0  1  0.857275  0.142725  0.000000  1
  Nd  Nd1  1  0.357275  0.357275  0.500000  1
  Nd  Nd2  1  0.642725  0.642725  0.500000  1
  Nd  Nd3  1  0.142725  0.857275  0.000000  1
  Nd  Nd4  1  0.731575  0.731575  0.000000  1
  Nd  Nd5  1  0.768425  0.231575  0.500000  1
  Nd  Nd6  1  0.231575  0.768425  0.500000  1
  Nd  Nd7  1  0.268425  0.268425  0.000000  1
  Fe  Fe8  1  0.567345  0.224825  0.127300  1
  Fe  Fe9  1  0.432655  0.775175  0.127300  1
  Fe  Fe10  1  0.224825  0.567345  0.872700  1
  Fe  Fe11  1  0.724825  0.932655  0.627300  1
  Fe  Fe12  1  0.275175  0.067345  0.627300  1
  Fe  Fe13  1  0.932655  0.724825  0.372700  1
  Fe  Fe14  1  0.067345  0.275175  0.372700  1
  Fe  Fe15  1  0.775175  0.432655  0.872700  1
  Fe  Fe16  1  0.432655  0.775175  0.872700  1
  Fe  Fe17  1  0.567345  0.224825  0.872700  1
  Fe  Fe18  1  0.775175  0.432655  0.127300  1
  Fe  Fe19  1  0.275175  0.067345  0.372700  1
  Fe  Fe20  1  0.724825  0.932655  0.372700  1
  Fe  Fe21  1  0.067345  0.275175  0.627300  1
  Fe  Fe22  1  0.932655  0.724825  0.627300  1
  Fe  Fe23  1  0.224825  0.567345  0.127300  1
  Fe  Fe24  1  0.360217  0.036785  0.176306  1
  Fe  Fe25  1  0.639783  0.963215  0.176306  1
  Fe  Fe26  1  0.036785  0.360217  0.823694  1
  Fe  Fe27  1  0.536785  0.139783  0.676306  1
  Fe  Fe28  1  0.463215  0.860217  0.676306  1
  Fe  Fe29  1  0.139783  0.536785  0.323694  1
  Fe  Fe30  1  0.860217  0.463215  0.323694  1
  Fe  Fe31  1  0.963215  0.639783  0.823694  1
  Fe  Fe32  1  0.639783  0.963215  0.823694  1
  Fe  Fe33  1  0.360217  0.036785  0.823694  1
  Fe  Fe34  1  0.963215  0.639783  0.176306  1
  Fe  Fe35  1  0.463215  0.860217  0.323694  1
  Fe  Fe36  1  0.536785  0.139783  0.323694  1
  Fe  Fe37  1  0.860217  0.463215  0.676306  1
  Fe  Fe38  1  0.139783  0.536785  0.676306  1
  Fe  Fe39  1  0.036785  0.360217  0.176306  1
  Fe  Fe40  1  0.902056  0.902056  0.795379  1
  Fe  Fe41  1  0.097944  0.097944  0.795379  1
  Fe  Fe42  1  0.902056  0.902056  0.204621  1
  Fe  Fe43  1  0.402056  0.597944  0.295379  1
  Fe  Fe44  1  0.597944  0.402056  0.295379  1
  Fe  Fe45  1  0.597944  0.402056  0.704621  1
  Fe  Fe46  1  0.402056  0.597944  0.704621  1
  Fe  Fe47  1  0.097944  0.097944  0.204621  1
  Fe  Fe48  1  0.682181  0.682181  0.754320  1
  Fe  Fe49  1  0.317819  0.317819  0.754320  1
  Fe  Fe50  1  0.682181  0.682181  0.245680  1
  Fe  Fe51  1  0.182181  0.817819  0.254320  1
  Fe  Fe52  1  0.817819  0.182181  0.254320  1
  Fe  Fe53  1  0.817819  0.182181  0.745680  1
  Fe  Fe54  1  0.182181  0.817819  0.745680  1
  Fe  Fe55  1  0.317819  0.317819  0.245680  1
  Fe  Fe56  1  0.000000  0.000000  0.615079  1
  Fe  Fe57  1  0.500000  0.500000  0.115079  1
  Fe  Fe58  1  0.500000  0.500000  0.884921  1
  Fe  Fe59  1  0.000000  0.000000  0.384921  1
  Fe  Fe60  1  0.500000  0.000000  0.000000  1
  Fe  Fe61  1  0.500000  0.000000  0.500000  1
  Fe  Fe62  1  0.000000  0.500000  0.500000  1
  Fe  Fe63  1  0.000000  0.500000  0.000000  1
  B  B64  1  0.623181  0.376819  0.000000  1
  B  B65  1  0.123181  0.123181  0.500000  1
  B  B66  1  0.876819  0.876819  0.500000  1
  B  B67  1  0.376819  0.623181  0.000000  1
