# generated using pymatgen
data_Sc7CoI12
_symmetry_space_group_name_H-M   'P 1'
_cell_length_a   9.43376489
_cell_length_b   9.43376489
_cell_length_c   9.43376489
_cell_angle_alpha   107.28977229
_cell_angle_beta   107.28977229
_cell_angle_gamma   107.28977229
_symmetry_Int_Tables_number   1
_chemical_formula_structural   Sc7CoI12
_chemical_formula_sum   'Sc7 Co1 I12'
_cell_volume   693.59793683
_cell_formula_units_Z   1
loop_
 _symmetry_equiv_pos_site_id
 _symmetry_equiv_pos_as_xyz
  1  'x, y, z'
loop_
 _atom_site_type_symbol
 _atom_site_label
 _atom_site_symmetry_multiplicity
 _atom_site_fract_x
 _atom_site_fract_y
 _atom_site_fract_z
 _atom_site_occupancy
  Sc  Sc0  1  0.500000  0.500000  0.500000  1
  Sc  Sc1  1  0.088059  0.022603  0.278953  1
  Sc  Sc2  1  0.022603  0.278953  0.088059  1
  Sc  Sc3  1  0.278953  0.088059  0.022603  1
  Sc  Sc4  1  0.911941  0.977397  0.721047  1
  Sc  Sc5  1  0.977397  0.721047  0.911941  1
  Sc  Sc6  1  0.721047  0.911941  0.977397  1
  Co  Co7  1  0.000000  0.000000  0.000000  1
  I  I8  1  0.778577  0.928406  0.312797  1
  I  I9  1  0.928406  0.312797  0.778577  1
  I  I10  1  0.312797  0.778577  0.928406  1
  I  I11  1  0.221423  0.071594  0.687203  1
  I  I12  1  0.071594  0.687203  0.221423  1
  I  I13  1  0.687203  0.221423  0.071594  1
  I  I14  1  0.160435  0.382650  0.454994  1
  I  I15  1  0.382650  0.454994  0.160435  1
  I  I16  1  0.454994  0.160435  0.382650  1
  I  I17  1  0.839565  0.617350  0.545006  1
  I  I18  1  0.617350  0.545006  0.839565  1
  I  I19  1  0.545006  0.839565  0.617350  1
