# generated using pymatgen
data_ZnB3Ir4
_symmetry_space_group_name_H-M   'P 1'
_cell_length_a   2.81461842
_cell_length_b   2.84518368
_cell_length_c   23.50385405
_cell_angle_alpha   90.00000000
_cell_angle_beta   90.00000000
_cell_angle_gamma   90.00000000
_symmetry_Int_Tables_number   1
_chemical_formula_structural   ZnB3Ir4
_chemical_formula_sum   'Zn2 B6 Ir8'
_cell_volume   188.22136390
_cell_formula_units_Z   2
loop_
 _symmetry_equiv_pos_site_id
 _symmetry_equiv_pos_as_xyz
  1  'x, y, z'
loop_
 _atom_site_type_symbol
 _atom_site_label
 _atom_site_symmetry_multiplicity
 _atom_site_fract_x
 _atom_site_fract_y
 _atom_site_fract_z
 _atom_site_occupancy
  Zn  Zn0  1  0.500000  0.000000  0.500000  1
  Zn  Zn1  1  0.000000  0.000000  0.000000  1
  B  B2  1  0.500000  0.000000  0.375769  1
  B  B3  1  0.000000  0.000000  0.121336  1
  B  B4  1  0.000000  0.000000  0.878664  1
  B  B5  1  0.000000  0.500000  0.238754  1
  B  B6  1  0.000000  0.500000  0.761246  1
  B  B7  1  0.500000  0.000000  0.624231  1
  Ir  Ir8  1  0.500000  0.500000  0.916481  1
  Ir  Ir9  1  0.500000  0.000000  0.195622  1
  Ir  Ir10  1  0.000000  0.000000  0.693946  1
  Ir  Ir11  1  0.500000  0.000000  0.804378  1
  Ir  Ir12  1  0.500000  0.500000  0.083519  1
  Ir  Ir13  1  0.000000  0.000000  0.306054  1
  Ir  Ir14  1  0.000000  0.500000  0.416244  1
  Ir  Ir15  1  0.000000  0.500000  0.583756  1
