# generated using pymatgen
data_Sm2US5
_symmetry_space_group_name_H-M   'P 1'
_cell_length_a   7.46109175
_cell_length_b   7.99821046
_cell_length_c   11.87576330
_cell_angle_alpha   90.00000000
_cell_angle_beta   90.00000000
_cell_angle_gamma   90.00000000
_symmetry_Int_Tables_number   1
_chemical_formula_structural   Sm2US5
_chemical_formula_sum   'Sm8 U4 S20'
_cell_volume   708.69071239
_cell_formula_units_Z   4
loop_
 _symmetry_equiv_pos_site_id
 _symmetry_equiv_pos_as_xyz
  1  'x, y, z'
loop_
 _atom_site_type_symbol
 _atom_site_label
 _atom_site_symmetry_multiplicity
 _atom_site_fract_x
 _atom_site_fract_y
 _atom_site_fract_z
 _atom_site_occupancy
  Sm  Sm0  1  0.478814  0.998893  0.322081  1
  Sm  Sm1  1  0.978814  0.498893  0.177919  1
  Sm  Sm2  1  0.021186  0.998893  0.822081  1
  Sm  Sm3  1  0.521186  0.498893  0.677919  1
  Sm  Sm4  1  0.521186  0.001107  0.677919  1
  Sm  Sm5  1  0.021186  0.501107  0.822081  1
  Sm  Sm6  1  0.478814  0.501107  0.322081  1
  Sm  Sm7  1  0.978814  0.001107  0.177919  1
  U  U8  1  0.427654  0.750000  0.009146  1
  U  U9  1  0.072346  0.750000  0.509146  1
  U  U10  1  0.927654  0.250000  0.490854  1
  U  U11  1  0.572346  0.250000  0.990854  1
  S  S12  1  0.660848  0.543110  0.902788  1
  S  S13  1  0.160848  0.043111  0.597212  1
  S  S14  1  0.955631  0.250000  0.999948  1
  S  S15  1  0.301679  0.750000  0.785274  1
  S  S16  1  0.544369  0.250000  0.499948  1
  S  S17  1  0.160848  0.456890  0.597212  1
  S  S18  1  0.339152  0.456890  0.097212  1
  S  S19  1  0.328334  0.250000  0.813995  1
  S  S20  1  0.044369  0.750000  0.000052  1
  S  S21  1  0.801679  0.250000  0.714726  1
  S  S22  1  0.660848  0.956890  0.902788  1
  S  S23  1  0.198321  0.750000  0.285274  1
  S  S24  1  0.339152  0.043111  0.097212  1
  S  S25  1  0.171666  0.250000  0.313995  1
  S  S26  1  0.698321  0.250000  0.214726  1
  S  S27  1  0.839152  0.543110  0.402788  1
  S  S28  1  0.839152  0.956890  0.402788  1
  S  S29  1  0.671666  0.750000  0.186005  1
  S  S30  1  0.455631  0.750000  0.500052  1
  S  S31  1  0.828334  0.750000  0.686005  1
