# generated using pymatgen
data_P2Pb(XeF6)3
_symmetry_space_group_name_H-M   'P 1'
_cell_length_a   8.80904337
_cell_length_b   8.80904337
_cell_length_c   11.24166316
_cell_angle_alpha   83.69426832
_cell_angle_beta   96.30573168
_cell_angle_gamma   90.86307728
_symmetry_Int_Tables_number   1
_chemical_formula_structural   P2Pb(XeF6)3
_chemical_formula_sum   'P4 Pb2 Xe6 F36'
_cell_volume   861.81711600
_cell_formula_units_Z   2
loop_
 _symmetry_equiv_pos_site_id
 _symmetry_equiv_pos_as_xyz
  1  'x, y, z'
loop_
 _atom_site_type_symbol
 _atom_site_label
 _atom_site_symmetry_multiplicity
 _atom_site_fract_x
 _atom_site_fract_y
 _atom_site_fract_z
 _atom_site_occupancy
  P  P0  1  0.800737  0.199263  0.405583  1
  P  P1  1  1.000000  0.500000  0.000000  1
  P  P2  1  0.199263  0.800737  0.594417  1
  P  P3  1  0.500000  1.000000  0.000000  1
  Pb  Pb4  1  0.715431  0.284569  0.721197  1
  Pb  Pb5  1  0.284569  0.715431  0.278803  1
  Xe  Xe6  1  0.205852  0.318741  0.663915  1
  Xe  Xe7  1  0.794148  0.681259  0.336085  1
  Xe  Xe8  1  0.318741  0.205852  0.336085  1
  Xe  Xe9  1  0.681259  0.794148  0.663915  1
  Xe  Xe10  1  0.500000  0.500000  0.000000  1
  Xe  Xe11  1  0.000000  0.000000  0.000000  1
  F  F12  1  0.135414  0.610116  0.062451  1
  F  F13  1  0.069295  0.666924  0.591064  1
  F  F14  1  0.610116  0.135414  0.937549  1
  F  F15  1  0.864586  0.389884  0.937549  1
  F  F16  1  0.636367  0.018867  0.688037  1
  F  F17  1  0.970792  0.628376  0.884620  1
  F  F18  1  0.418369  0.128323  0.065961  1
  F  F19  1  0.696394  0.303606  0.488849  1
  F  F20  1  0.460116  0.539884  0.173566  1
  F  F21  1  0.116937  0.883063  0.465752  1
  F  F22  1  0.981133  0.363633  0.688037  1
  F  F23  1  0.029208  0.371624  0.115380  1
  F  F24  1  0.539884  0.460116  0.826434  1
  F  F25  1  0.899182  0.100818  0.329178  1
  F  F26  1  0.581631  0.871677  0.934039  1
  F  F27  1  0.710685  0.289315  0.285132  1
  F  F28  1  0.883063  0.116937  0.534248  1
  F  F29  1  0.303606  0.696394  0.511151  1
  F  F30  1  0.914098  0.085902  0.826191  1
  F  F31  1  0.128323  0.418369  0.934039  1
  F  F32  1  0.666924  0.069295  0.408936  1
  F  F33  1  0.100818  0.899182  0.670822  1
  F  F34  1  0.280276  0.431726  0.366688  1
  F  F35  1  0.719724  0.568274  0.633312  1
  F  F36  1  0.930705  0.333076  0.408936  1
  F  F37  1  0.371624  0.029208  0.884620  1
  F  F38  1  0.389884  0.864586  0.062451  1
  F  F39  1  0.333076  0.930705  0.591064  1
  F  F40  1  0.568274  0.719724  0.366688  1
  F  F41  1  0.628376  0.970792  0.115380  1
  F  F42  1  0.085902  0.914098  0.173809  1
  F  F43  1  0.871677  0.581631  0.065961  1
  F  F44  1  0.363633  0.981133  0.311963  1
  F  F45  1  0.018867  0.636367  0.311963  1
  F  F46  1  0.431726  0.280276  0.633312  1
  F  F47  1  0.289315  0.710685  0.714868  1
