# generated using pymatgen
data_NaYCO3F2
_symmetry_space_group_name_H-M   'P 1'
_cell_length_a   6.37191436
_cell_length_b   7.08344299
_cell_length_c   9.30130116
_cell_angle_alpha   90.00000000
_cell_angle_beta   90.00000000
_cell_angle_gamma   90.00000000
_symmetry_Int_Tables_number   1
_chemical_formula_structural   NaYCO3F2
_chemical_formula_sum   'Na4 Y4 C4 O12 F8'
_cell_volume   419.81508456
_cell_formula_units_Z   4
loop_
 _symmetry_equiv_pos_site_id
 _symmetry_equiv_pos_as_xyz
  1  'x, y, z'
loop_
 _atom_site_type_symbol
 _atom_site_label
 _atom_site_symmetry_multiplicity
 _atom_site_fract_x
 _atom_site_fract_y
 _atom_site_fract_z
 _atom_site_occupancy
  Na  Na0  1  0.171294  0.250000  0.717804  1
  Na  Na1  1  0.671294  0.250000  0.782196  1
  Na  Na2  1  0.828706  0.750000  0.282196  1
  Na  Na3  1  0.328706  0.750000  0.217804  1
  Y  Y4  1  0.512535  0.250000  0.422227  1
  Y  Y5  1  0.987465  0.750000  0.922227  1
  Y  Y6  1  0.487465  0.750000  0.577773  1
  Y  Y7  1  0.012535  0.250000  0.077773  1
  C  C8  1  0.540078  0.750000  0.940269  1
  C  C9  1  0.459922  0.250000  0.059731  1
  C  C10  1  0.959922  0.250000  0.440269  1
  C  C11  1  0.040078  0.750000  0.559731  1
  O  O12  1  0.841109  0.750000  0.543872  1
  O  O13  1  0.835792  0.250000  0.550758  1
  O  O14  1  0.130608  0.750000  0.686401  1
  O  O15  1  0.869392  0.250000  0.313599  1
  O  O16  1  0.335792  0.250000  0.949242  1
  O  O17  1  0.158891  0.250000  0.456128  1
  O  O18  1  0.664208  0.750000  0.050758  1
  O  O19  1  0.658891  0.250000  0.043872  1
  O  O20  1  0.369392  0.250000  0.186401  1
  O  O21  1  0.341109  0.750000  0.956128  1
  O  O22  1  0.630608  0.750000  0.813599  1
  O  O23  1  0.164208  0.750000  0.449242  1
  F  F24  1  0.042053  0.940369  0.130046  1
  F  F25  1  0.542053  0.940369  0.369954  1
  F  F26  1  0.457947  0.059631  0.630046  1
  F  F27  1  0.957947  0.059631  0.869954  1
  F  F28  1  0.042053  0.559631  0.130046  1
  F  F29  1  0.957947  0.440369  0.869954  1
  F  F30  1  0.457947  0.440369  0.630046  1
  F  F31  1  0.542053  0.559631  0.369954  1
