# generated using pymatgen
data_YSbMo2O9
_symmetry_space_group_name_H-M   'P 1'
_cell_length_a   9.72805099
_cell_length_b   9.72805099
_cell_length_c   10.87354478
_cell_angle_alpha   68.14993997
_cell_angle_beta   111.85006003
_cell_angle_gamma   84.54833711
_symmetry_Int_Tables_number   1
_chemical_formula_structural   YSbMo2O9
_chemical_formula_sum   'Y4 Sb4 Mo8 O36'
_cell_volume   853.29060758
_cell_formula_units_Z   4
loop_
 _symmetry_equiv_pos_site_id
 _symmetry_equiv_pos_as_xyz
  1  'x, y, z'
loop_
 _atom_site_type_symbol
 _atom_site_label
 _atom_site_symmetry_multiplicity
 _atom_site_fract_x
 _atom_site_fract_y
 _atom_site_fract_z
 _atom_site_occupancy
  Y  Y0  1  0.874179  0.874179  0.750000  1
  Y  Y1  1  0.328070  0.328070  0.750000  1
  Y  Y2  1  0.125821  0.125821  0.250000  1
  Y  Y3  1  0.671930  0.671930  0.250000  1
  Sb  Sb4  1  0.380036  0.650509  0.464245  1
  Sb  Sb5  1  0.619964  0.349491  0.535755  1
  Sb  Sb6  1  0.650509  0.380036  0.035755  1
  Sb  Sb7  1  0.349491  0.619964  0.964245  1
  Mo  Mo8  1  0.434021  0.941886  0.693139  1
  Mo  Mo9  1  0.565979  0.058114  0.306861  1
  Mo  Mo10  1  0.058114  0.565979  0.193139  1
  Mo  Mo11  1  0.046373  0.740867  0.525070  1
  Mo  Mo12  1  0.941886  0.434021  0.806861  1
  Mo  Mo13  1  0.953627  0.259133  0.474930  1
  Mo  Mo14  1  0.740867  0.046373  0.974930  1
  Mo  Mo15  1  0.259133  0.953627  0.025070  1
  O  O16  1  0.458054  0.423092  0.599565  1
  O  O17  1  0.904459  0.067141  0.101987  1
  O  O18  1  0.208720  0.635865  0.297345  1
  O  O19  1  0.855329  0.620950  0.772792  1
  O  O20  1  0.067141  0.904459  0.398013  1
  O  O21  1  0.791280  0.364135  0.702655  1
  O  O22  1  0.423092  0.458054  0.900435  1
  O  O23  1  0.576908  0.541946  0.099565  1
  O  O24  1  0.932859  0.095541  0.601987  1
  O  O25  1  0.144671  0.379050  0.227208  1
  O  O26  1  0.620950  0.855329  0.727208  1
  O  O27  1  0.693398  0.980125  0.497911  1
  O  O28  1  0.442698  0.093465  0.748049  1
  O  O29  1  0.635865  0.208720  0.202655  1
  O  O30  1  0.541946  0.576908  0.400435  1
  O  O31  1  0.870990  0.701853  0.431736  1
  O  O32  1  0.129010  0.298147  0.568264  1
  O  O33  1  0.594433  0.221400  0.920676  1
  O  O34  1  0.980125  0.693398  0.002089  1
  O  O35  1  0.778812  0.042511  0.826375  1
  O  O36  1  0.221400  0.594433  0.579324  1
  O  O37  1  0.957489  0.221188  0.326375  1
  O  O38  1  0.379050  0.144671  0.272792  1
  O  O39  1  0.093465  0.442698  0.751951  1
  O  O40  1  0.019875  0.306602  0.997911  1
  O  O41  1  0.221188  0.957489  0.173625  1
  O  O42  1  0.306602  0.019875  0.502089  1
  O  O43  1  0.095541  0.932859  0.898013  1
  O  O44  1  0.405567  0.778600  0.079324  1
  O  O45  1  0.042511  0.778812  0.673625  1
  O  O46  1  0.298147  0.129010  0.931736  1
  O  O47  1  0.701853  0.870990  0.068264  1
  O  O48  1  0.364135  0.791280  0.797345  1
  O  O49  1  0.557302  0.906535  0.251951  1
  O  O50  1  0.906535  0.557302  0.248049  1
  O  O51  1  0.778600  0.405567  0.420676  1
