# generated using pymatgen
data_Mn8Zn14Ga27
_symmetry_space_group_name_H-M   'P 1'
_cell_length_a   9.22444359
_cell_length_b   9.22444359
_cell_length_c   9.22444359
_cell_angle_alpha   94.76591754
_cell_angle_beta   94.76591754
_cell_angle_gamma   94.76591754
_symmetry_Int_Tables_number   1
_chemical_formula_structural   Mn8Zn14Ga27
_chemical_formula_sum   'Mn8 Zn14 Ga27'
_cell_volume   776.28613589
_cell_formula_units_Z   1
loop_
 _symmetry_equiv_pos_site_id
 _symmetry_equiv_pos_as_xyz
  1  'x, y, z'
loop_
 _atom_site_type_symbol
 _atom_site_label
 _atom_site_symmetry_multiplicity
 _atom_site_fract_x
 _atom_site_fract_y
 _atom_site_fract_z
 _atom_site_occupancy
  Mn  Mn0  1  0.904296  0.280629  0.613817  1
  Mn  Mn1  1  0.814480  0.814480  0.814480  1
  Mn  Mn2  1  0.719371  0.386183  0.095704  1
  Mn  Mn3  1  0.095704  0.719371  0.386183  1
  Mn  Mn4  1  0.386183  0.095704  0.719371  1
  Mn  Mn5  1  0.280629  0.613817  0.904296  1
  Mn  Mn6  1  0.613817  0.904296  0.280629  1
  Mn  Mn7  1  0.185520  0.185520  0.185520  1
  Zn  Zn8  1  0.769243  0.536613  0.659714  1
  Zn  Zn9  1  0.265420  0.625227  0.612885  1
  Zn  Zn10  1  0.500000  0.500000  0.500000  1
  Zn  Zn11  1  0.340286  0.230757  0.463387  1
  Zn  Zn12  1  0.387115  0.734580  0.374773  1
  Zn  Zn13  1  0.659714  0.769243  0.536613  1
  Zn  Zn14  1  0.230757  0.463387  0.340286  1
  Zn  Zn15  1  0.612885  0.265420  0.625227  1
  Zn  Zn16  1  0.734580  0.374773  0.387115  1
  Zn  Zn17  1  0.536613  0.659714  0.769243  1
  Zn  Zn18  1  0.463387  0.340286  0.230757  1
  Zn  Zn19  1  0.374773  0.387115  0.734580  1
  Zn  Zn20  1  0.625227  0.612885  0.265420  1
  Zn  Zn21  1  0.000000  0.000000  0.000000  1
  Ga  Ga22  1  0.913917  0.553429  0.226099  1
  Ga  Ga23  1  0.956277  0.778358  0.600830  1
  Ga  Ga24  1  0.052673  0.731637  0.879832  1
  Ga  Ga25  1  0.176718  0.672033  0.142277  1
  Ga  Ga26  1  0.142277  0.176718  0.672033  1
  Ga  Ga27  1  0.268363  0.120168  0.947327  1
  Ga  Ga28  1  0.672033  0.142277  0.176718  1
  Ga  Ga29  1  0.778358  0.600830  0.956277  1
  Ga  Ga30  1  0.857723  0.823282  0.327967  1
  Ga  Ga31  1  0.120168  0.947327  0.268363  1
  Ga  Ga32  1  0.731637  0.879832  0.052673  1
  Ga  Ga33  1  0.446571  0.773901  0.086083  1
  Ga  Ga34  1  0.043723  0.221642  0.399170  1
  Ga  Ga35  1  0.399170  0.043723  0.221642  1
  Ga  Ga36  1  0.773901  0.086083  0.446571  1
  Ga  Ga37  1  0.086083  0.446571  0.773901  1
  Ga  Ga38  1  0.000000  0.500000  0.500000  1
  Ga  Ga39  1  0.879832  0.052673  0.731637  1
  Ga  Ga40  1  0.947327  0.268363  0.120168  1
  Ga  Ga41  1  0.553429  0.226099  0.913917  1
  Ga  Ga42  1  0.221642  0.399170  0.043723  1
  Ga  Ga43  1  0.823282  0.327967  0.857723  1
  Ga  Ga44  1  0.600830  0.956277  0.778358  1
  Ga  Ga45  1  0.327967  0.857723  0.823282  1
  Ga  Ga46  1  0.226099  0.913917  0.553429  1
  Ga  Ga47  1  0.500000  0.500000  0.000000  1
  Ga  Ga48  1  0.500000  0.000000  0.500000  1
