# generated using pymatgen
data_YbGa5
_symmetry_space_group_name_H-M   'P 1'
_cell_length_a   13.40896098
_cell_length_b   13.40896098
_cell_length_c   13.40896098
_cell_angle_alpha   161.45682243
_cell_angle_beta   161.45682243
_cell_angle_gamma   26.34107872
_symmetry_Int_Tables_number   1
_chemical_formula_structural   YbGa5
_chemical_formula_sum   'Yb2 Ga10'
_cell_volume   243.74618520
_cell_formula_units_Z   2
loop_
 _symmetry_equiv_pos_site_id
 _symmetry_equiv_pos_as_xyz
  1  'x, y, z'
loop_
 _atom_site_type_symbol
 _atom_site_label
 _atom_site_symmetry_multiplicity
 _atom_site_fract_x
 _atom_site_fract_y
 _atom_site_fract_z
 _atom_site_occupancy
  Yb  Yb0  1  0.149953  0.149953  0.000000  1
  Yb  Yb1  1  0.850047  0.850047  0.000000  1
  Ga  Ga2  1  0.399128  0.399128  0.000000  1
  Ga  Ga3  1  0.952433  0.452433  0.500000  1
  Ga  Ga4  1  0.047567  0.547567  0.500000  1
  Ga  Ga5  1  0.452433  0.952433  0.500000  1
  Ga  Ga6  1  0.600872  0.600872  0.000000  1
  Ga  Ga7  1  0.305347  0.305347  0.000000  1
  Ga  Ga8  1  0.694653  0.694653  0.000000  1
  Ga  Ga9  1  0.750000  0.250000  0.500000  1
  Ga  Ga10  1  0.547567  0.047567  0.500000  1
  Ga  Ga11  1  0.250000  0.750000  0.500000  1
