# generated using pymatgen
data_Er2TiO5
_symmetry_space_group_name_H-M   'P 1'
_cell_length_a   7.38853233
_cell_length_b   7.38853233
_cell_length_c   17.68892703
_cell_angle_alpha   89.53947507
_cell_angle_beta   90.46052493
_cell_angle_gamma   121.29342526
_symmetry_Int_Tables_number   1
_chemical_formula_structural   Er2TiO5
_chemical_formula_sum   'Er16 Ti8 O40'
_cell_volume   825.12703864
_cell_formula_units_Z   8
loop_
 _symmetry_equiv_pos_site_id
 _symmetry_equiv_pos_as_xyz
  1  'x, y, z'
loop_
 _atom_site_type_symbol
 _atom_site_label
 _atom_site_symmetry_multiplicity
 _atom_site_fract_x
 _atom_site_fract_y
 _atom_site_fract_z
 _atom_site_occupancy
  Er  Er0  1  0.341940  0.658060  0.821612  1
  Er  Er1  1  0.515482  0.484518  0.002231  1
  Er  Er2  1  0.826552  0.173448  0.848427  1
  Er  Er3  1  0.826813  0.661551  0.833441  1
  Er  Er4  1  0.016097  0.983903  0.485609  1
  Er  Er5  1  0.982473  0.017527  0.008974  1
  Er  Er6  1  0.338449  0.173187  0.833441  1
  Er  Er7  1  0.496731  0.503269  0.493950  1
  Er  Er8  1  0.500875  0.980205  0.494551  1
  Er  Er9  1  0.685843  0.314157  0.673577  1
  Er  Er10  1  0.181796  0.818204  0.659014  1
  Er  Er11  1  0.019795  0.499125  0.494551  1
  Er  Er12  1  0.172533  0.827467  0.154789  1
  Er  Er13  1  0.190385  0.317492  0.178027  1
  Er  Er14  1  0.348880  0.651120  0.327572  1
  Er  Er15  1  0.682508  0.809615  0.178027  1
  Ti  Ti16  1  0.024533  0.499824  0.000454  1
  Ti  Ti17  1  0.500176  0.975467  0.000454  1
  Ti  Ti18  1  0.166974  0.327230  0.666174  1
  Ti  Ti19  1  0.837341  0.162659  0.327333  1
  Ti  Ti20  1  0.672770  0.833026  0.666174  1
  Ti  Ti21  1  0.840362  0.651950  0.336856  1
  Ti  Ti22  1  0.666186  0.333814  0.162942  1
  Ti  Ti23  1  0.348050  0.159638  0.336856  1
  O  O24  1  0.809901  0.190099  0.975937  1
  O  O25  1  0.698681  0.864229  0.790433  1
  O  O26  1  0.135771  0.301319  0.790433  1
  O  O27  1  0.849941  0.705360  0.957463  1
  O  O28  1  0.334491  0.212619  0.682586  1
  O  O29  1  0.493719  0.506281  0.878057  1
  O  O30  1  0.362175  0.637825  0.690279  1
  O  O31  1  0.379094  0.187260  0.453068  1
  O  O32  1  0.161022  0.838978  0.784352  1
  O  O33  1  0.294640  0.150059  0.957463  1
  O  O34  1  0.787381  0.665509  0.682586  1
  O  O35  1  0.480817  0.948246  0.896122  1
  O  O36  1  0.678767  0.321233  0.794858  1
  O  O37  1  0.812740  0.620906  0.453068  1
  O  O38  1  0.517569  0.013919  0.618444  1
  O  O39  1  0.969255  0.492086  0.346874  1
  O  O40  1  0.167425  0.832575  0.535418  1
  O  O41  1  0.874934  0.491184  0.092937  1
  O  O42  1  0.083482  0.916518  0.362991  1
  O  O43  1  0.881460  0.118540  0.676166  1
  O  O44  1  0.986081  0.482431  0.618444  1
  O  O45  1  0.051754  0.519183  0.896122  1
  O  O46  1  0.843679  0.156321  0.440879  1
  O  O47  1  0.507914  0.030745  0.346874  1
  O  O48  1  0.186883  0.309208  0.556908  1
  O  O49  1  0.508816  0.125066  0.092937  1
  O  O50  1  0.328314  0.671686  0.205516  1
  O  O51  1  0.131627  0.274804  0.306282  1
  O  O52  1  0.342983  0.657017  0.449731  1
  O  O53  1  0.799302  0.200698  0.217381  1
  O  O54  1  0.607655  0.817969  0.043695  1
  O  O55  1  0.526225  0.473775  0.342338  1
  O  O56  1  0.690792  0.813117  0.556908  1
  O  O57  1  0.518718  0.481282  0.137332  1
  O  O58  1  0.725196  0.868373  0.306282  1
  O  O59  1  0.182031  0.392345  0.043695  1
  O  O60  1  0.858278  0.644543  0.227404  1
  O  O61  1  0.003111  0.996889  0.128394  1
  O  O62  1  0.219147  0.780853  0.034140  1
  O  O63  1  0.355457  0.141722  0.227404  1
