# generated using pymatgen
data_Zn3As2
_symmetry_space_group_name_H-M   'P 1'
_cell_length_a   14.63075558
_cell_length_b   14.63075558
_cell_length_c   14.63075558
_cell_angle_alpha   131.98986822
_cell_angle_beta   131.98986822
_cell_angle_gamma   70.24502940
_symmetry_Int_Tables_number   1
_chemical_formula_structural   Zn3As2
_chemical_formula_sum   'Zn48 As32'
_cell_volume   1695.79019491
_cell_formula_units_Z   16
loop_
 _symmetry_equiv_pos_site_id
 _symmetry_equiv_pos_as_xyz
  1  'x, y, z'
loop_
 _atom_site_type_symbol
 _atom_site_label
 _atom_site_symmetry_multiplicity
 _atom_site_fract_x
 _atom_site_fract_y
 _atom_site_fract_z
 _atom_site_occupancy
  Zn  Zn0  1  0.710109  0.183644  0.766786  1
  Zn  Zn1  1  0.056677  0.289891  0.473536  1
  Zn  Zn2  1  0.333666  0.335942  0.776927  1
  Zn  Zn3  1  0.416334  0.914058  0.723073  1
  Zn  Zn4  1  0.294110  0.041967  0.977696  1
  Zn  Zn5  1  0.806739  0.309015  0.723073  1
  Zn  Zn6  1  0.190985  0.693261  0.276927  1
  Zn  Zn7  1  0.059015  0.835942  0.002275  1
  Zn  Zn8  1  0.559015  0.556739  0.223073  1
  Zn  Zn9  1  0.039891  0.066356  0.733214  1
  Zn  Zn10  1  0.316356  0.789891  0.233214  1
  Zn  Zn11  1  0.916334  0.193261  0.502275  1
  Zn  Zn12  1  0.210109  0.443323  0.526464  1
  Zn  Zn13  1  0.585942  0.083666  0.276927  1
  Zn  Zn14  1  0.064271  0.316414  0.022304  1
  Zn  Zn15  1  0.943261  0.940985  0.776927  1
  Zn  Zn16  1  0.193323  0.166859  0.733214  1
  Zn  Zn17  1  0.291967  0.044110  0.477696  1
  Zn  Zn18  1  0.933644  0.666859  0.973536  1
  Zn  Zn19  1  0.833666  0.056739  0.997725  1
  Zn  Zn20  1  0.564271  0.541967  0.747857  1
  Zn  Zn21  1  0.539891  0.806677  0.973536  1
  Zn  Zn22  1  0.433644  0.460109  0.266786  1
  Zn  Zn23  1  0.458033  0.205890  0.022304  1
  Zn  Zn24  1  0.693323  0.960109  0.026464  1
  Zn  Zn25  1  0.333141  0.306677  0.266786  1
  Zn  Zn26  1  0.833141  0.566356  0.026464  1
  Zn  Zn27  1  0.066414  0.544110  0.752143  1
  Zn  Zn28  1  0.816356  0.583141  0.526464  1
  Zn  Zn29  1  0.455890  0.208033  0.522304  1
  Zn  Zn30  1  0.958033  0.935729  0.252143  1
  Zn  Zn31  1  0.916859  0.683644  0.473536  1
  Zn  Zn32  1  0.664058  0.440985  0.997725  1
  Zn  Zn33  1  0.791967  0.314271  0.247857  1
  Zn  Zn34  1  0.185729  0.708033  0.752143  1
  Zn  Zn35  1  0.955890  0.433586  0.247857  1
  Zn  Zn36  1  0.556677  0.083141  0.766786  1
  Zn  Zn37  1  0.085942  0.809015  0.502275  1
  Zn  Zn38  1  0.183586  0.435729  0.977696  1
  Zn  Zn39  1  0.416859  0.943323  0.233214  1
  Zn  Zn40  1  0.683586  0.705890  0.747857  1
  Zn  Zn41  1  0.306739  0.583666  0.497725  1
  Zn  Zn42  1  0.794110  0.816414  0.252143  1
  Zn  Zn43  1  0.690985  0.414058  0.497725  1
  Zn  Zn44  1  0.566414  0.814271  0.522304  1
  Zn  Zn45  1  0.164058  0.166334  0.223073  1
  Zn  Zn46  1  0.443261  0.666334  0.002275  1
  Zn  Zn47  1  0.685729  0.933586  0.477696  1
  As  As48  1  0.506811  0.753588  0.257010  1
  As  As49  1  0.874058  0.374058  0.500000  1
  As  As50  1  0.746412  0.993189  0.742990  1
  As  As51  1  0.125000  0.129684  0.504684  1
  As  As52  1  0.625000  0.620316  0.495316  1
  As  As53  1  0.753422  0.996412  0.253223  1
  As  As54  1  0.379684  0.875000  0.004684  1
  As  As55  1  0.375942  0.375942  0.000000  1
  As  As56  1  0.499801  0.246578  0.242990  1
  As  As57  1  0.250199  0.003422  0.257010  1
  As  As58  1  0.503588  0.746578  0.746777  1
  As  As59  1  0.125000  0.629684  0.004684  1
  As  As60  1  0.246412  0.503422  0.753223  1
  As  As61  1  0.743189  0.500199  0.746777  1
  As  As62  1  0.624058  0.624058  0.000000  1
  As  As63  1  0.996578  0.253588  0.246777  1
  As  As64  1  0.003588  0.256811  0.757010  1
  As  As65  1  0.879684  0.875000  0.504684  1
  As  As66  1  0.625000  0.120316  0.995316  1
  As  As67  1  0.125942  0.625942  0.500000  1
  As  As68  1  0.875942  0.875942  0.000000  1
  As  As69  1  0.496578  0.249801  0.742990  1
  As  As70  1  0.870316  0.375000  0.995316  1
  As  As71  1  0.750199  0.493189  0.246777  1
  As  As72  1  0.999801  0.756811  0.253223  1
  As  As73  1  0.625942  0.125942  0.500000  1
  As  As74  1  0.243189  0.496412  0.242990  1
  As  As75  1  0.006811  0.749801  0.753223  1
  As  As76  1  0.374058  0.874058  0.500000  1
  As  As77  1  0.370316  0.375000  0.495316  1
  As  As78  1  0.253422  0.000199  0.757010  1
  As  As79  1  0.124058  0.124058  0.000000  1
