# generated using pymatgen
data_Sr3Fe2Cu2Se2O5
_symmetry_space_group_name_H-M   'P 1'
_cell_length_a   13.95884246
_cell_length_b   13.95884246
_cell_length_c   13.95884246
_cell_angle_alpha   163.51117885
_cell_angle_beta   163.51117885
_cell_angle_gamma   23.40062976
_symmetry_Int_Tables_number   1
_chemical_formula_structural   Sr3Fe2Cu2Se2O5
_chemical_formula_sum   'Sr3 Fe2 Cu2 Se2 O5'
_cell_volume   219.06034977
_cell_formula_units_Z   1
loop_
 _symmetry_equiv_pos_site_id
 _symmetry_equiv_pos_as_xyz
  1  'x, y, z'
loop_
 _atom_site_type_symbol
 _atom_site_label
 _atom_site_symmetry_multiplicity
 _atom_site_fract_x
 _atom_site_fract_y
 _atom_site_fract_z
 _atom_site_occupancy
  Sr  Sr0  1  0.362883  0.362883  0.000000  1
  Sr  Sr1  1  0.500000  0.500000  0.000000  1
  Sr  Sr2  1  0.637117  0.637117  0.000000  1
  Fe  Fe3  1  0.929725  0.929725  0.000000  1
  Fe  Fe4  1  0.070275  0.070275  0.000000  1
  Cu  Cu5  1  0.250000  0.750000  0.500000  1
  Cu  Cu6  1  0.750000  0.250000  0.500000  1
  Se  Se7  1  0.806168  0.806168  0.000000  1
  Se  Se8  1  0.193832  0.193832  0.000000  1
  O  O9  1  0.079644  0.579644  0.500000  1
  O  O10  1  0.000000  0.000000  0.000000  1
  O  O11  1  0.420356  0.920356  0.500000  1
  O  O12  1  0.579644  0.079644  0.500000  1
  O  O13  1  0.920356  0.420356  0.500000  1
