# generated using pymatgen
data_Li14Ti21O48
_symmetry_space_group_name_H-M   'P 1'
_cell_length_a   5.97534080
_cell_length_b   5.97534080
_cell_length_c   29.23675229
_cell_angle_alpha   89.94185342
_cell_angle_beta   90.05814658
_cell_angle_gamma   119.98506113
_symmetry_Int_Tables_number   1
_chemical_formula_structural   Li14Ti21O48
_chemical_formula_sum   'Li14 Ti21 O48'
_cell_volume   904.17017718
_cell_formula_units_Z   1
loop_
 _symmetry_equiv_pos_site_id
 _symmetry_equiv_pos_as_xyz
  1  'x, y, z'
loop_
 _atom_site_type_symbol
 _atom_site_label
 _atom_site_symmetry_multiplicity
 _atom_site_fract_x
 _atom_site_fract_y
 _atom_site_fract_z
 _atom_site_occupancy
  Li  Li0  1  0.333741  0.666259  0.165144  1
  Li  Li1  1  0.332798  0.667202  0.042518  1
  Li  Li2  1  0.666824  0.333176  0.332163  1
  Li  Li3  1  0.666441  0.333559  0.209042  1
  Li  Li4  1  0.999931  0.000069  0.187188  1
  Li  Li5  1  0.999867  0.000133  0.376149  1
  Li  Li6  1  0.000242  0.999758  0.498803  1
  Li  Li7  1  0.337016  0.662984  0.667702  1
  Li  Li8  1  0.331784  0.668216  0.543753  1
  Li  Li9  1  0.664313  0.335687  0.709229  1
  Li  Li10  1  0.667757  0.332243  0.521449  1
  Li  Li11  1  0.668735  0.331265  0.832213  1
  Li  Li12  1  0.997105  0.002895  0.873682  1
  Li  Li13  1  0.166501  0.833499  0.770632  1
  Ti  Ti14  1  0.324822  0.161921  0.106153  1
  Ti  Ti15  1  0.838079  0.675178  0.106153  1
  Ti  Ti16  1  0.664283  0.335717  0.021269  1
  Ti  Ti17  1  0.837351  0.162649  0.105993  1
  Ti  Ti18  1  0.673605  0.836805  0.268721  1
  Ti  Ti19  1  0.163195  0.326395  0.268721  1
  Ti  Ti20  1  0.992945  0.496464  0.439584  1
  Ti  Ti21  1  0.163221  0.836779  0.268703  1
  Ti  Ti22  1  0.503536  0.007055  0.439584  1
  Ti  Ti23  1  0.333332  0.666668  0.354191  1
  Ti  Ti24  1  0.339038  0.171086  0.601489  1
  Ti  Ti25  1  0.503511  0.496489  0.439628  1
  Ti  Ti26  1  0.828914  0.660962  0.601489  1
  Ti  Ti27  1  0.831295  0.168705  0.603677  1
  Ti  Ti28  1  0.667622  0.833565  0.770327  1
  Ti  Ti29  1  0.166435  0.332378  0.770327  1
  Ti  Ti30  1  0.012730  0.987270  0.689840  1
  Ti  Ti31  1  0.999261  0.496587  0.938602  1
  Ti  Ti32  1  0.503413  0.000739  0.938602  1
  Ti  Ti33  1  0.321474  0.678526  0.850151  1
  Ti  Ti34  1  0.500047  0.499953  0.936985  1
  O  O35  1  0.518995  0.481005  0.064689  1
  O  O36  1  0.519299  0.039154  0.064793  1
  O  O37  1  0.666722  0.333278  0.140312  1
  O  O38  1  0.960846  0.480701  0.064793  1
  O  O39  1  0.845312  0.154688  0.235138  1
  O  O40  1  0.689471  0.844480  0.140086  1
  O  O41  1  0.155520  0.310529  0.140086  1
  O  O42  1  0.000023  0.999977  0.306289  1
  O  O43  1  0.845338  0.691079  0.235093  1
  O  O44  1  0.000043  0.999957  0.070828  1
  O  O45  1  0.308921  0.154662  0.235093  1
  O  O46  1  0.155568  0.844432  0.140173  1
  O  O47  1  0.185884  0.814116  0.397747  1
  O  O48  1  0.038515  0.519280  0.310552  1
  O  O49  1  0.480720  0.961485  0.310552  1
  O  O50  1  0.333401  0.666599  0.473592  1
  O  O51  1  0.333297  0.666703  0.234860  1
  O  O52  1  0.185948  0.371851  0.397778  1
  O  O53  1  0.480806  0.519194  0.310580  1
  O  O54  1  0.628148  0.814052  0.397778  1
  O  O55  1  0.511794  0.488206  0.568091  1
  O  O56  1  0.357576  0.178537  0.473246  1
  O  O57  1  0.821463  0.642424  0.473246  1
  O  O58  1  0.666649  0.333351  0.402064  1
  O  O59  1  0.511251  0.025178  0.568695  1
  O  O60  1  0.665731  0.334269  0.639231  1
  O  O61  1  0.974822  0.488749  0.568695  1
  O  O62  1  0.821500  0.178500  0.473215  1
  O  O63  1  0.849384  0.150616  0.730280  1
  O  O64  1  0.706875  0.853409  0.642017  1
  O  O65  1  0.146591  0.293125  0.642017  1
  O  O66  1  0.988046  0.011954  0.805213  1
  O  O67  1  0.835694  0.703531  0.728270  1
  O  O68  1  0.000669  0.999331  0.567380  1
  O  O69  1  0.296469  0.164306  0.728270  1
  O  O70  1  0.149188  0.850812  0.643334  1
  O  O71  1  0.036143  0.503504  0.813029  1
  O  O72  1  0.183637  0.816363  0.898351  1
  O  O73  1  0.496496  0.963857  0.813029  1
  O  O74  1  0.333022  0.666978  0.973273  1
  O  O75  1  0.345040  0.654960  0.736242  1
  O  O76  1  0.184503  0.368850  0.899567  1
  O  O77  1  0.631150  0.815497  0.899567  1
  O  O78  1  0.483094  0.516906  0.811444  1
  O  O79  1  0.376931  0.187657  0.976519  1
  O  O80  1  0.812343  0.623069  0.976519  1
  O  O81  1  0.667155  0.332845  0.901964  1
  O  O82  1  0.812843  0.187157  0.976561  1
