# generated using pymatgen
data_KBaB5O9
_symmetry_space_group_name_H-M   'P 1'
_cell_length_a   6.79400888
_cell_length_b   8.50327588
_cell_length_c   14.50371104
_cell_angle_alpha   90.00000000
_cell_angle_beta   92.99488545
_cell_angle_gamma   90.00000000
_symmetry_Int_Tables_number   1
_chemical_formula_structural   KBaB5O9
_chemical_formula_sum   'K4 Ba4 B20 O36'
_cell_volume   836.75430351
_cell_formula_units_Z   4
loop_
 _symmetry_equiv_pos_site_id
 _symmetry_equiv_pos_as_xyz
  1  'x, y, z'
loop_
 _atom_site_type_symbol
 _atom_site_label
 _atom_site_symmetry_multiplicity
 _atom_site_fract_x
 _atom_site_fract_y
 _atom_site_fract_z
 _atom_site_occupancy
  K  K0  1  0.509556  0.853725  0.404067  1
  K  K1  1  0.490444  0.353725  0.095933  1
  K  K2  1  0.490444  0.146275  0.595933  1
  K  K3  1  0.509556  0.646275  0.904067  1
  Ba  Ba4  1  0.073456  0.531969  0.272641  1
  Ba  Ba5  1  0.926544  0.468031  0.727359  1
  Ba  Ba6  1  0.926544  0.031969  0.227359  1
  Ba  Ba7  1  0.073456  0.968031  0.772641  1
  B  B8  1  0.201568  0.726147  0.603278  1
  B  B9  1  0.160595  0.191889  0.426334  1
  B  B10  1  0.839405  0.691889  0.073666  1
  B  B11  1  0.060093  0.693609  0.944338  1
  B  B12  1  0.201568  0.773853  0.103278  1
  B  B13  1  0.602010  0.020033  0.808793  1
  B  B14  1  0.939907  0.193609  0.555662  1
  B  B15  1  0.397990  0.979967  0.191207  1
  B  B16  1  0.535713  0.792550  0.681217  1
  B  B17  1  0.839405  0.808111  0.573666  1
  B  B18  1  0.939907  0.306391  0.055662  1
  B  B19  1  0.798432  0.226147  0.896722  1
  B  B20  1  0.798432  0.273853  0.396722  1
  B  B21  1  0.397990  0.520033  0.691207  1
  B  B22  1  0.060093  0.806391  0.444338  1
  B  B23  1  0.602010  0.479967  0.308793  1
  B  B24  1  0.535713  0.707450  0.181217  1
  B  B25  1  0.464287  0.292550  0.818783  1
  B  B26  1  0.464287  0.207450  0.318783  1
  B  B27  1  0.160595  0.308111  0.926334  1
  O  O28  1  0.124707  0.159560  0.517747  1
  O  O29  1  0.244071  0.559814  0.629773  1
  O  O30  1  0.557323  0.880060  0.206714  1
  O  O31  1  0.009403  0.254724  0.866892  1
  O  O32  1  0.990597  0.745276  0.133108  1
  O  O33  1  0.348539  0.330470  0.900388  1
  O  O34  1  0.875293  0.840440  0.482253  1
  O  O35  1  0.083964  0.825731  0.353830  1
  O  O36  1  0.669261  0.167793  0.341363  1
  O  O37  1  0.755929  0.059814  0.870227  1
  O  O38  1  0.790498  0.247138  0.996169  1
  O  O39  1  0.348539  0.169530  0.400388  1
  O  O40  1  0.244071  0.940186  0.129773  1
  O  O41  1  0.009403  0.245276  0.366892  1
  O  O42  1  0.381594  0.377874  0.735466  1
  O  O43  1  0.330739  0.832207  0.658637  1
  O  O44  1  0.990597  0.754724  0.633108  1
  O  O45  1  0.651461  0.830470  0.599612  1
  O  O46  1  0.916036  0.174269  0.646170  1
  O  O47  1  0.209502  0.747138  0.503831  1
  O  O48  1  0.557323  0.619940  0.706714  1
  O  O49  1  0.442677  0.380060  0.293286  1
  O  O50  1  0.618406  0.877874  0.764534  1
  O  O51  1  0.083964  0.674269  0.853830  1
  O  O52  1  0.669261  0.332207  0.841363  1
  O  O53  1  0.209502  0.752862  0.003831  1
  O  O54  1  0.618406  0.622126  0.264534  1
  O  O55  1  0.124707  0.340440  0.017747  1
  O  O56  1  0.755929  0.440186  0.370227  1
  O  O57  1  0.790498  0.252862  0.496169  1
  O  O58  1  0.875293  0.659560  0.982253  1
  O  O59  1  0.651461  0.669530  0.099612  1
  O  O60  1  0.381594  0.122126  0.235466  1
  O  O61  1  0.330739  0.667793  0.158637  1
  O  O62  1  0.916036  0.325731  0.146170  1
  O  O63  1  0.442677  0.119940  0.793286  1
