# generated using pymatgen
data_Sb(PO3)4
_symmetry_space_group_name_H-M   'P 1'
_cell_length_a   5.38504247
_cell_length_b   14.05847211
_cell_length_c   7.38693575
_cell_angle_alpha   90.00000000
_cell_angle_beta   99.19229199
_cell_angle_gamma   90.00000000
_symmetry_Int_Tables_number   1
_chemical_formula_structural   Sb(PO3)4
_chemical_formula_sum   'Sb2 P8 O24'
_cell_volume   552.04965653
_cell_formula_units_Z   2
loop_
 _symmetry_equiv_pos_site_id
 _symmetry_equiv_pos_as_xyz
  1  'x, y, z'
loop_
 _atom_site_type_symbol
 _atom_site_label
 _atom_site_symmetry_multiplicity
 _atom_site_fract_x
 _atom_site_fract_y
 _atom_site_fract_z
 _atom_site_occupancy
  Sb  Sb0  1  0.485999  0.737600  0.486582  1
  Sb  Sb1  1  0.514001  0.237600  0.513418  1
  P  P2  1  0.000384  0.881149  0.559769  1
  P  P3  1  0.027038  0.097827  0.564108  1
  P  P4  1  0.999616  0.381149  0.440231  1
  P  P5  1  0.120857  0.668807  0.083407  1
  P  P6  1  0.226361  0.320567  0.111827  1
  P  P7  1  0.972962  0.597827  0.435892  1
  P  P8  1  0.879143  0.168807  0.916593  1
  P  P9  1  0.773639  0.820567  0.888173  1
  O  O10  1  0.952729  0.763877  0.045627  1
  O  O11  1  0.203309  0.327291  0.566389  1
  O  O12  1  0.733474  0.366944  0.478565  1
  O  O13  1  0.621060  0.744128  0.765160  1
  O  O14  1  0.824979  0.159281  0.453161  1
  O  O15  1  0.012172  0.360738  0.232348  1
  O  O16  1  0.287531  0.108983  0.513084  1
  O  O17  1  0.266526  0.866944  0.521435  1
  O  O18  1  0.796691  0.827291  0.433611  1
  O  O19  1  0.367518  0.702823  0.202638  1
  O  O20  1  0.987828  0.860738  0.767652  1
  O  O21  1  0.047271  0.263877  0.954373  1
  O  O22  1  0.958249  0.613808  0.223480  1
  O  O23  1  0.632482  0.202823  0.797362  1
  O  O24  1  0.041751  0.113808  0.776520  1
  O  O25  1  0.137286  0.609964  0.923056  1
  O  O26  1  0.642150  0.897921  0.964368  1
  O  O27  1  0.175021  0.659281  0.546839  1
  O  O28  1  0.712469  0.608983  0.486916  1
  O  O29  1  0.862714  0.109964  0.076944  1
  O  O30  1  0.378940  0.244128  0.234840  1
  O  O31  1  0.933834  0.991289  0.529926  1
  O  O32  1  0.066166  0.491289  0.470074  1
  O  O33  1  0.357850  0.397921  0.035632  1
