# generated using pymatgen
data_K4Nb2Si8O23
_symmetry_space_group_name_H-M   'P 1'
_cell_length_a   6.88260861
_cell_length_b   7.96334511
_cell_length_c   11.16331189
_cell_angle_alpha   104.08304777
_cell_angle_beta   89.20216196
_cell_angle_gamma   107.92376488
_symmetry_Int_Tables_number   1
_chemical_formula_structural   K4Nb2Si8O23
_chemical_formula_sum   'K4 Nb2 Si8 O23'
_cell_volume   563.42027113
_cell_formula_units_Z   1
loop_
 _symmetry_equiv_pos_site_id
 _symmetry_equiv_pos_as_xyz
  1  'x, y, z'
loop_
 _atom_site_type_symbol
 _atom_site_label
 _atom_site_symmetry_multiplicity
 _atom_site_fract_x
 _atom_site_fract_y
 _atom_site_fract_z
 _atom_site_occupancy
  K  K0  1  0.277549  0.243681  0.481018  1
  K  K1  1  0.722451  0.756319  0.518982  1
  K  K2  1  0.332625  0.298704  0.147900  1
  K  K3  1  0.667375  0.701296  0.852100  1
  Nb  Nb4  1  0.784890  0.273035  0.310202  1
  Nb  Nb5  1  0.215110  0.726965  0.689798  1
  Si  Si6  1  0.969824  0.894297  0.212190  1
  Si  Si7  1  0.030176  0.105703  0.787810  1
  Si  Si8  1  0.173055  0.696123  0.375974  1
  Si  Si9  1  0.826945  0.303877  0.624026  1
  Si  Si10  1  0.513892  0.818089  0.214846  1
  Si  Si11  1  0.486108  0.181911  0.785154  1
  Si  Si12  1  0.169175  0.695952  0.004749  1
  Si  Si13  1  0.830825  0.304048  0.995251  1
  O  O14  1  0.374818  0.708558  0.084233  1
  O  O15  1  0.625182  0.291442  0.915767  1
  O  O16  1  0.405848  0.722360  0.324918  1
  O  O17  1  0.594152  0.277640  0.675082  1
  O  O18  1  0.726908  0.768552  0.189673  1
  O  O19  1  0.273092  0.231448  0.810327  1
  O  O20  1  0.547695  0.033677  0.254009  1
  O  O21  1  0.452305  0.966323  0.745991  1
  O  O22  1  0.050751  0.479381  0.338331  1
  O  O23  1  0.949249  0.520619  0.661669  1
  O  O24  1  0.002349  0.107626  0.260548  1
  O  O25  1  0.997651  0.892374  0.739452  1
  O  O26  1  0.614189  0.403593  0.363409  1
  O  O27  1  0.385811  0.596407  0.636591  1
  O  O28  1  0.074408  0.855491  0.077911  1
  O  O29  1  0.925592  0.144509  0.922089  1
  O  O30  1  0.769719  0.283061  0.130560  1
  O  O31  1  0.230281  0.716939  0.869440  1
  O  O32  1  0.000000  0.500000  0.000000  1
  O  O33  1  0.068914  0.815066  0.310835  1
  O  O34  1  0.931086  0.184934  0.689165  1
  O  O35  1  0.818263  0.217872  0.476488  1
  O  O36  1  0.181737  0.782128  0.523512  1
