# generated using pymatgen
data_NaNb2PO8
_symmetry_space_group_name_H-M   'P 1'
_cell_length_a   6.85178048
_cell_length_b   5.51119117
_cell_length_c   18.24685979
_cell_angle_alpha   90.00000000
_cell_angle_beta   90.23286541
_cell_angle_gamma   90.00000000
_symmetry_Int_Tables_number   1
_chemical_formula_structural   NaNb2PO8
_chemical_formula_sum   'Na4 Nb8 P4 O32'
_cell_volume   689.02259590
_cell_formula_units_Z   4
loop_
 _symmetry_equiv_pos_site_id
 _symmetry_equiv_pos_as_xyz
  1  'x, y, z'
loop_
 _atom_site_type_symbol
 _atom_site_label
 _atom_site_symmetry_multiplicity
 _atom_site_fract_x
 _atom_site_fract_y
 _atom_site_fract_z
 _atom_site_occupancy
  Na  Na0  1  0.288161  0.714107  0.284152  1
  Na  Na1  1  0.788915  0.249720  0.216607  1
  Na  Na2  1  0.211085  0.749720  0.783393  1
  Na  Na3  1  0.711839  0.214107  0.715848  1
  Nb  Nb4  1  0.489953  0.233754  0.372642  1
  Nb  Nb5  1  0.338785  0.747749  0.960991  1
  Nb  Nb6  1  0.164331  0.743538  0.460890  1
  Nb  Nb7  1  0.008759  0.240900  0.874010  1
  Nb  Nb8  1  0.835669  0.243538  0.539110  1
  Nb  Nb9  1  0.510047  0.733754  0.627358  1
  Nb  Nb10  1  0.991241  0.740900  0.125990  1
  Nb  Nb11  1  0.661215  0.247749  0.039009  1
  P  P12  1  0.691946  0.720977  0.814332  1
  P  P13  1  0.308054  0.220977  0.185668  1
  P  P14  1  0.809924  0.733343  0.312770  1
  P  P15  1  0.190076  0.233343  0.687230  1
  O  O16  1  0.992157  0.746490  0.362207  1
  O  O17  1  0.842097  0.235911  0.959919  1
  O  O18  1  0.657768  0.221805  0.459237  1
  O  O19  1  0.007843  0.246490  0.637793  1
  O  O20  1  0.787406  0.466138  0.818798  1
  O  O21  1  0.668490  0.469731  0.601953  1
  O  O22  1  0.522670  0.947026  0.007614  1
  O  O23  1  0.212594  0.966138  0.181202  1
  O  O24  1  0.315326  0.465237  0.682193  1
  O  O25  1  0.684674  0.965237  0.317807  1
  O  O26  1  0.883927  0.714974  0.232029  1
  O  O27  1  0.325080  0.478549  0.403936  1
  O  O28  1  0.331510  0.969731  0.398047  1
  O  O29  1  0.477330  0.447026  0.992386  1
  O  O30  1  0.376994  0.256834  0.266910  1
  O  O31  1  0.807841  0.507441  0.092426  1
  O  O32  1  0.162635  0.426309  0.169622  1
  O  O33  1  0.192159  0.007441  0.907574  1
  O  O34  1  0.847174  0.012977  0.104113  1
  O  O35  1  0.157903  0.735911  0.040081  1
  O  O36  1  0.507546  0.734961  0.862360  1
  O  O37  1  0.691394  0.499395  0.326337  1
  O  O38  1  0.152826  0.512977  0.895887  1
  O  O39  1  0.623006  0.756834  0.733090  1
  O  O40  1  0.016890  0.003135  0.501691  1
  O  O41  1  0.116073  0.214974  0.767971  1
  O  O42  1  0.308606  0.999395  0.673663  1
  O  O43  1  0.674920  0.978549  0.596064  1
  O  O44  1  0.983110  0.503135  0.498309  1
  O  O45  1  0.492454  0.234961  0.137640  1
  O  O46  1  0.342232  0.721805  0.540763  1
  O  O47  1  0.837365  0.926309  0.830378  1
