# generated using pymatgen
data_Eu2B5Os3
_symmetry_space_group_name_H-M   'P 1'
_cell_length_a   5.74519975
_cell_length_b   5.74519975
_cell_length_c   8.07615664
_cell_angle_alpha   57.56334424
_cell_angle_beta   122.43665576
_cell_angle_gamma   138.46614179
_symmetry_Int_Tables_number   1
_chemical_formula_structural   Eu2B5Os3
_chemical_formula_sum   'Eu2 B5 Os3'
_cell_volume   144.78114269
_cell_formula_units_Z   1
loop_
 _symmetry_equiv_pos_site_id
 _symmetry_equiv_pos_as_xyz
  1  'x, y, z'
loop_
 _atom_site_type_symbol
 _atom_site_label
 _atom_site_symmetry_multiplicity
 _atom_site_fract_x
 _atom_site_fract_y
 _atom_site_fract_z
 _atom_site_occupancy
  Eu  Eu0  1  0.383288  0.056578  0.764490  1
  Eu  Eu1  1  0.056578  0.383288  0.235510  1
  B  B2  1  0.725805  0.725805  0.500000  1
  B  B3  1  0.072365  0.363616  0.687565  1
  B  B4  1  0.524399  0.468310  0.120783  1
  B  B5  1  0.363616  0.072365  0.312435  1
  B  B6  1  0.468310  0.524399  0.879217  1
  Os  Os7  1  0.867475  0.600736  0.404501  1
  Os  Os8  1  0.002427  0.002427  0.000000  1
  Os  Os9  1  0.600736  0.867475  0.595499  1
