# generated using pymatgen
data_LiAuF4
_symmetry_space_group_name_H-M   'P 1'
_cell_length_a   4.98771244
_cell_length_b   6.64238828
_cell_length_c   10.15660260
_cell_angle_alpha   90.00000000
_cell_angle_beta   92.82623266
_cell_angle_gamma   90.00000000
_symmetry_Int_Tables_number   1
_chemical_formula_structural   LiAuF4
_chemical_formula_sum   'Li4 Au4 F16'
_cell_volume   336.08223531
_cell_formula_units_Z   4
loop_
 _symmetry_equiv_pos_site_id
 _symmetry_equiv_pos_as_xyz
  1  'x, y, z'
loop_
 _atom_site_type_symbol
 _atom_site_label
 _atom_site_symmetry_multiplicity
 _atom_site_fract_x
 _atom_site_fract_y
 _atom_site_fract_z
 _atom_site_occupancy
  Li  Li0  1  0.000000  0.416958  0.750000  1
  Li  Li1  1  0.500000  0.899594  0.250000  1
  Li  Li2  1  0.000000  0.583042  0.250000  1
  Li  Li3  1  0.500000  0.100406  0.750000  1
  Au  Au4  1  0.000000  0.000000  0.500000  1
  Au  Au5  1  0.000000  0.000000  0.000000  1
  Au  Au6  1  0.500000  0.500000  0.000000  1
  Au  Au7  1  0.500000  0.500000  0.500000  1
  F  F8  1  0.295625  0.918206  0.623932  1
  F  F9  1  0.704375  0.081794  0.376068  1
  F  F10  1  0.793489  0.593719  0.621430  1
  F  F11  1  0.295625  0.081794  0.123932  1
  F  F12  1  0.677794  0.641582  0.358045  1
  F  F13  1  0.822943  0.153617  0.637246  1
  F  F14  1  0.177057  0.846383  0.362754  1
  F  F15  1  0.822943  0.846383  0.137246  1
  F  F16  1  0.677794  0.358418  0.858045  1
  F  F17  1  0.177057  0.153617  0.862754  1
  F  F18  1  0.704375  0.918206  0.876068  1
  F  F19  1  0.206511  0.593719  0.878570  1
  F  F20  1  0.322206  0.641582  0.141955  1
  F  F21  1  0.322206  0.358418  0.641955  1
  F  F22  1  0.206511  0.406281  0.378570  1
  F  F23  1  0.793489  0.406281  0.121430  1
