# generated using pymatgen
data_AuS3(O3F)3
_symmetry_space_group_name_H-M   'P 1'
_cell_length_a   10.02400800
_cell_length_b   9.67534559
_cell_length_c   11.14127307
_cell_angle_alpha   90.00000000
_cell_angle_beta   94.13363531
_cell_angle_gamma   90.00000000
_symmetry_Int_Tables_number   1
_chemical_formula_structural   AuS3(O3F)3
_chemical_formula_sum   'Au4 S12 O36 F12'
_cell_volume   1077.73374459
_cell_formula_units_Z   4
loop_
 _symmetry_equiv_pos_site_id
 _symmetry_equiv_pos_as_xyz
  1  'x, y, z'
loop_
 _atom_site_type_symbol
 _atom_site_label
 _atom_site_symmetry_multiplicity
 _atom_site_fract_x
 _atom_site_fract_y
 _atom_site_fract_z
 _atom_site_occupancy
  Au  Au0  1  0.350657  0.996300  0.830127  1
  Au  Au1  1  0.649343  0.003700  0.169873  1
  Au  Au2  1  0.850657  0.503700  0.830127  1
  Au  Au3  1  0.149343  0.496300  0.169873  1
  S  S4  1  0.811211  0.379280  0.575122  1
  S  S5  1  0.851075  0.600833  0.109803  1
  S  S6  1  0.648925  0.100833  0.890197  1
  S  S7  1  0.552354  0.608290  0.808737  1
  S  S8  1  0.311211  0.120720  0.575122  1
  S  S9  1  0.447646  0.391710  0.191263  1
  S  S10  1  0.351075  0.899167  0.109803  1
  S  S11  1  0.688789  0.879280  0.424878  1
  S  S12  1  0.188789  0.620720  0.424878  1
  S  S13  1  0.148925  0.399167  0.890197  1
  S  S14  1  0.052354  0.891710  0.808737  1
  S  S15  1  0.947646  0.108290  0.191263  1
  O  O16  1  0.845868  0.488709  0.017206  1
  O  O17  1  0.142408  0.490249  0.350719  1
  O  O18  1  0.202251  0.853043  0.816723  1
  O  O19  1  0.210299  0.575957  0.546764  1
  O  O20  1  0.654132  0.988709  0.982794  1
  O  O21  1  0.973995  0.973551  0.146863  1
  O  O22  1  0.016813  0.227980  0.152026  1
  O  O23  1  0.783724  0.798914  0.365603  1
  O  O24  1  0.992045  0.637075  0.152859  1
  O  O25  1  0.789701  0.424043  0.453236  1
  O  O26  1  0.516813  0.272020  0.152026  1
  O  O27  1  0.357592  0.990249  0.649281  1
  O  O28  1  0.507955  0.137075  0.847141  1
  O  O29  1  0.345868  0.011291  0.017206  1
  O  O30  1  0.473995  0.526449  0.146863  1
  O  O31  1  0.289701  0.075957  0.453236  1
  O  O32  1  0.283724  0.701086  0.365603  1
  O  O33  1  0.729917  0.219297  0.912687  1
  O  O34  1  0.492045  0.862925  0.152859  1
  O  O35  1  0.770083  0.719297  0.087313  1
  O  O36  1  0.216276  0.201086  0.634397  1
  O  O37  1  0.007955  0.362925  0.847141  1
  O  O38  1  0.270083  0.780703  0.087313  1
  O  O39  1  0.983187  0.772020  0.847974  1
  O  O40  1  0.797749  0.146957  0.183277  1
  O  O41  1  0.710299  0.924043  0.546764  1
  O  O42  1  0.702251  0.646957  0.816723  1
  O  O43  1  0.154132  0.511291  0.982794  1
  O  O44  1  0.026005  0.026449  0.853137  1
  O  O45  1  0.526005  0.473551  0.853137  1
  O  O46  1  0.716276  0.298914  0.634397  1
  O  O47  1  0.642408  0.009751  0.350719  1
  O  O48  1  0.229917  0.280703  0.912687  1
  O  O49  1  0.483187  0.727980  0.847974  1
  O  O50  1  0.857592  0.509751  0.649281  1
  O  O51  1  0.297749  0.353043  0.183277  1
  F  F52  1  0.020858  0.897805  0.666853  1
  F  F53  1  0.445277  0.208892  0.581809  1
  F  F54  1  0.554723  0.791108  0.418191  1
  F  F55  1  0.945277  0.291108  0.581809  1
  F  F56  1  0.798729  0.517130  0.216806  1
  F  F57  1  0.979142  0.102195  0.333147  1
  F  F58  1  0.054723  0.708892  0.418191  1
  F  F59  1  0.298729  0.982870  0.216806  1
  F  F60  1  0.479142  0.397805  0.333147  1
  F  F61  1  0.201271  0.482870  0.783194  1
  F  F62  1  0.520858  0.602195  0.666853  1
  F  F63  1  0.701271  0.017130  0.783194  1
