# generated using pymatgen
data_TlCl
_symmetry_space_group_name_H-M   'P 1'
_cell_length_a   6.58535292
_cell_length_b   6.58535292
_cell_length_c   4.81795046
_cell_angle_alpha   90.00000000
_cell_angle_beta   90.00000000
_cell_angle_gamma   141.27156023
_symmetry_Int_Tables_number   1
_chemical_formula_structural   TlCl
_chemical_formula_sum   'Tl2 Cl2'
_cell_volume   130.71877733
_cell_formula_units_Z   2
loop_
 _symmetry_equiv_pos_site_id
 _symmetry_equiv_pos_as_xyz
  1  'x, y, z'
loop_
 _atom_site_type_symbol
 _atom_site_label
 _atom_site_symmetry_multiplicity
 _atom_site_fract_x
 _atom_site_fract_y
 _atom_site_fract_z
 _atom_site_occupancy
  Tl  Tl0  1  0.380476  0.619524  0.750000  1
  Tl  Tl1  1  0.619524  0.380476  0.250000  1
  Cl  Cl2  1  0.861464  0.138536  0.250000  1
  Cl  Cl3  1  0.138536  0.861464  0.750000  1
