# generated using pymatgen
data_Cs2Mo15S19
_symmetry_space_group_name_H-M   'P 1'
_cell_length_a   19.80083313
_cell_length_b   19.80083313
_cell_length_c   19.80083313
_cell_angle_alpha   27.88622630
_cell_angle_beta   27.88622630
_cell_angle_gamma   27.88622630
_symmetry_Int_Tables_number   1
_chemical_formula_structural   Cs2Mo15S19
_chemical_formula_sum   'Cs4 Mo30 S38'
_cell_volume   1499.78313311
_cell_formula_units_Z   2
loop_
 _symmetry_equiv_pos_site_id
 _symmetry_equiv_pos_as_xyz
  1  'x, y, z'
loop_
 _atom_site_type_symbol
 _atom_site_label
 _atom_site_symmetry_multiplicity
 _atom_site_fract_x
 _atom_site_fract_y
 _atom_site_fract_z
 _atom_site_occupancy
  Cs  Cs0  1  0.113437  0.113437  0.113437  1
  Cs  Cs1  1  0.386563  0.386563  0.386563  1
  Cs  Cs2  1  0.613437  0.613437  0.613437  1
  Cs  Cs3  1  0.886563  0.886563  0.886563  1
  Mo  Mo4  1  0.716987  0.869952  0.541072  1
  Mo  Mo5  1  0.502654  0.693464  0.365836  1
  Mo  Mo6  1  0.497346  0.306536  0.634164  1
  Mo  Mo7  1  0.216987  0.041072  0.369952  1
  Mo  Mo8  1  0.541072  0.716987  0.869952  1
  Mo  Mo9  1  0.283013  0.130048  0.458928  1
  Mo  Mo10  1  0.086471  0.250000  0.413529  1
  Mo  Mo11  1  0.134164  0.806536  0.997346  1
  Mo  Mo12  1  0.250000  0.413529  0.086471  1
  Mo  Mo13  1  0.958928  0.630048  0.783013  1
  Mo  Mo14  1  0.586471  0.913529  0.750000  1
  Mo  Mo15  1  0.306536  0.634164  0.497346  1
  Mo  Mo16  1  0.783013  0.958928  0.630048  1
  Mo  Mo17  1  0.365836  0.502654  0.693464  1
  Mo  Mo18  1  0.041072  0.369952  0.216987  1
  Mo  Mo19  1  0.413529  0.086471  0.250000  1
  Mo  Mo20  1  0.634164  0.497346  0.306536  1
  Mo  Mo21  1  0.369952  0.216987  0.041072  1
  Mo  Mo22  1  0.869952  0.541072  0.716987  1
  Mo  Mo23  1  0.002654  0.865836  0.193464  1
  Mo  Mo24  1  0.913529  0.750000  0.586471  1
  Mo  Mo25  1  0.130048  0.458928  0.283013  1
  Mo  Mo26  1  0.693464  0.365836  0.502654  1
  Mo  Mo27  1  0.193464  0.002654  0.865836  1
  Mo  Mo28  1  0.806536  0.997346  0.134164  1
  Mo  Mo29  1  0.750000  0.586471  0.913529  1
  Mo  Mo30  1  0.865836  0.193464  0.002654  1
  Mo  Mo31  1  0.997346  0.134164  0.806536  1
  Mo  Mo32  1  0.630048  0.783013  0.958928  1
  Mo  Mo33  1  0.458928  0.283013  0.130048  1
  S  S34  1  0.250000  0.950922  0.549078  1
  S  S35  1  0.071641  0.800673  0.485801  1
  S  S36  1  0.985801  0.300673  0.571641  1
  S  S37  1  0.704729  0.048501  0.295898  1
  S  S38  1  0.548501  0.204729  0.795898  1
  S  S39  1  0.800673  0.485801  0.071641  1
  S  S40  1  0.177023  0.177023  0.177023  1
  S  S41  1  0.795898  0.548501  0.204729  1
  S  S42  1  0.450922  0.750000  0.049078  1
  S  S43  1  0.571641  0.985801  0.300673  1
  S  S44  1  0.750000  0.049078  0.450922  1
  S  S45  1  0.699327  0.428359  0.014199  1
  S  S46  1  0.677023  0.677023  0.677023  1
  S  S47  1  0.052964  0.052964  0.052964  1
  S  S48  1  0.552964  0.552964  0.552964  1
  S  S49  1  0.204102  0.451499  0.795271  1
  S  S50  1  0.014199  0.699327  0.428359  1
  S  S51  1  0.485801  0.071641  0.800673  1
  S  S52  1  0.704102  0.295271  0.951499  1
  S  S53  1  0.951499  0.704102  0.295271  1
  S  S54  1  0.947036  0.947036  0.947036  1
  S  S55  1  0.447036  0.447036  0.447036  1
  S  S56  1  0.549078  0.250000  0.950922  1
  S  S57  1  0.295898  0.704729  0.048501  1
  S  S58  1  0.451499  0.795271  0.204102  1
  S  S59  1  0.928359  0.199327  0.514199  1
  S  S60  1  0.514199  0.928359  0.199327  1
  S  S61  1  0.295271  0.951499  0.704102  1
  S  S62  1  0.950922  0.549078  0.250000  1
  S  S63  1  0.199327  0.514199  0.928359  1
  S  S64  1  0.822977  0.822977  0.822977  1
  S  S65  1  0.795271  0.204102  0.451499  1
  S  S66  1  0.428359  0.014199  0.699327  1
  S  S67  1  0.322977  0.322977  0.322977  1
  S  S68  1  0.300673  0.571641  0.985801  1
  S  S69  1  0.204729  0.795898  0.548501  1
  S  S70  1  0.049078  0.450922  0.750000  1
  S  S71  1  0.048501  0.295898  0.704729  1
