# generated using pymatgen
data_TbCu(WO4)2
_symmetry_space_group_name_H-M   'P 1'
_cell_length_a   7.11871143
_cell_length_b   7.36020909
_cell_length_c   7.42404745
_cell_angle_alpha   113.84885514
_cell_angle_beta   116.01769016
_cell_angle_gamma   90.95979017
_symmetry_Int_Tables_number   1
_chemical_formula_structural   TbCu(WO4)2
_chemical_formula_sum   'Tb2 Cu2 W4 O16'
_cell_volume   310.67324715
_cell_formula_units_Z   2
loop_
 _symmetry_equiv_pos_site_id
 _symmetry_equiv_pos_as_xyz
  1  'x, y, z'
loop_
 _atom_site_type_symbol
 _atom_site_label
 _atom_site_symmetry_multiplicity
 _atom_site_fract_x
 _atom_site_fract_y
 _atom_site_fract_z
 _atom_site_occupancy
  Tb  Tb0  1  0.180271  0.285504  0.454505  1
  Tb  Tb1  1  0.819729  0.714496  0.545495  1
  Cu  Cu2  1  0.729030  0.317210  0.937453  1
  Cu  Cu3  1  0.270970  0.682790  0.062547  1
  W  W4  1  0.252813  0.293097  0.019858  1
  W  W5  1  0.747187  0.706903  0.980142  1
  W  W6  1  0.650446  0.111415  0.293739  1
  W  W7  1  0.349554  0.888585  0.706261  1
  O  O8  1  0.549627  0.454384  0.757437  1
  O  O9  1  0.450373  0.545616  0.242563  1
  O  O10  1  0.028729  0.306030  0.083785  1
  O  O11  1  0.971271  0.693970  0.916215  1
  O  O12  1  0.171789  0.329796  0.769298  1
  O  O13  1  0.828211  0.670204  0.230702  1
  O  O14  1  0.820418  0.372327  0.447655  1
  O  O15  1  0.179582  0.627673  0.552345  1
  O  O16  1  0.617561  0.814896  0.735039  1
  O  O17  1  0.382439  0.185104  0.264961  1
  O  O18  1  0.482545  0.828867  0.013274  1
  O  O19  1  0.517455  0.171133  0.986726  1
  O  O20  1  0.712600  0.014394  0.494473  1
  O  O21  1  0.868320  0.019609  0.202355  1
  O  O22  1  0.287400  0.985606  0.505527  1
  O  O23  1  0.131680  0.980391  0.797645  1
