# generated using pymatgen
data_Yb5Ag3
_symmetry_space_group_name_H-M   'P 1'
_cell_length_a   9.24356911
_cell_length_b   9.24356911
_cell_length_c   9.24356911
_cell_angle_alpha   129.42471496
_cell_angle_beta   129.42471496
_cell_angle_gamma   74.32814263
_symmetry_Int_Tables_number   1
_chemical_formula_structural   Yb5Ag3
_chemical_formula_sum   'Yb10 Ag6'
_cell_volume   459.38278476
_cell_formula_units_Z   2
loop_
 _symmetry_equiv_pos_site_id
 _symmetry_equiv_pos_as_xyz
  1  'x, y, z'
loop_
 _atom_site_type_symbol
 _atom_site_label
 _atom_site_symmetry_multiplicity
 _atom_site_fract_x
 _atom_site_fract_y
 _atom_site_fract_z
 _atom_site_occupancy
  Yb  Yb0  1  0.312162  0.477488  0.500000  1
  Yb  Yb1  1  0.187838  0.687838  0.165325  1
  Yb  Yb2  1  0.022512  0.187838  0.500000  1
  Yb  Yb3  1  0.522512  0.022512  0.834675  1
  Yb  Yb4  1  0.500000  0.500000  0.000000  1
  Yb  Yb5  1  0.977488  0.812162  0.500000  1
  Yb  Yb6  1  0.812162  0.312162  0.834675  1
  Yb  Yb7  1  0.687838  0.522512  0.500000  1
  Yb  Yb8  1  0.477488  0.977488  0.165325  1
  Yb  Yb9  1  0.000000  0.000000  0.000000  1
  Ag  Ag10  1  0.629463  0.870537  0.500000  1
  Ag  Ag11  1  0.750000  0.750000  0.000000  1
  Ag  Ag12  1  0.370537  0.129463  0.500000  1
  Ag  Ag13  1  0.250000  0.250000  0.000000  1
  Ag  Ag14  1  0.129463  0.629463  0.758926  1
  Ag  Ag15  1  0.870537  0.370537  0.241074  1
