# generated using pymatgen
data_K2Zn2Si8O19
_symmetry_space_group_name_H-M   'P 1'
_cell_length_a   7.45424109
_cell_length_b   7.45424109
_cell_length_c   12.57837806
_cell_angle_alpha   73.87323621
_cell_angle_beta   106.12676379
_cell_angle_gamma   139.46365612
_symmetry_Int_Tables_number   1
_chemical_formula_structural   K2Zn2Si8O19
_chemical_formula_sum   'K2 Zn2 Si8 O19'
_cell_volume   433.88375158
_cell_formula_units_Z   1
loop_
 _symmetry_equiv_pos_site_id
 _symmetry_equiv_pos_as_xyz
  1  'x, y, z'
loop_
 _atom_site_type_symbol
 _atom_site_label
 _atom_site_symmetry_multiplicity
 _atom_site_fract_x
 _atom_site_fract_y
 _atom_site_fract_z
 _atom_site_occupancy
  K  K0  1  0.590779  0.344697  0.648697  1
  K  K1  1  0.344697  0.590779  0.351303  1
  Zn  Zn2  1  0.703261  0.304189  0.411305  1
  Zn  Zn3  1  0.304189  0.703261  0.588695  1
  Si  Si4  1  0.142006  0.146698  0.832657  1
  Si  Si5  1  0.922944  0.068939  0.575371  1
  Si  Si6  1  0.780728  0.528895  0.926723  1
  Si  Si7  1  0.068939  0.922944  0.424629  1
  Si  Si8  1  0.612608  0.204637  0.159481  1
  Si  Si9  1  0.146698  0.142006  0.167343  1
  Si  Si10  1  0.528895  0.780728  0.073277  1
  Si  Si11  1  0.204637  0.612608  0.840519  1
  O  O12  1  0.803267  0.453578  0.060425  1
  O  O13  1  0.453578  0.803267  0.939575  1
  O  O14  1  0.095432  0.122170  0.700893  1
  O  O15  1  0.288741  0.777933  0.718922  1
  O  O16  1  0.122170  0.095432  0.299107  1
  O  O17  1  0.094179  0.094179  0.500000  1
  O  O18  1  0.109240  0.323946  0.854554  1
  O  O19  1  0.456989  0.301327  0.874059  1
  O  O20  1  0.919307  0.838693  0.899387  1
  O  O21  1  0.301327  0.456989  0.125941  1
  O  O22  1  0.602744  0.768700  0.571572  1
  O  O23  1  0.929560  0.511780  0.863439  1
  O  O24  1  0.964901  0.327431  0.533518  1
  O  O25  1  0.323946  0.109240  0.145446  1
  O  O26  1  0.838693  0.919307  0.100613  1
  O  O27  1  0.768700  0.602744  0.428428  1
  O  O28  1  0.777933  0.288741  0.281078  1
  O  O29  1  0.327431  0.964901  0.466482  1
  O  O30  1  0.511780  0.929560  0.136561  1
