# generated using pymatgen
data_UTl2(TeO4)2
_symmetry_space_group_name_H-M   'P 1'
_cell_length_a   5.53682167
_cell_length_b   8.50609036
_cell_length_c   21.95071541
_cell_angle_alpha   90.00000000
_cell_angle_beta   102.72304969
_cell_angle_gamma   90.00000000
_symmetry_Int_Tables_number   1
_chemical_formula_structural   UTl2(TeO4)2
_chemical_formula_sum   'U4 Tl8 Te8 O32'
_cell_volume   1008.42231838
_cell_formula_units_Z   4
loop_
 _symmetry_equiv_pos_site_id
 _symmetry_equiv_pos_as_xyz
  1  'x, y, z'
loop_
 _atom_site_type_symbol
 _atom_site_label
 _atom_site_symmetry_multiplicity
 _atom_site_fract_x
 _atom_site_fract_y
 _atom_site_fract_z
 _atom_site_occupancy
  U  U0  1  0.903112  0.174763  0.642555  1
  U  U1  1  0.096888  0.825237  0.357445  1
  U  U2  1  0.903112  0.325237  0.142555  1
  U  U3  1  0.096888  0.674763  0.857445  1
  Tl  Tl4  1  0.707279  0.113490  0.450337  1
  Tl  Tl5  1  0.083294  0.165159  0.852752  1
  Tl  Tl6  1  0.916706  0.665159  0.647248  1
  Tl  Tl7  1  0.292721  0.613490  0.049663  1
  Tl  Tl8  1  0.707279  0.386510  0.950337  1
  Tl  Tl9  1  0.916706  0.834841  0.147248  1
  Tl  Tl10  1  0.083294  0.334841  0.352752  1
  Tl  Tl11  1  0.292721  0.886510  0.549663  1
  Te  Te12  1  0.511887  0.077271  0.269557  1
  Te  Te13  1  0.324909  0.082959  0.052656  1
  Te  Te14  1  0.488113  0.922729  0.730443  1
  Te  Te15  1  0.324909  0.417041  0.552656  1
  Te  Te16  1  0.511887  0.422729  0.769557  1
  Te  Te17  1  0.675091  0.917041  0.947344  1
  Te  Te18  1  0.488113  0.577271  0.230443  1
  Te  Te19  1  0.675091  0.582959  0.447344  1
  O  O20  1  0.727614  0.036186  0.582313  1
  O  O21  1  0.319141  0.904464  0.289192  1
  O  O22  1  0.680859  0.095536  0.710808  1
  O  O23  1  0.827070  0.488304  0.821270  1
  O  O24  1  0.606816  0.841422  0.021963  1
  O  O25  1  0.375420  0.868642  0.888744  1
  O  O26  1  0.680859  0.404464  0.210808  1
  O  O27  1  0.922867  0.680627  0.299790  1
  O  O28  1  0.172930  0.511696  0.178730  1
  O  O29  1  0.077133  0.180627  0.200210  1
  O  O30  1  0.121359  0.253565  0.070323  1
  O  O31  1  0.727614  0.463814  0.082313  1
  O  O32  1  0.077133  0.319373  0.700210  1
  O  O33  1  0.465041  0.230314  0.326960  1
  O  O34  1  0.393184  0.158578  0.978037  1
  O  O35  1  0.878641  0.753565  0.429677  1
  O  O36  1  0.606816  0.658578  0.521963  1
  O  O37  1  0.272386  0.536186  0.917687  1
  O  O38  1  0.319141  0.595536  0.789192  1
  O  O39  1  0.624580  0.131358  0.111256  1
  O  O40  1  0.878641  0.746435  0.929677  1
  O  O41  1  0.172930  0.988304  0.678730  1
  O  O42  1  0.922867  0.819373  0.799790  1
  O  O43  1  0.393184  0.341422  0.478037  1
  O  O44  1  0.465041  0.269686  0.826960  1
  O  O45  1  0.827070  0.011696  0.321270  1
  O  O46  1  0.534959  0.730314  0.173040  1
  O  O47  1  0.624580  0.368642  0.611256  1
  O  O48  1  0.121359  0.246435  0.570323  1
  O  O49  1  0.534959  0.769686  0.673040  1
  O  O50  1  0.272386  0.963814  0.417687  1
  O  O51  1  0.375420  0.631358  0.388744  1
