# generated using pymatgen
data_Cd2GeAs4
_symmetry_space_group_name_H-M   'P 1'
_cell_length_a   7.37476901
_cell_length_b   7.55532497
_cell_length_c   12.93373317
_cell_angle_alpha   90.00000000
_cell_angle_beta   90.00000000
_cell_angle_gamma   90.00000000
_symmetry_Int_Tables_number   1
_chemical_formula_structural   Cd2GeAs4
_chemical_formula_sum   'Cd8 Ge4 As16'
_cell_volume   720.65178715
_cell_formula_units_Z   4
loop_
 _symmetry_equiv_pos_site_id
 _symmetry_equiv_pos_as_xyz
  1  'x, y, z'
loop_
 _atom_site_type_symbol
 _atom_site_label
 _atom_site_symmetry_multiplicity
 _atom_site_fract_x
 _atom_site_fract_y
 _atom_site_fract_z
 _atom_site_occupancy
  Cd  Cd0  1  0.594171  0.976289  0.869576  1
  Cd  Cd1  1  0.094171  0.523711  0.630424  1
  Cd  Cd2  1  0.405829  0.476289  0.130424  1
  Cd  Cd3  1  0.905829  0.023711  0.369576  1
  Cd  Cd4  1  0.094171  0.976289  0.630424  1
  Cd  Cd5  1  0.594171  0.523711  0.869576  1
  Cd  Cd6  1  0.905829  0.476289  0.369576  1
  Cd  Cd7  1  0.405829  0.023711  0.130424  1
  Ge  Ge8  1  0.918070  0.750000  0.081100  1
  Ge  Ge9  1  0.418070  0.750000  0.418900  1
  Ge  Ge10  1  0.081930  0.250000  0.918900  1
  Ge  Ge11  1  0.581930  0.250000  0.581100  1
  As  As12  1  0.408413  0.250000  0.961433  1
  As  As13  1  0.456036  0.512021  0.674586  1
  As  As14  1  0.043964  0.487979  0.174586  1
  As  As15  1  0.543964  0.012021  0.325414  1
  As  As16  1  0.908413  0.250000  0.538567  1
  As  As17  1  0.612324  0.750000  0.577548  1
  As  As18  1  0.091587  0.750000  0.461433  1
  As  As19  1  0.591587  0.750000  0.038567  1
  As  As20  1  0.387676  0.250000  0.422452  1
  As  As21  1  0.887676  0.250000  0.077548  1
  As  As22  1  0.043964  0.012021  0.174586  1
  As  As23  1  0.112324  0.750000  0.922452  1
  As  As24  1  0.456036  0.987979  0.674586  1
  As  As25  1  0.543964  0.487979  0.325414  1
  As  As26  1  0.956036  0.512021  0.825414  1
  As  As27  1  0.956036  0.987979  0.825414  1
