# generated using pymatgen
data_Ti6O11
_symmetry_space_group_name_H-M   'P 1'
_cell_length_a   5.34422947
_cell_length_b   5.34422947
_cell_length_c   21.22273243
_cell_angle_alpha   86.65826057
_cell_angle_beta   93.34173943
_cell_angle_gamma   138.79413747
_symmetry_Int_Tables_number   1
_chemical_formula_structural   Ti6O11
_chemical_formula_sum   'Ti12 O22'
_cell_volume   398.52834106
_cell_formula_units_Z   2
loop_
 _symmetry_equiv_pos_site_id
 _symmetry_equiv_pos_as_xyz
  1  'x, y, z'
loop_
 _atom_site_type_symbol
 _atom_site_label
 _atom_site_symmetry_multiplicity
 _atom_site_fract_x
 _atom_site_fract_y
 _atom_site_fract_z
 _atom_site_occupancy
  Ti  Ti0  1  0.030364  0.969636  0.646376  1
  Ti  Ti1  1  0.862483  0.137517  0.523858  1
  Ti  Ti2  1  0.137517  0.862483  0.476142  1
  Ti  Ti3  1  0.789855  0.210145  0.885671  1
  Ti  Ti4  1  0.900745  0.099255  0.207501  1
  Ti  Ti5  1  0.931751  0.068249  0.060140  1
  Ti  Ti6  1  0.068249  0.931751  0.939860  1
  Ti  Ti7  1  0.969636  0.030364  0.353624  1
  Ti  Ti8  1  0.210145  0.789855  0.114329  1
  Ti  Ti9  1  0.099255  0.900745  0.792499  1
  Ti  Ti10  1  0.765508  0.234492  0.699101  1
  Ti  Ti11  1  0.234492  0.765508  0.300899  1
  O  O12  1  0.329930  0.670070  0.206174  1
  O  O13  1  0.761139  0.238861  0.122925  1
  O  O14  1  0.577023  0.422977  0.655273  1
  O  O15  1  0.614266  0.385734  0.932969  1
  O  O16  1  0.385734  0.614266  0.067031  1
  O  O17  1  0.158772  0.841228  0.381097  1
  O  O18  1  0.670070  0.329930  0.793826  1
  O  O19  1  0.114134  0.885866  0.033000  1
  O  O20  1  0.841228  0.158772  0.618903  1
  O  O21  1  0.885866  0.114134  0.967000  1
  O  O22  1  0.216501  0.783499  0.709011  1
  O  O23  1  0.676644  0.323356  0.480602  1
  O  O24  1  0.783499  0.216501  0.290989  1
  O  O25  1  0.050452  0.949548  0.556389  1
  O  O26  1  0.238861  0.761139  0.877075  1
  O  O27  1  0.052082  0.947918  0.267312  1
  O  O28  1  0.947918  0.052082  0.732688  1
  O  O29  1  0.323356  0.676644  0.519398  1
  O  O30  1  0.949548  0.050452  0.443611  1
  O  O31  1  0.034666  0.965334  0.146096  1
  O  O32  1  0.422977  0.577023  0.344727  1
  O  O33  1  0.965334  0.034666  0.853904  1
