# generated using pymatgen
data_Sr21(Cd2Bi9)2
_symmetry_space_group_name_H-M   'P 1'
_cell_length_a   13.02176383
_cell_length_b   13.02176383
_cell_length_c   18.48110460
_cell_angle_alpha   88.58583179
_cell_angle_beta   91.41416821
_cell_angle_gamma   92.49579000
_symmetry_Int_Tables_number   1
_chemical_formula_structural   Sr21(Cd2Bi9)2
_chemical_formula_sum   'Sr42 Cd8 Bi36'
_cell_volume   3128.97267330
_cell_formula_units_Z   2
loop_
 _symmetry_equiv_pos_site_id
 _symmetry_equiv_pos_as_xyz
  1  'x, y, z'
loop_
 _atom_site_type_symbol
 _atom_site_label
 _atom_site_symmetry_multiplicity
 _atom_site_fract_x
 _atom_site_fract_y
 _atom_site_fract_z
 _atom_site_occupancy
  Sr  Sr0  1  0.741282  0.597023  0.843691  1
  Sr  Sr1  1  0.003079  0.739961  0.938592  1
  Sr  Sr2  1  0.007989  0.230612  0.424136  1
  Sr  Sr3  1  0.578875  0.072065  0.242337  1
  Sr  Sr4  1  0.758525  0.929592  0.648759  1
  Sr  Sr5  1  0.428458  0.320878  0.618362  1
  Sr  Sr6  1  0.929592  0.758525  0.351241  1
  Sr  Sr7  1  0.593476  0.406524  0.254144  1
  Sr  Sr8  1  0.230612  0.007989  0.575864  1
  Sr  Sr9  1  0.504960  0.818894  0.564590  1
  Sr  Sr10  1  0.181106  0.495040  0.564590  1
  Sr  Sr11  1  0.739961  0.003079  0.061408  1
  Sr  Sr12  1  0.421125  0.927935  0.757663  1
  Sr  Sr13  1  0.250517  0.075891  0.145586  1
  Sr  Sr14  1  0.491071  0.254819  0.055947  1
  Sr  Sr15  1  0.402977  0.258718  0.843691  1
  Sr  Sr16  1  0.495040  0.181106  0.435410  1
  Sr  Sr17  1  0.992011  0.769388  0.575864  1
  Sr  Sr18  1  0.924109  0.749483  0.145586  1
  Sr  Sr19  1  0.241475  0.070408  0.351241  1
  Sr  Sr20  1  0.508929  0.745181  0.944053  1
  Sr  Sr21  1  0.254346  0.745654  0.417739  1
  Sr  Sr22  1  0.070408  0.241475  0.648759  1
  Sr  Sr23  1  0.597023  0.741282  0.156309  1
  Sr  Sr24  1  0.745654  0.254346  0.582261  1
  Sr  Sr25  1  0.769388  0.992011  0.424136  1
  Sr  Sr26  1  0.736106  0.263894  0.905943  1
  Sr  Sr27  1  0.254819  0.491071  0.944053  1
  Sr  Sr28  1  0.260039  0.996921  0.938592  1
  Sr  Sr29  1  0.263894  0.736106  0.094057  1
  Sr  Sr30  1  0.406524  0.593476  0.745856  1
  Sr  Sr31  1  0.927935  0.421125  0.242337  1
  Sr  Sr32  1  0.075891  0.250517  0.854414  1
  Sr  Sr33  1  0.679122  0.571542  0.618362  1
  Sr  Sr34  1  0.745181  0.508929  0.055947  1
  Sr  Sr35  1  0.749483  0.924109  0.854414  1
  Sr  Sr36  1  0.320878  0.428458  0.381638  1
  Sr  Sr37  1  0.818894  0.504960  0.435410  1
  Sr  Sr38  1  0.571542  0.679122  0.381638  1
  Sr  Sr39  1  0.258718  0.402977  0.156309  1
  Sr  Sr40  1  0.072065  0.578875  0.757663  1
  Sr  Sr41  1  0.996921  0.260039  0.061408  1
  Cd  Cd42  1  0.610105  0.143007  0.753220  1
  Cd  Cd43  1  0.997827  0.002173  0.209369  1
  Cd  Cd44  1  0.844960  0.155040  0.246786  1
  Cd  Cd45  1  0.002173  0.997827  0.790631  1
  Cd  Cd46  1  0.856993  0.389895  0.753220  1
  Cd  Cd47  1  0.389895  0.856993  0.246780  1
  Cd  Cd48  1  0.155040  0.844960  0.753214  1
  Cd  Cd49  1  0.143007  0.610105  0.246780  1
  Bi  Bi50  1  0.618003  0.381997  0.743804  1
  Bi  Bi51  1  0.760825  0.603358  0.256334  1
  Bi  Bi52  1  0.939615  0.060385  0.940703  1
  Bi  Bi53  1  0.396642  0.239175  0.256334  1
  Bi  Bi54  1  0.739433  0.260567  0.116682  1
  Bi  Bi55  1  0.755786  0.755786  0.000000  1
  Bi  Bi56  1  0.943545  0.457525  0.907349  1
  Bi  Bi57  1  0.748548  0.251452  0.376193  1
  Bi  Bi58  1  0.049252  0.950748  0.434469  1
  Bi  Bi59  1  0.782710  0.920613  0.243401  1
  Bi  Bi60  1  0.463482  0.536518  0.076399  1
  Bi  Bi61  1  0.152827  0.847173  0.253082  1
  Bi  Bi62  1  0.244943  0.244943  0.500000  1
  Bi  Bi63  1  0.920613  0.782710  0.756599  1
  Bi  Bi64  1  0.251452  0.748548  0.623807  1
  Bi  Bi65  1  0.847173  0.152827  0.746918  1
  Bi  Bi66  1  0.532815  0.071695  0.607188  1
  Bi  Bi67  1  0.381997  0.618003  0.256196  1
  Bi  Bi68  1  0.603358  0.760825  0.743666  1
  Bi  Bi69  1  0.239175  0.396642  0.743666  1
  Bi  Bi70  1  0.060385  0.939615  0.059297  1
  Bi  Bi71  1  0.056455  0.542475  0.092651  1
  Bi  Bi72  1  0.536518  0.463482  0.923601  1
  Bi  Bi73  1  0.071695  0.532815  0.392812  1
  Bi  Bi74  1  0.260567  0.739433  0.883318  1
  Bi  Bi75  1  0.574702  0.425298  0.464362  1
  Bi  Bi76  1  0.928305  0.467185  0.607188  1
  Bi  Bi77  1  0.457525  0.943545  0.092651  1
  Bi  Bi78  1  0.755057  0.755057  0.500000  1
  Bi  Bi79  1  0.244214  0.244214  0.000000  1
  Bi  Bi80  1  0.542475  0.056455  0.907349  1
  Bi  Bi81  1  0.217290  0.079387  0.756599  1
  Bi  Bi82  1  0.425298  0.574702  0.535638  1
  Bi  Bi83  1  0.467185  0.928305  0.392812  1
  Bi  Bi84  1  0.079387  0.217290  0.243401  1
  Bi  Bi85  1  0.950748  0.049252  0.565531  1
