# generated using pymatgen
data_SmH18(IO3)3
_symmetry_space_group_name_H-M   'P 1'
_cell_length_a   8.07613286
_cell_length_b   8.97714341
_cell_length_c   11.59979384
_cell_angle_alpha   90.00000000
_cell_angle_beta   90.00000000
_cell_angle_gamma   90.00000000
_symmetry_Int_Tables_number   1
_chemical_formula_structural   SmH18(IO3)3
_chemical_formula_sum   'Sm2 H36 I6 O18'
_cell_volume   840.99204671
_cell_formula_units_Z   2
loop_
 _symmetry_equiv_pos_site_id
 _symmetry_equiv_pos_as_xyz
  1  'x, y, z'
loop_
 _atom_site_type_symbol
 _atom_site_label
 _atom_site_symmetry_multiplicity
 _atom_site_fract_x
 _atom_site_fract_y
 _atom_site_fract_z
 _atom_site_occupancy
  Sm  Sm0  1  0.500000  0.335881  0.000000  1
  Sm  Sm1  1  0.000000  0.664119  0.500000  1
  H  H2  1  0.214777  0.519341  0.100294  1
  H  H3  1  0.714777  0.480659  0.399706  1
  H  H4  1  0.785223  0.519341  0.899706  1
  H  H5  1  0.285223  0.480659  0.600294  1
  H  H6  1  0.285223  0.480659  0.399706  1
  H  H7  1  0.785223  0.519341  0.100294  1
  H  H8  1  0.714777  0.480659  0.600294  1
  H  H9  1  0.214777  0.519341  0.899706  1
  H  H10  1  0.209838  0.369394  0.170235  1
  H  H11  1  0.709838  0.630606  0.329765  1
  H  H12  1  0.790162  0.369394  0.829765  1
  H  H13  1  0.290162  0.630606  0.670235  1
  H  H14  1  0.290162  0.630606  0.329765  1
  H  H15  1  0.790162  0.369394  0.170235  1
  H  H16  1  0.709838  0.630606  0.670235  1
  H  H17  1  0.209838  0.369394  0.829765  1
  H  H18  1  0.500000  0.681180  0.931536  1
  H  H19  1  0.000000  0.318820  0.568464  1
  H  H20  1  0.500000  0.681180  0.068464  1
  H  H21  1  0.000000  0.318820  0.431536  1
  H  H22  1  0.779591  0.116373  0.932360  1
  H  H23  1  0.279591  0.883627  0.567640  1
  H  H24  1  0.220409  0.116373  0.067640  1
  H  H25  1  0.720409  0.883627  0.432360  1
  H  H26  1  0.720409  0.883627  0.567640  1
  H  H27  1  0.220409  0.116373  0.932360  1
  H  H28  1  0.279591  0.883627  0.432360  1
  H  H29  1  0.779591  0.116373  0.067640  1
  H  H30  1  0.500000  0.095038  0.201031  1
  H  H31  1  0.000000  0.904962  0.298969  1
  H  H32  1  0.500000  0.095038  0.798969  1
  H  H33  1  0.000000  0.904962  0.701031  1
  H  H34  1  0.500000  0.248098  0.266427  1
  H  H35  1  0.000000  0.751902  0.233573  1
  H  H36  1  0.500000  0.248098  0.733573  1
  H  H37  1  0.000000  0.751902  0.766427  1
  I  I38  1  0.000000  0.171470  0.237256  1
  I  I39  1  0.500000  0.828530  0.262744  1
  I  I40  1  0.000000  0.171470  0.762744  1
  I  I41  1  0.500000  0.828530  0.737256  1
  I  I42  1  0.500000  0.306817  0.500000  1
  I  I43  1  0.000000  0.693183  0.000000  1
  O  O44  1  0.285551  0.437747  0.129222  1
  O  O45  1  0.785551  0.562253  0.370778  1
  O  O46  1  0.714449  0.437747  0.870778  1
  O  O47  1  0.214449  0.562253  0.629222  1
  O  O48  1  0.214449  0.562253  0.370778  1
  O  O49  1  0.714449  0.437747  0.129222  1
  O  O50  1  0.785551  0.562253  0.629222  1
  O  O51  1  0.285551  0.437747  0.870778  1
  O  O52  1  0.500000  0.616076  0.000000  1
  O  O53  1  0.000000  0.383924  0.500000  1
  O  O54  1  0.707201  0.129159  0.000000  1
  O  O55  1  0.207201  0.870841  0.500000  1
  O  O56  1  0.292799  0.129159  0.000000  1
  O  O57  1  0.792799  0.870841  0.500000  1
  O  O58  1  0.500000  0.204192  0.188874  1
  O  O59  1  0.000000  0.795808  0.311126  1
  O  O60  1  0.500000  0.204192  0.811126  1
  O  O61  1  0.000000  0.795808  0.688874  1
