# generated using pymatgen
data_Na3Zr2Si2PO12
_symmetry_space_group_name_H-M   'P 1'
_cell_length_a   9.15314449
_cell_length_b   9.31510627
_cell_length_c   15.89673694
_cell_angle_alpha   105.97455527
_cell_angle_beta   90.18245550
_cell_angle_gamma   118.58975377
_symmetry_Int_Tables_number   1
_chemical_formula_structural   Na3Zr2Si2PO12
_chemical_formula_sum   'Na12 Zr8 Si8 P4 O48'
_cell_volume   1129.47227779
_cell_formula_units_Z   4
loop_
 _symmetry_equiv_pos_site_id
 _symmetry_equiv_pos_as_xyz
  1  'x, y, z'
loop_
 _atom_site_type_symbol
 _atom_site_label
 _atom_site_symmetry_multiplicity
 _atom_site_fract_x
 _atom_site_fract_y
 _atom_site_fract_z
 _atom_site_occupancy
  Na  Na0  1  0.208669  0.921711  0.156550  1
  Na  Na1  1  0.360751  0.540014  0.019782  1
  Na  Na2  1  0.800195  0.548825  0.193030  1
  Na  Na3  1  0.698398  0.947832  0.303882  1
  Na  Na4  1  0.837186  0.057889  0.526752  1
  Na  Na5  1  0.709220  0.425653  0.655779  1
  Na  Na6  1  0.290833  0.570317  0.346438  1
  Na  Na7  1  0.164212  0.945302  0.473391  1
  Na  Na8  1  0.304731  0.053868  0.696052  1
  Na  Na9  1  0.194123  0.441274  0.800694  1
  Na  Na10  1  0.792232  0.059495  0.849675  1
  Na  Na11  1  0.689778  0.402392  0.960591  1
  Zr  Zr12  1  0.476368  0.121142  0.322783  1
  Zr  Zr13  1  0.722065  0.864741  0.077510  1
  Zr  Zr14  1  0.780086  0.634743  0.423292  1
  Zr  Zr15  1  0.028306  0.381125  0.177312  1
  Zr  Zr16  1  0.980419  0.623405  0.822018  1
  Zr  Zr17  1  0.223852  0.367954  0.576010  1
  Zr  Zr18  1  0.278149  0.131221  0.923705  1
  Zr  Zr19  1  0.525140  0.879579  0.677537  1
  Si  Si20  1  0.484577  0.528579  0.235973  1
  Si  Si21  1  0.595433  0.137566  0.123861  1
  Si  Si22  1  0.906035  0.361606  0.375868  1
  Si  Si23  1  0.984354  0.028068  0.734777  1
  Si  Si24  1  0.017906  0.972523  0.264495  1
  Si  Si25  1  0.095894  0.639518  0.623750  1
  Si  Si26  1  0.406936  0.859473  0.876210  1
  Si  Si27  1  0.518686  0.472975  0.764536  1
  P  P28  1  0.522904  0.772389  0.478756  1
  P  P29  1  0.977592  0.728865  0.020804  1
  P  P30  1  0.022824  0.273146  0.979665  1
  P  P31  1  0.480272  0.229521  0.521234  1
  O  O32  1  0.112148  0.912540  0.002979  1
  O  O33  1  0.070730  0.365028  0.055424  1
  O  O34  1  0.286022  0.491267  0.217618  1
  O  O35  1  0.578978  0.632178  0.316739  1
  O  O36  1  0.612579  0.413323  0.502445  1
  O  O37  1  0.567151  0.631340  0.144325  1
  O  O38  1  0.509834  0.355609  0.263752  1
  O  O39  1  0.451331  0.859938  0.389421  1
  O  O40  1  0.502702  0.069554  0.211485  1
  O  O41  1  0.560066  0.860889  0.554527  1
  O  O42  1  0.465053  0.167710  0.034225  1
  O  O43  1  0.852715  0.505632  0.377625  1
  O  O44  1  0.785048  0.989163  0.714075  1
  O  O45  1  0.810089  0.721874  0.029646  1
  O  O46  1  0.737744  0.182936  0.371732  1
  O  O47  1  0.766373  0.314229  0.126495  1
  O  O48  1  0.692756  0.783527  0.469665  1
  O  O49  1  0.645837  0.990393  0.123965  1
  O  O50  1  0.074852  0.127880  0.816922  1
  O  O51  1  0.039253  0.332323  0.464264  1
  O  O52  1  0.997545  0.432880  0.287457  1
  O  O53  1  0.069225  0.135643  0.644247  1
  O  O54  1  0.047011  0.639459  0.110244  1
  O  O55  1  0.011884  0.856527  0.761454  1
  O  O56  1  0.992930  0.145511  0.236182  1
  O  O57  1  0.945264  0.360049  0.892236  1
  O  O58  1  0.934468  0.868144  0.355843  1
  O  O59  1  0.890238  0.090019  0.000315  1
  O  O60  1  0.001274  0.565503  0.711512  1
  O  O61  1  0.965108  0.670682  0.535042  1
  O  O62  1  0.924731  0.868936  0.183732  1
  O  O63  1  0.350631  0.001456  0.878019  1
  O  O64  1  0.310498  0.218461  0.530742  1
  O  O65  1  0.239559  0.680580  0.869673  1
  O  O66  1  0.263989  0.817710  0.629512  1
  O  O67  1  0.188694  0.282096  0.965763  1
  O  O68  1  0.216908  0.009185  0.285479  1
  O  O69  1  0.150823  0.495869  0.622975  1
  O  O70  1  0.540298  0.830168  0.964032  1
  O  O71  1  0.441321  0.140042  0.445606  1
  O  O72  1  0.500643  0.934574  0.788088  1
  O  O73  1  0.551455  0.141329  0.610478  1
  O  O74  1  0.492373  0.644938  0.737737  1
  O  O75  1  0.432944  0.362346  0.854589  1
  O  O76  1  0.390536  0.588475  0.497438  1
  O  O77  1  0.428320  0.373323  0.682105  1
  O  O78  1  0.717974  0.508937  0.787620  1
  O  O79  1  0.942681  0.642311  0.944538  1
