# generated using pymatgen
data_Ba19Li44
_symmetry_space_group_name_H-M   'P 1'
_cell_length_a   19.76448557
_cell_length_b   19.76448557
_cell_length_c   19.76448557
_cell_angle_alpha   131.52609280
_cell_angle_beta   131.52609280
_cell_angle_gamma   70.97854955
_symmetry_Int_Tables_number   1
_chemical_formula_structural   Ba19Li44
_chemical_formula_sum   'Ba38 Li88'
_cell_volume   4237.50899511
_cell_formula_units_Z   2
loop_
 _symmetry_equiv_pos_site_id
 _symmetry_equiv_pos_as_xyz
  1  'x, y, z'
loop_
 _atom_site_type_symbol
 _atom_site_label
 _atom_site_symmetry_multiplicity
 _atom_site_fract_x
 _atom_site_fract_y
 _atom_site_fract_z
 _atom_site_occupancy
  Ba  Ba0  1  0.423899  0.719000  0.993358  1
  Ba  Ba1  1  0.384985  0.400063  0.184506  1
  Ba  Ba2  1  0.996494  0.809488  0.804429  1
  Ba  Ba3  1  0.654222  0.154222  0.500000  1
  Ba  Ba4  1  0.807935  0.003506  0.812994  1
  Ba  Ba5  1  0.904222  0.904222  0.000000  1
  Ba  Ba6  1  0.190512  0.994941  0.187006  1
  Ba  Ba7  1  0.845778  0.345778  0.500000  1
  Ba  Ba8  1  0.685150  0.701338  0.791192  1
  Ba  Ba9  1  0.942065  0.255059  0.695571  1
  Ba  Ba10  1  0.106043  0.314850  0.016188  1
  Ba  Ba11  1  0.469000  0.673899  0.493358  1
  Ba  Ba12  1  0.569458  0.576101  0.295101  1
  Ba  Ba13  1  0.744941  0.440512  0.687006  1
  Ba  Ba14  1  0.725642  0.430542  0.006642  1
  Ba  Ba15  1  0.005059  0.192065  0.195571  1
  Ba  Ba16  1  0.839854  0.548662  0.483812  1
  Ba  Ba17  1  0.365015  0.049521  0.515078  1
  Ba  Ba18  1  0.950479  0.465557  0.315494  1
  Ba  Ba19  1  0.180542  0.975642  0.506642  1
  Ba  Ba20  1  0.451338  0.935150  0.291192  1
  Ba  Ba21  1  0.215557  0.200479  0.815494  1
  Ba  Ba22  1  0.326101  0.819458  0.795101  1
  Ba  Ba23  1  0.910146  0.893957  0.208808  1
  Ba  Ba24  1  0.150063  0.634985  0.684506  1
  Ba  Ba25  1  0.534443  0.849937  0.484922  1
  Ba  Ba26  1  0.799521  0.615015  0.015078  1
  Ba  Ba27  1  0.250000  0.750000  0.500000  1
  Ba  Ba28  1  0.599937  0.784443  0.984922  1
  Ba  Ba29  1  0.024358  0.531000  0.204899  1
  Ba  Ba30  1  0.753506  0.057935  0.312994  1
  Ba  Ba31  1  0.095778  0.095778  0.000000  1
  Ba  Ba32  1  0.298662  0.089854  0.983812  1
  Ba  Ba33  1  0.064850  0.356043  0.516188  1
  Ba  Ba34  1  0.559488  0.246494  0.304429  1
  Ba  Ba35  1  0.500000  0.500000  0.000000  1
  Ba  Ba36  1  0.643957  0.160146  0.708808  1
  Ba  Ba37  1  0.281000  0.274358  0.704899  1
  Li  Li38  1  0.728890  0.737831  0.642101  1
  Li  Li39  1  0.499789  0.844995  0.780592  1
  Li  Li40  1  0.042609  0.065399  0.746039  1
  Li  Li41  1  0.421125  0.125000  0.796125  1
  Li  Li42  1  0.909660  0.936141  0.665743  1
  Li  Li43  1  0.815399  0.292609  0.246039  1
  Li  Li44  1  0.594995  0.749789  0.280592  1
  Li  Li45  1  0.836789  0.345730  0.857899  1
  Li  Li46  1  0.116391  0.861875  0.217542  1
  Li  Li47  1  0.105668  0.388125  0.754517  1
  Li  Li48  1  0.328875  0.625000  0.203875  1
  Li  Li49  1  0.993917  0.520398  0.834257  1
  Li  Li50  1  0.208523  0.568107  0.490124  1
  Li  Li51  1  0.756083  0.090340  0.026481  1
  Li  Li52  1  0.593338  0.069647  0.798405  1
  Li  Li53  1  0.342371  0.442594  0.472909  1
  Li  Li54  1  0.130538  0.657629  0.100223  1
  Li  Li55  1  0.764184  0.778664  0.524311  1
  Li  Li56  1  0.934601  0.680640  0.977211  1
  Li  Li57  1  0.388271  0.675872  0.132088  1
  Li  Li58  1  0.544933  0.521241  0.701595  1
  Li  Li59  1  0.206216  0.574128  0.212399  1
  Li  Li60  1  0.619462  0.219685  0.027091  1
  Li  Li61  1  0.648849  0.894332  0.282458  1
  Li  Li62  1  0.064403  0.719198  0.219408  1
  Li  Li63  1  0.487831  0.978890  0.142101  1
  Li  Li64  1  0.430640  0.184601  0.477211  1
  Li  Li65  1  0.319360  0.296571  0.253961  1
  Li  Li66  1  0.840340  0.006083  0.526481  1
  Li  Li67  1  0.407629  0.380538  0.600223  1
  Li  Li68  1  0.046571  0.569360  0.753961  1
  Li  Li69  1  0.743817  0.611729  0.287601  1
  Li  Li70  1  0.930353  0.728759  0.523691  1
  Li  Li71  1  0.864752  0.625000  0.739752  1
  Li  Li72  1  0.280802  0.500211  0.345206  1
  Li  Li73  1  0.611875  0.366391  0.717542  1
  Li  Li74  1  0.780315  0.807406  0.399777  1
  Li  Li75  1  0.685597  0.405005  0.154794  1
  Li  Li76  1  0.262169  0.904270  0.991059  1
  Li  Li77  1  0.318107  0.458523  0.990124  1
  Li  Li78  1  0.819647  0.843338  0.298405  1
  Li  Li79  1  0.478759  0.180353  0.023691  1
  Li  Li80  1  0.703429  0.957391  0.022789  1
  Li  Li81  1  0.155005  0.935597  0.654794  1
  Li  Li82  1  0.633609  0.351151  0.245483  1
  Li  Li83  1  0.885248  0.125000  0.260248  1
  Li  Li84  1  0.543784  0.256183  0.867912  1
  Li  Li85  1  0.425872  0.638271  0.632088  1
  Li  Li86  1  0.495647  0.471336  0.485521  1
  Li  Li87  1  0.205067  0.406662  0.476309  1
  Li  Li88  1  0.969685  0.869462  0.527091  1
  Li  Li89  1  0.270398  0.243917  0.334257  1
  Li  Li90  1  0.557406  0.030315  0.899777  1
  Li  Li91  1  0.431893  0.922017  0.640416  1
  Li  Li92  1  0.654270  0.512169  0.491059  1
  Li  Li93  1  0.138125  0.355668  0.254517  1
  Li  Li94  1  0.875000  0.135248  0.760248  1
  Li  Li95  1  0.469198  0.314403  0.719408  1
  Li  Li96  1  0.006183  0.793784  0.367912  1
  Li  Li97  1  0.707391  0.953429  0.522789  1
  Li  Li98  1  0.156662  0.455067  0.976309  1
  Li  Li99  1  0.254353  0.239874  0.475689  1
  Li  Li100  1  0.271241  0.794933  0.201595  1
  Li  Li101  1  0.101151  0.883609  0.745483  1
  Li  Li102  1  0.875000  0.671125  0.296125  1
  Li  Li103  1  0.375000  0.578875  0.703875  1
  Li  Li104  1  0.672017  0.681893  0.140416  1
  Li  Li105  1  0.250211  0.530802  0.845206  1
  Li  Li106  1  0.192594  0.592371  0.972909  1
  Li  Li107  1  0.077983  0.718399  0.509876  1
  Li  Li108  1  0.324128  0.456216  0.712399  1
  Li  Li109  1  0.989874  0.504353  0.975689  1
  Li  Li110  1  0.468399  0.327983  0.009876  1
  Li  Li111  1  0.221336  0.745647  0.985521  1
  Li  Li112  1  0.479602  0.313859  0.473519  1
  Li  Li113  1  0.095730  0.086789  0.357899  1
  Li  Li114  1  0.541477  0.531601  0.859584  1
  Li  Li115  1  0.913211  0.271110  0.008941  1
  Li  Li116  1  0.528664  0.014184  0.024311  1
  Li  Li117  1  0.361729  0.993817  0.787601  1
  Li  Li118  1  0.760126  0.235816  0.014479  1
  Li  Li119  1  0.686141  0.159660  0.165743  1
  Li  Li120  1  0.281601  0.791477  0.359584  1
  Li  Li121  1  0.985816  0.010126  0.514479  1
  Li  Li122  1  0.644332  0.898849  0.782458  1
  Li  Li123  1  0.063859  0.729602  0.973519  1
  Li  Li124  1  0.375000  0.114752  0.239752  1
  Li  Li125  1  0.021110  0.163211  0.508941  1
