# generated using pymatgen
data_LiUAsO6
_symmetry_space_group_name_H-M   'P 1'
_cell_length_a   5.23643578
_cell_length_b   10.29102412
_cell_length_c   11.21215453
_cell_angle_alpha   65.09361657
_cell_angle_beta   76.78021742
_cell_angle_gamma   76.47871305
_symmetry_Int_Tables_number   1
_chemical_formula_structural   LiUAsO6
_chemical_formula_sum   'Li4 U4 As4 O24'
_cell_volume   526.98058474
_cell_formula_units_Z   4
loop_
 _symmetry_equiv_pos_site_id
 _symmetry_equiv_pos_as_xyz
  1  'x, y, z'
loop_
 _atom_site_type_symbol
 _atom_site_label
 _atom_site_symmetry_multiplicity
 _atom_site_fract_x
 _atom_site_fract_y
 _atom_site_fract_z
 _atom_site_occupancy
  Li  Li0  1  0.545777  0.376780  0.768769  1
  Li  Li1  1  0.454223  0.623220  0.231231  1
  Li  Li2  1  0.458251  0.092509  0.294691  1
  Li  Li3  1  0.541749  0.907491  0.705309  1
  U  U4  1  0.498743  0.280385  0.479308  1
  U  U5  1  0.981982  0.797980  0.982274  1
  U  U6  1  0.501257  0.719615  0.520692  1
  U  U7  1  0.018018  0.202020  0.017726  1
  As  As8  1  0.933872  0.108285  0.728470  1
  As  As9  1  0.938599  0.582027  0.783464  1
  As  As10  1  0.061401  0.417973  0.216536  1
  As  As11  1  0.066128  0.891715  0.271530  1
  O  O12  1  0.283850  0.878449  0.538675  1
  O  O13  1  0.732386  0.712079  0.675102  1
  O  O14  1  0.691659  0.179965  0.118836  1
  O  O15  1  0.267614  0.287921  0.324898  1
  O  O16  1  0.725619  0.563441  0.504594  1
  O  O17  1  0.935791  0.096000  0.886461  1
  O  O18  1  0.274381  0.436559  0.495406  1
  O  O19  1  0.175592  0.051879  0.230229  1
  O  O20  1  0.341522  0.227264  0.913530  1
  O  O21  1  0.738501  0.439297  0.295634  1
  O  O22  1  0.824408  0.948121  0.769771  1
  O  O23  1  0.749812  0.887061  0.359085  1
  O  O24  1  0.075990  0.357591  0.094113  1
  O  O25  1  0.924010  0.642409  0.905887  1
  O  O26  1  0.285241  0.742248  0.350705  1
  O  O27  1  0.064209  0.904000  0.113539  1
  O  O28  1  0.827744  0.416882  0.849392  1
  O  O29  1  0.714759  0.257752  0.649295  1
  O  O30  1  0.658478  0.772736  0.086470  1
  O  O31  1  0.261499  0.560703  0.704366  1
  O  O32  1  0.250188  0.112939  0.640915  1
  O  O33  1  0.172256  0.583118  0.150608  1
  O  O34  1  0.308341  0.820035  0.881164  1
  O  O35  1  0.716150  0.121551  0.461325  1
