# generated using pymatgen
data_Tl2SnO3
_symmetry_space_group_name_H-M   'P 1'
_cell_length_a   3.29968406
_cell_length_b   10.41881589
_cell_length_c   12.73605147
_cell_angle_alpha   90.00000000
_cell_angle_beta   90.00000000
_cell_angle_gamma   90.00000000
_symmetry_Int_Tables_number   1
_chemical_formula_structural   Tl2SnO3
_chemical_formula_sum   'Tl8 Sn4 O12'
_cell_volume   437.85017540
_cell_formula_units_Z   4
loop_
 _symmetry_equiv_pos_site_id
 _symmetry_equiv_pos_as_xyz
  1  'x, y, z'
loop_
 _atom_site_type_symbol
 _atom_site_label
 _atom_site_symmetry_multiplicity
 _atom_site_fract_x
 _atom_site_fract_y
 _atom_site_fract_z
 _atom_site_occupancy
  Tl  Tl0  1  0.750000  0.136430  0.105254  1
  Tl  Tl1  1  0.250000  0.863570  0.894746  1
  Tl  Tl2  1  0.750000  0.636430  0.394746  1
  Tl  Tl3  1  0.250000  0.363570  0.605254  1
  Tl  Tl4  1  0.750000  0.291917  0.345625  1
  Tl  Tl5  1  0.250000  0.708083  0.654375  1
  Tl  Tl6  1  0.750000  0.791917  0.154375  1
  Tl  Tl7  1  0.250000  0.208083  0.845625  1
  Sn  Sn8  1  0.250000  0.460962  0.109704  1
  Sn  Sn9  1  0.750000  0.539038  0.890296  1
  Sn  Sn10  1  0.250000  0.960962  0.390296  1
  Sn  Sn11  1  0.750000  0.039038  0.609704  1
  O  O12  1  0.750000  0.393765  0.009752  1
  O  O13  1  0.250000  0.606235  0.990248  1
  O  O14  1  0.750000  0.893765  0.490248  1
  O  O15  1  0.250000  0.106235  0.509752  1
  O  O16  1  0.750000  0.042528  0.309797  1
  O  O17  1  0.250000  0.957472  0.690203  1
  O  O18  1  0.750000  0.542528  0.190203  1
  O  O19  1  0.250000  0.457472  0.809797  1
  O  O20  1  0.250000  0.289527  0.189446  1
  O  O21  1  0.750000  0.710473  0.810554  1
  O  O22  1  0.250000  0.789527  0.310554  1
  O  O23  1  0.750000  0.210473  0.689446  1
