# generated using pymatgen
data_K2MnH4(SeO5)2
_symmetry_space_group_name_H-M   'P 1'
_cell_length_a   6.13921447
_cell_length_b   7.79378226
_cell_length_c   7.95384350
_cell_angle_alpha   66.85132608
_cell_angle_beta   77.94706005
_cell_angle_gamma   73.20507492
_symmetry_Int_Tables_number   1
_chemical_formula_structural   K2MnH4(SeO5)2
_chemical_formula_sum   'K2 Mn1 H4 Se2 O10'
_cell_volume   333.04009088
_cell_formula_units_Z   1
loop_
 _symmetry_equiv_pos_site_id
 _symmetry_equiv_pos_as_xyz
  1  'x, y, z'
loop_
 _atom_site_type_symbol
 _atom_site_label
 _atom_site_symmetry_multiplicity
 _atom_site_fract_x
 _atom_site_fract_y
 _atom_site_fract_z
 _atom_site_occupancy
  K  K0  1  0.165557  0.754622  0.629570  1
  K  K1  1  0.834443  0.245378  0.370430  1
  Mn  Mn2  1  0.000000  0.000000  0.000000  1
  H  H3  1  0.402726  0.665882  0.263980  1
  H  H4  1  0.597274  0.334118  0.736020  1
  H  H5  1  0.388686  0.482282  0.224780  1
  H  H6  1  0.611314  0.517718  0.775220  1
  Se  Se7  1  0.399400  0.178322  0.091837  1
  Se  Se8  1  0.600600  0.821678  0.908163  1
  O  O9  1  0.506568  0.452156  0.754952  1
  O  O10  1  0.493432  0.547844  0.245048  1
  O  O11  1  0.256771  0.327077  0.204505  1
  O  O12  1  0.743229  0.672923  0.795495  1
  O  O13  1  0.681357  0.127612  0.123799  1
  O  O14  1  0.318643  0.872388  0.876201  1
  O  O15  1  0.098589  0.954939  0.250786  1
  O  O16  1  0.901411  0.045061  0.749214  1
  O  O17  1  0.343231  0.934364  0.262636  1
  O  O18  1  0.656769  0.065636  0.737364  1
