# generated using pymatgen
data_Ba6NaCu3Te14
_symmetry_space_group_name_H-M   'P 1'
_cell_length_a   14.32841370
_cell_length_b   14.32841370
_cell_length_c   9.13561628
_cell_angle_alpha   90.00000000
_cell_angle_beta   90.00000000
_cell_angle_gamma   120.00000000
_symmetry_Int_Tables_number   1
_chemical_formula_structural   Ba6NaCu3Te14
_chemical_formula_sum   'Ba12 Na2 Cu6 Te28'
_cell_volume   1624.29424623
_cell_formula_units_Z   2
loop_
 _symmetry_equiv_pos_site_id
 _symmetry_equiv_pos_as_xyz
  1  'x, y, z'
loop_
 _atom_site_type_symbol
 _atom_site_label
 _atom_site_symmetry_multiplicity
 _atom_site_fract_x
 _atom_site_fract_y
 _atom_site_fract_z
 _atom_site_occupancy
  Ba  Ba0  1  0.243528  0.792278  0.250000  1
  Ba  Ba1  1  0.451249  0.243528  0.750000  1
  Ba  Ba2  1  0.548751  0.792278  0.750000  1
  Ba  Ba3  1  0.792278  0.548751  0.750000  1
  Ba  Ba4  1  0.756472  0.548751  0.250000  1
  Ba  Ba5  1  0.243528  0.451249  0.750000  1
  Ba  Ba6  1  0.792278  0.243528  0.250000  1
  Ba  Ba7  1  0.756472  0.207722  0.750000  1
  Ba  Ba8  1  0.207722  0.451249  0.250000  1
  Ba  Ba9  1  0.207722  0.756472  0.750000  1
  Ba  Ba10  1  0.548751  0.756472  0.250000  1
  Ba  Ba11  1  0.451249  0.207722  0.250000  1
  Na  Na12  1  0.000000  0.000000  0.500000  1
  Na  Na13  1  0.000000  0.000000  0.000000  1
  Cu  Cu14  1  0.807669  0.000000  0.250000  1
  Cu  Cu15  1  0.807669  0.807669  0.750000  1
  Cu  Cu16  1  0.000000  0.807669  0.250000  1
  Cu  Cu17  1  0.192331  0.000000  0.750000  1
  Cu  Cu18  1  0.192331  0.192331  0.250000  1
  Cu  Cu19  1  0.000000  0.192331  0.750000  1
  Te  Te20  1  0.171941  0.000000  0.250000  1
  Te  Te21  1  0.333333  0.666667  0.000000  1
  Te  Te22  1  0.000000  0.318133  0.526073  1
  Te  Te23  1  0.828059  0.000000  0.750000  1
  Te  Te24  1  0.681867  0.681867  0.973927  1
  Te  Te25  1  0.318133  0.000000  0.973927  1
  Te  Te26  1  0.000000  0.171941  0.250000  1
  Te  Te27  1  0.000000  0.681867  0.473927  1
  Te  Te28  1  0.000000  0.681867  0.026073  1
  Te  Te29  1  0.000000  0.467623  0.750000  1
  Te  Te30  1  0.318133  0.318133  0.026073  1
  Te  Te31  1  0.828059  0.828059  0.250000  1
  Te  Te32  1  0.467623  0.000000  0.750000  1
  Te  Te33  1  0.681867  0.000000  0.026073  1
  Te  Te34  1  0.666667  0.333333  0.500000  1
  Te  Te35  1  0.666667  0.333333  0.000000  1
  Te  Te36  1  0.681867  0.000000  0.473927  1
  Te  Te37  1  0.532377  0.532377  0.750000  1
  Te  Te38  1  0.467623  0.467623  0.250000  1
  Te  Te39  1  0.318133  0.000000  0.526073  1
  Te  Te40  1  0.681867  0.681867  0.526073  1
  Te  Te41  1  0.000000  0.318133  0.973927  1
  Te  Te42  1  0.333333  0.666667  0.500000  1
  Te  Te43  1  0.318133  0.318133  0.473927  1
  Te  Te44  1  0.000000  0.532377  0.250000  1
  Te  Te45  1  0.532377  0.000000  0.250000  1
  Te  Te46  1  0.000000  0.828059  0.750000  1
  Te  Te47  1  0.171941  0.171941  0.750000  1
