# generated using pymatgen
data_Cs4Cu3F10
_symmetry_space_group_name_H-M   'P 1'
_cell_length_a   7.78991209
_cell_length_b   7.78991209
_cell_length_c   8.10099569
_cell_angle_alpha   65.47671891
_cell_angle_beta   114.52328109
_cell_angle_gamma   132.34072805
_symmetry_Int_Tables_number   1
_chemical_formula_structural   Cs4Cu3F10
_chemical_formula_sum   'Cs4 Cu3 F10'
_cell_volume   323.80203534
_cell_formula_units_Z   1
loop_
 _symmetry_equiv_pos_site_id
 _symmetry_equiv_pos_as_xyz
  1  'x, y, z'
loop_
 _atom_site_type_symbol
 _atom_site_label
 _atom_site_symmetry_multiplicity
 _atom_site_fract_x
 _atom_site_fract_y
 _atom_site_fract_z
 _atom_site_occupancy
  Cs  Cs0  1  0.812928  0.187072  0.715750  1
  Cs  Cs1  1  0.187072  0.812928  0.284250  1
  Cs  Cs2  1  0.464969  0.535031  0.214667  1
  Cs  Cs3  1  0.535031  0.464969  0.785333  1
  Cu  Cu4  1  0.197750  0.802250  0.817088  1
  Cu  Cu5  1  0.802250  0.197750  0.182912  1
  Cu  Cu6  1  0.000000  0.000000  0.500000  1
  F  F7  1  0.897153  0.677543  0.564600  1
  F  F8  1  0.678368  0.321632  0.219267  1
  F  F9  1  0.935548  0.064452  0.170887  1
  F  F10  1  0.102847  0.322456  0.435400  1
  F  F11  1  0.064452  0.935548  0.829113  1
  F  F12  1  0.677544  0.897153  0.435400  1
  F  F13  1  0.322456  0.102847  0.564600  1
  F  F14  1  0.000000  0.500000  0.000000  1
  F  F15  1  0.500000  1.000000  0.000000  1
  F  F16  1  0.321632  0.678368  0.780733  1
