# generated using pymatgen
data_UOF4
_symmetry_space_group_name_H-M   'P 1'
_cell_length_a   8.03099146
_cell_length_b   8.03099146
_cell_length_c   8.03099146
_cell_angle_alpha   114.43791357
_cell_angle_beta   114.43791357
_cell_angle_gamma   114.43791357
_symmetry_Int_Tables_number   1
_chemical_formula_structural   UOF4
_chemical_formula_sum   'U3 O3 F12'
_cell_volume   304.20740697
_cell_formula_units_Z   3
loop_
 _symmetry_equiv_pos_site_id
 _symmetry_equiv_pos_as_xyz
  1  'x, y, z'
loop_
 _atom_site_type_symbol
 _atom_site_label
 _atom_site_symmetry_multiplicity
 _atom_site_fract_x
 _atom_site_fract_y
 _atom_site_fract_z
 _atom_site_occupancy
  U  U0  1  0.855399  0.855399  0.272665  1
  U  U1  1  0.272665  0.855399  0.855399  1
  U  U2  1  0.855399  0.272665  0.855399  1
  O  O3  1  0.193650  0.598364  0.598364  1
  O  O4  1  0.598364  0.193650  0.598364  1
  O  O5  1  0.598364  0.598364  0.193650  1
  F  F6  1  0.953671  0.623585  0.151995  1
  F  F7  1  0.623585  0.151995  0.953671  1
  F  F8  1  0.151995  0.953671  0.623585  1
  F  F9  1  0.140288  0.364735  0.140288  1
  F  F10  1  0.364735  0.140288  0.140288  1
  F  F11  1  0.646475  0.646475  0.890395  1
  F  F12  1  0.623585  0.953671  0.151995  1
  F  F13  1  0.151995  0.623585  0.953671  1
  F  F14  1  0.140288  0.140288  0.364735  1
  F  F15  1  0.890395  0.646475  0.646475  1
  F  F16  1  0.646475  0.890395  0.646475  1
  F  F17  1  0.953671  0.151995  0.623585  1
