# generated using pymatgen
data_KAlF4
_symmetry_space_group_name_H-M   'P 1'
_cell_length_a   6.53469356
_cell_length_b   7.35315810
_cell_length_c   7.46867863
_cell_angle_alpha   90.00000000
_cell_angle_beta   106.96397144
_cell_angle_gamma   90.00000000
_symmetry_Int_Tables_number   1
_chemical_formula_structural   KAlF4
_chemical_formula_sum   'K4 Al4 F16'
_cell_volume   343.25954064
_cell_formula_units_Z   4
loop_
 _symmetry_equiv_pos_site_id
 _symmetry_equiv_pos_as_xyz
  1  'x, y, z'
loop_
 _atom_site_type_symbol
 _atom_site_label
 _atom_site_symmetry_multiplicity
 _atom_site_fract_x
 _atom_site_fract_y
 _atom_site_fract_z
 _atom_site_occupancy
  K  K0  1  0.541161  0.250000  0.632919  1
  K  K1  1  0.547166  0.250000  0.134017  1
  K  K2  1  0.458839  0.750000  0.367081  1
  K  K3  1  0.452834  0.750000  0.865983  1
  Al  Al4  1  0.000000  0.500000  0.500000  1
  Al  Al5  1  0.000000  0.000000  0.500000  1
  Al  Al6  1  0.000000  0.000000  0.000000  1
  Al  Al7  1  0.000000  0.500000  0.000000  1
  F  F8  1  0.047288  0.250000  0.992534  1
  F  F9  1  0.718686  0.037145  0.431761  1
  F  F10  1  0.717834  0.465042  0.924569  1
  F  F11  1  0.002349  0.519991  0.750696  1
  F  F12  1  0.949594  0.750000  0.468801  1
  F  F13  1  0.718686  0.462855  0.431761  1
  F  F14  1  0.281314  0.962855  0.568239  1
  F  F15  1  0.050406  0.250000  0.531199  1
  F  F16  1  0.282166  0.534958  0.075431  1
  F  F17  1  0.282166  0.965042  0.075431  1
  F  F18  1  0.997651  0.019991  0.249304  1
  F  F19  1  0.997651  0.480009  0.249304  1
  F  F20  1  0.002349  0.980009  0.750696  1
  F  F21  1  0.717834  0.034958  0.924569  1
  F  F22  1  0.281314  0.537145  0.568239  1
  F  F23  1  0.952712  0.750000  0.007466  1
