# generated using pymatgen
data_Ca2Al2FeSi4BHO16
_symmetry_space_group_name_H-M   'P 1'
_cell_length_a   7.19954755
_cell_length_b   9.08254815
_cell_length_c   9.32809883
_cell_angle_alpha   88.47749252
_cell_angle_beta   102.64185199
_cell_angle_gamma   98.25054282
_symmetry_Int_Tables_number   1
_chemical_formula_structural   Ca2Al2FeSi4BHO16
_chemical_formula_sum   'Ca4 Al4 Fe2 Si8 B2 H2 O32'
_cell_volume   589.01179463
_cell_formula_units_Z   2
loop_
 _symmetry_equiv_pos_site_id
 _symmetry_equiv_pos_as_xyz
  1  'x, y, z'
loop_
 _atom_site_type_symbol
 _atom_site_label
 _atom_site_symmetry_multiplicity
 _atom_site_fract_x
 _atom_site_fract_y
 _atom_site_fract_z
 _atom_site_occupancy
  Ca  Ca0  1  0.814065  0.919083  0.099569  1
  Ca  Ca1  1  0.185935  0.080917  0.900431  1
  Ca  Ca2  1  0.251711  0.607124  0.347113  1
  Ca  Ca3  1  0.748289  0.392876  0.652887  1
  Al  Al4  1  0.351497  0.420913  0.064177  1
  Al  Al5  1  0.052570  0.254222  0.199882  1
  Al  Al6  1  0.947430  0.745778  0.800118  1
  Al  Al7  1  0.648503  0.579087  0.935823  1
  Fe  Fe8  1  0.232526  0.890861  0.586895  1
  Fe  Fe9  1  0.767474  0.109139  0.413105  1
  Si  Si10  1  0.358204  0.768651  0.020861  1
  Si  Si11  1  0.219847  0.523508  0.724766  1
  Si  Si12  1  0.791953  0.765621  0.450687  1
  Si  Si13  1  0.208047  0.234379  0.549313  1
  Si  Si14  1  0.696028  0.010277  0.744292  1
  Si  Si15  1  0.780153  0.476492  0.275234  1
  Si  Si16  1  0.303972  0.989723  0.255708  1
  Si  Si17  1  0.641796  0.231349  0.979139  1
  B  B18  1  0.537951  0.711878  0.634753  1
  B  B19  1  0.462049  0.288122  0.365247  1
  H  H20  1  0.989601  0.374926  0.958466  1
  H  H21  1  0.010399  0.625074  0.041534  1
  O  O22  1  0.875189  0.933709  0.843274  1
  O  O23  1  0.324752  0.353333  0.253845  1
  O  O24  1  0.204319  0.821961  0.878225  1
  O  O25  1  0.795681  0.178039  0.121775  1
  O  O26  1  0.277835  0.615516  0.101505  1
  O  O27  1  0.722165  0.384484  0.898495  1
  O  O28  1  0.564446  0.754661  0.983696  1
  O  O29  1  0.435554  0.245339  0.016304  1
  O  O30  1  0.400149  0.913373  0.135253  1
  O  O31  1  0.599851  0.086627  0.864747  1
  O  O32  1  0.238089  0.861930  0.366294  1
  O  O33  1  0.761911  0.138070  0.633706  1
  O  O34  1  0.124811  0.066291  0.156726  1
  O  O35  1  0.675248  0.646667  0.746155  1
  O  O36  1  0.096775  0.321956  0.006902  1
  O  O37  1  0.903225  0.678044  0.993098  1
  O  O38  1  0.049480  0.189551  0.396520  1
  O  O39  1  0.950520  0.810449  0.603480  1
  O  O40  1  0.226133  0.097125  0.661264  1
  O  O41  1  0.773867  0.902875  0.338736  1
  O  O42  1  0.416810  0.309510  0.511372  1
  O  O43  1  0.583190  0.690490  0.488628  1
  O  O44  1  0.134077  0.369527  0.628266  1
  O  O45  1  0.469238  0.125228  0.341277  1
  O  O46  1  0.021185  0.565665  0.754837  1
  O  O47  1  0.978815  0.434335  0.245163  1
  O  O48  1  0.329664  0.640415  0.618158  1
  O  O49  1  0.670336  0.359585  0.381842  1
  O  O50  1  0.380168  0.496831  0.873158  1
  O  O51  1  0.619832  0.503169  0.126842  1
  O  O52  1  0.530762  0.874772  0.658723  1
  O  O53  1  0.865923  0.630473  0.371734  1
