# generated using pymatgen
data_EuSbO4
_symmetry_space_group_name_H-M   'P 1'
_cell_length_a   7.66061701
_cell_length_b   5.50787688
_cell_length_c   7.79584055
_cell_angle_alpha   90.00000000
_cell_angle_beta   99.90408501
_cell_angle_gamma   90.00000000
_symmetry_Int_Tables_number   1
_chemical_formula_structural   EuSbO4
_chemical_formula_sum   'Eu4 Sb4 O16'
_cell_volume   324.03352649
_cell_formula_units_Z   4
loop_
 _symmetry_equiv_pos_site_id
 _symmetry_equiv_pos_as_xyz
  1  'x, y, z'
loop_
 _atom_site_type_symbol
 _atom_site_label
 _atom_site_symmetry_multiplicity
 _atom_site_fract_x
 _atom_site_fract_y
 _atom_site_fract_z
 _atom_site_occupancy
  Eu  Eu0  1  0.395248  0.772294  0.647803  1
  Eu  Eu1  1  0.895248  0.727706  0.647803  1
  Eu  Eu2  1  0.104752  0.272294  0.352197  1
  Eu  Eu3  1  0.604752  0.227706  0.352197  1
  Sb  Sb4  1  0.303047  0.768341  0.161583  1
  Sb  Sb5  1  0.803047  0.731659  0.161583  1
  Sb  Sb6  1  0.196953  0.268341  0.838417  1
  Sb  Sb7  1  0.696953  0.231659  0.838417  1
  O  O8  1  0.057669  0.634051  0.168935  1
  O  O9  1  0.128146  0.997739  0.671746  1
  O  O10  1  0.942331  0.365949  0.831065  1
  O  O11  1  0.371854  0.497739  0.328254  1
  O  O12  1  0.442331  0.134051  0.831065  1
  O  O13  1  0.827368  0.523412  0.379438  1
  O  O14  1  0.327368  0.976588  0.379438  1
  O  O15  1  0.628146  0.502261  0.671746  1
  O  O16  1  0.871854  0.002261  0.328254  1
  O  O17  1  0.172632  0.476588  0.620562  1
  O  O18  1  0.672632  0.023412  0.620562  1
  O  O19  1  0.301574  0.589754  0.937850  1
  O  O20  1  0.557669  0.865949  0.168935  1
  O  O21  1  0.698426  0.410246  0.062150  1
  O  O22  1  0.801574  0.910246  0.937850  1
  O  O23  1  0.198426  0.089754  0.062150  1
