# generated using pymatgen
data_Na2CaVP2O9
_symmetry_space_group_name_H-M   'P 1'
_cell_length_a   6.65540547
_cell_length_b   10.17962076
_cell_length_c   10.67729922
_cell_angle_alpha   90.00000000
_cell_angle_beta   90.00000000
_cell_angle_gamma   90.00000000
_symmetry_Int_Tables_number   1
_chemical_formula_structural   Na2CaVP2O9
_chemical_formula_sum   'Na8 Ca4 V4 P8 O36'
_cell_volume   723.38172289
_cell_formula_units_Z   4
loop_
 _symmetry_equiv_pos_site_id
 _symmetry_equiv_pos_as_xyz
  1  'x, y, z'
loop_
 _atom_site_type_symbol
 _atom_site_label
 _atom_site_symmetry_multiplicity
 _atom_site_fract_x
 _atom_site_fract_y
 _atom_site_fract_z
 _atom_site_occupancy
  Na  Na0  1  0.503010  0.133822  0.285953  1
  Na  Na1  1  0.003010  0.866178  0.714047  1
  Na  Na2  1  0.996990  0.133822  0.285953  1
  Na  Na3  1  0.996990  0.366178  0.785953  1
  Na  Na4  1  0.003010  0.633822  0.214047  1
  Na  Na5  1  0.503010  0.366178  0.785953  1
  Na  Na6  1  0.496990  0.633822  0.214047  1
  Na  Na7  1  0.496990  0.866178  0.714047  1
  Ca  Ca8  1  0.250000  0.912440  0.060462  1
  Ca  Ca9  1  0.750000  0.087560  0.939538  1
  Ca  Ca10  1  0.750000  0.412440  0.439538  1
  Ca  Ca11  1  0.250000  0.587560  0.560462  1
  V  V12  1  0.750000  0.691514  0.966745  1
  V  V13  1  0.250000  0.191514  0.533255  1
  V  V14  1  0.250000  0.308486  0.033255  1
  V  V15  1  0.750000  0.808486  0.466745  1
  P  P16  1  0.250000  0.635774  0.909859  1
  P  P17  1  0.750000  0.916845  0.177773  1
  P  P18  1  0.750000  0.364226  0.090141  1
  P  P19  1  0.250000  0.864226  0.409859  1
  P  P20  1  0.250000  0.416845  0.322227  1
  P  P21  1  0.250000  0.083155  0.822227  1
  P  P22  1  0.750000  0.583155  0.677773  1
  P  P23  1  0.750000  0.135774  0.590141  1
  O  O24  1  0.250000  0.016287  0.409141  1
  O  O25  1  0.434449  0.690938  0.987147  1
  O  O26  1  0.565551  0.190938  0.512853  1
  O  O27  1  0.565551  0.309062  0.012853  1
  O  O28  1  0.934449  0.309062  0.012853  1
  O  O29  1  0.935273  0.513131  0.623378  1
  O  O30  1  0.750000  0.731046  0.643318  1
  O  O31  1  0.750000  0.192101  0.724932  1
  O  O32  1  0.250000  0.807899  0.275068  1
  O  O33  1  0.564727  0.986869  0.123378  1
  O  O34  1  0.250000  0.434572  0.176955  1
  O  O35  1  0.750000  0.983713  0.590859  1
  O  O36  1  0.064727  0.486869  0.376622  1
  O  O37  1  0.750000  0.307899  0.224932  1
  O  O38  1  0.750000  0.768954  0.143318  1
  O  O39  1  0.935273  0.986869  0.123378  1
  O  O40  1  0.750000  0.565428  0.823045  1
  O  O41  1  0.250000  0.483713  0.909141  1
  O  O42  1  0.250000  0.167225  0.111211  1
  O  O43  1  0.064727  0.013131  0.876622  1
  O  O44  1  0.250000  0.332775  0.611211  1
  O  O45  1  0.065551  0.690938  0.987147  1
  O  O46  1  0.934449  0.190938  0.512853  1
  O  O47  1  0.435273  0.013131  0.876622  1
  O  O48  1  0.250000  0.268954  0.356682  1
  O  O49  1  0.564727  0.513131  0.623378  1
  O  O50  1  0.750000  0.667225  0.388789  1
  O  O51  1  0.250000  0.065428  0.676955  1
  O  O52  1  0.750000  0.832775  0.888789  1
  O  O53  1  0.250000  0.692101  0.775068  1
  O  O54  1  0.434449  0.809062  0.487147  1
  O  O55  1  0.250000  0.231046  0.856682  1
  O  O56  1  0.435273  0.486869  0.376622  1
  O  O57  1  0.750000  0.516287  0.090859  1
  O  O58  1  0.065551  0.809062  0.487147  1
  O  O59  1  0.750000  0.934572  0.323045  1
