# generated using pymatgen
data_CaCrF6
_symmetry_space_group_name_H-M   'P 1'
_cell_length_a   5.76594130
_cell_length_b   5.76594130
_cell_length_c   5.76594130
_cell_angle_alpha   57.45611020
_cell_angle_beta   57.45611020
_cell_angle_gamma   57.45611020
_symmetry_Int_Tables_number   1
_chemical_formula_structural   CaCrF6
_chemical_formula_sum   'Ca1 Cr1 F6'
_cell_volume   127.61629251
_cell_formula_units_Z   1
loop_
 _symmetry_equiv_pos_site_id
 _symmetry_equiv_pos_as_xyz
  1  'x, y, z'
loop_
 _atom_site_type_symbol
 _atom_site_label
 _atom_site_symmetry_multiplicity
 _atom_site_fract_x
 _atom_site_fract_y
 _atom_site_fract_z
 _atom_site_occupancy
  Ca  Ca0  1  0.500000  0.500000  0.500000  1
  Cr  Cr1  1  0.000000  0.000000  0.000000  1
  F  F2  1  0.873848  0.220120  0.680947  1
  F  F3  1  0.220120  0.680947  0.873848  1
  F  F4  1  0.319053  0.126152  0.779880  1
  F  F5  1  0.779880  0.319053  0.126152  1
  F  F6  1  0.126152  0.779880  0.319053  1
  F  F7  1  0.680947  0.873848  0.220120  1
