# generated using pymatgen
data_Cr2(Hg2O3)3
_symmetry_space_group_name_H-M   'P 1'
_cell_length_a   7.65129540
_cell_length_b   8.23085277
_cell_length_c   20.82414072
_cell_angle_alpha   90.00000000
_cell_angle_beta   90.00000000
_cell_angle_gamma   90.00000000
_symmetry_Int_Tables_number   1
_chemical_formula_structural   Cr2(Hg2O3)3
_chemical_formula_sum   'Cr8 Hg24 O36'
_cell_volume   1311.43537004
_cell_formula_units_Z   4
loop_
 _symmetry_equiv_pos_site_id
 _symmetry_equiv_pos_as_xyz
  1  'x, y, z'
loop_
 _atom_site_type_symbol
 _atom_site_label
 _atom_site_symmetry_multiplicity
 _atom_site_fract_x
 _atom_site_fract_y
 _atom_site_fract_z
 _atom_site_occupancy
  Cr  Cr0  1  0.975043  0.586881  0.441028  1
  Cr  Cr1  1  0.298941  0.189807  0.298366  1
  Cr  Cr2  1  0.798941  0.310193  0.701634  1
  Cr  Cr3  1  0.524957  0.413119  0.941028  1
  Cr  Cr4  1  0.475043  0.913119  0.558972  1
  Cr  Cr5  1  0.024957  0.086881  0.058972  1
  Cr  Cr6  1  0.201059  0.810193  0.798366  1
  Cr  Cr7  1  0.701059  0.689807  0.201634  1
  Hg  Hg8  1  0.964454  0.935972  0.639902  1
  Hg  Hg9  1  0.096661  0.785049  0.305471  1
  Hg  Hg10  1  0.591042  0.853219  0.379643  1
  Hg  Hg11  1  0.474174  0.977398  0.954365  1
  Hg  Hg12  1  0.091042  0.646781  0.620357  1
  Hg  Hg13  1  0.709108  0.813357  0.805726  1
  Hg  Hg14  1  0.974174  0.522602  0.045635  1
  Hg  Hg15  1  0.525826  0.477398  0.545635  1
  Hg  Hg16  1  0.790892  0.186643  0.305726  1
  Hg  Hg17  1  0.035546  0.435972  0.860098  1
  Hg  Hg18  1  0.121728  0.245766  0.536052  1
  Hg  Hg19  1  0.209108  0.686643  0.194274  1
  Hg  Hg20  1  0.535546  0.064028  0.139902  1
  Hg  Hg21  1  0.408958  0.353219  0.120357  1
  Hg  Hg22  1  0.621728  0.254234  0.463948  1
  Hg  Hg23  1  0.596661  0.714951  0.694529  1
  Hg  Hg24  1  0.290892  0.313357  0.694274  1
  Hg  Hg25  1  0.464454  0.564028  0.360098  1
  Hg  Hg26  1  0.878272  0.745766  0.963948  1
  Hg  Hg27  1  0.903339  0.285049  0.194529  1
  Hg  Hg28  1  0.908958  0.146781  0.879643  1
  Hg  Hg29  1  0.403339  0.214951  0.805471  1
  Hg  Hg30  1  0.378272  0.754234  0.036052  1
  Hg  Hg31  1  0.025826  0.022602  0.454365  1
  O  O32  1  0.406553  0.305559  0.354042  1
  O  O33  1  0.615019  0.399971  0.012517  1
  O  O34  1  0.480061  0.717064  0.595437  1
  O  O35  1  0.884981  0.600029  0.512517  1
  O  O36  1  0.906553  0.194441  0.645958  1
  O  O37  1  0.439770  0.059479  0.267335  1
  O  O38  1  0.134156  0.085648  0.333316  1
  O  O39  1  0.824803  0.017047  0.051618  1
  O  O40  1  0.980061  0.782936  0.404563  1
  O  O41  1  0.229609  0.422553  0.602488  1
  O  O42  1  0.770391  0.922553  0.897512  1
  O  O43  1  0.365844  0.914352  0.833316  1
  O  O44  1  0.675197  0.982953  0.551618  1
  O  O45  1  0.279525  0.693883  0.740563  1
  O  O46  1  0.384981  0.899971  0.487483  1
  O  O47  1  0.270391  0.577447  0.102488  1
  O  O48  1  0.357395  0.037063  0.603834  1
  O  O49  1  0.857395  0.462937  0.396166  1
  O  O50  1  0.220475  0.306117  0.240563  1
  O  O51  1  0.939770  0.440521  0.732665  1
  O  O52  1  0.779525  0.806117  0.259437  1
  O  O53  1  0.324803  0.482953  0.948382  1
  O  O54  1  0.115019  0.100029  0.987483  1
  O  O55  1  0.593447  0.805559  0.145958  1
  O  O56  1  0.019939  0.282936  0.095437  1
  O  O57  1  0.560230  0.559479  0.232665  1
  O  O58  1  0.642605  0.537063  0.896166  1
  O  O59  1  0.175197  0.517047  0.448382  1
  O  O60  1  0.720475  0.193883  0.759437  1
  O  O61  1  0.060230  0.940521  0.767335  1
  O  O62  1  0.519939  0.217064  0.904563  1
  O  O63  1  0.865844  0.585648  0.166684  1
  O  O64  1  0.142605  0.962937  0.103834  1
  O  O65  1  0.093447  0.694441  0.854042  1
  O  O66  1  0.634156  0.414352  0.666684  1
  O  O67  1  0.729609  0.077447  0.397512  1
