# generated using pymatgen
data_CuSeO4
_symmetry_space_group_name_H-M   'P 1'
_cell_length_a   4.92751797
_cell_length_b   4.92751797
_cell_length_c   6.67532806
_cell_angle_alpha   90.00000000
_cell_angle_beta   90.00000000
_cell_angle_gamma   111.06268944
_symmetry_Int_Tables_number   1
_chemical_formula_structural   CuSeO4
_chemical_formula_sum   'Cu2 Se2 O8'
_cell_volume   151.25094017
_cell_formula_units_Z   2
loop_
 _symmetry_equiv_pos_site_id
 _symmetry_equiv_pos_as_xyz
  1  'x, y, z'
loop_
 _atom_site_type_symbol
 _atom_site_label
 _atom_site_symmetry_multiplicity
 _atom_site_fract_x
 _atom_site_fract_y
 _atom_site_fract_z
 _atom_site_occupancy
  Cu  Cu0  1  0.000000  0.000000  0.000000  1
  Cu  Cu1  1  0.000000  0.000000  0.500000  1
  Se  Se2  1  0.348070  0.651930  0.750000  1
  Se  Se3  1  0.651930  0.348070  0.250000  1
  O  O4  1  0.238572  0.761428  0.537761  1
  O  O5  1  0.761428  0.238572  0.462239  1
  O  O6  1  0.280797  0.223139  0.250000  1
  O  O7  1  0.719203  0.776861  0.750000  1
  O  O8  1  0.238572  0.761428  0.962239  1
  O  O9  1  0.761428  0.238572  0.037761  1
  O  O10  1  0.776861  0.719203  0.250000  1
  O  O11  1  0.223139  0.280797  0.750000  1
