# generated using pymatgen
data_Fe3BO5
_symmetry_space_group_name_H-M   'P 1'
_cell_length_a   3.10414327
_cell_length_b   9.63928716
_cell_length_c   12.49527795
_cell_angle_alpha   90.00000000
_cell_angle_beta   90.00000000
_cell_angle_gamma   90.00000000
_symmetry_Int_Tables_number   1
_chemical_formula_structural   Fe3BO5
_chemical_formula_sum   'Fe12 B4 O20'
_cell_volume   373.88031218
_cell_formula_units_Z   4
loop_
 _symmetry_equiv_pos_site_id
 _symmetry_equiv_pos_as_xyz
  1  'x, y, z'
loop_
 _atom_site_type_symbol
 _atom_site_label
 _atom_site_symmetry_multiplicity
 _atom_site_fract_x
 _atom_site_fract_y
 _atom_site_fract_z
 _atom_site_occupancy
  Fe  Fe0  1  0.500000  0.500000  0.000000  1
  Fe  Fe1  1  0.500000  0.000000  0.500000  1
  Fe  Fe2  1  0.500000  0.744174  0.386293  1
  Fe  Fe3  1  0.000000  0.001304  0.724568  1
  Fe  Fe4  1  0.000000  0.998696  0.275432  1
  Fe  Fe5  1  0.000000  0.498696  0.224568  1
  Fe  Fe6  1  0.500000  0.755826  0.886293  1
  Fe  Fe7  1  0.000000  0.501304  0.775432  1
  Fe  Fe8  1  0.000000  0.500000  0.500000  1
  Fe  Fe9  1  0.500000  0.255826  0.613707  1
  Fe  Fe10  1  0.500000  0.244174  0.113707  1
  Fe  Fe11  1  0.000000  0.000000  0.000000  1
  B  B12  1  0.500000  0.733760  0.637979  1
  B  B13  1  0.500000  0.766240  0.137979  1
  B  B14  1  0.500000  0.233760  0.862021  1
  B  B15  1  0.500000  0.266240  0.362021  1
  O  O16  1  0.500000  0.659363  0.542009  1
  O  O17  1  0.500000  0.377088  0.861152  1
  O  O18  1  0.000000  0.112333  0.140559  1
  O  O19  1  0.000000  0.118059  0.582675  1
  O  O20  1  0.500000  0.338545  0.265451  1
  O  O21  1  0.500000  0.622912  0.138848  1
  O  O22  1  0.000000  0.381941  0.082675  1
  O  O23  1  0.000000  0.612333  0.359441  1
  O  O24  1  0.000000  0.887667  0.859441  1
  O  O25  1  0.000000  0.618059  0.917325  1
  O  O26  1  0.000000  0.881941  0.417325  1
  O  O27  1  0.500000  0.838545  0.234549  1
  O  O28  1  0.500000  0.340637  0.457991  1
  O  O29  1  0.500000  0.661455  0.734549  1
  O  O30  1  0.500000  0.159363  0.957991  1
  O  O31  1  0.500000  0.840637  0.042009  1
  O  O32  1  0.000000  0.387667  0.640559  1
  O  O33  1  0.500000  0.122912  0.361152  1
  O  O34  1  0.500000  0.161455  0.765451  1
  O  O35  1  0.500000  0.877088  0.638848  1
