# generated using pymatgen
data_Na2SnAs2
_symmetry_space_group_name_H-M   'P 1'
_cell_length_a   14.84043417
_cell_length_b   14.84043417
_cell_length_c   14.84043417
_cell_angle_alpha   122.12235844
_cell_angle_beta   122.12235844
_cell_angle_gamma   86.36166712
_symmetry_Int_Tables_number   1
_chemical_formula_structural   Na2SnAs2
_chemical_formula_sum   'Na32 Sn16 As32'
_cell_volume   2232.09253742
_cell_formula_units_Z   16
loop_
 _symmetry_equiv_pos_site_id
 _symmetry_equiv_pos_as_xyz
  1  'x, y, z'
loop_
 _atom_site_type_symbol
 _atom_site_label
 _atom_site_symmetry_multiplicity
 _atom_site_fract_x
 _atom_site_fract_y
 _atom_site_fract_z
 _atom_site_occupancy
  Na  Na0  1  0.350371  0.149629  0.500000  1
  Na  Na1  1  0.495460  0.038720  0.221975  1
  Na  Na2  1  0.461280  0.004540  0.778025  1
  Na  Na3  1  0.433254  0.711280  0.956740  1
  Na  Na4  1  0.995460  0.773485  0.456740  1
  Na  Na5  1  0.023485  0.745460  0.956740  1
  Na  Na6  1  0.226515  0.683254  0.221975  1
  Na  Na7  1  0.600371  0.600371  0.700742  1
  Na  Na8  1  0.149820  0.149820  0.799640  1
  Na  Na9  1  0.850371  0.350371  0.200742  1
  Na  Na10  1  0.350180  0.350180  0.200360  1
  Na  Na11  1  0.149629  0.649629  0.799258  1
  Na  Na12  1  0.399629  0.100371  1.000000  1
  Na  Na13  1  0.899629  0.899629  0.299258  1
  Na  Na14  1  0.288720  0.245460  0.721975  1
  Na  Na15  1  0.523485  0.566746  0.278025  1
  Na  Na16  1  0.899820  0.600180  0.500000  1
  Na  Na17  1  0.600180  0.100180  0.700360  1
  Na  Na18  1  0.100371  0.399629  0.000000  1
  Na  Na19  1  0.816746  0.273485  0.778025  1
  Na  Na20  1  0.399820  0.899820  0.299640  1
  Na  Na21  1  0.754540  0.476515  0.043260  1
  Na  Na22  1  0.254540  0.211280  0.278025  1
  Na  Na23  1  0.100180  0.399820  0.500000  1
  Na  Na24  1  0.850180  0.649820  0.000000  1
  Na  Na25  1  0.933254  0.976515  0.721975  1
  Na  Na26  1  0.316746  0.538720  0.543260  1
  Na  Na27  1  0.961280  0.183254  0.456740  1
  Na  Na28  1  0.649629  0.850371  0.500000  1
  Na  Na29  1  0.726515  0.504540  0.543260  1
  Na  Na30  1  0.788720  0.066746  0.043260  1
  Na  Na31  1  0.649820  0.850180  0.000000  1
  Sn  Sn32  1  0.199139  0.900132  0.461523  1
  Sn  Sn33  1  0.987616  0.188609  0.038477  1
  Sn  Sn34  1  0.311391  0.512384  0.961523  1
  Sn  Sn35  1  0.487616  0.449139  0.799007  1
  Sn  Sn36  1  0.762384  0.061391  0.461523  1
  Sn  Sn37  1  0.050861  0.012384  0.200993  1
  Sn  Sn38  1  0.811391  0.849868  0.799007  1
  Sn  Sn39  1  0.099868  0.561391  0.299007  1
  Sn  Sn40  1  0.150132  0.949139  0.961523  1
  Sn  Sn41  1  0.650132  0.688609  0.200993  1
  Sn  Sn42  1  0.550861  0.349868  0.038477  1
  Sn  Sn43  1  0.599868  0.300861  0.538477  1
  Sn  Sn44  1  0.438609  0.737616  0.538477  1
  Sn  Sn45  1  0.938609  0.400132  0.700993  1
  Sn  Sn46  1  0.699139  0.237616  0.299007  1
  Sn  Sn47  1  0.262384  0.800861  0.700993  1
  As  As48  1  0.125000  0.557790  0.932790  1
  As  As49  1  0.625000  0.192210  0.067210  1
  As  As50  1  0.718052  0.040355  0.252502  1
  As  As51  1  0.031948  0.209645  0.247498  1
  As  As52  1  0.148076  0.148076  0.000000  1
  As  As53  1  0.442210  0.375000  0.567210  1
  As  As54  1  0.962147  0.784450  0.752502  1
  As  As55  1  0.398076  0.898076  0.500000  1
  As  As56  1  0.125000  0.057790  0.432790  1
  As  As57  1  0.601924  0.101924  0.500000  1
  As  As58  1  0.459645  0.781948  0.747498  1
  As  As59  1  0.790355  0.037853  0.822303  1
  As  As60  1  0.531948  0.284450  0.822303  1
  As  As61  1  0.898076  0.398076  0.500000  1
  As  As62  1  0.534450  0.281948  0.322303  1
  As  As63  1  0.215550  0.968052  0.177697  1
  As  As64  1  0.959645  0.212147  0.677697  1
  As  As65  1  0.715550  0.537853  0.247498  1
  As  As66  1  0.351924  0.351924  0.000000  1
  As  As67  1  0.807790  0.875000  0.432790  1
  As  As68  1  0.625000  0.692210  0.567210  1
  As  As69  1  0.851924  0.851924  0.000000  1
  As  As70  1  0.290355  0.468052  0.752502  1
  As  As71  1  0.942210  0.375000  0.067210  1
  As  As72  1  0.648076  0.648076  0.000000  1
  As  As73  1  0.307790  0.875000  0.932790  1
  As  As74  1  0.218052  0.965550  0.677697  1
  As  As75  1  0.101924  0.601924  0.500000  1
  As  As76  1  0.787853  0.465550  0.747498  1
  As  As77  1  0.462147  0.709645  0.177697  1
  As  As78  1  0.034450  0.712147  0.252502  1
  As  As79  1  0.287853  0.540355  0.322303  1
