# generated using pymatgen
data_La(AlBr4)3
_symmetry_space_group_name_H-M   'P 1'
_cell_length_a   10.75781687
_cell_length_b   10.75781687
_cell_length_c   19.12822098
_cell_angle_alpha   90.00000000
_cell_angle_beta   90.00000000
_cell_angle_gamma   120.00000000
_symmetry_Int_Tables_number   1
_chemical_formula_structural   La(AlBr4)3
_chemical_formula_sum   'La3 Al9 Br36'
_cell_volume   1917.13857722
_cell_formula_units_Z   3
loop_
 _symmetry_equiv_pos_site_id
 _symmetry_equiv_pos_as_xyz
  1  'x, y, z'
loop_
 _atom_site_type_symbol
 _atom_site_label
 _atom_site_symmetry_multiplicity
 _atom_site_fract_x
 _atom_site_fract_y
 _atom_site_fract_z
 _atom_site_occupancy
  La  La0  1  0.000000  0.729351  0.666667  1
  La  La1  1  0.270649  0.270649  0.000000  1
  La  La2  1  0.729351  0.000000  0.333333  1
  Al  Al3  1  0.368372  0.671198  0.053743  1
  Al  Al4  1  0.671198  0.368372  0.946257  1
  Al  Al5  1  0.328802  0.697174  0.387076  1
  Al  Al6  1  0.900118  0.900118  0.500000  1
  Al  Al7  1  0.697174  0.328802  0.612924  1
  Al  Al8  1  0.099882  0.000000  0.833333  1
  Al  Al9  1  0.302826  0.631628  0.720410  1
  Al  Al10  1  0.631628  0.302826  0.279590  1
  Al  Al11  1  0.000000  0.099882  0.166667  1
  Br  Br12  1  0.861088  0.577532  0.984074  1
  Br  Br13  1  0.422468  0.283556  0.317407  1
  Br  Br14  1  0.205752  0.970770  0.933921  1
  Br  Br15  1  0.083599  0.584764  0.777322  1
  Br  Br16  1  0.577532  0.861088  0.015926  1
  Br  Br17  1  0.495267  0.774263  0.788444  1
  Br  Br18  1  0.498835  0.415236  0.889345  1
  Br  Br19  1  0.278996  0.504733  0.455111  1
  Br  Br20  1  0.501165  0.916401  0.443988  1
  Br  Br21  1  0.794248  0.765018  0.399412  1
  Br  Br22  1  0.584764  0.083599  0.222678  1
  Br  Br23  1  0.766158  0.290484  0.376312  1
  Br  Br24  1  0.475674  0.709516  0.290355  1
  Br  Br25  1  0.290484  0.766158  0.623688  1
  Br  Br26  1  0.234982  0.029230  0.732746  1
  Br  Br27  1  0.721004  0.225737  0.878222  1
  Br  Br28  1  0.765018  0.794248  0.600588  1
  Br  Br29  1  0.803566  0.878606  0.196934  1
  Br  Br30  1  0.924960  0.121394  0.469733  1
  Br  Br31  1  0.504733  0.278996  0.544889  1
  Br  Br32  1  0.716444  0.138912  0.650740  1
  Br  Br33  1  0.709516  0.475674  0.709645  1
  Br  Br34  1  0.774263  0.495267  0.211556  1
  Br  Br35  1  0.970770  0.205752  0.066079  1
  Br  Br36  1  0.415236  0.498835  0.110655  1
  Br  Br37  1  0.196434  0.075040  0.136400  1
  Br  Br38  1  0.916401  0.501165  0.556012  1
  Br  Br39  1  0.075040  0.196434  0.863600  1
  Br  Br40  1  0.138912  0.716444  0.349260  1
  Br  Br41  1  0.878606  0.803566  0.803066  1
  Br  Br42  1  0.121394  0.924960  0.530267  1
  Br  Br43  1  0.029230  0.234982  0.267254  1
  Br  Br44  1  0.283556  0.422468  0.682593  1
  Br  Br45  1  0.233842  0.524326  0.957021  1
  Br  Br46  1  0.225737  0.721004  0.121778  1
  Br  Br47  1  0.524326  0.233842  0.042979  1
