# generated using pymatgen
data_Ta2S
_symmetry_space_group_name_H-M   'P 1'
_cell_length_a   5.63522743
_cell_length_b   7.40328353
_cell_length_c   15.31457970
_cell_angle_alpha   90.00000000
_cell_angle_beta   90.00000000
_cell_angle_gamma   90.00000000
_symmetry_Int_Tables_number   1
_chemical_formula_structural   Ta2S
_chemical_formula_sum   'Ta24 S12'
_cell_volume   638.91180545
_cell_formula_units_Z   12
loop_
 _symmetry_equiv_pos_site_id
 _symmetry_equiv_pos_as_xyz
  1  'x, y, z'
loop_
 _atom_site_type_symbol
 _atom_site_label
 _atom_site_symmetry_multiplicity
 _atom_site_fract_x
 _atom_site_fract_y
 _atom_site_fract_z
 _atom_site_occupancy
  Ta  Ta0  1  0.131391  0.009852  0.750000  1
  Ta  Ta1  1  0.102391  0.905799  0.410841  1
  Ta  Ta2  1  0.896533  0.715384  0.845027  1
  Ta  Ta3  1  0.602391  0.094201  0.089159  1
  Ta  Ta4  1  0.603467  0.715384  0.154973  1
  Ta  Ta5  1  0.868609  0.990148  0.250000  1
  Ta  Ta6  1  0.103467  0.284616  0.345027  1
  Ta  Ta7  1  0.897609  0.094201  0.589159  1
  Ta  Ta8  1  0.897609  0.094201  0.910841  1
  Ta  Ta9  1  0.628145  0.350255  0.250000  1
  Ta  Ta10  1  0.396533  0.284616  0.654973  1
  Ta  Ta11  1  0.871855  0.350255  0.750000  1
  Ta  Ta12  1  0.631391  0.990148  0.750000  1
  Ta  Ta13  1  0.397609  0.905799  0.910841  1
  Ta  Ta14  1  0.397609  0.905799  0.589159  1
  Ta  Ta15  1  0.368609  0.009852  0.250000  1
  Ta  Ta16  1  0.396533  0.284616  0.845027  1
  Ta  Ta17  1  0.103467  0.284616  0.154973  1
  Ta  Ta18  1  0.896533  0.715384  0.654973  1
  Ta  Ta19  1  0.603467  0.715384  0.345027  1
  Ta  Ta20  1  0.602391  0.094201  0.410841  1
  Ta  Ta21  1  0.128145  0.649745  0.250000  1
  Ta  Ta22  1  0.102391  0.905799  0.089159  1
  Ta  Ta23  1  0.371855  0.649745  0.750000  1
  S  S24  1  0.268343  0.588464  0.902910  1
  S  S25  1  0.731657  0.411536  0.097090  1
  S  S26  1  0.250000  0.180265  0.500000  1
  S  S27  1  0.750000  0.819735  0.000000  1
  S  S28  1  0.268343  0.588464  0.597090  1
  S  S29  1  0.250000  0.180265  0.000000  1
  S  S30  1  0.768343  0.411536  0.902910  1
  S  S31  1  0.231657  0.588464  0.402910  1
  S  S32  1  0.731657  0.411536  0.402910  1
  S  S33  1  0.231657  0.588464  0.097090  1
  S  S34  1  0.750000  0.819735  0.500000  1
  S  S35  1  0.768343  0.411536  0.597090  1
