# generated using pymatgen
data_Hg3TeO6
_symmetry_space_group_name_H-M   'P 1'
_cell_length_a   11.90954639
_cell_length_b   11.90954639
_cell_length_c   11.90954639
_cell_angle_alpha   109.47122063
_cell_angle_beta   109.47122063
_cell_angle_gamma   109.47122063
_symmetry_Int_Tables_number   1
_chemical_formula_structural   Hg3TeO6
_chemical_formula_sum   'Hg24 Te8 O48'
_cell_volume   1300.36050558
_cell_formula_units_Z   8
loop_
 _symmetry_equiv_pos_site_id
 _symmetry_equiv_pos_as_xyz
  1  'x, y, z'
loop_
 _atom_site_type_symbol
 _atom_site_label
 _atom_site_symmetry_multiplicity
 _atom_site_fract_x
 _atom_site_fract_y
 _atom_site_fract_z
 _atom_site_occupancy
  Hg  Hg0  1  0.343679  0.687357  0.593679  1
  Hg  Hg1  1  0.093679  0.187357  0.843679  1
  Hg  Hg2  1  0.843679  0.250000  0.656321  1
  Hg  Hg3  1  0.250000  0.093679  0.406321  1
  Hg  Hg4  1  0.687357  0.593679  0.343679  1
  Hg  Hg5  1  0.406321  0.656321  0.312643  1
  Hg  Hg6  1  0.812643  0.156321  0.906321  1
  Hg  Hg7  1  0.156321  0.906321  0.812643  1
  Hg  Hg8  1  0.906321  0.812643  0.156321  1
  Hg  Hg9  1  0.156321  0.750000  0.343679  1
  Hg  Hg10  1  0.187357  0.843679  0.093679  1
  Hg  Hg11  1  0.656321  0.312643  0.406321  1
  Hg  Hg12  1  0.750000  0.906321  0.593679  1
  Hg  Hg13  1  0.593679  0.750000  0.906321  1
  Hg  Hg14  1  0.406321  0.250000  0.093679  1
  Hg  Hg15  1  0.906321  0.593679  0.750000  1
  Hg  Hg16  1  0.093679  0.406321  0.250000  1
  Hg  Hg17  1  0.312643  0.406321  0.656321  1
  Hg  Hg18  1  0.750000  0.343679  0.156321  1
  Hg  Hg19  1  0.656321  0.843679  0.250000  1
  Hg  Hg20  1  0.250000  0.656321  0.843679  1
  Hg  Hg21  1  0.593679  0.343679  0.687357  1
  Hg  Hg22  1  0.343679  0.156321  0.750000  1
  Hg  Hg23  1  0.843679  0.093679  0.187357  1
  Te  Te24  1  0.500000  1.000000  0.500000  1
  Te  Te25  1  0.000000  0.000000  0.000000  1
  Te  Te26  1  0.500000  0.500000  0.000000  1
  Te  Te27  1  0.000000  0.500000  0.000000  1
  Te  Te28  1  0.000000  0.000000  0.500000  1
  Te  Te29  1  0.500000  0.000000  0.000000  1
  Te  Te30  1  1.000000  0.500000  0.500000  1
  Te  Te31  1  0.500000  0.500000  0.500000  1
  O  O32  1  0.504983  0.641788  0.650647  1
  O  O33  1  0.363195  0.854336  0.504983  1
  O  O34  1  0.863195  0.004983  0.354336  1
  O  O35  1  0.641788  0.491142  0.136805  1
  O  O36  1  0.641788  0.650647  0.504983  1
  O  O37  1  0.141788  0.004983  0.150647  1
  O  O38  1  0.650647  0.504983  0.641788  1
  O  O39  1  0.008858  0.650647  0.645664  1
  O  O40  1  0.145664  0.150647  0.508858  1
  O  O41  1  0.354336  0.991142  0.349353  1
  O  O42  1  0.354336  0.863195  0.004983  1
  O  O43  1  0.150647  0.508858  0.145664  1
  O  O44  1  0.995017  0.645664  0.136805  1
  O  O45  1  0.491142  0.136805  0.641788  1
  O  O46  1  0.008858  0.858212  0.363195  1
  O  O47  1  0.136805  0.995017  0.645664  1
  O  O48  1  0.508858  0.863195  0.358212  1
  O  O49  1  0.495017  0.358212  0.349353  1
  O  O50  1  0.495017  0.636805  0.145664  1
  O  O51  1  0.363195  0.008858  0.858212  1
  O  O52  1  0.358212  0.508858  0.863195  1
  O  O53  1  0.004983  0.354336  0.863195  1
  O  O54  1  0.645664  0.136805  0.995017  1
  O  O55  1  0.636805  0.145664  0.495017  1
  O  O56  1  0.858212  0.363195  0.008858  1
  O  O57  1  0.650647  0.645664  0.008858  1
  O  O58  1  0.995017  0.849353  0.858212  1
  O  O59  1  0.358212  0.349353  0.495017  1
  O  O60  1  0.504983  0.363195  0.854336  1
  O  O61  1  0.991142  0.349353  0.354336  1
  O  O62  1  0.854336  0.504983  0.363195  1
  O  O63  1  0.145664  0.495017  0.636805  1
  O  O64  1  0.150647  0.141788  0.004983  1
  O  O65  1  0.141788  0.636805  0.991142  1
  O  O66  1  0.858212  0.995017  0.849353  1
  O  O67  1  0.136805  0.641788  0.491142  1
  O  O68  1  0.004983  0.150647  0.141788  1
  O  O69  1  0.863195  0.358212  0.508858  1
  O  O70  1  0.849353  0.858212  0.995017  1
  O  O71  1  0.849353  0.491142  0.854336  1
  O  O72  1  0.349353  0.495017  0.358212  1
  O  O73  1  0.508858  0.145664  0.150647  1
  O  O74  1  0.645664  0.008858  0.650647  1
  O  O75  1  0.636805  0.991142  0.141788  1
  O  O76  1  0.349353  0.354336  0.991142  1
  O  O77  1  0.991142  0.141788  0.636805  1
  O  O78  1  0.854336  0.849353  0.491142  1
  O  O79  1  0.491142  0.854336  0.849353  1
