# generated using pymatgen
data_Zr6Al7Cu16H9
_symmetry_space_group_name_H-M   'P 1'
_cell_length_a   8.55838904
_cell_length_b   8.55838904
_cell_length_c   8.55838904
_cell_angle_alpha   60.00000000
_cell_angle_beta   60.00000000
_cell_angle_gamma   60.00000000
_symmetry_Int_Tables_number   1
_chemical_formula_structural   Zr6Al7Cu16H9
_chemical_formula_sum   'Zr6 Al7 Cu16 H9'
_cell_volume   443.26258568
_cell_formula_units_Z   1
loop_
 _symmetry_equiv_pos_site_id
 _symmetry_equiv_pos_as_xyz
  1  'x, y, z'
loop_
 _atom_site_type_symbol
 _atom_site_label
 _atom_site_symmetry_multiplicity
 _atom_site_fract_x
 _atom_site_fract_y
 _atom_site_fract_z
 _atom_site_occupancy
  Zr  Zr0  1  0.799645  0.200355  0.200355  1
  Zr  Zr1  1  0.200355  0.799645  0.200355  1
  Zr  Zr2  1  0.799645  0.200355  0.799645  1
  Zr  Zr3  1  0.799645  0.799645  0.200355  1
  Zr  Zr4  1  0.200355  0.200355  0.799645  1
  Zr  Zr5  1  0.200355  0.799645  0.799645  1
  Al  Al6  1  1.000000  0.500000  0.500000  1
  Al  Al7  1  1.000000  0.500000  0.000000  1
  Al  Al8  1  0.500000  0.000000  0.500000  1
  Al  Al9  1  0.500000  1.000000  0.000000  1
  Al  Al10  1  0.500000  0.500000  1.000000  1
  Al  Al11  1  1.000000  1.000000  0.500000  1
  Al  Al12  1  0.500000  0.500000  0.500000  1
  Cu  Cu13  1  0.824684  0.525949  0.824684  1
  Cu  Cu14  1  0.175316  0.175316  0.175316  1
  Cu  Cu15  1  0.175316  0.175316  0.474051  1
  Cu  Cu16  1  0.474051  0.175316  0.175316  1
  Cu  Cu17  1  0.824684  0.824684  0.525949  1
  Cu  Cu18  1  0.525949  0.824684  0.824684  1
  Cu  Cu19  1  0.824684  0.824684  0.824684  1
  Cu  Cu20  1  0.175316  0.474051  0.175316  1
  Cu  Cu21  1  0.619288  0.142136  0.619288  1
  Cu  Cu22  1  0.380712  0.380712  0.380712  1
  Cu  Cu23  1  0.380712  0.380712  0.857864  1
  Cu  Cu24  1  0.857864  0.380712  0.380712  1
  Cu  Cu25  1  0.619288  0.619288  0.142136  1
  Cu  Cu26  1  0.142136  0.619288  0.619288  1
  Cu  Cu27  1  0.619288  0.619288  0.619288  1
  Cu  Cu28  1  0.380712  0.857864  0.380712  1
  H  H29  1  1.000000  1.000000  1.000000  1
  H  H30  1  0.906326  0.281023  0.906326  1
  H  H31  1  0.093674  0.093674  0.093674  1
  H  H32  1  0.093674  0.093674  0.718977  1
  H  H33  1  0.718977  0.093674  0.093674  1
  H  H34  1  0.906326  0.906326  0.281023  1
  H  H35  1  0.281023  0.906326  0.906326  1
  H  H36  1  0.906326  0.906326  0.906326  1
  H  H37  1  0.093674  0.718977  0.093674  1
