# generated using pymatgen
data_SbC2N(OF3)2
_symmetry_space_group_name_H-M   'P 1'
_cell_length_a   9.02008229
_cell_length_b   5.59679758
_cell_length_c   15.59140927
_cell_angle_alpha   90.00000000
_cell_angle_beta   101.04098482
_cell_angle_gamma   90.00000000
_symmetry_Int_Tables_number   1
_chemical_formula_structural   SbC2N(OF3)2
_chemical_formula_sum   'Sb4 C8 N4 O8 F24'
_cell_volume   772.54101639
_cell_formula_units_Z   4
loop_
 _symmetry_equiv_pos_site_id
 _symmetry_equiv_pos_as_xyz
  1  'x, y, z'
loop_
 _atom_site_type_symbol
 _atom_site_label
 _atom_site_symmetry_multiplicity
 _atom_site_fract_x
 _atom_site_fract_y
 _atom_site_fract_z
 _atom_site_occupancy
  Sb  Sb0  1  0.294796  0.741131  0.598405  1
  Sb  Sb1  1  0.705204  0.241131  0.901595  1
  Sb  Sb2  1  0.705204  0.258869  0.401595  1
  Sb  Sb3  1  0.294796  0.758869  0.098405  1
  C  C4  1  0.643685  0.850537  0.142334  1
  C  C5  1  0.643685  0.649463  0.642334  1
  C  C6  1  0.148805  0.406546  0.831441  1
  C  C7  1  0.356315  0.350537  0.357666  1
  C  C8  1  0.148805  0.093454  0.331441  1
  C  C9  1  0.356315  0.149463  0.857666  1
  C  C10  1  0.851195  0.593454  0.168559  1
  C  C11  1  0.851195  0.906546  0.668559  1
  N  N12  1  0.789636  0.707966  0.660598  1
  N  N13  1  0.210364  0.207966  0.839402  1
  N  N14  1  0.789636  0.792034  0.160598  1
  N  N15  1  0.210364  0.292034  0.339402  1
  O  O16  1  0.924897  0.422109  0.179602  1
  O  O17  1  0.924897  0.077891  0.679602  1
  O  O18  1  0.536237  0.707590  0.125036  1
  O  O19  1  0.075103  0.922109  0.320398  1
  O  O20  1  0.075103  0.577891  0.820398  1
  O  O21  1  0.536237  0.792410  0.625036  1
  O  O22  1  0.463763  0.292410  0.874964  1
  O  O23  1  0.463763  0.207590  0.374964  1
  F  F24  1  0.676344  0.053693  0.797324  1
  F  F25  1  0.297550  0.933352  0.497950  1
  F  F26  1  0.295619  0.477934  0.167167  1
  F  F27  1  0.325927  0.466245  0.531987  1
  F  F28  1  0.295619  0.022066  0.667167  1
  F  F29  1  0.619639  0.082785  0.144167  1
  F  F30  1  0.704381  0.522066  0.832833  1
  F  F31  1  0.704381  0.977934  0.332833  1
  F  F32  1  0.702450  0.433352  0.002050  1
  F  F33  1  0.380361  0.582785  0.355833  1
  F  F34  1  0.918468  0.290731  0.422486  1
  F  F35  1  0.323656  0.553693  0.702676  1
  F  F36  1  0.323656  0.946307  0.202676  1
  F  F37  1  0.081532  0.790731  0.077514  1
  F  F38  1  0.081532  0.709269  0.577514  1
  F  F39  1  0.380361  0.917215  0.855833  1
  F  F40  1  0.619639  0.417215  0.644167  1
  F  F41  1  0.918468  0.209269  0.922486  1
  F  F42  1  0.676344  0.446307  0.297324  1
  F  F43  1  0.325927  0.033755  0.031987  1
  F  F44  1  0.702450  0.066648  0.502050  1
  F  F45  1  0.674073  0.966245  0.968013  1
  F  F46  1  0.674073  0.533755  0.468013  1
  F  F47  1  0.297550  0.566648  0.997950  1
