# generated using pymatgen
data_SrBiClO2
_symmetry_space_group_name_H-M   'P 1'
_cell_length_a   6.98754996
_cell_length_b   6.98754996
_cell_length_c   5.68054358
_cell_angle_alpha   90.00000000
_cell_angle_beta   90.00000000
_cell_angle_gamma   131.02013780
_symmetry_Int_Tables_number   1
_chemical_formula_structural   SrBiClO2
_chemical_formula_sum   'Sr2 Bi2 Cl2 O4'
_cell_volume   209.26031502
_cell_formula_units_Z   2
loop_
 _symmetry_equiv_pos_site_id
 _symmetry_equiv_pos_as_xyz
  1  'x, y, z'
loop_
 _atom_site_type_symbol
 _atom_site_label
 _atom_site_symmetry_multiplicity
 _atom_site_fract_x
 _atom_site_fract_y
 _atom_site_fract_z
 _atom_site_occupancy
  Sr  Sr0  1  0.892022  0.107978  0.750000  1
  Sr  Sr1  1  0.107978  0.892022  0.250000  1
  Bi  Bi2  1  0.419288  0.580712  0.250000  1
  Bi  Bi3  1  0.580712  0.419288  0.750000  1
  Cl  Cl4  1  0.755615  0.244385  0.250000  1
  Cl  Cl5  1  0.244385  0.755615  0.750000  1
  O  O6  1  0.735419  0.735419  1.000000  1
  O  O7  1  0.735419  0.735419  0.500000  1
  O  O8  1  0.264581  0.264581  0.500000  1
  O  O9  1  0.264581  0.264581  0.000000  1
