# generated using pymatgen
data_Tl3Bi2I9
_symmetry_space_group_name_H-M   'P 1'
_cell_length_a   14.80314364
_cell_length_b   8.08884971
_cell_length_c   25.26500644
_cell_angle_alpha   90.00000000
_cell_angle_beta   122.72786971
_cell_angle_gamma   90.00000000
_symmetry_Int_Tables_number   1
_chemical_formula_structural   Tl3Bi2I9
_chemical_formula_sum   'Tl12 Bi8 I36'
_cell_volume   2544.97854727
_cell_formula_units_Z   4
loop_
 _symmetry_equiv_pos_site_id
 _symmetry_equiv_pos_as_xyz
  1  'x, y, z'
loop_
 _atom_site_type_symbol
 _atom_site_label
 _atom_site_symmetry_multiplicity
 _atom_site_fract_x
 _atom_site_fract_y
 _atom_site_fract_z
 _atom_site_occupancy
  Tl  Tl0  1  0.019182  0.039492  0.384810  1
  Tl  Tl1  1  0.324674  0.957250  0.286041  1
  Tl  Tl2  1  0.019182  0.460508  0.884810  1
  Tl  Tl3  1  0.652255  0.537704  0.451867  1
  Tl  Tl4  1  0.652255  0.962296  0.951867  1
  Tl  Tl5  1  0.347745  0.037704  0.048133  1
  Tl  Tl6  1  0.980818  0.960508  0.615190  1
  Tl  Tl7  1  0.675326  0.457250  0.213959  1
  Tl  Tl8  1  0.347745  0.462296  0.548133  1
  Tl  Tl9  1  0.324674  0.542750  0.786041  1
  Tl  Tl10  1  0.675326  0.042750  0.713959  1
  Tl  Tl11  1  0.980818  0.539492  0.115190  1
  Bi  Bi12  1  0.827522  0.002542  0.159883  1
  Bi  Bi13  1  0.673400  0.484923  0.840555  1
  Bi  Bi14  1  0.827522  0.497458  0.659883  1
  Bi  Bi15  1  0.172478  0.997458  0.840117  1
  Bi  Bi16  1  0.326600  0.515077  0.159445  1
  Bi  Bi17  1  0.673400  0.015077  0.340555  1
  Bi  Bi18  1  0.326600  0.984923  0.659445  1
  Bi  Bi19  1  0.172478  0.502542  0.340117  1
  I  I20  1  0.476304  0.178227  0.209484  1
  I  I21  1  0.097574  0.609655  0.423956  1
  I  I22  1  0.618618  0.318314  0.583161  1
  I  I23  1  0.848722  0.677562  0.949042  1
  I  I24  1  0.151278  0.322438  0.050958  1
  I  I25  1  0.807053  0.180643  0.875910  1
  I  I26  1  0.228929  0.126925  0.739848  1
  I  I27  1  0.771071  0.626925  0.760152  1
  I  I28  1  0.936246  0.172871  0.748344  1
  I  I29  1  0.268808  0.189280  0.412911  1
  I  I30  1  0.063754  0.827129  0.251656  1
  I  I31  1  0.731192  0.810720  0.587089  1
  I  I32  1  0.192947  0.819357  0.124090  1
  I  I33  1  0.192947  0.680643  0.624090  1
  I  I34  1  0.902426  0.109655  0.076044  1
  I  I35  1  0.427861  0.888487  0.588932  1
  I  I36  1  0.902426  0.390345  0.576044  1
  I  I37  1  0.381382  0.818313  0.916839  1
  I  I38  1  0.268808  0.310720  0.912911  1
  I  I39  1  0.063754  0.672871  0.751656  1
  I  I40  1  0.572139  0.111513  0.411068  1
  I  I41  1  0.476304  0.321773  0.709484  1
  I  I42  1  0.228929  0.373075  0.239848  1
  I  I43  1  0.848722  0.822438  0.449042  1
  I  I44  1  0.807053  0.319357  0.375910  1
  I  I45  1  0.381382  0.681686  0.416839  1
  I  I46  1  0.731192  0.689280  0.087089  1
  I  I47  1  0.151278  0.177562  0.550958  1
  I  I48  1  0.427861  0.611513  0.088932  1
  I  I49  1  0.523696  0.821773  0.790516  1
  I  I50  1  0.097574  0.890345  0.923956  1
  I  I51  1  0.936246  0.327129  0.248344  1
  I  I52  1  0.572139  0.388487  0.911068  1
  I  I53  1  0.523696  0.678227  0.290516  1
  I  I54  1  0.771071  0.873075  0.260152  1
  I  I55  1  0.618618  0.181686  0.083161  1
