# generated using pymatgen
data_Cs2KMnF6
_symmetry_space_group_name_H-M   'P 1'
_cell_length_a   6.57355195
_cell_length_b   6.57355195
_cell_length_c   6.57355195
_cell_angle_alpha   121.51855353
_cell_angle_beta   121.51855353
_cell_angle_gamma   87.38931528
_symmetry_Int_Tables_number   1
_chemical_formula_structural   Cs2KMnF6
_chemical_formula_sum   'Cs2 K1 Mn1 F6'
_cell_volume   196.02482056
_cell_formula_units_Z   1
loop_
 _symmetry_equiv_pos_site_id
 _symmetry_equiv_pos_as_xyz
  1  'x, y, z'
loop_
 _atom_site_type_symbol
 _atom_site_label
 _atom_site_symmetry_multiplicity
 _atom_site_fract_x
 _atom_site_fract_y
 _atom_site_fract_z
 _atom_site_occupancy
  Cs  Cs0  1  0.750000  0.250000  0.500000  1
  Cs  Cs1  1  0.250000  0.750000  0.500000  1
  K  K2  1  0.500000  0.500000  0.000000  1
  Mn  Mn3  1  0.000000  0.000000  0.000000  1
  F  F4  1  0.774492  0.774492  0.000000  1
  F  F5  1  0.225508  0.225508  0.000000  1
  F  F6  1  0.789629  0.789629  0.579258  1
  F  F7  1  0.789629  0.210371  0.000000  1
  F  F8  1  0.210371  0.210371  0.420742  1
  F  F9  1  0.210371  0.789629  1.000000  1
