# generated using pymatgen
data_Cs(MoO3)3
_symmetry_space_group_name_H-M   'P 1'
_cell_length_a   9.28858574
_cell_length_b   9.28858574
_cell_length_c   6.55514652
_cell_angle_alpha   86.42916982
_cell_angle_beta   93.57083018
_cell_angle_gamma   130.15615832
_symmetry_Int_Tables_number   1
_chemical_formula_structural   Cs(MoO3)3
_chemical_formula_sum   'Cs2 Mo6 O18'
_cell_volume   431.23398502
_cell_formula_units_Z   2
loop_
 _symmetry_equiv_pos_site_id
 _symmetry_equiv_pos_as_xyz
  1  'x, y, z'
loop_
 _atom_site_type_symbol
 _atom_site_label
 _atom_site_symmetry_multiplicity
 _atom_site_fract_x
 _atom_site_fract_y
 _atom_site_fract_z
 _atom_site_occupancy
  Cs  Cs0  1  0.297965  0.702035  0.175494  1
  Cs  Cs1  1  0.702035  0.297965  0.824506  1
  Mo  Mo2  1  0.209907  0.311250  0.730381  1
  Mo  Mo3  1  0.311250  0.209907  0.269619  1
  Mo  Mo4  1  0.790093  0.688750  0.269619  1
  Mo  Mo5  1  0.688750  0.790093  0.730381  1
  Mo  Mo6  1  0.107190  0.892810  0.641064  1
  Mo  Mo7  1  0.892810  0.107190  0.358936  1
  O  O8  1  0.164757  0.309695  0.410099  1
  O  O9  1  0.309695  0.164757  0.589901  1
  O  O10  1  0.835243  0.690305  0.589901  1
  O  O11  1  0.690305  0.835243  0.410099  1
  O  O12  1  0.115936  0.414044  0.784678  1
  O  O13  1  0.414044  0.115936  0.215322  1
  O  O14  1  0.884064  0.585956  0.215322  1
  O  O15  1  0.585956  0.884064  0.784678  1
  O  O16  1  0.742271  0.742271  0.000000  1
  O  O17  1  0.257729  0.257729  0.000000  1
  O  O18  1  0.801704  0.198296  0.466967  1
  O  O19  1  0.198296  0.801704  0.533033  1
  O  O20  1  0.867515  0.132485  0.098321  1
  O  O21  1  0.132485  0.867515  0.901679  1
  O  O22  1  0.467398  0.532602  0.704942  1
  O  O23  1  0.532602  0.467398  0.295058  1
  O  O24  1  0.965794  0.034206  0.690111  1
  O  O25  1  0.034206  0.965794  0.309889  1
