# generated using pymatgen
data_CrPO4
_symmetry_space_group_name_H-M   'P 1'
_cell_length_a   6.28766090
_cell_length_b   6.34895356
_cell_length_c   8.95883614
_cell_angle_alpha   92.16610158
_cell_angle_beta   110.44358442
_cell_angle_gamma   97.57996630
_symmetry_Int_Tables_number   1
_chemical_formula_structural   CrPO4
_chemical_formula_sum   'Cr4 P4 O16'
_cell_volume   330.82678973
_cell_formula_units_Z   4
loop_
 _symmetry_equiv_pos_site_id
 _symmetry_equiv_pos_as_xyz
  1  'x, y, z'
loop_
 _atom_site_type_symbol
 _atom_site_label
 _atom_site_symmetry_multiplicity
 _atom_site_fract_x
 _atom_site_fract_y
 _atom_site_fract_z
 _atom_site_occupancy
  Cr  Cr0  1  0.821932  0.949822  0.709381  1
  Cr  Cr1  1  0.699527  0.179491  0.013406  1
  Cr  Cr2  1  0.300473  0.820509  0.986594  1
  Cr  Cr3  1  0.178068  0.050178  0.290619  1
  P  P4  1  0.377820  0.896665  0.659796  1
  P  P5  1  0.824385  0.713352  0.036213  1
  P  P6  1  0.175615  0.286648  0.963787  1
  P  P7  1  0.622180  0.103335  0.340204  1
  O  O8  1  0.790220  0.177634  0.251797  1
  O  O9  1  0.277924  0.517601  0.014913  1
  O  O10  1  0.469548  0.266236  0.359984  1
  O  O11  1  0.953066  0.804169  0.921726  1
  O  O12  1  0.582744  0.087117  0.764662  1
  O  O13  1  0.722076  0.482399  0.985087  1
  O  O14  1  0.530452  0.733764  0.640016  1
  O  O15  1  0.046934  0.195831  0.078274  1
  O  O16  1  0.372759  0.145416  0.992729  1
  O  O17  1  0.627241  0.854584  0.007271  1
  O  O18  1  0.984417  0.764439  0.209128  1
  O  O19  1  0.209780  0.822366  0.748203  1
  O  O20  1  0.417256  0.912883  0.235338  1
  O  O21  1  0.015583  0.235561  0.790872  1
  O  O22  1  0.768503  0.020970  0.493601  1
  O  O23  1  0.231497  0.979030  0.506399  1
