# generated using pymatgen
data_ErCu(WO4)2
_symmetry_space_group_name_H-M   'P 1'
_cell_length_a   5.08166141
_cell_length_b   5.98453273
_cell_length_c   10.98478617
_cell_angle_alpha   90.00000000
_cell_angle_beta   114.70868743
_cell_angle_gamma   90.00000000
_symmetry_Int_Tables_number   1
_chemical_formula_structural   ErCu(WO4)2
_chemical_formula_sum   'Er2 Cu2 W4 O16'
_cell_volume   303.47724027
_cell_formula_units_Z   2
loop_
 _symmetry_equiv_pos_site_id
 _symmetry_equiv_pos_as_xyz
  1  'x, y, z'
loop_
 _atom_site_type_symbol
 _atom_site_label
 _atom_site_symmetry_multiplicity
 _atom_site_fract_x
 _atom_site_fract_y
 _atom_site_fract_z
 _atom_site_occupancy
  Er  Er0  1  0.000000  0.334064  0.250000  1
  Er  Er1  1  0.000000  0.665936  0.750000  1
  Cu  Cu2  1  0.500000  0.716131  0.250000  1
  Cu  Cu3  1  0.500000  0.283869  0.750000  1
  W  W4  1  0.762183  0.169015  0.511040  1
  W  W5  1  0.237817  0.830985  0.488960  1
  W  W6  1  0.237817  0.169015  0.988960  1
  W  W7  1  0.762183  0.830985  0.011040  1
  O  O8  1  0.731289  0.360990  0.636517  1
  O  O9  1  0.268711  0.360990  0.863483  1
  O  O10  1  0.268711  0.639010  0.363483  1
  O  O11  1  0.731289  0.639010  0.136517  1
  O  O12  1  0.161712  0.910370  0.110702  1
  O  O13  1  0.838288  0.910370  0.389298  1
  O  O14  1  0.838288  0.089630  0.889298  1
  O  O15  1  0.161712  0.089630  0.610702  1
  O  O16  1  0.216520  0.634334  0.612205  1
  O  O17  1  0.783480  0.634334  0.887795  1
  O  O18  1  0.783480  0.365666  0.387795  1
  O  O19  1  0.216520  0.365666  0.112205  1
  O  O20  1  0.660597  0.885428  0.597236  1
  O  O21  1  0.339403  0.114572  0.402764  1
  O  O22  1  0.339403  0.885428  0.902764  1
  O  O23  1  0.660597  0.114572  0.097236  1
