# generated using pymatgen
data_Na2Sn3Au
_symmetry_space_group_name_H-M   'P 1'
_cell_length_a   9.82414993
_cell_length_b   9.82414993
_cell_length_c   7.60651367
_cell_angle_alpha   90.00000000
_cell_angle_beta   90.00000000
_cell_angle_gamma   120.00000000
_symmetry_Int_Tables_number   1
_chemical_formula_structural   Na2Sn3Au
_chemical_formula_sum   'Na8 Sn12 Au4'
_cell_volume   635.77909679
_cell_formula_units_Z   4
loop_
 _symmetry_equiv_pos_site_id
 _symmetry_equiv_pos_as_xyz
  1  'x, y, z'
loop_
 _atom_site_type_symbol
 _atom_site_label
 _atom_site_symmetry_multiplicity
 _atom_site_fract_x
 _atom_site_fract_y
 _atom_site_fract_z
 _atom_site_occupancy
  Na  Na0  1  0.532001  0.064001  0.250000  1
  Na  Na1  1  0.064001  0.532001  0.750000  1
  Na  Na2  1  0.467999  0.532001  0.750000  1
  Na  Na3  1  0.532001  0.467999  0.250000  1
  Na  Na4  1  0.467999  0.935999  0.750000  1
  Na  Na5  1  0.935999  0.467999  0.250000  1
  Na  Na6  1  0.000000  0.000000  0.750000  1
  Na  Na7  1  0.000000  0.000000  0.250000  1
  Sn  Sn8  1  0.171137  0.828863  0.052571  1
  Sn  Sn9  1  0.828863  0.657726  0.552571  1
  Sn  Sn10  1  0.342274  0.171137  0.552571  1
  Sn  Sn11  1  0.828863  0.171137  0.947429  1
  Sn  Sn12  1  0.828863  0.657726  0.947429  1
  Sn  Sn13  1  0.828863  0.171137  0.552571  1
  Sn  Sn14  1  0.342274  0.171137  0.947429  1
  Sn  Sn15  1  0.657726  0.828863  0.052571  1
  Sn  Sn16  1  0.657726  0.828863  0.447429  1
  Sn  Sn17  1  0.171137  0.342274  0.447429  1
  Sn  Sn18  1  0.171137  0.828863  0.447429  1
  Sn  Sn19  1  0.171137  0.342274  0.052571  1
  Au  Au20  1  0.333333  0.666667  0.458134  1
  Au  Au21  1  0.666667  0.333333  0.541866  1
  Au  Au22  1  0.666667  0.333333  0.958134  1
  Au  Au23  1  0.333333  0.666667  0.041866  1
