# generated using pymatgen
data_MnB4O7
_symmetry_space_group_name_H-M   'P 1'
_cell_length_a   6.43336590
_cell_length_b   6.43336590
_cell_length_c   5.24681848
_cell_angle_alpha   90.00000000
_cell_angle_beta   90.00000000
_cell_angle_gamma   117.09208580
_symmetry_Int_Tables_number   1
_chemical_formula_structural   MnB4O7
_chemical_formula_sum   'Mn2 B8 O14'
_cell_volume   193.32903091
_cell_formula_units_Z   2
loop_
 _symmetry_equiv_pos_site_id
 _symmetry_equiv_pos_as_xyz
  1  'x, y, z'
loop_
 _atom_site_type_symbol
 _atom_site_label
 _atom_site_symmetry_multiplicity
 _atom_site_fract_x
 _atom_site_fract_y
 _atom_site_fract_z
 _atom_site_occupancy
  Mn  Mn0  1  0.777258  0.777258  0.750000  1
  Mn  Mn1  1  0.222742  0.222742  0.250000  1
  B  B2  1  0.084729  0.323501  0.750000  1
  B  B3  1  0.676499  0.915271  0.250000  1
  B  B4  1  0.293215  0.706785  0.000000  1
  B  B5  1  0.706785  0.293215  0.000000  1
  B  B6  1  0.706785  0.293215  0.500000  1
  B  B7  1  0.323501  0.084729  0.750000  1
  B  B8  1  0.915271  0.676499  0.250000  1
  B  B9  1  0.293215  0.706785  0.500000  1
  O  O10  1  0.900805  0.900805  0.250000  1
  O  O11  1  0.099195  0.099195  0.750000  1
  O  O12  1  0.811324  0.242908  0.750000  1
  O  O13  1  0.757092  0.188676  0.250000  1
  O  O14  1  0.455787  0.189750  0.524340  1
  O  O15  1  0.810250  0.544213  0.475660  1
  O  O16  1  0.455787  0.189750  0.975660  1
  O  O17  1  0.242908  0.811324  0.750000  1
  O  O18  1  0.189750  0.455787  0.524340  1
  O  O19  1  0.544213  0.810250  0.475660  1
  O  O20  1  0.189750  0.455787  0.975660  1
  O  O21  1  0.188676  0.757092  0.250000  1
  O  O22  1  0.810250  0.544213  0.024340  1
  O  O23  1  0.544213  0.810250  0.024340  1
