# generated using pymatgen
data_Rb2MoSeO6
_symmetry_space_group_name_H-M   'P 1'
_cell_length_a   6.35614332
_cell_length_b   7.93264056
_cell_length_c   14.83649655
_cell_angle_alpha   90.00000000
_cell_angle_beta   90.00000000
_cell_angle_gamma   90.00000000
_symmetry_Int_Tables_number   1
_chemical_formula_structural   Rb2MoSeO6
_chemical_formula_sum   'Rb8 Mo4 Se4 O24'
_cell_volume   748.07099708
_cell_formula_units_Z   4
loop_
 _symmetry_equiv_pos_site_id
 _symmetry_equiv_pos_as_xyz
  1  'x, y, z'
loop_
 _atom_site_type_symbol
 _atom_site_label
 _atom_site_symmetry_multiplicity
 _atom_site_fract_x
 _atom_site_fract_y
 _atom_site_fract_z
 _atom_site_occupancy
  Rb  Rb0  1  0.250000  0.377251  0.035887  1
  Rb  Rb1  1  0.250000  0.877251  0.464113  1
  Rb  Rb2  1  0.750000  0.655729  0.697267  1
  Rb  Rb3  1  0.750000  0.622749  0.964113  1
  Rb  Rb4  1  0.250000  0.844271  0.197267  1
  Rb  Rb5  1  0.750000  0.122749  0.535887  1
  Rb  Rb6  1  0.750000  0.155729  0.802733  1
  Rb  Rb7  1  0.250000  0.344271  0.302733  1
  Mo  Mo8  1  0.250000  0.398842  0.767413  1
  Mo  Mo9  1  0.750000  0.101158  0.267413  1
  Mo  Mo10  1  0.250000  0.898842  0.732587  1
  Mo  Mo11  1  0.750000  0.601158  0.232587  1
  Se  Se12  1  0.750000  0.582162  0.436617  1
  Se  Se13  1  0.250000  0.417838  0.563383  1
  Se  Se14  1  0.750000  0.082162  0.063383  1
  Se  Se15  1  0.250000  0.917838  0.936617  1
  O  O16  1  0.526476  0.550329  0.166377  1
  O  O17  1  0.549618  0.610729  0.356168  1
  O  O18  1  0.450382  0.889271  0.856168  1
  O  O19  1  0.750000  0.756042  0.501345  1
  O  O20  1  0.250000  0.169825  0.776286  1
  O  O21  1  0.450382  0.389271  0.643832  1
  O  O22  1  0.973524  0.050329  0.333623  1
  O  O23  1  0.473524  0.949671  0.666377  1
  O  O24  1  0.950382  0.110729  0.143832  1
  O  O25  1  0.973524  0.550329  0.166377  1
  O  O26  1  0.250000  0.669825  0.723714  1
  O  O27  1  0.250000  0.243958  0.498655  1
  O  O28  1  0.473524  0.449671  0.833623  1
  O  O29  1  0.049618  0.889271  0.856168  1
  O  O30  1  0.250000  0.743958  0.001345  1
  O  O31  1  0.026476  0.449671  0.833623  1
  O  O32  1  0.750000  0.830175  0.223714  1
  O  O33  1  0.750000  0.256042  0.998655  1
  O  O34  1  0.026476  0.949671  0.666377  1
  O  O35  1  0.549618  0.110729  0.143832  1
  O  O36  1  0.526476  0.050329  0.333623  1
  O  O37  1  0.950382  0.610729  0.356168  1
  O  O38  1  0.049618  0.389271  0.643832  1
  O  O39  1  0.750000  0.330175  0.276286  1
