# generated using pymatgen
data_K2UAs2O9
_symmetry_space_group_name_H-M   'P 1'
_cell_length_a   5.79354124
_cell_length_b   12.77036441
_cell_length_c   13.51120658
_cell_angle_alpha   90.00000000
_cell_angle_beta   90.00000000
_cell_angle_gamma   90.00000000
_symmetry_Int_Tables_number   1
_chemical_formula_structural   K2UAs2O9
_chemical_formula_sum   'K8 U4 As8 O36'
_cell_volume   999.63516951
_cell_formula_units_Z   4
loop_
 _symmetry_equiv_pos_site_id
 _symmetry_equiv_pos_as_xyz
  1  'x, y, z'
loop_
 _atom_site_type_symbol
 _atom_site_label
 _atom_site_symmetry_multiplicity
 _atom_site_fract_x
 _atom_site_fract_y
 _atom_site_fract_z
 _atom_site_occupancy
  K  K0  1  0.495529  0.000000  0.329293  1
  K  K1  1  0.504471  0.500000  0.170707  1
  K  K2  1  0.504471  0.500000  0.829293  1
  K  K3  1  0.495529  0.000000  0.670707  1
  K  K4  1  0.516485  0.171348  0.000000  1
  K  K5  1  0.516485  0.828652  0.000000  1
  K  K6  1  0.483515  0.671348  0.500000  1
  K  K7  1  0.483515  0.328652  0.500000  1
  U  U8  1  0.000000  0.250000  0.750000  1
  U  U9  1  0.000000  0.750000  0.750000  1
  U  U10  1  0.000000  0.250000  0.250000  1
  U  U11  1  0.000000  0.750000  0.250000  1
  As  As12  1  0.978443  0.500000  0.380328  1
  As  As13  1  0.995269  0.371394  0.000000  1
  As  As14  1  0.978443  0.500000  0.619672  1
  As  As15  1  0.004731  0.128606  0.500000  1
  As  As16  1  0.004731  0.871394  0.500000  1
  As  As17  1  0.021557  0.000000  0.880328  1
  As  As18  1  0.021557  0.000000  0.119672  1
  As  As19  1  0.995269  0.628606  0.000000  1
  O  O20  1  0.728680  0.819582  0.268401  1
  O  O21  1  0.153958  0.891844  0.171117  1
  O  O22  1  0.282982  0.375734  0.000000  1
  O  O23  1  0.863177  0.314045  0.101101  1
  O  O24  1  0.860499  0.500000  0.000000  1
  O  O25  1  0.717018  0.875734  0.500000  1
  O  O26  1  0.271320  0.680418  0.231599  1
  O  O27  1  0.136823  0.185955  0.398899  1
  O  O28  1  0.136823  0.814045  0.601101  1
  O  O29  1  0.728680  0.180418  0.731599  1
  O  O30  1  0.265191  0.500000  0.388261  1
  O  O31  1  0.153958  0.108156  0.828883  1
  O  O32  1  0.162232  0.000000  0.000000  1
  O  O33  1  0.837768  0.500000  0.500000  1
  O  O34  1  0.139501  0.000000  0.500000  1
  O  O35  1  0.271320  0.319582  0.768401  1
  O  O36  1  0.863177  0.314045  0.898899  1
  O  O37  1  0.863177  0.685955  0.898899  1
  O  O38  1  0.271320  0.680418  0.768401  1
  O  O39  1  0.846042  0.608156  0.671117  1
  O  O40  1  0.153958  0.108156  0.171117  1
  O  O41  1  0.136823  0.185955  0.601101  1
  O  O42  1  0.153958  0.891844  0.828883  1
  O  O43  1  0.846042  0.391844  0.671117  1
  O  O44  1  0.728680  0.819582  0.731599  1
  O  O45  1  0.265191  0.500000  0.611739  1
  O  O46  1  0.846042  0.608156  0.328883  1
  O  O47  1  0.734809  0.000000  0.111739  1
  O  O48  1  0.282982  0.624266  0.000000  1
  O  O49  1  0.863177  0.685955  0.101101  1
  O  O50  1  0.136823  0.814045  0.398899  1
  O  O51  1  0.734809  0.000000  0.888261  1
  O  O52  1  0.846042  0.391844  0.328883  1
  O  O53  1  0.717018  0.124266  0.500000  1
  O  O54  1  0.271320  0.319582  0.231599  1
  O  O55  1  0.728680  0.180418  0.268401  1
