# generated using pymatgen
data_Yb2(Ni5B3)3
_symmetry_space_group_name_H-M   'P 1'
_cell_length_a   9.75725751
_cell_length_b   9.75725751
_cell_length_c   11.18269348
_cell_angle_alpha   90.00000000
_cell_angle_beta   90.00000000
_cell_angle_gamma   107.54755749
_symmetry_Int_Tables_number   1
_chemical_formula_structural   Yb2(Ni5B3)3
_chemical_formula_sum   'Yb8 Ni60 B36'
_cell_volume   1015.09720793
_cell_formula_units_Z   4
loop_
 _symmetry_equiv_pos_site_id
 _symmetry_equiv_pos_as_xyz
  1  'x, y, z'
loop_
 _atom_site_type_symbol
 _atom_site_label
 _atom_site_symmetry_multiplicity
 _atom_site_fract_x
 _atom_site_fract_y
 _atom_site_fract_z
 _atom_site_occupancy
  Yb  Yb0  1  0.260435  0.260435  0.959125  1
  Yb  Yb1  1  0.739565  0.739565  0.040875  1
  Yb  Yb2  1  0.193545  0.693545  0.750000  1
  Yb  Yb3  1  0.693545  0.193545  0.750000  1
  Yb  Yb4  1  0.806455  0.306455  0.250000  1
  Yb  Yb5  1  0.760435  0.760435  0.540875  1
  Yb  Yb6  1  0.306455  0.806455  0.250000  1
  Yb  Yb7  1  0.239565  0.239565  0.459125  1
  Ni  Ni8  1  0.815272  0.007671  0.160374  1
  Ni  Ni9  1  0.636288  0.162925  0.469946  1
  Ni  Ni10  1  0.568082  0.068082  0.250000  1
  Ni  Ni11  1  0.162925  0.636288  0.469946  1
  Ni  Ni12  1  0.168699  0.009428  0.306988  1
  Ni  Ni13  1  0.742645  0.529803  0.402659  1
  Ni  Ni14  1  0.668699  0.509428  0.193012  1
  Ni  Ni15  1  0.053354  0.392652  0.415161  1
  Ni  Ni16  1  0.684728  0.492329  0.660374  1
  Ni  Ni17  1  0.502940  0.271641  0.116896  1
  Ni  Ni18  1  0.728359  0.497060  0.883104  1
  Ni  Ni19  1  0.509428  0.668699  0.193012  1
  Ni  Ni20  1  0.529803  0.742645  0.402660  1
  Ni  Ni21  1  0.507671  0.315272  0.339626  1
  Ni  Ni22  1  0.837075  0.363712  0.530054  1
  Ni  Ni23  1  0.946646  0.607348  0.584839  1
  Ni  Ni24  1  0.331301  0.490572  0.806988  1
  Ni  Ni25  1  0.492329  0.684728  0.660374  1
  Ni  Ni26  1  0.997060  0.228359  0.616896  1
  Ni  Ni27  1  0.892652  0.553354  0.084839  1
  Ni  Ni28  1  0.970197  0.757355  0.902659  1
  Ni  Ni29  1  0.992329  0.184728  0.839626  1
  Ni  Ni30  1  0.446646  0.107348  0.915161  1
  Ni  Ni31  1  0.257355  0.470197  0.597341  1
  Ni  Ni32  1  0.831301  0.990572  0.693012  1
  Ni  Ni33  1  0.000000  0.000000  0.000000  1
  Ni  Ni34  1  0.490572  0.331301  0.806988  1
  Ni  Ni35  1  0.315272  0.507671  0.339626  1
  Ni  Ni36  1  0.107348  0.446646  0.915161  1
  Ni  Ni37  1  0.431918  0.931918  0.750000  1
  Ni  Ni38  1  0.236448  0.236448  0.712466  1
  Ni  Ni39  1  0.500000  0.500000  0.000000  1
  Ni  Ni40  1  0.863712  0.337075  0.969946  1
  Ni  Ni41  1  0.009428  0.168699  0.306988  1
  Ni  Ni42  1  0.607348  0.946646  0.584839  1
  Ni  Ni43  1  0.271641  0.502940  0.116896  1
  Ni  Ni44  1  0.757355  0.970197  0.902659  1
  Ni  Ni45  1  0.771641  0.002940  0.383104  1
  Ni  Ni46  1  0.736448  0.736448  0.787534  1
  Ni  Ni47  1  0.363712  0.837075  0.530054  1
  Ni  Ni48  1  0.763552  0.763552  0.287534  1
  Ni  Ni49  1  0.990572  0.831301  0.693012  1
  Ni  Ni50  1  0.500000  0.500000  0.500000  1
  Ni  Ni51  1  0.228359  0.997060  0.616896  1
  Ni  Ni52  1  0.392652  0.053354  0.415161  1
  Ni  Ni53  1  0.497060  0.728359  0.883104  1
  Ni  Ni54  1  0.068082  0.568082  0.250000  1
  Ni  Ni55  1  0.242645  0.029803  0.097341  1
  Ni  Ni56  1  0.007671  0.815272  0.160374  1
  Ni  Ni57  1  0.184728  0.992329  0.839626  1
  Ni  Ni58  1  0.029803  0.242645  0.097341  1
  Ni  Ni59  1  0.553354  0.892652  0.084839  1
  Ni  Ni60  1  0.000000  0.000000  0.500000  1
  Ni  Ni61  1  0.470197  0.257355  0.597341  1
  Ni  Ni62  1  0.931918  0.431918  0.750000  1
  Ni  Ni63  1  0.337075  0.863712  0.969946  1
  Ni  Ni64  1  0.136288  0.662925  0.030054  1
  Ni  Ni65  1  0.263552  0.263552  0.212466  1
  Ni  Ni66  1  0.002940  0.771641  0.383104  1
  Ni  Ni67  1  0.662925  0.136288  0.030054  1
  B  B68  1  0.095339  0.797376  0.551013  1
  B  B69  1  0.134455  0.865545  0.000000  1
  B  B70  1  0.048889  0.450759  0.099051  1
  B  B71  1  0.620303  0.878437  0.255392  1
  B  B72  1  0.879697  0.621563  0.755392  1
  B  B73  1  0.121563  0.379697  0.744608  1
  B  B74  1  0.120303  0.378437  0.244608  1
  B  B75  1  0.450759  0.048889  0.099051  1
  B  B76  1  0.202624  0.904661  0.448987  1
  B  B77  1  0.544700  0.544700  0.326989  1
  B  B78  1  0.865545  0.134455  0.000000  1
  B  B79  1  0.049241  0.451111  0.599051  1
  B  B80  1  0.365545  0.634455  0.500000  1
  B  B81  1  0.378437  0.120303  0.244608  1
  B  B82  1  0.557971  0.557971  0.800917  1
  B  B83  1  0.548889  0.950759  0.400949  1
  B  B84  1  0.702624  0.404661  0.051013  1
  B  B85  1  0.379697  0.121563  0.744608  1
  B  B86  1  0.951111  0.549241  0.900949  1
  B  B87  1  0.442029  0.442029  0.199083  1
  B  B88  1  0.404661  0.702624  0.051013  1
  B  B89  1  0.549241  0.951111  0.900949  1
  B  B90  1  0.878437  0.620303  0.255392  1
  B  B91  1  0.297376  0.595339  0.948987  1
  B  B92  1  0.057971  0.057971  0.699083  1
  B  B93  1  0.455300  0.455300  0.673011  1
  B  B94  1  0.904661  0.202624  0.448987  1
  B  B95  1  0.955300  0.955300  0.826989  1
  B  B96  1  0.634455  0.365545  0.500000  1
  B  B97  1  0.451111  0.049241  0.599051  1
  B  B98  1  0.942029  0.942029  0.300917  1
  B  B99  1  0.595339  0.297376  0.948987  1
  B  B100  1  0.621563  0.879697  0.755392  1
  B  B101  1  0.950759  0.548889  0.400949  1
  B  B102  1  0.044700  0.044700  0.173011  1
  B  B103  1  0.797376  0.095339  0.551013  1
