# generated using pymatgen
data_Ni(PO3)4
_symmetry_space_group_name_H-M   'P 1'
_cell_length_a   8.37914061
_cell_length_b   8.98781242
_cell_length_c   12.91461849
_cell_angle_alpha   90.00000000
_cell_angle_beta   90.00000000
_cell_angle_gamma   90.00000000
_symmetry_Int_Tables_number   1
_chemical_formula_structural   Ni(PO3)4
_chemical_formula_sum   'Ni4 P16 O48'
_cell_volume   972.60177875
_cell_formula_units_Z   4
loop_
 _symmetry_equiv_pos_site_id
 _symmetry_equiv_pos_as_xyz
  1  'x, y, z'
loop_
 _atom_site_type_symbol
 _atom_site_label
 _atom_site_symmetry_multiplicity
 _atom_site_fract_x
 _atom_site_fract_y
 _atom_site_fract_z
 _atom_site_occupancy
  Ni  Ni0  1  0.364873  0.750000  0.000000  1
  Ni  Ni1  1  0.635127  0.250000  0.000000  1
  Ni  Ni2  1  0.135127  0.250000  0.500000  1
  Ni  Ni3  1  0.864873  0.750000  0.500000  1
  P  P4  1  0.192540  0.505789  0.147306  1
  P  P5  1  0.807460  0.005789  0.147306  1
  P  P6  1  0.454222  0.011889  0.148425  1
  P  P7  1  0.545778  0.511889  0.148425  1
  P  P8  1  0.045778  0.511889  0.351575  1
  P  P9  1  0.954222  0.011889  0.351575  1
  P  P10  1  0.307460  0.005789  0.352694  1
  P  P11  1  0.692540  0.505789  0.352694  1
  P  P12  1  0.307460  0.494211  0.647306  1
  P  P13  1  0.692540  0.994211  0.647306  1
  P  P14  1  0.045778  0.988111  0.648425  1
  P  P15  1  0.954222  0.488111  0.648425  1
  P  P16  1  0.454222  0.488111  0.851575  1
  P  P17  1  0.545778  0.988111  0.851575  1
  P  P18  1  0.192540  0.994211  0.852694  1
  P  P19  1  0.807460  0.494211  0.852694  1
  O  O20  1  0.195673  0.615717  0.058533  1
  O  O21  1  0.804327  0.115717  0.058533  1
  O  O22  1  0.460490  0.127991  0.065200  1
  O  O23  1  0.539510  0.627991  0.065200  1
  O  O24  1  0.100172  0.368349  0.118460  1
  O  O25  1  0.899828  0.868349  0.118460  1
  O  O26  1  0.359226  0.871847  0.128864  1
  O  O27  1  0.640774  0.371847  0.128864  1
  O  O28  1  0.368829  0.467001  0.186586  1
  O  O29  1  0.631171  0.967001  0.186586  1
  O  O30  1  0.119076  0.585799  0.248352  1
  O  O31  1  0.880924  0.085799  0.248352  1
  O  O32  1  0.380924  0.085799  0.251648  1
  O  O33  1  0.619076  0.585799  0.251648  1
  O  O34  1  0.131171  0.967001  0.313414  1
  O  O35  1  0.868829  0.467001  0.313414  1
  O  O36  1  0.140774  0.371847  0.371136  1
  O  O37  1  0.859226  0.871847  0.371136  1
  O  O38  1  0.399828  0.868349  0.381540  1
  O  O39  1  0.600172  0.368349  0.381540  1
  O  O40  1  0.039510  0.627991  0.434800  1
  O  O41  1  0.960490  0.127991  0.434800  1
  O  O42  1  0.304327  0.115717  0.441467  1
  O  O43  1  0.695673  0.615717  0.441467  1
  O  O44  1  0.304327  0.384283  0.558533  1
  O  O45  1  0.695673  0.884283  0.558533  1
  O  O46  1  0.039510  0.872009  0.565200  1
  O  O47  1  0.960490  0.372009  0.565200  1
  O  O48  1  0.399828  0.631651  0.618460  1
  O  O49  1  0.600172  0.131651  0.618460  1
  O  O50  1  0.140774  0.128153  0.628864  1
  O  O51  1  0.859226  0.628153  0.628864  1
  O  O52  1  0.131171  0.532999  0.686586  1
  O  O53  1  0.868829  0.032999  0.686586  1
  O  O54  1  0.380924  0.414201  0.748352  1
  O  O55  1  0.619076  0.914201  0.748352  1
  O  O56  1  0.119076  0.914201  0.751648  1
  O  O57  1  0.880924  0.414201  0.751648  1
  O  O58  1  0.368829  0.032999  0.813414  1
  O  O59  1  0.631171  0.532999  0.813414  1
  O  O60  1  0.359226  0.628153  0.871136  1
  O  O61  1  0.640774  0.128153  0.871136  1
  O  O62  1  0.100172  0.131651  0.881540  1
  O  O63  1  0.899828  0.631651  0.881540  1
  O  O64  1  0.460490  0.372009  0.934800  1
  O  O65  1  0.539510  0.872009  0.934800  1
  O  O66  1  0.195673  0.884283  0.941467  1
  O  O67  1  0.804327  0.384283  0.941467  1
