# generated using pymatgen
data_RbLu3F10
_symmetry_space_group_name_H-M   'P 1'
_cell_length_a   7.87167048
_cell_length_b   7.87167048
_cell_length_c   16.14132820
_cell_angle_alpha   90.00000000
_cell_angle_beta   90.00000000
_cell_angle_gamma   114.67485559
_symmetry_Int_Tables_number   1
_chemical_formula_structural   RbLu3F10
_chemical_formula_sum   'Rb4 Lu12 F40'
_cell_volume   908.84439129
_cell_formula_units_Z   4
loop_
 _symmetry_equiv_pos_site_id
 _symmetry_equiv_pos_as_xyz
  1  'x, y, z'
loop_
 _atom_site_type_symbol
 _atom_site_label
 _atom_site_symmetry_multiplicity
 _atom_site_fract_x
 _atom_site_fract_y
 _atom_site_fract_z
 _atom_site_occupancy
  Rb  Rb0  1  0.000000  0.000000  0.500000  1
  Rb  Rb1  1  0.500000  0.500000  0.500000  1
  Rb  Rb2  1  0.500000  0.500000  0.000000  1
  Rb  Rb3  1  0.000000  0.000000  0.000000  1
  Lu  Lu4  1  0.523462  0.979937  0.387109  1
  Lu  Lu5  1  0.020063  0.476538  0.387109  1
  Lu  Lu6  1  0.248957  0.251043  0.750000  1
  Lu  Lu7  1  0.979937  0.523462  0.612891  1
  Lu  Lu8  1  0.748957  0.751043  0.750000  1
  Lu  Lu9  1  0.476538  0.020063  0.612891  1
  Lu  Lu10  1  0.251043  0.248957  0.250000  1
  Lu  Lu11  1  0.023462  0.479937  0.112891  1
  Lu  Lu12  1  0.751043  0.748957  0.250000  1
  Lu  Lu13  1  0.520063  0.976538  0.112891  1
  Lu  Lu14  1  0.479937  0.023462  0.887109  1
  Lu  Lu15  1  0.976538  0.520063  0.887109  1
  F  F16  1  0.569458  0.930542  0.250000  1
  F  F17  1  0.268075  0.731925  0.386507  1
  F  F18  1  0.504850  0.495150  0.767817  1
  F  F19  1  0.907481  0.589110  0.012478  1
  F  F20  1  0.208299  0.791701  0.605755  1
  F  F21  1  0.329943  0.202224  0.627122  1
  F  F22  1  0.592519  0.910890  0.512478  1
  F  F23  1  0.910890  0.592519  0.487522  1
  F  F24  1  0.069458  0.430542  0.250000  1
  F  F25  1  0.791701  0.208299  0.394245  1
  F  F26  1  0.092519  0.410890  0.987522  1
  F  F27  1  0.291701  0.708299  0.105755  1
  F  F28  1  0.843269  0.581943  0.327780  1
  F  F29  1  0.081943  0.343269  0.827780  1
  F  F30  1  0.731925  0.268075  0.613493  1
  F  F31  1  0.202224  0.329943  0.372878  1
  F  F32  1  0.995150  0.004850  0.267817  1
  F  F33  1  0.343269  0.081943  0.172220  1
  F  F34  1  0.495150  0.504850  0.232183  1
  F  F35  1  0.430542  0.069458  0.750000  1
  F  F36  1  0.156731  0.418057  0.672220  1
  F  F37  1  0.170057  0.297776  0.127122  1
  F  F38  1  0.930542  0.569458  0.750000  1
  F  F39  1  0.004850  0.995150  0.732183  1
  F  F40  1  0.829943  0.702224  0.872878  1
  F  F41  1  0.410890  0.092519  0.012478  1
  F  F42  1  0.407481  0.089110  0.487522  1
  F  F43  1  0.231925  0.768075  0.886507  1
  F  F44  1  0.702224  0.829943  0.127122  1
  F  F45  1  0.589110  0.907481  0.987522  1
  F  F46  1  0.797776  0.670057  0.627122  1
  F  F47  1  0.768075  0.231925  0.113493  1
  F  F48  1  0.918057  0.656731  0.172220  1
  F  F49  1  0.418057  0.156731  0.327780  1
  F  F50  1  0.708299  0.291701  0.894245  1
  F  F51  1  0.581943  0.843269  0.672220  1
  F  F52  1  0.297776  0.170057  0.872878  1
  F  F53  1  0.089110  0.407481  0.512478  1
  F  F54  1  0.656731  0.918057  0.827780  1
  F  F55  1  0.670057  0.797776  0.372878  1
