# generated using pymatgen
data_DyAsO4
_symmetry_space_group_name_H-M   'P 1'
_cell_length_a   5.97518080
_cell_length_b   5.97518080
_cell_length_c   5.97518080
_cell_angle_alpha   106.45872062
_cell_angle_beta   106.45872062
_cell_angle_gamma   115.68041448
_symmetry_Int_Tables_number   1
_chemical_formula_structural   DyAsO4
_chemical_formula_sum   'Dy2 As2 O8'
_cell_volume   162.76003301
_cell_formula_units_Z   2
loop_
 _symmetry_equiv_pos_site_id
 _symmetry_equiv_pos_as_xyz
  1  'x, y, z'
loop_
 _atom_site_type_symbol
 _atom_site_label
 _atom_site_symmetry_multiplicity
 _atom_site_fract_x
 _atom_site_fract_y
 _atom_site_fract_z
 _atom_site_occupancy
  Dy  Dy0  1  0.750000  0.250000  0.500000  1
  Dy  Dy1  1  0.500000  0.500000  0.000000  1
  As  As2  1  0.250000  0.750000  0.500000  1
  As  As3  1  0.000000  0.000000  0.000000  1
  O  O4  1  0.358805  0.177389  0.181416  1
  O  O5  1  0.427389  0.745973  0.318584  1
  O  O6  1  0.427389  0.108805  0.681416  1
  O  O7  1  0.995973  0.177389  0.818584  1
  O  O8  1  0.822611  0.004027  0.181416  1
  O  O9  1  0.891195  0.572611  0.318584  1
  O  O10  1  0.254027  0.572611  0.681416  1
  O  O11  1  0.822611  0.641195  0.818584  1
