# generated using pymatgen
data_K3AlP2
_symmetry_space_group_name_H-M   'P 1'
_cell_length_a   8.94646865
_cell_length_b   11.94799578
_cell_length_c   15.30210802
_cell_angle_alpha   72.58639033
_cell_angle_beta   73.32548149
_cell_angle_gamma   71.87463719
_symmetry_Int_Tables_number   1
_chemical_formula_structural   K3AlP2
_chemical_formula_sum   'K24 Al8 P16'
_cell_volume   1448.98788707
_cell_formula_units_Z   8
loop_
 _symmetry_equiv_pos_site_id
 _symmetry_equiv_pos_as_xyz
  1  'x, y, z'
loop_
 _atom_site_type_symbol
 _atom_site_label
 _atom_site_symmetry_multiplicity
 _atom_site_fract_x
 _atom_site_fract_y
 _atom_site_fract_z
 _atom_site_occupancy
  K  K0  1  0.344417  0.915585  0.693353  1
  K  K1  1  0.655583  0.084415  0.306647  1
  K  K2  1  0.818688  0.398635  0.691659  1
  K  K3  1  0.181312  0.601365  0.308341  1
  K  K4  1  0.810641  0.763028  0.680611  1
  K  K5  1  0.189359  0.236972  0.319389  1
  K  K6  1  0.225910  0.745289  0.617940  1
  K  K7  1  0.774090  0.254711  0.382060  1
  K  K8  1  0.160231  0.419173  0.758002  1
  K  K9  1  0.839769  0.580827  0.241998  1
  K  K10  1  0.983933  0.107601  0.584194  1
  K  K11  1  0.016067  0.892399  0.415806  1
  K  K12  1  0.533095  0.081983  0.744886  1
  K  K13  1  0.466905  0.918017  0.255114  1
  K  K14  1  0.485944  0.573304  0.838336  1
  K  K15  1  0.514056  0.426696  0.161664  1
  K  K16  1  0.031719  0.096043  0.847933  1
  K  K17  1  0.968281  0.903957  0.152067  1
  K  K18  1  0.508860  0.374492  0.583925  1
  K  K19  1  0.491140  0.625508  0.416075  1
  K  K20  1  0.314900  0.084056  0.024242  1
  K  K21  1  0.685100  0.915944  0.975758  1
  K  K22  1  0.820639  0.619502  0.977205  1
  K  K23  1  0.179361  0.380498  0.022795  1
  Al  Al24  1  0.154349  0.387394  0.509732  1
  Al  Al25  1  0.845651  0.612606  0.490268  1
  Al  Al26  1  0.405817  0.140825  0.508719  1
  Al  Al27  1  0.594183  0.859175  0.491281  1
  Al  Al28  1  0.151252  0.777660  0.926378  1
  Al  Al29  1  0.848748  0.222340  0.073622  1
  Al  Al30  1  0.640235  0.266597  0.945569  1
  Al  Al31  1  0.359765  0.733403  0.054431  1
  P  P32  1  0.218071  0.218212  0.641149  1
  P  P33  1  0.781929  0.781788  0.358851  1
  P  P34  1  0.331036  0.985424  0.462137  1
  P  P35  1  0.668964  0.014576  0.537863  1
  P  P36  1  0.595356  0.664037  0.603923  1
  P  P37  1  0.404644  0.335963  0.396077  1
  P  P38  1  0.094615  0.587575  0.540291  1
  P  P39  1  0.905385  0.412425  0.459709  1
  P  P40  1  0.998187  0.823467  0.819298  1
  P  P41  1  0.001813  0.176533  0.180702  1
  P  P42  1  0.485634  0.293656  0.843934  1
  P  P43  1  0.514366  0.706344  0.156066  1
  P  P44  1  0.841805  0.366218  0.929300  1
  P  P45  1  0.158195  0.633782  0.070700  1
  P  P46  1  0.360753  0.871041  0.909518  1
  P  P47  1  0.639247  0.128959  0.090482  1
