# generated using pymatgen
data_Ba2Ca3Tl2(CuO3)4
_symmetry_space_group_name_H-M   'P 1'
_cell_length_a   22.08049932
_cell_length_b   22.08049932
_cell_length_c   22.08049932
_cell_angle_alpha   169.82698277
_cell_angle_beta   169.82698277
_cell_angle_gamma   14.40584420
_symmetry_Int_Tables_number   1
_chemical_formula_structural   Ba2Ca3Tl2(CuO3)4
_chemical_formula_sum   'Ba2 Ca3 Tl2 Cu4 O12'
_cell_volume   335.81402212
_cell_formula_units_Z   1
loop_
 _symmetry_equiv_pos_site_id
 _symmetry_equiv_pos_as_xyz
  1  'x, y, z'
loop_
 _atom_site_type_symbol
 _atom_site_label
 _atom_site_symmetry_multiplicity
 _atom_site_fract_x
 _atom_site_fract_y
 _atom_site_fract_z
 _atom_site_occupancy
  Ba  Ba0  1  0.845290  0.845290  0.000000  1
  Ba  Ba1  1  0.154710  0.154710  0.000000  1
  Ca  Ca2  1  0.074141  0.074141  0.000000  1
  Ca  Ca3  1  0.925859  0.925859  0.000000  1
  Ca  Ca4  1  0.000000  0.000000  0.000000  1
  Tl  Tl5  1  0.723775  0.723775  0.000000  1
  Tl  Tl6  1  0.276225  0.276225  0.000000  1
  Cu  Cu7  1  0.391175  0.391175  0.000000  1
  Cu  Cu8  1  0.537151  0.537151  0.000000  1
  Cu  Cu9  1  0.608825  0.608825  0.000000  1
  Cu  Cu10  1  0.462849  0.462849  0.000000  1
  O  O11  1  0.963233  0.463233  0.500000  1
  O  O12  1  0.675896  0.675896  0.000000  1
  O  O13  1  0.036767  0.536767  0.500000  1
  O  O14  1  0.463233  0.963233  0.500000  1
  O  O15  1  0.324104  0.324104  0.000000  1
  O  O16  1  0.609643  0.109643  0.500000  1
  O  O17  1  0.250000  0.750000  0.500000  1
  O  O18  1  0.109643  0.609643  0.500000  1
  O  O19  1  0.390357  0.890357  0.500000  1
  O  O20  1  0.536767  0.036767  0.500000  1
  O  O21  1  0.890357  0.390357  0.500000  1
  O  O22  1  0.750000  0.250000  0.500000  1
