# generated using pymatgen
data_SrMgF4
_symmetry_space_group_name_H-M   'P 1'
_cell_length_a   7.64152204
_cell_length_b   17.11305495
_cell_length_c   7.90727860
_cell_angle_alpha   90.00000000
_cell_angle_beta   104.89135915
_cell_angle_gamma   90.00000000
_symmetry_Int_Tables_number   1
_chemical_formula_structural   SrMgF4
_chemical_formula_sum   'Sr12 Mg12 F48'
_cell_volume   999.30497393
_cell_formula_units_Z   12
loop_
 _symmetry_equiv_pos_site_id
 _symmetry_equiv_pos_as_xyz
  1  'x, y, z'
loop_
 _atom_site_type_symbol
 _atom_site_label
 _atom_site_symmetry_multiplicity
 _atom_site_fract_x
 _atom_site_fract_y
 _atom_site_fract_z
 _atom_site_occupancy
  Sr  Sr0  1  0.840755  0.001213  0.336059  1
  Sr  Sr1  1  0.151090  0.831183  0.161885  1
  Sr  Sr2  1  0.795631  0.985671  0.820098  1
  Sr  Sr3  1  0.166524  0.166863  0.165396  1
  Sr  Sr4  1  0.777609  0.648694  0.319253  1
  Sr  Sr5  1  0.222391  0.148694  0.680747  1
  Sr  Sr6  1  0.204369  0.485671  0.179902  1
  Sr  Sr7  1  0.833476  0.666863  0.834604  1
  Sr  Sr8  1  0.848910  0.331183  0.838115  1
  Sr  Sr9  1  0.817779  0.322910  0.332288  1
  Sr  Sr10  1  0.159245  0.501213  0.663941  1
  Sr  Sr11  1  0.182221  0.822910  0.667712  1
  Mg  Mg12  1  0.669383  0.144518  0.542775  1
  Mg  Mg13  1  0.341095  0.976694  0.458228  1
  Mg  Mg14  1  0.670506  0.142450  0.042866  1
  Mg  Mg15  1  0.329494  0.642450  0.957134  1
  Mg  Mg16  1  0.332585  0.308951  0.459757  1
  Mg  Mg17  1  0.661156  0.809430  0.043060  1
  Mg  Mg18  1  0.658905  0.476694  0.541772  1
  Mg  Mg19  1  0.338100  0.977184  0.961852  1
  Mg  Mg20  1  0.338844  0.309430  0.956940  1
  Mg  Mg21  1  0.330617  0.644518  0.457225  1
  Mg  Mg22  1  0.661900  0.477184  0.038148  1
  Mg  Mg23  1  0.667415  0.808951  0.540243  1
  F  F24  1  0.108789  0.913030  0.412264  1
  F  F25  1  0.428597  0.196143  0.452900  1
  F  F26  1  0.900054  0.078201  0.074646  1
  F  F27  1  0.171872  0.402160  0.903527  1
  F  F28  1  0.791089  0.575911  0.055518  1
  F  F29  1  0.623615  0.131439  0.782010  1
  F  F30  1  0.281545  0.309861  0.194271  1
  F  F31  1  0.332428  0.955447  0.208680  1
  F  F32  1  0.791766  0.244865  0.588064  1
  F  F33  1  0.891211  0.413030  0.587736  1
  F  F34  1  0.571403  0.696143  0.547100  1
  F  F35  1  0.900996  0.744212  0.576344  1
  F  F36  1  0.433497  0.867105  0.949071  1
  F  F37  1  0.577887  0.028945  0.040547  1
  F  F38  1  0.447266  0.870257  0.530357  1
  F  F39  1  0.718455  0.809861  0.805729  1
  F  F40  1  0.111189  0.242566  0.877882  1
  F  F41  1  0.372941  0.294943  0.717103  1
  F  F42  1  0.448027  0.202671  0.019625  1
  F  F43  1  0.208234  0.744865  0.411936  1
  F  F44  1  0.835407  0.236949  0.072749  1
  F  F45  1  0.903598  0.416871  0.112262  1
  F  F46  1  0.340155  0.992684  0.709531  1
  F  F47  1  0.099946  0.578201  0.925354  1
  F  F48  1  0.659845  0.492684  0.290469  1
  F  F49  1  0.376385  0.631439  0.217990  1
  F  F50  1  0.551973  0.702671  0.980375  1
  F  F51  1  0.164593  0.736949  0.927251  1
  F  F52  1  0.099004  0.244212  0.423656  1
  F  F53  1  0.426156  0.533114  0.502481  1
  F  F54  1  0.208911  0.075911  0.944482  1
  F  F55  1  0.181468  0.404675  0.437231  1
  F  F56  1  0.627059  0.794943  0.282897  1
  F  F57  1  0.171875  0.068932  0.403367  1
  F  F58  1  0.715546  0.140667  0.303792  1
  F  F59  1  0.284454  0.640667  0.696208  1
  F  F60  1  0.828128  0.902160  0.096473  1
  F  F61  1  0.091798  0.582263  0.375024  1
  F  F62  1  0.566503  0.367105  0.050929  1
  F  F63  1  0.096402  0.916871  0.887738  1
  F  F64  1  0.818532  0.904675  0.562769  1
  F  F65  1  0.828125  0.568932  0.596633  1
  F  F66  1  0.888811  0.742566  0.122118  1
  F  F67  1  0.552734  0.370257  0.469643  1
  F  F68  1  0.573844  0.033114  0.497519  1
  F  F69  1  0.667572  0.455447  0.791320  1
  F  F70  1  0.908202  0.082263  0.624976  1
  F  F71  1  0.422113  0.528945  0.959453  1
