# generated using pymatgen
data_SiC
_symmetry_space_group_name_H-M   'P 1'
_cell_length_a   3.09480903
_cell_length_b   3.09480903
_cell_length_c   91.10035700
_cell_angle_alpha   90.00000000
_cell_angle_beta   90.00000000
_cell_angle_gamma   120.00000000
_symmetry_Int_Tables_number   1
_chemical_formula_structural   SiC
_chemical_formula_sum   'Si36 C36'
_cell_volume   755.64605953
_cell_formula_units_Z   36
loop_
 _symmetry_equiv_pos_site_id
 _symmetry_equiv_pos_as_xyz
  1  'x, y, z'
loop_
 _atom_site_type_symbol
 _atom_site_label
 _atom_site_symmetry_multiplicity
 _atom_site_fract_x
 _atom_site_fract_y
 _atom_site_fract_z
 _atom_site_occupancy
  Si  Si0  1  0.000000  0.000000  0.166658  1
  Si  Si1  1  0.666667  0.333333  0.611100  1
  Si  Si2  1  0.333333  0.666667  0.916638  1
  Si  Si3  1  0.000000  0.000000  0.416655  1
  Si  Si4  1  0.333333  0.666667  0.361116  1
  Si  Si5  1  0.666667  0.333333  0.277785  1
  Si  Si6  1  0.333333  0.666667  0.805565  1
  Si  Si7  1  0.333333  0.666667  0.305537  1
  Si  Si8  1  0.666667  0.333333  0.777773  1
  Si  Si9  1  0.333333  0.666667  0.138864  1
  Si  Si10  1  0.000000  0.000000  0.666641  1
  Si  Si11  1  0.333333  0.666667  0.027785  1
  Si  Si12  1  0.666667  0.333333  0.527772  1
  Si  Si13  1  0.333333  0.666667  0.638892  1
  Si  Si14  1  0.000000  0.000000  0.833311  1
  Si  Si15  1  0.333333  0.666667  0.194445  1
  Si  Si16  1  0.333333  0.666667  0.472210  1
  Si  Si17  1  0.666667  0.333333  0.111113  1
  Si  Si18  1  0.666667  0.333333  0.055532  1
  Si  Si19  1  0.000000  0.000000  0.499975  1
  Si  Si20  1  0.666667  0.333333  0.222196  1
  Si  Si21  1  0.000000  0.000000  0.555562  1
  Si  Si22  1  0.000000  0.000000  0.722225  1
  Si  Si23  1  0.000000  0.000000  0.083325  1
  Si  Si24  1  0.666667  0.333333  0.944433  1
  Si  Si25  1  0.666667  0.333333  0.388862  1
  Si  Si26  1  0.666667  0.333333  0.694433  1
  Si  Si27  1  0.666667  0.333333  0.861104  1
  Si  Si28  1  0.000000  0.000000  0.333327  1
  Si  Si29  1  0.333333  0.666667  0.583308  1
  Si  Si30  1  0.000000  0.000000  0.999990  1
  Si  Si31  1  0.000000  0.000000  0.888891  1
  Si  Si32  1  0.666667  0.333333  0.444444  1
  Si  Si33  1  0.333333  0.666667  0.749977  1
  Si  Si34  1  0.000000  0.000000  0.249993  1
  Si  Si35  1  0.333333  0.666667  0.972207  1
  C  C36  1  0.000000  0.000000  0.743060  1
  C  C37  1  0.000000  0.000000  0.270883  1
  C  C38  1  0.333333  0.666667  0.381950  1
  C  C39  1  0.000000  0.000000  0.576391  1
  C  C40  1  0.666667  0.333333  0.465282  1
  C  C41  1  0.666667  0.333333  0.131949  1
  C  C42  1  0.666667  0.333333  0.409698  1
  C  C43  1  0.333333  0.666667  0.826395  1
  C  C44  1  0.000000  0.000000  0.437550  1
  C  C45  1  0.666667  0.333333  0.298612  1
  C  C46  1  0.000000  0.000000  0.104218  1
  C  C47  1  0.666667  0.333333  0.715328  1
  C  C48  1  0.000000  0.000000  0.909728  1
  C  C49  1  0.666667  0.333333  0.798662  1
  C  C50  1  0.000000  0.000000  0.520809  1
  C  C51  1  0.666667  0.333333  0.881996  1
  C  C52  1  0.666667  0.333333  0.076370  1
  C  C53  1  0.333333  0.666667  0.993023  1
  C  C54  1  0.666667  0.333333  0.243030  1
  C  C55  1  0.000000  0.000000  0.187546  1
  C  C56  1  0.666667  0.333333  0.631987  1
  C  C57  1  0.333333  0.666667  0.048619  1
  C  C58  1  0.000000  0.000000  0.854142  1
  C  C59  1  0.333333  0.666667  0.604144  1
  C  C60  1  0.000000  0.000000  0.354214  1
  C  C61  1  0.333333  0.666667  0.159693  1
  C  C62  1  0.333333  0.666667  0.493064  1
  C  C63  1  0.333333  0.666667  0.659721  1
  C  C64  1  0.333333  0.666667  0.937474  1
  C  C65  1  0.333333  0.666667  0.770809  1
  C  C66  1  0.333333  0.666667  0.326366  1
  C  C67  1  0.666667  0.333333  0.548668  1
  C  C68  1  0.333333  0.666667  0.215279  1
  C  C69  1  0.000000  0.000000  0.020889  1
  C  C70  1  0.666667  0.333333  0.965329  1
  C  C71  1  0.000000  0.000000  0.687468  1
