# generated using pymatgen
data_Ba5Al5Pb
_symmetry_space_group_name_H-M   'P 1'
_cell_length_a   6.11798921
_cell_length_b   6.11798921
_cell_length_c   11.22353607
_cell_angle_alpha   90.00000000
_cell_angle_beta   90.00000000
_cell_angle_gamma   120.00000000
_symmetry_Int_Tables_number   1
_chemical_formula_structural   Ba5Al5Pb
_chemical_formula_sum   'Ba5 Al5 Pb1'
_cell_volume   363.81261367
_cell_formula_units_Z   1
loop_
 _symmetry_equiv_pos_site_id
 _symmetry_equiv_pos_as_xyz
  1  'x, y, z'
loop_
 _atom_site_type_symbol
 _atom_site_label
 _atom_site_symmetry_multiplicity
 _atom_site_fract_x
 _atom_site_fract_y
 _atom_site_fract_z
 _atom_site_occupancy
  Ba  Ba0  1  0.666667  0.333333  0.200854  1
  Ba  Ba1  1  0.666667  0.333333  0.799146  1
  Ba  Ba2  1  0.000000  0.000000  0.329358  1
  Ba  Ba3  1  0.000000  0.000000  0.670642  1
  Ba  Ba4  1  0.333333  0.666667  0.000000  1
  Al  Al5  1  0.333333  0.666667  0.323261  1
  Al  Al6  1  0.511763  0.023526  0.500000  1
  Al  Al7  1  0.511763  0.488237  0.500000  1
  Al  Al8  1  0.333333  0.666667  0.676739  1
  Al  Al9  1  0.976474  0.488237  0.500000  1
  Pb  Pb10  1  0.000000  0.000000  0.000000  1
