# generated using pymatgen
data_YbPr11Se16
_symmetry_space_group_name_H-M   'P 1'
_cell_length_a   8.99712755
_cell_length_b   9.00292870
_cell_length_c   17.96796883
_cell_angle_alpha   90.00000000
_cell_angle_beta   90.00000000
_cell_angle_gamma   90.00000000
_symmetry_Int_Tables_number   1
_chemical_formula_structural   YbPr11Se16
_chemical_formula_sum   'Yb2 Pr22 Se32'
_cell_volume   1455.41442122
_cell_formula_units_Z   2
loop_
 _symmetry_equiv_pos_site_id
 _symmetry_equiv_pos_as_xyz
  1  'x, y, z'
loop_
 _atom_site_type_symbol
 _atom_site_label
 _atom_site_symmetry_multiplicity
 _atom_site_fract_x
 _atom_site_fract_y
 _atom_site_fract_z
 _atom_site_occupancy
  Yb  Yb0  1  0.500000  0.624821  0.000000  1
  Yb  Yb1  1  0.000000  0.375179  0.500000  1
  Pr  Pr2  1  0.623381  0.250294  0.624396  1
  Pr  Pr3  1  0.874156  0.748482  0.624424  1
  Pr  Pr4  1  0.250088  0.500446  0.687442  1
  Pr  Pr5  1  0.500589  0.872349  0.750986  1
  Pr  Pr6  1  0.123381  0.749706  0.875604  1
  Pr  Pr7  1  0.750088  0.499554  0.812558  1
  Pr  Pr8  1  0.000589  0.127651  0.749014  1
  Pr  Pr9  1  0.374156  0.251518  0.875576  1
  Pr  Pr10  1  0.749505  0.998916  0.937408  1
  Pr  Pr11  1  0.000000  0.377484  0.000000  1
  Pr  Pr12  1  0.250495  0.998916  0.062592  1
  Pr  Pr13  1  0.625844  0.251518  0.124424  1
  Pr  Pr14  1  0.876619  0.749706  0.124396  1
  Pr  Pr15  1  0.249912  0.499554  0.187442  1
  Pr  Pr16  1  0.499411  0.872349  0.249014  1
  Pr  Pr17  1  0.125844  0.748482  0.375576  1
  Pr  Pr18  1  0.749912  0.500446  0.312558  1
  Pr  Pr19  1  0.999411  0.127651  0.250986  1
  Pr  Pr20  1  0.376619  0.250294  0.375604  1
  Pr  Pr21  1  0.750495  0.001084  0.437408  1
  Pr  Pr22  1  0.249505  0.001084  0.562592  1
  Pr  Pr23  1  0.500000  0.622516  0.500000  1
  Se  Se24  1  0.925459  0.424413  0.661697  1
  Se  Se25  1  0.325783  0.175208  0.712350  1
  Se  Se26  1  0.575181  0.575452  0.662361  1
  Se  Se27  1  0.425459  0.575587  0.838303  1
  Se  Se28  1  0.075181  0.424548  0.837639  1
  Se  Se29  1  0.175609  0.825290  0.712904  1
  Se  Se30  1  0.675609  0.174710  0.787096  1
  Se  Se31  1  0.424827  0.926803  0.912394  1
  Se  Se32  1  0.825783  0.824792  0.787650  1
  Se  Se33  1  0.822089  0.673928  0.962831  1
  Se  Se34  1  0.073523  0.074910  0.912479  1
  Se  Se35  1  0.926477  0.074910  0.087521  1
  Se  Se36  1  0.575173  0.926803  0.087606  1
  Se  Se37  1  0.675216  0.323910  0.962770  1
  Se  Se38  1  0.177911  0.673928  0.037169  1
  Se  Se39  1  0.924819  0.424548  0.162361  1
  Se  Se40  1  0.324784  0.323910  0.037230  1
  Se  Se41  1  0.324391  0.174710  0.212904  1
  Se  Se42  1  0.574541  0.575587  0.161697  1
  Se  Se43  1  0.424819  0.575452  0.337639  1
  Se  Se44  1  0.074541  0.424413  0.338303  1
  Se  Se45  1  0.174217  0.824792  0.212350  1
  Se  Se46  1  0.674217  0.175208  0.287650  1
  Se  Se47  1  0.426477  0.925090  0.412479  1
  Se  Se48  1  0.824391  0.825290  0.287096  1
  Se  Se49  1  0.824784  0.676090  0.462770  1
  Se  Se50  1  0.075173  0.073197  0.412394  1
  Se  Se51  1  0.924827  0.073197  0.587606  1
  Se  Se52  1  0.573523  0.925090  0.587521  1
  Se  Se53  1  0.175216  0.676090  0.537230  1
  Se  Se54  1  0.677911  0.326072  0.462831  1
  Se  Se55  1  0.322089  0.326072  0.537169  1
