# generated using pymatgen
data_AlPO4
_symmetry_space_group_name_H-M   'P 1'
_cell_length_a   13.86563597
_cell_length_b   13.86563597
_cell_length_c   20.19726583
_cell_angle_alpha   90.00000000
_cell_angle_beta   90.00000000
_cell_angle_gamma   120.00000000
_symmetry_Int_Tables_number   1
_chemical_formula_structural   AlPO4
_chemical_formula_sum   'Al24 P24 O96'
_cell_volume   3362.81364961
_cell_formula_units_Z   24
loop_
 _symmetry_equiv_pos_site_id
 _symmetry_equiv_pos_as_xyz
  1  'x, y, z'
loop_
 _atom_site_type_symbol
 _atom_site_label
 _atom_site_symmetry_multiplicity
 _atom_site_fract_x
 _atom_site_fract_y
 _atom_site_fract_z
 _atom_site_occupancy
  Al  Al0  1  0.563076  0.668172  0.326827  1
  Al  Al1  1  0.996568  0.227501  0.576068  1
  Al  Al2  1  0.230933  0.003432  0.576068  1
  Al  Al3  1  0.563076  0.894904  0.173173  1
  Al  Al4  1  0.996568  0.769067  0.923932  1
  Al  Al5  1  0.105096  0.436924  0.326827  1
  Al  Al6  1  0.668172  0.563076  0.826827  1
  Al  Al7  1  0.230933  0.227501  0.923932  1
  Al  Al8  1  0.227501  0.996568  0.076068  1
  Al  Al9  1  0.772499  0.769067  0.576068  1
  Al  Al10  1  0.772499  0.003432  0.923932  1
  Al  Al11  1  0.894904  0.331828  0.826827  1
  Al  Al12  1  0.668172  0.105096  0.673173  1
  Al  Al13  1  0.331828  0.436924  0.173173  1
  Al  Al14  1  0.436924  0.331828  0.673173  1
  Al  Al15  1  0.331828  0.894904  0.326827  1
  Al  Al16  1  0.894904  0.563076  0.673173  1
  Al  Al17  1  0.003432  0.772499  0.423932  1
  Al  Al18  1  0.436924  0.105096  0.826827  1
  Al  Al19  1  0.105096  0.668172  0.173173  1
  Al  Al20  1  0.769067  0.996568  0.423932  1
  Al  Al21  1  0.003432  0.230933  0.076068  1
  Al  Al22  1  0.769067  0.772499  0.076068  1
  Al  Al23  1  0.227501  0.230933  0.423932  1
  P  P24  1  0.003749  0.230831  0.920551  1
  P  P25  1  0.104178  0.439506  0.170107  1
  P  P26  1  0.996251  0.769169  0.079449  1
  P  P27  1  0.895822  0.335328  0.670107  1
  P  P28  1  0.335328  0.895822  0.170107  1
  P  P29  1  0.772918  0.003749  0.079449  1
  P  P30  1  0.769169  0.772918  0.920551  1
  P  P31  1  0.439506  0.335328  0.829893  1
  P  P32  1  0.769169  0.996251  0.579449  1
  P  P33  1  0.230831  0.003749  0.420551  1
  P  P34  1  0.895822  0.560494  0.829893  1
  P  P35  1  0.230831  0.227082  0.079449  1
  P  P36  1  0.560494  0.895822  0.329893  1
  P  P37  1  0.227082  0.996251  0.920551  1
  P  P38  1  0.772918  0.769169  0.420551  1
  P  P39  1  0.664672  0.560494  0.670107  1
  P  P40  1  0.227082  0.230831  0.579449  1
  P  P41  1  0.560494  0.664672  0.170107  1
  P  P42  1  0.335328  0.439506  0.329893  1
  P  P43  1  0.003749  0.772918  0.579449  1
  P  P44  1  0.439506  0.104178  0.670107  1
  P  P45  1  0.104178  0.664672  0.329893  1
  P  P46  1  0.996251  0.227082  0.420551  1
  P  P47  1  0.664672  0.104178  0.829893  1
  O  O48  1  0.308752  0.322361  0.125499  1
  O  O49  1  0.677639  0.691248  0.374501  1
  O  O50  1  0.459023  0.906509  0.348355  1
  O  O51  1  0.910710  0.801731  0.589296  1
  O  O52  1  0.308752  0.986391  0.374501  1
  O  O53  1  0.240010  0.124393  0.096864  1
  O  O54  1  0.691248  0.677639  0.874501  1
  O  O55  1  0.004234  0.267208  0.992722  1
  O  O56  1  0.593762  0.665189  0.242912  1
  O  O57  1  0.540977  0.093491  0.651645  1
  O  O58  1  0.322361  0.013609  0.874501  1
  O  O59  1  0.737027  0.732792  0.492722  1
  O  O60  1  0.691248  0.013609  0.625499  1
  O  O61  1  0.406238  0.071427  0.742912  1
  O  O62  1  0.459023  0.552513  0.151645  1
  O  O63  1  0.757479  0.531901  0.658537  1
  O  O64  1  0.093491  0.552513  0.348355  1
  O  O65  1  0.240010  0.115617  0.403136  1
  O  O66  1  0.242521  0.774422  0.158537  1
  O  O67  1  0.317921  0.342212  0.374046  1
  O  O68  1  0.342212  0.317921  0.874046  1
  O  O69  1  0.540977  0.447487  0.848355  1
  O  O70  1  0.262973  0.267208  0.507278  1
  O  O71  1  0.267208  0.004234  0.492722  1
  O  O72  1  0.891021  0.801731  0.910704  1
  O  O73  1  0.986391  0.677639  0.625499  1
  O  O74  1  0.013609  0.322361  0.374501  1
  O  O75  1  0.013609  0.691248  0.125499  1
  O  O76  1  0.108979  0.910710  0.410704  1
  O  O77  1  0.910710  0.108979  0.910704  1
  O  O78  1  0.093491  0.540977  0.151645  1
  O  O79  1  0.657788  0.975710  0.374046  1
  O  O80  1  0.875607  0.115617  0.096864  1
  O  O81  1  0.682079  0.024290  0.874046  1
  O  O82  1  0.665189  0.071427  0.757088  1
  O  O83  1  0.225578  0.757479  0.341463  1
  O  O84  1  0.322361  0.308752  0.625499  1
  O  O85  1  0.267208  0.262973  0.007278  1
  O  O86  1  0.242521  0.468099  0.341463  1
  O  O87  1  0.531901  0.774422  0.341463  1
  O  O88  1  0.198269  0.108979  0.589296  1
  O  O89  1  0.665189  0.593762  0.742912  1
  O  O90  1  0.884383  0.124393  0.403136  1
  O  O91  1  0.759990  0.884383  0.596864  1
  O  O92  1  0.089290  0.891021  0.089296  1
  O  O93  1  0.089290  0.198269  0.410704  1
  O  O94  1  0.995766  0.262973  0.492722  1
  O  O95  1  0.342212  0.024290  0.625954  1
  O  O96  1  0.198269  0.089290  0.910704  1
  O  O97  1  0.884383  0.759990  0.096864  1
  O  O98  1  0.906509  0.447487  0.651645  1
  O  O99  1  0.801731  0.891021  0.410704  1
  O  O100  1  0.225578  0.468099  0.158537  1
  O  O101  1  0.447487  0.540977  0.348355  1
  O  O102  1  0.334811  0.406238  0.257088  1
  O  O103  1  0.732792  0.737027  0.992722  1
  O  O104  1  0.334811  0.928573  0.242912  1
  O  O105  1  0.975710  0.317921  0.625954  1
  O  O106  1  0.552513  0.459023  0.651645  1
  O  O107  1  0.677639  0.986391  0.125499  1
  O  O108  1  0.406238  0.334811  0.757088  1
  O  O109  1  0.004234  0.737027  0.507278  1
  O  O110  1  0.986391  0.308752  0.874501  1
  O  O111  1  0.801731  0.910710  0.089296  1
  O  O112  1  0.875607  0.759990  0.403136  1
  O  O113  1  0.891021  0.089290  0.589296  1
  O  O114  1  0.468099  0.225578  0.658537  1
  O  O115  1  0.593762  0.928573  0.257088  1
  O  O116  1  0.115617  0.240010  0.903136  1
  O  O117  1  0.757479  0.225578  0.841463  1
  O  O118  1  0.928573  0.593762  0.757088  1
  O  O119  1  0.108979  0.198269  0.089296  1
  O  O120  1  0.071427  0.665189  0.257088  1
  O  O121  1  0.262973  0.995766  0.992722  1
  O  O122  1  0.447487  0.906509  0.151645  1
  O  O123  1  0.124393  0.884383  0.903136  1
  O  O124  1  0.024290  0.342212  0.125954  1
  O  O125  1  0.071427  0.406238  0.242912  1
  O  O126  1  0.995766  0.732792  0.007278  1
  O  O127  1  0.906509  0.459023  0.848355  1
  O  O128  1  0.124393  0.240010  0.596864  1
  O  O129  1  0.115617  0.875607  0.596864  1
  O  O130  1  0.975710  0.657788  0.874046  1
  O  O131  1  0.317921  0.975710  0.125954  1
  O  O132  1  0.774422  0.242521  0.658537  1
  O  O133  1  0.732792  0.995766  0.507278  1
  O  O134  1  0.657788  0.682079  0.125954  1
  O  O135  1  0.737027  0.004234  0.007278  1
  O  O136  1  0.024290  0.682079  0.374046  1
  O  O137  1  0.682079  0.657788  0.625954  1
  O  O138  1  0.774422  0.531901  0.841463  1
  O  O139  1  0.531901  0.757479  0.158537  1
  O  O140  1  0.552513  0.093491  0.848355  1
  O  O141  1  0.759990  0.875607  0.903136  1
  O  O142  1  0.928573  0.334811  0.742912  1
  O  O143  1  0.468099  0.242521  0.841463  1
