# generated using pymatgen
data_Te2As2Se8S(OF6)2
_symmetry_space_group_name_H-M   'P 1'
_cell_length_a   7.48448008
_cell_length_b   8.82929414
_cell_length_c   36.84331148
_cell_angle_alpha   90.00000000
_cell_angle_beta   91.58291047
_cell_angle_gamma   90.00000000
_symmetry_Int_Tables_number   1
_chemical_formula_structural   Te2As2Se8S(OF6)2
_chemical_formula_sum   'Te8 As8 Se32 S4 O8 F48'
_cell_volume   2433.77553173
_cell_formula_units_Z   4
loop_
 _symmetry_equiv_pos_site_id
 _symmetry_equiv_pos_as_xyz
  1  'x, y, z'
loop_
 _atom_site_type_symbol
 _atom_site_label
 _atom_site_symmetry_multiplicity
 _atom_site_fract_x
 _atom_site_fract_y
 _atom_site_fract_z
 _atom_site_occupancy
  Te  Te0  1  0.152534  0.461589  0.314402  1
  Te  Te1  1  0.847466  0.961589  0.185598  1
  Te  Te2  1  0.152534  0.038411  0.814402  1
  Te  Te3  1  0.303600  0.329377  0.927439  1
  Te  Te4  1  0.303600  0.170623  0.427439  1
  Te  Te5  1  0.696400  0.829377  0.572561  1
  Te  Te6  1  0.696400  0.670623  0.072561  1
  Te  Te7  1  0.847466  0.538411  0.685598  1
  As  As8  1  0.223720  0.121243  0.545642  1
  As  As9  1  0.776280  0.878757  0.454358  1
  As  As10  1  0.395292  0.256851  0.707413  1
  As  As11  1  0.604708  0.743149  0.292587  1
  As  As12  1  0.604708  0.756851  0.792587  1
  As  As13  1  0.395292  0.243149  0.207413  1
  As  As14  1  0.223720  0.378757  0.045642  1
  As  As15  1  0.776280  0.621243  0.954358  1
  Se  Se16  1  0.078948  0.753208  0.701693  1
  Se  Se17  1  0.102218  0.034737  0.296184  1
  Se  Se18  1  0.662147  0.057414  0.617123  1
  Se  Se19  1  0.991840  0.227454  0.902179  1
  Se  Se20  1  0.337853  0.942586  0.382877  1
  Se  Se21  1  0.662147  0.442586  0.117123  1
  Se  Se22  1  0.572218  0.786834  0.168194  1
  Se  Se23  1  0.921052  0.253208  0.798307  1
  Se  Se24  1  0.102218  0.465263  0.796184  1
  Se  Se25  1  0.509658  0.633523  0.609683  1
  Se  Se26  1  0.939439  0.417361  0.146204  1
  Se  Se27  1  0.938188  0.011451  0.118763  1
  Se  Se28  1  0.897782  0.965263  0.703816  1
  Se  Se29  1  0.572218  0.713166  0.668194  1
  Se  Se30  1  0.938188  0.488549  0.618763  1
  Se  Se31  1  0.061812  0.511451  0.381237  1
  Se  Se32  1  0.991840  0.272546  0.402179  1
  Se  Se33  1  0.008160  0.727454  0.597821  1
  Se  Se34  1  0.078948  0.746792  0.201693  1
  Se  Se35  1  0.427782  0.286834  0.331806  1
  Se  Se36  1  0.490342  0.133523  0.890317  1
  Se  Se37  1  0.337853  0.557414  0.882877  1
  Se  Se38  1  0.897782  0.534737  0.203816  1
  Se  Se39  1  0.060561  0.582639  0.853796  1
  Se  Se40  1  0.921052  0.246792  0.298307  1
  Se  Se41  1  0.427782  0.213166  0.831806  1
  Se  Se42  1  0.509658  0.866477  0.109683  1
  Se  Se43  1  0.008160  0.772546  0.097821  1
  Se  Se44  1  0.490342  0.366477  0.390317  1
  Se  Se45  1  0.060561  0.917361  0.353796  1
  Se  Se46  1  0.061812  0.988549  0.881237  1
  Se  Se47  1  0.939439  0.082639  0.646204  1
  S  S48  1  0.729806  0.352253  0.508154  1
  S  S49  1  0.270194  0.647747  0.491846  1
  S  S50  1  0.270194  0.852253  0.991846  1
  S  S51  1  0.729806  0.147747  0.008154  1
  O  O52  1  0.359758  0.615347  0.526448  1
  O  O53  1  0.755877  0.022203  0.033217  1
  O  O54  1  0.640242  0.115347  0.973552  1
  O  O55  1  0.244123  0.522203  0.466783  1
  O  O56  1  0.640242  0.384653  0.473552  1
  O  O57  1  0.755877  0.477797  0.533217  1
  O  O58  1  0.244123  0.977797  0.966783  1
  O  O59  1  0.359758  0.884653  0.026448  1
  F  F60  1  0.553935  0.932011  0.771655  1
  F  F61  1  0.177945  0.327962  0.695021  1
  F  F62  1  0.446065  0.067989  0.228345  1
  F  F63  1  0.808020  0.738202  0.420895  1
  F  F64  1  0.808020  0.761798  0.920895  1
  F  F65  1  0.191980  0.261798  0.579105  1
  F  F66  1  0.255796  0.521093  0.012782  1
  F  F67  1  0.308867  0.189094  0.749233  1
  F  F68  1  0.822055  0.672038  0.304979  1
  F  F69  1  0.611519  0.189579  0.719946  1
  F  F70  1  0.440081  0.194154  0.537583  1
  F  F71  1  0.320383  0.502643  0.079597  1
  F  F72  1  0.520308  0.675726  0.334380  1
  F  F73  1  0.340511  0.081599  0.686608  1
  F  F74  1  0.990722  0.543948  0.944560  1
  F  F75  1  0.744204  0.021093  0.487218  1
  F  F76  1  0.611519  0.310421  0.219946  1
  F  F77  1  0.388481  0.810421  0.280054  1
  F  F78  1  0.440081  0.305846  0.037583  1
  F  F79  1  0.691133  0.689094  0.750767  1
  F  F80  1  0.679617  0.497357  0.920403  1
  F  F81  1  0.553935  0.567989  0.271655  1
  F  F82  1  0.255796  0.978907  0.512782  1
  F  F83  1  0.479692  0.175726  0.165620  1
  F  F84  1  0.691133  0.810906  0.250767  1
  F  F85  1  0.127233  0.259462  0.011835  1
  F  F86  1  0.872767  0.740538  0.988165  1
  F  F87  1  0.559919  0.694154  0.962417  1
  F  F88  1  0.659489  0.918401  0.313392  1
  F  F89  1  0.308867  0.310906  0.249233  1
  F  F90  1  0.990722  0.956052  0.444560  1
  F  F91  1  0.320383  0.997357  0.579597  1
  F  F92  1  0.659489  0.581599  0.813392  1
  F  F93  1  0.127233  0.240538  0.511835  1
  F  F94  1  0.191980  0.238202  0.079105  1
  F  F95  1  0.177945  0.172038  0.195021  1
  F  F96  1  0.479692  0.324274  0.665620  1
  F  F97  1  0.744204  0.478907  0.987218  1
  F  F98  1  0.559919  0.805846  0.462417  1
  F  F99  1  0.822055  0.827962  0.804979  1
  F  F100  1  0.340511  0.418401  0.186608  1
  F  F101  1  0.679617  0.002643  0.420403  1
  F  F102  1  0.872767  0.759462  0.488165  1
  F  F103  1  0.009278  0.456052  0.055440  1
  F  F104  1  0.009278  0.043948  0.555440  1
  F  F105  1  0.446065  0.432011  0.728345  1
  F  F106  1  0.388481  0.689579  0.780054  1
  F  F107  1  0.520308  0.824274  0.834380  1
