# generated using pymatgen
data_K2U3(IO5)4
_symmetry_space_group_name_H-M   'P 1'
_cell_length_a   7.07802133
_cell_length_b   8.05994186
_cell_length_c   9.23148342
_cell_angle_alpha   92.01380542
_cell_angle_beta   105.37874493
_cell_angle_gamma   91.39057823
_symmetry_Int_Tables_number   1
_chemical_formula_structural   K2U3(IO5)4
_chemical_formula_sum   'K2 U3 I4 O20'
_cell_volume   507.16274291
_cell_formula_units_Z   1
loop_
 _symmetry_equiv_pos_site_id
 _symmetry_equiv_pos_as_xyz
  1  'x, y, z'
loop_
 _atom_site_type_symbol
 _atom_site_label
 _atom_site_symmetry_multiplicity
 _atom_site_fract_x
 _atom_site_fract_y
 _atom_site_fract_z
 _atom_site_occupancy
  K  K0  1  0.749127  0.399781  0.159330  1
  K  K1  1  0.250873  0.600219  0.840670  1
  U  U2  1  0.549900  0.916423  0.191532  1
  U  U3  1  0.450100  0.083577  0.808468  1
  U  U4  1  0.000000  0.000000  0.000000  1
  I  I5  1  0.295159  0.349248  0.440367  1
  I  I6  1  0.704841  0.650752  0.559633  1
  I  I7  1  0.877583  0.206365  0.624417  1
  I  I8  1  0.122417  0.793635  0.375583  1
  O  O9  1  0.309245  0.988339  0.986710  1
  O  O10  1  0.690755  0.011661  0.013290  1
  O  O11  1  0.889866  0.892951  0.289447  1
  O  O12  1  0.650633  0.472472  0.425487  1
  O  O13  1  0.954637  0.786386  0.921761  1
  O  O14  1  0.349367  0.527528  0.574513  1
  O  O15  1  0.573797  0.129042  0.273891  1
  O  O16  1  0.087607  0.592306  0.278122  1
  O  O17  1  0.774326  0.094442  0.765486  1
  O  O18  1  0.110134  0.107049  0.710553  1
  O  O19  1  0.431360  0.189661  0.561525  1
  O  O20  1  0.529564  0.700962  0.114753  1
  O  O21  1  0.568640  0.810339  0.438475  1
  O  O22  1  0.043033  0.285233  0.442659  1
  O  O23  1  0.470436  0.299038  0.885247  1
  O  O24  1  0.426203  0.870958  0.726109  1
  O  O25  1  0.045363  0.213614  0.078239  1
  O  O26  1  0.225674  0.905558  0.234514  1
  O  O27  1  0.956967  0.714767  0.557341  1
  O  O28  1  0.912393  0.407694  0.721878  1
