# generated using pymatgen
data_FeS3N2Cl5
_symmetry_space_group_name_H-M   'P 1'
_cell_length_a   9.57696919
_cell_length_b   10.89676989
_cell_length_c   14.91544751
_cell_angle_alpha   90.00000000
_cell_angle_beta   128.24763506
_cell_angle_gamma   90.00000000
_symmetry_Int_Tables_number   1
_chemical_formula_structural   FeS3N2Cl5
_chemical_formula_sum   'Fe4 S12 N8 Cl20'
_cell_volume   1222.42226050
_cell_formula_units_Z   4
loop_
 _symmetry_equiv_pos_site_id
 _symmetry_equiv_pos_as_xyz
  1  'x, y, z'
loop_
 _atom_site_type_symbol
 _atom_site_label
 _atom_site_symmetry_multiplicity
 _atom_site_fract_x
 _atom_site_fract_y
 _atom_site_fract_z
 _atom_site_occupancy
  Fe  Fe0  1  0.217863  0.365748  0.691372  1
  Fe  Fe1  1  0.782137  0.865748  0.808628  1
  Fe  Fe2  1  0.782137  0.634252  0.308628  1
  Fe  Fe3  1  0.217863  0.134252  0.191372  1
  S  S4  1  0.668267  0.235311  0.612429  1
  S  S5  1  0.331733  0.735311  0.887571  1
  S  S6  1  0.844500  0.251965  0.804718  1
  S  S7  1  0.844500  0.248035  0.304718  1
  S  S8  1  0.155500  0.748035  0.195282  1
  S  S9  1  0.331733  0.764689  0.387571  1
  S  S10  1  0.676335  0.031043  0.191426  1
  S  S11  1  0.668267  0.264689  0.112429  1
  S  S12  1  0.676335  0.468957  0.691426  1
  S  S13  1  0.155500  0.751965  0.695282  1
  S  S14  1  0.323665  0.531043  0.308574  1
  S  S15  1  0.323665  0.968957  0.808574  1
  N  N16  1  0.369806  0.622736  0.409635  1
  N  N17  1  0.796732  0.391620  0.803655  1
  N  N18  1  0.369806  0.877264  0.909635  1
  N  N19  1  0.630194  0.377264  0.590365  1
  N  N20  1  0.796732  0.108380  0.303655  1
  N  N21  1  0.203268  0.608380  0.196345  1
  N  N22  1  0.203268  0.891620  0.696345  1
  N  N23  1  0.630194  0.122736  0.090365  1
  Cl  Cl24  1  0.443777  0.352183  0.080231  1
  Cl  Cl25  1  0.747042  0.527756  0.418822  1
  Cl  Cl26  1  0.252958  0.027756  0.081178  1
  Cl  Cl27  1  0.964975  0.709999  0.901524  1
  Cl  Cl28  1  0.110374  0.011928  0.256270  1
  Cl  Cl29  1  0.521329  0.794290  0.662894  1
  Cl  Cl30  1  0.110374  0.488072  0.756270  1
  Cl  Cl31  1  0.478671  0.205710  0.337106  1
  Cl  Cl32  1  0.252958  0.472244  0.581178  1
  Cl  Cl33  1  0.035025  0.290001  0.098476  1
  Cl  Cl34  1  0.521329  0.705710  0.162894  1
  Cl  Cl35  1  0.478671  0.294290  0.837106  1
  Cl  Cl36  1  0.443777  0.147817  0.580231  1
  Cl  Cl37  1  0.889626  0.988072  0.743730  1
  Cl  Cl38  1  0.035025  0.209999  0.598476  1
  Cl  Cl39  1  0.964975  0.790001  0.401524  1
  Cl  Cl40  1  0.556223  0.647817  0.919769  1
  Cl  Cl41  1  0.556223  0.852183  0.419769  1
  Cl  Cl42  1  0.889626  0.511928  0.243730  1
  Cl  Cl43  1  0.747042  0.972244  0.918822  1
