# generated using pymatgen
data_Hg3AsSe4I
_symmetry_space_group_name_H-M   'P 1'
_cell_length_a   7.88910372
_cell_length_b   7.88910372
_cell_length_c   10.69636878
_cell_angle_alpha   90.00000000
_cell_angle_beta   90.00000000
_cell_angle_gamma   120.00000000
_symmetry_Int_Tables_number   1
_chemical_formula_structural   Hg3AsSe4I
_chemical_formula_sum   'Hg6 As2 Se8 I2'
_cell_volume   576.53055831
_cell_formula_units_Z   2
loop_
 _symmetry_equiv_pos_site_id
 _symmetry_equiv_pos_as_xyz
  1  'x, y, z'
loop_
 _atom_site_type_symbol
 _atom_site_label
 _atom_site_symmetry_multiplicity
 _atom_site_fract_x
 _atom_site_fract_y
 _atom_site_fract_z
 _atom_site_occupancy
  Hg  Hg0  1  0.498115  0.996231  0.241387  1
  Hg  Hg1  1  0.501885  0.003769  0.741387  1
  Hg  Hg2  1  0.003769  0.501885  0.241387  1
  Hg  Hg3  1  0.996231  0.498115  0.741387  1
  Hg  Hg4  1  0.498115  0.501885  0.241387  1
  Hg  Hg5  1  0.501885  0.498115  0.741387  1
  As  As6  1  0.000000  0.000000  0.237261  1
  As  As7  1  0.000000  0.000000  0.737261  1
  Se  Se8  1  0.302699  0.151349  0.359118  1
  Se  Se9  1  0.848651  0.697301  0.359118  1
  Se  Se10  1  0.848651  0.151349  0.359118  1
  Se  Se11  1  0.151349  0.302699  0.859118  1
  Se  Se12  1  0.333333  0.666667  0.114868  1
  Se  Se13  1  0.151349  0.848651  0.859118  1
  Se  Se14  1  0.666667  0.333333  0.614868  1
  Se  Se15  1  0.697301  0.848651  0.859118  1
  I  I16  1  0.333333  0.666667  0.530978  1
  I  I17  1  0.666667  0.333333  0.030978  1
