# generated using pymatgen
data_Hf5(In2Rh)2
_symmetry_space_group_name_H-M   'P 1'
_cell_length_a   3.39888168
_cell_length_b   7.72256203
_cell_length_c   17.64890083
_cell_angle_alpha   90.00000000
_cell_angle_beta   90.00000000
_cell_angle_gamma   90.00000000
_symmetry_Int_Tables_number   1
_chemical_formula_structural   Hf5(In2Rh)2
_chemical_formula_sum   'Hf10 In8 Rh4'
_cell_volume   463.24966571
_cell_formula_units_Z   2
loop_
 _symmetry_equiv_pos_site_id
 _symmetry_equiv_pos_as_xyz
  1  'x, y, z'
loop_
 _atom_site_type_symbol
 _atom_site_label
 _atom_site_symmetry_multiplicity
 _atom_site_fract_x
 _atom_site_fract_y
 _atom_site_fract_z
 _atom_site_occupancy
  Hf  Hf0  1  0.000000  0.259013  0.221829  1
  Hf  Hf1  1  0.000000  0.636001  0.079997  1
  Hf  Hf2  1  0.000000  0.759013  0.278171  1
  Hf  Hf3  1  0.000000  0.863999  0.579997  1
  Hf  Hf4  1  0.000000  0.240987  0.721829  1
  Hf  Hf5  1  0.000000  0.740987  0.778171  1
  Hf  Hf6  1  0.000000  0.136001  0.420003  1
  Hf  Hf7  1  0.000000  0.000000  0.000000  1
  Hf  Hf8  1  0.000000  0.363999  0.920003  1
  Hf  Hf9  1  0.000000  0.500000  0.500000  1
  In  In10  1  0.500000  0.799243  0.432694  1
  In  In11  1  0.500000  0.700757  0.932694  1
  In  In12  1  0.500000  0.062590  0.851032  1
  In  In13  1  0.500000  0.562590  0.648968  1
  In  In14  1  0.500000  0.200757  0.567306  1
  In  In15  1  0.500000  0.937410  0.148968  1
  In  In16  1  0.500000  0.437410  0.351032  1
  In  In17  1  0.500000  0.299243  0.067306  1
  Rh  Rh18  1  0.500000  0.451799  0.806682  1
  Rh  Rh19  1  0.500000  0.548201  0.193318  1
  Rh  Rh20  1  0.500000  0.951799  0.693318  1
  Rh  Rh21  1  0.500000  0.048201  0.306682  1
