# generated using pymatgen
data_MgAl2O4
_symmetry_space_group_name_H-M   'P 1'
_cell_length_a   5.74914388
_cell_length_b   5.77251489
_cell_length_c   33.08552538
_cell_angle_alpha   85.24102376
_cell_angle_beta   85.04264375
_cell_angle_gamma   60.21105335
_symmetry_Int_Tables_number   1
_chemical_formula_structural   MgAl2O4
_chemical_formula_sum   'Mg14 Al28 O56'
_cell_volume   948.33757163
_cell_formula_units_Z   14
loop_
 _symmetry_equiv_pos_site_id
 _symmetry_equiv_pos_as_xyz
  1  'x, y, z'
loop_
 _atom_site_type_symbol
 _atom_site_label
 _atom_site_symmetry_multiplicity
 _atom_site_fract_x
 _atom_site_fract_y
 _atom_site_fract_z
 _atom_site_occupancy
  Mg  Mg0  1  0.142299  0.143831  0.071410  1
  Mg  Mg1  1  0.142693  0.643349  0.071545  1
  Mg  Mg2  1  0.939150  0.455458  0.158772  1
  Mg  Mg3  1  0.426220  0.432445  0.214334  1
  Mg  Mg4  1  0.227479  0.741250  0.303141  1
  Mg  Mg5  1  0.513240  0.027161  0.445878  1
  Mg  Mg6  1  0.798611  0.313708  0.588561  1
  Mg  Mg7  1  0.712702  0.717546  0.356998  1
  Mg  Mg8  1  0.084481  0.599381  0.731226  1
  Mg  Mg9  1  0.998311  0.003467  0.499823  1
  Mg  Mg10  1  0.370604  0.883893  0.874904  1
  Mg  Mg11  1  0.283742  0.289872  0.642524  1
  Mg  Mg12  1  0.569725  0.575052  0.785502  1
  Mg  Mg13  1  0.857477  0.858904  0.928416  1
  Al  Al14  1  0.652248  0.167799  0.016766  1
  Al  Al15  1  0.000032  0.499764  0.000376  1
  Al  Al16  1  0.643116  0.641953  0.071886  1
  Al  Al17  1  0.423009  0.925154  0.214098  1
  Al  Al18  1  0.282211  0.787766  0.144712  1
  Al  Al19  1  0.937261  0.924200  0.214010  1
  Al  Al20  1  0.709580  0.210221  0.356648  1
  Al  Al21  1  0.633659  0.116476  0.126953  1
  Al  Al22  1  0.570769  0.071246  0.287311  1
  Al  Al23  1  0.223502  0.210223  0.356630  1
  Al  Al24  1  0.995237  0.495741  0.499426  1
  Al  Al25  1  0.856566  0.356754  0.430062  1
  Al  Al26  1  0.917547  0.396228  0.268706  1
  Al  Al27  1  0.509556  0.495756  0.499415  1
  Al  Al28  1  0.281049  0.780882  0.642100  1
  Al  Al29  1  0.142747  0.641511  0.572880  1
  Al  Al30  1  0.203479  0.681739  0.411527  1
  Al  Al31  1  0.795998  0.780851  0.642086  1
  Al  Al32  1  0.566624  0.067049  0.785059  1
  Al  Al33  1  0.428454  0.927427  0.715559  1
  Al  Al34  1  0.489320  0.967185  0.554351  1
  Al  Al35  1  0.081299  0.067128  0.785061  1
  Al  Al36  1  0.855521  0.353547  0.927932  1
  Al  Al37  1  0.774944  0.253257  0.697075  1
  Al  Al38  1  0.714018  0.212845  0.858658  1
  Al  Al39  1  0.363744  0.354343  0.928083  1
  Al  Al40  1  0.060520  0.539740  0.839736  1
  Al  Al41  1  0.350006  0.826273  0.982797  1
  O  O42  1  0.303613  0.330522  0.031819  1
  O  O43  1  0.943623  0.479717  0.099855  1
  O  O44  1  0.817706  0.339792  0.033474  1
  O  O45  1  0.817064  0.812256  0.032479  1
  O  O46  1  0.568624  0.642761  0.179206  1
  O  O47  1  0.469422  0.474347  0.108121  1
  O  O48  1  0.342169  0.809525  0.037015  1
  O  O49  1  0.468045  0.947545  0.107110  1
  O  O50  1  0.108599  0.639470  0.179020  1
  O  O51  1  0.241143  0.771296  0.244703  1
  O  O52  1  0.119710  0.081734  0.180614  1
  O  O53  1  0.981526  0.957046  0.109574  1
  O  O54  1  0.855440  0.926368  0.321950  1
  O  O55  1  0.744599  0.760649  0.249825  1
  O  O56  1  0.751168  0.227506  0.250480  1
  O  O57  1  0.396224  0.926211  0.321955  1
  O  O58  1  0.613193  0.090181  0.182488  1
  O  O59  1  0.527389  0.057617  0.387408  1
  O  O60  1  0.270788  0.227394  0.250599  1
  O  O61  1  0.405648  0.366018  0.322984  1
  O  O62  1  0.141230  0.212076  0.464664  1
  O  O63  1  0.030575  0.046418  0.392361  1
  O  O64  1  0.037208  0.513135  0.393082  1
  O  O65  1  0.813126  0.343423  0.530181  1
  O  O66  1  0.900013  0.375672  0.324484  1
  O  O67  1  0.681999  0.211998  0.464674  1
  O  O68  1  0.691323  0.651903  0.465717  1
  O  O69  1  0.556584  0.513177  0.393100  1
  O  O70  1  0.427276  0.497457  0.607587  1
  O  O71  1  0.316407  0.331866  0.535259  1
  O  O72  1  0.322795  0.798783  0.535979  1
  O  O73  1  0.185771  0.661438  0.467281  1
  O  O74  1  0.967607  0.497352  0.607589  1
  O  O75  1  0.098711  0.629402  0.673097  1
  O  O76  1  0.976775  0.938029  0.608664  1
  O  O77  1  0.842423  0.798840  0.535994  1
  O  O78  1  0.712731  0.783217  0.750733  1
  O  O79  1  0.601939  0.617673  0.678426  1
  O  O80  1  0.608015  0.084488  0.679107  1
  O  O81  1  0.471486  0.946999  0.610273  1
  O  O82  1  0.253230  0.783154  0.750745  1
  O  O83  1  0.384324  0.914869  0.816456  1
  O  O84  1  0.262311  0.223783  0.751889  1
  O  O85  1  0.128404  0.084565  0.679123  1
  O  O86  1  0.996751  0.069366  0.894037  1
  O  O87  1  0.887163  0.904121  0.821413  1
  O  O88  1  0.757279  0.232470  0.753247  1
  O  O89  1  0.540072  0.069090  0.894243  1
  O  O90  1  0.893396  0.370081  0.822178  1
  O  O91  1  0.671887  0.195399  0.962001  1
  O  O92  1  0.549692  0.505671  0.895517  1
  O  O93  1  0.414599  0.369922  0.822191  1
  O  O94  1  0.172578  0.190901  0.962426  1
  O  O95  1  0.183604  0.655571  0.963873  1
  O  O96  1  0.043592  0.519423  0.895455  1
  O  O97  1  0.702681  0.651936  0.963343  1
