# generated using pymatgen
data_Na2Sn2C3(O2F)3
_symmetry_space_group_name_H-M   'P 1'
_cell_length_a   6.11776787
_cell_length_b   8.93046730
_cell_length_c   9.36281488
_cell_angle_alpha   70.46291270
_cell_angle_beta   82.14787376
_cell_angle_gamma   82.83503646
_symmetry_Int_Tables_number   1
_chemical_formula_structural   Na2Sn2C3(O2F)3
_chemical_formula_sum   'Na4 Sn4 C6 O12 F6'
_cell_volume   475.84696293
_cell_formula_units_Z   2
loop_
 _symmetry_equiv_pos_site_id
 _symmetry_equiv_pos_as_xyz
  1  'x, y, z'
loop_
 _atom_site_type_symbol
 _atom_site_label
 _atom_site_symmetry_multiplicity
 _atom_site_fract_x
 _atom_site_fract_y
 _atom_site_fract_z
 _atom_site_occupancy
  Na  Na0  1  0.706930  0.043498  0.579496  1
  Na  Na1  1  0.860084  0.737454  0.375023  1
  Na  Na2  1  0.139916  0.262546  0.624977  1
  Na  Na3  1  0.293070  0.956502  0.420504  1
  Sn  Sn4  1  0.837564  0.571167  0.816247  1
  Sn  Sn5  1  0.826856  0.138096  0.136194  1
  Sn  Sn6  1  0.173144  0.861904  0.863806  1
  Sn  Sn7  1  0.162436  0.428833  0.183753  1
  C  C8  1  0.412769  0.606623  0.334101  1
  C  C9  1  0.397885  0.495724  0.729204  1
  C  C10  1  0.416063  0.075051  0.987074  1
  C  C11  1  0.583937  0.924949  0.012926  1
  C  C12  1  0.587231  0.393377  0.665899  1
  C  C13  1  0.602115  0.504276  0.270796  1
  O  O14  1  0.787012  0.418086  0.677546  1
  O  O15  1  0.455669  0.590201  0.790547  1
  O  O16  1  0.753186  0.922224  0.080743  1
  O  O17  1  0.456616  0.184466  0.033567  1
  O  O18  1  0.543384  0.815534  0.966433  1
  O  O19  1  0.797662  0.523880  0.285171  1
  O  O20  1  0.462505  0.703616  0.391488  1
  O  O21  1  0.246814  0.077776  0.919257  1
  O  O22  1  0.212988  0.581914  0.322454  1
  O  O23  1  0.544331  0.409799  0.209453  1
  O  O24  1  0.202338  0.476120  0.714829  1
  O  O25  1  0.537495  0.296384  0.608512  1
  F  F26  1  0.132712  0.233320  0.384923  1
  F  F27  1  0.867288  0.766680  0.615077  1
  F  F28  1  0.939785  0.044914  0.742086  1
  F  F29  1  0.060215  0.955086  0.257914  1
  F  F30  1  0.363033  0.957984  0.654994  1
  F  F31  1  0.636967  0.042016  0.345006  1
