# generated using pymatgen
data_KMo2P3O13
_symmetry_space_group_name_H-M   'P 1'
_cell_length_a   9.02633690
_cell_length_b   9.02633690
_cell_length_c   9.02546579
_cell_angle_alpha   68.98362842
_cell_angle_beta   111.01637158
_cell_angle_gamma   74.55125427
_symmetry_Int_Tables_number   1
_chemical_formula_structural   KMo2P3O13
_chemical_formula_sum   'K2 Mo4 P6 O26'
_cell_volume   571.15450283
_cell_formula_units_Z   2
loop_
 _symmetry_equiv_pos_site_id
 _symmetry_equiv_pos_as_xyz
  1  'x, y, z'
loop_
 _atom_site_type_symbol
 _atom_site_label
 _atom_site_symmetry_multiplicity
 _atom_site_fract_x
 _atom_site_fract_y
 _atom_site_fract_z
 _atom_site_occupancy
  K  K0  1  0.000000  0.500000  0.000000  1
  K  K1  1  0.500000  1.000000  0.500000  1
  Mo  Mo2  1  0.673291  0.161340  0.831780  1
  Mo  Mo3  1  0.838660  0.326709  0.331780  1
  Mo  Mo4  1  0.161340  0.673291  0.668220  1
  Mo  Mo5  1  0.326709  0.838660  0.168220  1
  P  P6  1  0.988327  0.988327  0.750000  1
  P  P7  1  0.760516  0.649785  0.437149  1
  P  P8  1  0.350215  0.239484  0.937149  1
  P  P9  1  0.649785  0.760516  0.062851  1
  P  P10  1  0.011673  0.011673  0.250000  1
  P  P11  1  0.239484  0.350215  0.562851  1
  O  O12  1  0.103804  0.996336  0.917554  1
  O  O13  1  0.206750  0.943445  0.288946  1
  O  O14  1  0.461557  0.801684  0.033919  1
  O  O15  1  0.056555  0.793250  0.788946  1
  O  O16  1  0.346944  0.103798  0.092114  1
  O  O17  1  0.696918  0.351305  0.769917  1
  O  O18  1  0.252899  0.430100  0.899609  1
  O  O19  1  0.896196  0.003664  0.082446  1
  O  O20  1  0.648695  0.303082  0.269917  1
  O  O21  1  0.303082  0.648695  0.230083  1
  O  O22  1  0.996336  0.103804  0.582446  1
  O  O23  1  0.896202  0.653056  0.592114  1
  O  O24  1  0.747101  0.569900  0.100391  1
  O  O25  1  0.793250  0.056555  0.711054  1
  O  O26  1  0.430100  0.252899  0.600391  1
  O  O27  1  0.943445  0.206750  0.211054  1
  O  O28  1  0.198316  0.538443  0.533919  1
  O  O29  1  0.653056  0.896202  0.907886  1
  O  O30  1  0.003664  0.896196  0.417554  1
  O  O31  1  0.801684  0.461557  0.466081  1
  O  O32  1  0.103798  0.346944  0.407886  1
  O  O33  1  0.538443  0.198316  0.966081  1
  O  O34  1  0.760607  0.760607  0.250000  1
  O  O35  1  0.569900  0.747101  0.399609  1
  O  O36  1  0.351305  0.696918  0.730083  1
  O  O37  1  0.239393  0.239393  0.750000  1
