# generated using pymatgen
data_MnSbSe2I
_symmetry_space_group_name_H-M   'P 1'
_cell_length_a   7.03278538
_cell_length_b   7.03278538
_cell_length_c   10.19848297
_cell_angle_alpha   88.42299557
_cell_angle_beta   91.57700443
_cell_angle_gamma   146.42191964
_symmetry_Int_Tables_number   1
_chemical_formula_structural   MnSbSe2I
_chemical_formula_sum   'Mn2 Sb2 Se4 I2'
_cell_volume   278.86444334
_cell_formula_units_Z   2
loop_
 _symmetry_equiv_pos_site_id
 _symmetry_equiv_pos_as_xyz
  1  'x, y, z'
loop_
 _atom_site_type_symbol
 _atom_site_label
 _atom_site_symmetry_multiplicity
 _atom_site_fract_x
 _atom_site_fract_y
 _atom_site_fract_z
 _atom_site_occupancy
  Mn  Mn0  1  0.000000  0.000000  0.000000  1
  Mn  Mn1  1  0.000000  0.000000  0.500000  1
  Sb  Sb2  1  0.292561  0.707439  0.683127  1
  Sb  Sb3  1  0.707439  0.292561  0.316873  1
  Se  Se4  1  0.926852  0.073148  0.740530  1
  Se  Se5  1  0.636562  0.363438  0.555845  1
  Se  Se6  1  0.073148  0.926852  0.259470  1
  Se  Se7  1  0.363438  0.636562  0.444155  1
  I  I8  1  0.366567  0.633433  0.074800  1
  I  I9  1  0.633433  0.366567  0.925200  1
