# generated using pymatgen
data_K2MnO4
_symmetry_space_group_name_H-M   'P 1'
_cell_length_a   5.96864276
_cell_length_b   7.77480770
_cell_length_c   10.55811845
_cell_angle_alpha   90.00000000
_cell_angle_beta   90.00000000
_cell_angle_gamma   90.00000000
_symmetry_Int_Tables_number   1
_chemical_formula_structural   K2MnO4
_chemical_formula_sum   'K8 Mn4 O16'
_cell_volume   489.95001129
_cell_formula_units_Z   4
loop_
 _symmetry_equiv_pos_site_id
 _symmetry_equiv_pos_as_xyz
  1  'x, y, z'
loop_
 _atom_site_type_symbol
 _atom_site_label
 _atom_site_symmetry_multiplicity
 _atom_site_fract_x
 _atom_site_fract_y
 _atom_site_fract_z
 _atom_site_occupancy
  K  K0  1  0.750000  0.834786  0.085209  1
  K  K1  1  0.250000  0.165214  0.914791  1
  K  K2  1  0.750000  0.334786  0.414791  1
  K  K3  1  0.250000  0.665214  0.585209  1
  K  K4  1  0.750000  0.011875  0.697570  1
  K  K5  1  0.250000  0.988125  0.302430  1
  K  K6  1  0.750000  0.511875  0.802430  1
  K  K7  1  0.250000  0.488125  0.197570  1
  Mn  Mn8  1  0.750000  0.770508  0.420885  1
  Mn  Mn9  1  0.250000  0.229492  0.579115  1
  Mn  Mn10  1  0.750000  0.270508  0.079115  1
  Mn  Mn11  1  0.250000  0.729492  0.920885  1
  O  O12  1  0.750000  0.983433  0.419341  1
  O  O13  1  0.250000  0.016567  0.580659  1
  O  O14  1  0.750000  0.483433  0.080659  1
  O  O15  1  0.250000  0.516567  0.919341  1
  O  O16  1  0.750000  0.701176  0.570678  1
  O  O17  1  0.250000  0.298824  0.429322  1
  O  O18  1  0.750000  0.201176  0.929322  1
  O  O19  1  0.250000  0.798824  0.070678  1
  O  O20  1  0.976019  0.693909  0.347865  1
  O  O21  1  0.476019  0.306091  0.652135  1
  O  O22  1  0.523981  0.193909  0.152135  1
  O  O23  1  0.023981  0.806091  0.847865  1
  O  O24  1  0.023981  0.306091  0.652135  1
  O  O25  1  0.523981  0.693909  0.347865  1
  O  O26  1  0.476019  0.806091  0.847865  1
  O  O27  1  0.976019  0.193909  0.152135  1
