# generated using pymatgen
data_SiO2
_symmetry_space_group_name_H-M   'P 1'
_cell_length_a   7.47056767
_cell_length_b   8.85296841
_cell_length_c   17.43134641
_cell_angle_alpha   90.00000000
_cell_angle_beta   114.19116557
_cell_angle_gamma   90.00000000
_symmetry_Int_Tables_number   1
_chemical_formula_structural   SiO2
_chemical_formula_sum   'Si18 O36'
_cell_volume   1051.61210047
_cell_formula_units_Z   18
loop_
 _symmetry_equiv_pos_site_id
 _symmetry_equiv_pos_as_xyz
  1  'x, y, z'
loop_
 _atom_site_type_symbol
 _atom_site_label
 _atom_site_symmetry_multiplicity
 _atom_site_fract_x
 _atom_site_fract_y
 _atom_site_fract_z
 _atom_site_occupancy
  Si  Si0  1  0.729299  0.654279  0.079881  1
  Si  Si1  1  0.270701  0.654279  0.420119  1
  Si  Si2  1  0.288959  0.648649  0.679297  1
  Si  Si3  1  0.270701  0.345721  0.920119  1
  Si  Si4  1  0.000000  0.496292  0.250000  1
  Si  Si5  1  0.711041  0.648649  0.820703  1
  Si  Si6  1  0.310145  0.603591  0.055716  1
  Si  Si7  1  0.064666  0.825285  0.509256  1
  Si  Si8  1  0.064666  0.174715  0.009256  1
  Si  Si9  1  0.729299  0.345721  0.579881  1
  Si  Si10  1  0.689855  0.396409  0.944284  1
  Si  Si11  1  0.288959  0.351351  0.179297  1
  Si  Si12  1  0.000000  0.503708  0.750000  1
  Si  Si13  1  0.711041  0.351351  0.320703  1
  Si  Si14  1  0.935334  0.825285  0.990744  1
  Si  Si15  1  0.310145  0.396409  0.555716  1
  Si  Si16  1  0.689855  0.603591  0.444284  1
  Si  Si17  1  0.935334  0.174715  0.490744  1
  O  O18  1  0.194844  0.220866  0.107495  1
  O  O19  1  0.868450  0.722128  0.470640  1
  O  O20  1  0.126924  0.389408  0.825010  1
  O  O21  1  0.513705  0.694628  0.076561  1
  O  O22  1  0.859459  0.614260  0.775841  1
  O  O23  1  0.513705  0.305372  0.576561  1
  O  O24  1  0.486295  0.694628  0.423439  1
  O  O25  1  0.805156  0.779134  0.892505  1
  O  O26  1  0.140541  0.614260  0.724159  1
  O  O27  1  0.274460  0.509387  0.477804  1
  O  O28  1  0.873076  0.389408  0.674990  1
  O  O29  1  0.807358  0.199121  0.546510  1
  O  O30  1  0.322808  0.507534  0.137231  1
  O  O31  1  0.725540  0.509387  0.022196  1
  O  O32  1  0.868450  0.277872  0.970640  1
  O  O33  1  0.486295  0.305372  0.923439  1
  O  O34  1  0.859459  0.385740  0.275841  1
  O  O35  1  0.322808  0.492466  0.637231  1
  O  O36  1  0.677192  0.507534  0.362769  1
  O  O37  1  0.131550  0.722128  0.029360  1
  O  O38  1  0.873076  0.610592  0.174990  1
  O  O39  1  0.677192  0.492466  0.862769  1
  O  O40  1  0.000000  0.000000  0.000000  1
  O  O41  1  0.140541  0.385740  0.224159  1
  O  O42  1  0.126924  0.610592  0.325010  1
  O  O43  1  0.805156  0.220866  0.392505  1
  O  O44  1  0.194844  0.779134  0.607495  1
  O  O45  1  0.274460  0.490613  0.977804  1
  O  O46  1  0.192642  0.199121  0.953490  1
  O  O47  1  0.500000  0.293671  0.250000  1
  O  O48  1  0.725540  0.490613  0.522196  1
  O  O49  1  0.000000  0.000000  0.500000  1
  O  O50  1  0.500000  0.706329  0.750000  1
  O  O51  1  0.131550  0.277872  0.529360  1
  O  O52  1  0.192642  0.800879  0.453490  1
  O  O53  1  0.807358  0.800879  0.046510  1
