# generated using pymatgen
data_RbAg(NO3)2
_symmetry_space_group_name_H-M   'P 1'
_cell_length_a   8.53448009
_cell_length_b   5.13311053
_cell_length_c   14.64608591
_cell_angle_alpha   90.00000000
_cell_angle_beta   98.19635914
_cell_angle_gamma   90.00000000
_symmetry_Int_Tables_number   1
_chemical_formula_structural   RbAg(NO3)2
_chemical_formula_sum   'Rb4 Ag4 N8 O24'
_cell_volume   635.06804255
_cell_formula_units_Z   4
loop_
 _symmetry_equiv_pos_site_id
 _symmetry_equiv_pos_as_xyz
  1  'x, y, z'
loop_
 _atom_site_type_symbol
 _atom_site_label
 _atom_site_symmetry_multiplicity
 _atom_site_fract_x
 _atom_site_fract_y
 _atom_site_fract_z
 _atom_site_occupancy
  Rb  Rb0  1  0.733705  0.952825  0.938278  1
  Rb  Rb1  1  0.266295  0.452825  0.561722  1
  Rb  Rb2  1  0.733705  0.547175  0.438278  1
  Rb  Rb3  1  0.266295  0.047175  0.061722  1
  Ag  Ag4  1  0.807466  0.070781  0.220465  1
  Ag  Ag5  1  0.192534  0.570781  0.279535  1
  Ag  Ag6  1  0.192534  0.929219  0.779535  1
  Ag  Ag7  1  0.807466  0.429219  0.720465  1
  N  N8  1  0.568656  0.866851  0.666617  1
  N  N9  1  0.940492  0.531057  0.104838  1
  N  N10  1  0.431344  0.133149  0.333383  1
  N  N11  1  0.431344  0.366851  0.833383  1
  N  N12  1  0.059508  0.031057  0.395162  1
  N  N13  1  0.568656  0.633149  0.166617  1
  N  N14  1  0.940492  0.968943  0.604838  1
  N  N15  1  0.059508  0.468943  0.895162  1
  O  O16  1  0.983771  0.733481  0.611245  1
  O  O17  1  0.408381  0.139235  0.866818  1
  O  O18  1  0.591619  0.860765  0.133182  1
  O  O19  1  0.439333  0.520165  0.141302  1
  O  O20  1  0.168804  0.956813  0.456185  1
  O  O21  1  0.983771  0.766519  0.111245  1
  O  O22  1  0.990127  0.636412  0.836916  1
  O  O23  1  0.560667  0.479835  0.858698  1
  O  O24  1  0.591619  0.639235  0.633182  1
  O  O25  1  0.016229  0.266519  0.388755  1
  O  O26  1  0.323499  0.467388  0.775851  1
  O  O27  1  0.168804  0.543187  0.956185  1
  O  O28  1  0.408381  0.360765  0.366818  1
  O  O29  1  0.676501  0.967388  0.724149  1
  O  O30  1  0.009873  0.136412  0.663084  1
  O  O31  1  0.439333  0.979835  0.641302  1
  O  O32  1  0.831196  0.043187  0.543815  1
  O  O33  1  0.323499  0.032612  0.275851  1
  O  O34  1  0.560667  0.020165  0.358698  1
  O  O35  1  0.990127  0.863588  0.336916  1
  O  O36  1  0.831196  0.456813  0.043815  1
  O  O37  1  0.676501  0.532612  0.224149  1
  O  O38  1  0.009873  0.363588  0.163084  1
  O  O39  1  0.016229  0.233481  0.888755  1
