# generated using pymatgen
data_H5CSN2Cl
_symmetry_space_group_name_H-M   'P 1'
_cell_length_a   7.62573336
_cell_length_b   7.62573336
_cell_length_c   18.81543685
_cell_angle_alpha   90.00000000
_cell_angle_beta   90.00000000
_cell_angle_gamma   90.00000000
_symmetry_Int_Tables_number   1
_chemical_formula_structural   H5CSN2Cl
_chemical_formula_sum   'H40 C8 S8 N16 Cl8'
_cell_volume   1094.15169518
_cell_formula_units_Z   8
loop_
 _symmetry_equiv_pos_site_id
 _symmetry_equiv_pos_as_xyz
  1  'x, y, z'
loop_
 _atom_site_type_symbol
 _atom_site_label
 _atom_site_symmetry_multiplicity
 _atom_site_fract_x
 _atom_site_fract_y
 _atom_site_fract_z
 _atom_site_occupancy
  H  H0  1  0.398673  0.819149  0.200967  1
  H  H1  1  0.361012  0.635678  0.640474  1
  H  H2  1  0.227453  0.498150  0.216380  1
  H  H3  1  0.805611  0.770092  0.292689  1
  H  H4  1  0.270092  0.694389  0.042689  1
  H  H5  1  0.180851  0.601327  0.299033  1
  H  H6  1  0.772547  0.501850  0.716380  1
  H  H7  1  0.434582  0.681822  0.533612  1
  H  H8  1  0.998150  0.272547  0.966380  1
  H  H9  1  0.305611  0.729908  0.457311  1
  H  H10  1  0.729908  0.305611  0.542689  1
  H  H11  1  0.898673  0.680851  0.549033  1
  H  H12  1  0.680851  0.898673  0.450967  1
  H  H13  1  0.694389  0.270092  0.957311  1
  H  H14  1  0.065418  0.181822  0.716388  1
  H  H15  1  0.934582  0.818178  0.216388  1
  H  H16  1  0.727453  0.001850  0.533620  1
  H  H17  1  0.319149  0.101327  0.950967  1
  H  H18  1  0.770092  0.805611  0.707311  1
  H  H19  1  0.272547  0.998150  0.033620  1
  H  H20  1  0.635678  0.361012  0.359526  1
  H  H21  1  0.819149  0.398673  0.799033  1
  H  H22  1  0.001850  0.727453  0.466380  1
  H  H23  1  0.101327  0.319149  0.049033  1
  H  H24  1  0.135678  0.138988  0.390474  1
  H  H25  1  0.818178  0.934582  0.783612  1
  H  H26  1  0.501850  0.772547  0.283620  1
  H  H27  1  0.364322  0.638988  0.859526  1
  H  H28  1  0.565418  0.318178  0.033612  1
  H  H29  1  0.681822  0.434582  0.466388  1
  H  H30  1  0.229908  0.194389  0.207311  1
  H  H31  1  0.318178  0.565418  0.966388  1
  H  H32  1  0.601327  0.180851  0.700967  1
  H  H33  1  0.864322  0.861012  0.890474  1
  H  H34  1  0.861012  0.864322  0.109526  1
  H  H35  1  0.138988  0.135678  0.609526  1
  H  H36  1  0.194389  0.229908  0.792689  1
  H  H37  1  0.181822  0.065418  0.283612  1
  H  H38  1  0.498150  0.227453  0.783620  1
  H  H39  1  0.638988  0.364322  0.140474  1
  C  C40  1  0.330966  0.178864  0.701717  1
  C  C41  1  0.821136  0.669034  0.798283  1
  C  C42  1  0.169034  0.678864  0.548283  1
  C  C43  1  0.830966  0.321136  0.048283  1
  C  C44  1  0.321136  0.830966  0.951717  1
  C  C45  1  0.669034  0.821136  0.201717  1
  C  C46  1  0.678864  0.169034  0.451717  1
  C  C47  1  0.178864  0.330966  0.298283  1
  S  S48  1  0.131099  0.319363  0.388853  1
  S  S49  1  0.680637  0.868901  0.111147  1
  S  S50  1  0.819363  0.368901  0.138853  1
  S  S51  1  0.180637  0.631099  0.638853  1
  S  S52  1  0.319363  0.131099  0.611147  1
  S  S53  1  0.868901  0.680637  0.888853  1
  S  S54  1  0.368901  0.819363  0.861147  1
  S  S55  1  0.631099  0.180637  0.361147  1
  N  N56  1  0.488889  0.195356  0.730788  1
  N  N57  1  0.197324  0.186125  0.260206  1
  N  N58  1  0.186125  0.197324  0.739794  1
  N  N59  1  0.813875  0.802676  0.239794  1
  N  N60  1  0.804644  0.511111  0.769212  1
  N  N61  1  0.302676  0.686125  0.989794  1
  N  N62  1  0.011111  0.695356  0.519212  1
  N  N63  1  0.802676  0.813875  0.760206  1
  N  N64  1  0.697324  0.313875  0.489794  1
  N  N65  1  0.195356  0.488889  0.269212  1
  N  N66  1  0.686125  0.302676  0.010206  1
  N  N67  1  0.313875  0.697324  0.510206  1
  N  N68  1  0.988889  0.304644  0.019212  1
  N  N69  1  0.695356  0.011111  0.480788  1
  N  N70  1  0.304644  0.988889  0.980788  1
  N  N71  1  0.511111  0.804644  0.230788  1
  Cl  Cl72  1  0.846263  0.144872  0.637404  1
  Cl  Cl73  1  0.153737  0.855128  0.137404  1
  Cl  Cl74  1  0.653737  0.644872  0.612596  1
  Cl  Cl75  1  0.346263  0.355128  0.112596  1
  Cl  Cl76  1  0.355128  0.346263  0.887404  1
  Cl  Cl77  1  0.144872  0.846263  0.362596  1
  Cl  Cl78  1  0.644872  0.653737  0.387404  1
  Cl  Cl79  1  0.855128  0.153737  0.862596  1
