# generated using pymatgen
data_BaCuSn2
_symmetry_space_group_name_H-M   'P 1'
_cell_length_a   10.10725030
_cell_length_b   10.10725030
_cell_length_c   4.69183336
_cell_angle_alpha   90.00000000
_cell_angle_beta   90.00000000
_cell_angle_gamma   152.15908523
_symmetry_Int_Tables_number   1
_chemical_formula_structural   BaCuSn2
_chemical_formula_sum   'Ba2 Cu2 Sn4'
_cell_volume   223.84243668
_cell_formula_units_Z   2
loop_
 _symmetry_equiv_pos_site_id
 _symmetry_equiv_pos_as_xyz
  1  'x, y, z'
loop_
 _atom_site_type_symbol
 _atom_site_label
 _atom_site_symmetry_multiplicity
 _atom_site_fract_x
 _atom_site_fract_y
 _atom_site_fract_z
 _atom_site_occupancy
  Ba  Ba0  1  0.391907  0.608093  0.250000  1
  Ba  Ba1  1  0.608093  0.391907  0.750000  1
  Cu  Cu2  1  0.820873  0.179127  0.750000  1
  Cu  Cu3  1  0.179127  0.820873  0.250000  1
  Sn  Sn4  1  0.043340  0.956660  0.250000  1
  Sn  Sn5  1  0.956660  0.043340  0.750000  1
  Sn  Sn6  1  0.250059  0.749941  0.750000  1
  Sn  Sn7  1  0.749941  0.250059  0.250000  1
