# generated using pymatgen
data_La2AlNi9H2
_symmetry_space_group_name_H-M   'P 1'
_cell_length_a   5.03022943
_cell_length_b   5.05424275
_cell_length_c   8.11158421
_cell_angle_alpha   88.97292100
_cell_angle_beta   89.02220638
_cell_angle_gamma   61.36678051
_symmetry_Int_Tables_number   1
_chemical_formula_structural   La2AlNi9H2
_chemical_formula_sum   'La2 Al1 Ni9 H2'
_cell_volume   180.97069348
_cell_formula_units_Z   1
loop_
 _symmetry_equiv_pos_site_id
 _symmetry_equiv_pos_as_xyz
  1  'x, y, z'
loop_
 _atom_site_type_symbol
 _atom_site_label
 _atom_site_symmetry_multiplicity
 _atom_site_fract_x
 _atom_site_fract_y
 _atom_site_fract_z
 _atom_site_occupancy
  La  La0  1  0.003372  0.003836  0.008682  1
  La  La1  1  0.995326  0.993773  0.484553  1
  Al  Al2  1  0.502566  0.502908  0.752791  1
  Ni  Ni3  1  0.669175  0.670359  0.999999  1
  Ni  Ni4  1  0.663791  0.658784  0.500707  1
  Ni  Ni5  1  0.491139  0.515147  0.248643  1
  Ni  Ni6  1  0.327392  0.342578  0.000791  1
  Ni  Ni7  1  0.992063  0.521191  0.754179  1
  Ni  Ni8  1  0.493432  0.992769  0.250290  1
  Ni  Ni9  1  0.996559  0.501495  0.250028  1
  Ni  Ni10  1  0.329640  0.346610  0.499272  1
  Ni  Ni11  1  0.512865  0.997053  0.753201  1
  H  H12  1  0.687955  0.161100  0.248328  1
  H  H13  1  0.205125  0.215497  0.654836  1
