# generated using pymatgen
data_Cu5Bi2(B2O7)2
_symmetry_space_group_name_H-M   'P 1'
_cell_length_a   3.60080384
_cell_length_b   9.24700549
_cell_length_c   10.22192774
_cell_angle_alpha   67.35610236
_cell_angle_beta   81.93561437
_cell_angle_gamma   82.68487337
_symmetry_Int_Tables_number   1
_chemical_formula_structural   Cu5Bi2(B2O7)2
_chemical_formula_sum   'Cu5 Bi2 B4 O14'
_cell_volume   310.01083266
_cell_formula_units_Z   1
loop_
 _symmetry_equiv_pos_site_id
 _symmetry_equiv_pos_as_xyz
  1  'x, y, z'
loop_
 _atom_site_type_symbol
 _atom_site_label
 _atom_site_symmetry_multiplicity
 _atom_site_fract_x
 _atom_site_fract_y
 _atom_site_fract_z
 _atom_site_occupancy
  Cu  Cu0  1  0.000000  0.000000  0.000000  1
  Cu  Cu1  1  0.056822  0.179777  0.652855  1
  Cu  Cu2  1  0.500000  0.000000  0.500000  1
  Cu  Cu3  1  0.943178  0.820223  0.347145  1
  Cu  Cu4  1  0.000000  0.500000  0.500000  1
  Bi  Bi5  1  0.516997  0.355627  0.827888  1
  Bi  Bi6  1  0.483003  0.644373  0.172112  1
  B  B7  1  0.865622  0.703252  0.671862  1
  B  B8  1  0.508102  0.863419  0.809396  1
  B  B9  1  0.134378  0.296748  0.328138  1
  B  B10  1  0.491898  0.136581  0.190604  1
  O  O11  1  0.348402  0.656700  0.383044  1
  O  O12  1  0.937164  0.802618  0.164449  1
  O  O13  1  0.131043  0.174823  0.458682  1
  O  O14  1  0.420536  0.867796  0.942402  1
  O  O15  1  0.651598  0.343300  0.616956  1
  O  O16  1  0.579464  0.132204  0.057598  1
  O  O17  1  0.395744  0.986248  0.691178  1
  O  O18  1  0.992388  0.551372  0.684298  1
  O  O19  1  0.303750  0.273836  0.204006  1
  O  O20  1  0.007612  0.448628  0.315702  1
  O  O21  1  0.062836  0.197382  0.835551  1
  O  O22  1  0.696250  0.726164  0.795994  1
  O  O23  1  0.868957  0.825177  0.541318  1
  O  O24  1  0.604256  0.013752  0.308822  1
