# generated using pymatgen
data_As3Pb5ClO12
_symmetry_space_group_name_H-M   'P 1'
_cell_length_a   10.45477027
_cell_length_b   7.58696822
_cell_length_c   20.95293649
_cell_angle_alpha   90.00000000
_cell_angle_beta   119.90387874
_cell_angle_gamma   90.00000000
_symmetry_Int_Tables_number   1
_chemical_formula_structural   As3Pb5ClO12
_chemical_formula_sum   'As12 Pb20 Cl4 O48'
_cell_volume   1440.71514783
_cell_formula_units_Z   4
loop_
 _symmetry_equiv_pos_site_id
 _symmetry_equiv_pos_as_xyz
  1  'x, y, z'
loop_
 _atom_site_type_symbol
 _atom_site_label
 _atom_site_symmetry_multiplicity
 _atom_site_fract_x
 _atom_site_fract_y
 _atom_site_fract_z
 _atom_site_occupancy
  As  As0  1  0.411736  0.243762  0.264143  1
  As  As1  1  0.024076  0.755701  0.557708  1
  As  As2  1  0.975924  0.244299  0.442292  1
  As  As3  1  0.588264  0.743762  0.235857  1
  As  As4  1  0.382874  0.755387  0.954708  1
  As  As5  1  0.617126  0.244613  0.045292  1
  As  As6  1  0.411736  0.256238  0.764143  1
  As  As7  1  0.588264  0.756238  0.735857  1
  As  As8  1  0.024076  0.744299  0.057708  1
  As  As9  1  0.975924  0.255701  0.942292  1
  As  As10  1  0.382874  0.744613  0.454708  1
  As  As11  1  0.617126  0.255387  0.545292  1
  Pb  Pb12  1  0.744573  0.770709  0.129312  1
  Pb  Pb13  1  0.332378  0.493807  0.576756  1
  Pb  Pb14  1  0.989389  0.270843  0.122238  1
  Pb  Pb15  1  0.757350  0.278313  0.254622  1
  Pb  Pb16  1  0.255427  0.229291  0.870688  1
  Pb  Pb17  1  0.010611  0.770843  0.377762  1
  Pb  Pb18  1  0.010611  0.729157  0.877762  1
  Pb  Pb19  1  0.665727  0.991764  0.411165  1
  Pb  Pb20  1  0.255427  0.270709  0.370688  1
  Pb  Pb21  1  0.334273  0.491764  0.088835  1
  Pb  Pb22  1  0.667622  0.993807  0.923244  1
  Pb  Pb23  1  0.665727  0.508236  0.911165  1
  Pb  Pb24  1  0.334273  0.008236  0.588835  1
  Pb  Pb25  1  0.989389  0.229157  0.622238  1
  Pb  Pb26  1  0.242650  0.778313  0.245378  1
  Pb  Pb27  1  0.744573  0.729291  0.629312  1
  Pb  Pb28  1  0.757350  0.221687  0.754622  1
  Pb  Pb29  1  0.242650  0.721687  0.745378  1
  Pb  Pb30  1  0.667622  0.506193  0.423244  1
  Pb  Pb31  1  0.332378  0.006193  0.076756  1
  Cl  Cl32  1  0.002756  0.987345  0.749641  1
  Cl  Cl33  1  0.002756  0.512655  0.249641  1
  Cl  Cl34  1  0.997244  0.012655  0.250359  1
  Cl  Cl35  1  0.997244  0.487345  0.750359  1
  O  O36  1  0.493058  0.748405  0.415353  1
  O  O37  1  0.482288  0.730598  0.049819  1
  O  O38  1  0.114018  0.781329  0.007911  1
  O  O39  1  0.506942  0.248405  0.084647  1
  O  O40  1  0.372946  0.051790  0.295859  1
  O  O41  1  0.665483  0.748851  0.330067  1
  O  O42  1  0.517712  0.230598  0.450181  1
  O  O43  1  0.911456  0.456558  0.898969  1
  O  O44  1  0.083800  0.904377  0.124939  1
  O  O45  1  0.517712  0.269402  0.950181  1
  O  O46  1  0.709132  0.454195  0.558894  1
  O  O47  1  0.749999  0.092771  0.580020  1
  O  O48  1  0.396508  0.753045  0.189999  1
  O  O49  1  0.603492  0.246955  0.810001  1
  O  O50  1  0.649740  0.913272  0.203108  1
  O  O51  1  0.649740  0.586728  0.703108  1
  O  O52  1  0.396508  0.746955  0.689999  1
  O  O53  1  0.834900  0.748047  0.002385  1
  O  O54  1  0.482288  0.769402  0.549819  1
  O  O55  1  0.834900  0.751953  0.502385  1
  O  O56  1  0.114018  0.718671  0.507911  1
  O  O57  1  0.885982  0.218671  0.992089  1
  O  O58  1  0.749999  0.407229  0.080020  1
  O  O59  1  0.665483  0.751149  0.830067  1
  O  O60  1  0.627054  0.948210  0.704141  1
  O  O61  1  0.088544  0.543442  0.101031  1
  O  O62  1  0.493058  0.751595  0.915353  1
  O  O63  1  0.088544  0.956558  0.601031  1
  O  O64  1  0.250001  0.592771  0.919980  1
  O  O65  1  0.885982  0.281329  0.492089  1
  O  O66  1  0.709132  0.045805  0.058894  1
  O  O67  1  0.603492  0.253045  0.310001  1
  O  O68  1  0.334517  0.248851  0.169933  1
  O  O69  1  0.290868  0.545805  0.441106  1
  O  O70  1  0.911456  0.043442  0.398969  1
  O  O71  1  0.916200  0.095623  0.875061  1
  O  O72  1  0.372946  0.448210  0.795859  1
  O  O73  1  0.506942  0.251595  0.584647  1
  O  O74  1  0.350260  0.086728  0.796892  1
  O  O75  1  0.165100  0.248047  0.497615  1
  O  O76  1  0.350260  0.413272  0.296892  1
  O  O77  1  0.165100  0.251953  0.997615  1
  O  O78  1  0.290868  0.954195  0.941106  1
  O  O79  1  0.916200  0.404377  0.375061  1
  O  O80  1  0.083800  0.595623  0.624939  1
  O  O81  1  0.627054  0.551790  0.204141  1
  O  O82  1  0.334517  0.251149  0.669933  1
  O  O83  1  0.250001  0.907229  0.419980  1
