# generated using pymatgen
data_Na3Fe2Mo5O16
_symmetry_space_group_name_H-M   'P 1'
_cell_length_a   6.12318212
_cell_length_b   6.12318212
_cell_length_c   21.48574222
_cell_angle_alpha   90.00000000
_cell_angle_beta   90.00000000
_cell_angle_gamma   120.00000000
_symmetry_Int_Tables_number   1
_chemical_formula_structural   Na3Fe2Mo5O16
_chemical_formula_sum   'Na6 Fe4 Mo10 O32'
_cell_volume   697.64638210
_cell_formula_units_Z   2
loop_
 _symmetry_equiv_pos_site_id
 _symmetry_equiv_pos_as_xyz
  1  'x, y, z'
loop_
 _atom_site_type_symbol
 _atom_site_label
 _atom_site_symmetry_multiplicity
 _atom_site_fract_x
 _atom_site_fract_y
 _atom_site_fract_z
 _atom_site_occupancy
  Na  Na0  1  0.333333  0.666667  0.615431  1
  Na  Na1  1  0.666667  0.333333  0.384569  1
  Na  Na2  1  0.000000  0.000000  0.000000  1
  Na  Na3  1  0.666667  0.333333  0.888783  1
  Na  Na4  1  0.333333  0.666667  0.111217  1
  Na  Na5  1  0.000000  0.000000  0.500000  1
  Fe  Fe6  1  0.000000  0.000000  0.352499  1
  Fe  Fe7  1  0.000000  0.000000  0.849308  1
  Fe  Fe8  1  0.000000  0.000000  0.647501  1
  Fe  Fe9  1  0.000000  0.000000  0.150692  1
  Mo  Mo10  1  0.666667  0.333333  0.568970  1
  Mo  Mo11  1  0.997542  0.498771  0.247654  1
  Mo  Mo12  1  0.333333  0.666667  0.431030  1
  Mo  Mo13  1  0.498771  0.501229  0.752346  1
  Mo  Mo14  1  0.501229  0.498771  0.247654  1
  Mo  Mo15  1  0.498771  0.997542  0.752346  1
  Mo  Mo16  1  0.666667  0.333333  0.076041  1
  Mo  Mo17  1  0.002458  0.501229  0.752346  1
  Mo  Mo18  1  0.501229  0.002458  0.247654  1
  Mo  Mo19  1  0.333333  0.666667  0.923959  1
  O  O20  1  0.333601  0.166801  0.590070  1
  O  O21  1  0.666399  0.833199  0.409930  1
  O  O22  1  0.323564  0.161782  0.090725  1
  O  O23  1  0.161782  0.323564  0.909275  1
  O  O24  1  0.659966  0.829983  0.194659  1
  O  O25  1  0.177072  0.822928  0.701837  1
  O  O26  1  0.833199  0.666399  0.590070  1
  O  O27  1  0.333333  0.666667  0.512929  1
  O  O28  1  0.838218  0.161782  0.090725  1
  O  O29  1  0.166801  0.333601  0.409930  1
  O  O30  1  0.170017  0.340034  0.194659  1
  O  O31  1  0.676436  0.838218  0.909275  1
  O  O32  1  0.666667  0.333333  0.191790  1
  O  O33  1  0.822928  0.177072  0.298163  1
  O  O34  1  0.829983  0.170017  0.805341  1
  O  O35  1  0.666667  0.333333  0.487071  1
  O  O36  1  0.333333  0.666667  0.808210  1
  O  O37  1  0.177072  0.354144  0.701837  1
  O  O38  1  0.833199  0.166801  0.590070  1
  O  O39  1  0.333333  0.666667  0.298398  1
  O  O40  1  0.170017  0.829983  0.194659  1
  O  O41  1  0.333333  0.666667  0.005748  1
  O  O42  1  0.829983  0.659966  0.805341  1
  O  O43  1  0.666667  0.333333  0.701602  1
  O  O44  1  0.354144  0.177072  0.298163  1
  O  O45  1  0.645856  0.822928  0.701837  1
  O  O46  1  0.822928  0.645856  0.298163  1
  O  O47  1  0.166801  0.833199  0.409930  1
  O  O48  1  0.161782  0.838218  0.909275  1
  O  O49  1  0.340034  0.170017  0.805341  1
  O  O50  1  0.666667  0.333333  0.994252  1
  O  O51  1  0.838218  0.676436  0.090725  1
