# generated using pymatgen
data_YI3
_symmetry_space_group_name_H-M   'P 1'
_cell_length_a   8.77045587
_cell_length_b   8.77045587
_cell_length_c   8.77045587
_cell_angle_alpha   52.12711275
_cell_angle_beta   52.12711275
_cell_angle_gamma   52.12711275
_symmetry_Int_Tables_number   1
_chemical_formula_structural   YI3
_chemical_formula_sum   'Y2 I6'
_cell_volume   388.77067201
_cell_formula_units_Z   2
loop_
 _symmetry_equiv_pos_site_id
 _symmetry_equiv_pos_as_xyz
  1  'x, y, z'
loop_
 _atom_site_type_symbol
 _atom_site_label
 _atom_site_symmetry_multiplicity
 _atom_site_fract_x
 _atom_site_fract_y
 _atom_site_fract_z
 _atom_site_occupancy
  Y  Y0  1  0.833602  0.833602  0.833602  1
  Y  Y1  1  0.166398  0.166398  0.166398  1
  I  I2  1  0.422378  0.064743  0.778322  1
  I  I3  1  0.221678  0.577622  0.935257  1
  I  I4  1  0.935257  0.221678  0.577622  1
  I  I5  1  0.577622  0.935257  0.221678  1
  I  I6  1  0.064743  0.778322  0.422378  1
  I  I7  1  0.778322  0.422378  0.064743  1
