# generated using pymatgen
data_Cr2B
_symmetry_space_group_name_H-M   'P 1'
_cell_length_a   8.17092182
_cell_length_b   7.59844782
_cell_length_c   4.23370587
_cell_angle_alpha   82.05177072
_cell_angle_beta   67.07332237
_cell_angle_gamma   30.87490691
_symmetry_Int_Tables_number   1
_chemical_formula_structural   Cr2B
_chemical_formula_sum   'Cr8 B4'
_cell_volume   113.03780655
_cell_formula_units_Z   4
loop_
 _symmetry_equiv_pos_site_id
 _symmetry_equiv_pos_as_xyz
  1  'x, y, z'
loop_
 _atom_site_type_symbol
 _atom_site_label
 _atom_site_symmetry_multiplicity
 _atom_site_fract_x
 _atom_site_fract_y
 _atom_site_fract_z
 _atom_site_occupancy
  Cr  Cr0  1  0.666951  0.666951  0.833049  1
  Cr  Cr1  1  0.583049  0.583049  0.416951  1
  Cr  Cr2  1  0.084462  0.415538  0.084462  1
  Cr  Cr3  1  0.416951  0.416951  0.583049  1
  Cr  Cr4  1  0.165538  0.834462  0.165538  1
  Cr  Cr5  1  0.415538  0.084462  0.415538  1
  Cr  Cr6  1  0.833049  0.833049  0.666951  1
  Cr  Cr7  1  0.834462  0.165538  0.834462  1
  B  B8  1  0.125377  0.125377  0.874623  1
  B  B9  1  0.375377  0.375377  0.124623  1
  B  B10  1  0.874623  0.874623  0.125377  1
  B  B11  1  0.124623  0.124623  0.375377  1
