# generated using pymatgen
data_MnP4O11
_symmetry_space_group_name_H-M   'P 1'
_cell_length_a   9.48344088
_cell_length_b   9.51200119
_cell_length_c   11.02281422
_cell_angle_alpha   108.94894549
_cell_angle_beta   108.69867329
_cell_angle_gamma   90.25155150
_symmetry_Int_Tables_number   1
_chemical_formula_structural   MnP4O11
_chemical_formula_sum   'Mn4 P16 O44'
_cell_volume   884.24986969
_cell_formula_units_Z   4
loop_
 _symmetry_equiv_pos_site_id
 _symmetry_equiv_pos_as_xyz
  1  'x, y, z'
loop_
 _atom_site_type_symbol
 _atom_site_label
 _atom_site_symmetry_multiplicity
 _atom_site_fract_x
 _atom_site_fract_y
 _atom_site_fract_z
 _atom_site_occupancy
  Mn  Mn0  1  0.746243  0.729844  0.979918  1
  Mn  Mn1  1  0.253757  0.270156  0.020082  1
  Mn  Mn2  1  0.773171  0.233476  0.503559  1
  Mn  Mn3  1  0.226829  0.766524  0.496441  1
  P  P4  1  0.087326  0.943217  0.752962  1
  P  P5  1  0.912674  0.056783  0.247038  1
  P  P6  1  0.766750  0.919348  0.608913  1
  P  P7  1  0.233250  0.080652  0.391087  1
  P  P8  1  0.101317  0.729206  0.910649  1
  P  P9  1  0.898683  0.270794  0.089351  1
  P  P10  1  0.735860  0.585723  0.437610  1
  P  P11  1  0.264140  0.414277  0.562390  1
  P  P12  1  0.560416  0.918948  0.765155  1
  P  P13  1  0.439584  0.081052  0.234845  1
  P  P14  1  0.431199  0.749676  0.078318  1
  P  P15  1  0.568801  0.250324  0.921682  1
  P  P16  1  0.104153  0.410022  0.763980  1
  P  P17  1  0.895847  0.589978  0.236020  1
  P  P18  1  0.413019  0.600242  0.279284  1
  P  P19  1  0.586981  0.399758  0.720716  1
  O  O20  1  0.911106  0.960589  0.742175  1
  O  O21  1  0.088894  0.039411  0.257825  1
  O  O22  1  0.085402  0.836659  0.619130  1
  O  O23  1  0.914598  0.163341  0.380870  1
  O  O24  1  0.176235  0.093275  0.820793  1
  O  O25  1  0.823765  0.906725  0.179207  1
  O  O26  1  0.136435  0.864146  0.869318  1
  O  O27  1  0.863565  0.135854  0.130682  1
  O  O28  1  0.741654  0.739913  0.555346  1
  O  O29  1  0.258346  0.260087  0.444654  1
  O  O30  1  0.769120  0.988554  0.507770  1
  O  O31  1  0.230880  0.011446  0.492230  1
  O  O32  1  0.636308  0.965208  0.666615  1
  O  O33  1  0.363692  0.034792  0.333385  1
  O  O34  1  0.252124  0.736845  0.033080  1
  O  O35  1  0.747876  0.263155  0.966920  1
  O  O36  1  0.094061  0.588815  0.782448  1
  O  O37  1  0.905939  0.411185  0.217552  1
  O  O38  1  0.973890  0.736471  0.959709  1
  O  O39  1  0.026110  0.263529  0.040291  1
  O  O40  1  0.808829  0.634907  0.346920  1
  O  O41  1  0.191171  0.365093  0.653080  1
  O  O42  1  0.565090  0.536190  0.350926  1
  O  O43  1  0.434910  0.463810  0.649074  1
  O  O44  1  0.802449  0.471297  0.493831  1
  O  O45  1  0.197551  0.528703  0.506169  1
  O  O46  1  0.511109  0.081672  0.831872  1
  O  O47  1  0.488891  0.918328  0.168128  1
  O  O48  1  0.419356  0.817758  0.679301  1
  O  O49  1  0.580644  0.182242  0.320699  1
  O  O50  1  0.680045  0.881911  0.871890  1
  O  O51  1  0.319955  0.118089  0.128110  1
  O  O52  1  0.494544  0.698228  0.967697  1
  O  O53  1  0.505456  0.301772  0.032303  1
  O  O54  1  0.475741  0.662041  0.180810  1
  O  O55  1  0.524259  0.337959  0.819190  1
  O  O56  1  0.953014  0.323250  0.695886  1
  O  O57  1  0.046986  0.676750  0.304114  1
  O  O58  1  0.208180  0.408654  0.897052  1
  O  O59  1  0.791820  0.591346  0.102948  1
  O  O60  1  0.383289  0.729661  0.384026  1
  O  O61  1  0.616711  0.270339  0.615974  1
  O  O62  1  0.300294  0.467067  0.195345  1
  O  O63  1  0.699706  0.532933  0.804655  1
