# generated using pymatgen
data_V3S4
_symmetry_space_group_name_H-M   'P 1'
_cell_length_a   6.29975589
_cell_length_b   6.29975589
_cell_length_c   7.02473515
_cell_angle_alpha   57.74131202
_cell_angle_beta   122.25868798
_cell_angle_gamma   151.93790950
_symmetry_Int_Tables_number   1
_chemical_formula_structural   V3S4
_chemical_formula_sum   'V3 S4'
_cell_volume   109.51888534
_cell_formula_units_Z   1
loop_
 _symmetry_equiv_pos_site_id
 _symmetry_equiv_pos_as_xyz
  1  'x, y, z'
loop_
 _atom_site_type_symbol
 _atom_site_label
 _atom_site_symmetry_multiplicity
 _atom_site_fract_x
 _atom_site_fract_y
 _atom_site_fract_z
 _atom_site_occupancy
  V  V0  1  0.910021  0.089979  0.540283  1
  V  V1  1  0.000000  0.000000  0.000000  1
  V  V2  1  0.089979  0.910021  0.459717  1
  S  S3  1  0.338755  0.661245  0.723275  1
  S  S4  1  0.592386  0.407614  0.744294  1
  S  S5  1  0.661245  0.338755  0.276725  1
  S  S6  1  0.407614  0.592386  0.255706  1
