# generated using pymatgen
data_Sr2Cu(BO3)2
_symmetry_space_group_name_H-M   'P 1'
_cell_length_a   7.81744488
_cell_length_b   10.84098586
_cell_length_c   13.70343325
_cell_angle_alpha   90.00000000
_cell_angle_beta   90.00000000
_cell_angle_gamma   90.00000000
_symmetry_Int_Tables_number   1
_chemical_formula_structural   Sr2Cu(BO3)2
_chemical_formula_sum   'Sr16 Cu8 B16 O48'
_cell_volume   1161.34965270
_cell_formula_units_Z   8
loop_
 _symmetry_equiv_pos_site_id
 _symmetry_equiv_pos_as_xyz
  1  'x, y, z'
loop_
 _atom_site_type_symbol
 _atom_site_label
 _atom_site_symmetry_multiplicity
 _atom_site_fract_x
 _atom_site_fract_y
 _atom_site_fract_z
 _atom_site_occupancy
  Sr  Sr0  1  0.385641  0.250000  0.954807  1
  Sr  Sr1  1  0.664212  0.476551  0.783478  1
  Sr  Sr2  1  0.835788  0.976551  0.283478  1
  Sr  Sr3  1  0.164212  0.023449  0.716522  1
  Sr  Sr4  1  0.335788  0.976551  0.216522  1
  Sr  Sr5  1  0.664212  0.023449  0.783478  1
  Sr  Sr6  1  0.335788  0.523449  0.216522  1
  Sr  Sr7  1  0.500000  0.500000  0.500000  1
  Sr  Sr8  1  0.614359  0.750000  0.045193  1
  Sr  Sr9  1  0.164212  0.476551  0.716522  1
  Sr  Sr10  1  0.000000  0.000000  0.000000  1
  Sr  Sr11  1  0.500000  0.000000  0.500000  1
  Sr  Sr12  1  0.835788  0.523449  0.283478  1
  Sr  Sr13  1  0.000000  0.500000  0.000000  1
  Sr  Sr14  1  0.114359  0.750000  0.454807  1
  Sr  Sr15  1  0.885641  0.250000  0.545193  1
  Cu  Cu16  1  0.531458  0.250000  0.200010  1
  Cu  Cu17  1  0.968542  0.750000  0.700010  1
  Cu  Cu18  1  0.807184  0.250000  0.929965  1
  Cu  Cu19  1  0.468542  0.750000  0.799990  1
  Cu  Cu20  1  0.692816  0.750000  0.429965  1
  Cu  Cu21  1  0.031458  0.250000  0.299990  1
  Cu  Cu22  1  0.307184  0.250000  0.570035  1
  Cu  Cu23  1  0.192816  0.750000  0.070035  1
  B  B24  1  0.631678  0.437082  0.067630  1
  B  B25  1  0.984163  0.250000  0.788474  1
  B  B26  1  0.928482  0.750000  0.871647  1
  B  B27  1  0.368322  0.562918  0.932370  1
  B  B28  1  0.571518  0.250000  0.371647  1
  B  B29  1  0.368322  0.937082  0.932370  1
  B  B30  1  0.631678  0.062918  0.067630  1
  B  B31  1  0.868322  0.937082  0.567630  1
  B  B32  1  0.484163  0.250000  0.711526  1
  B  B33  1  0.015837  0.750000  0.211526  1
  B  B34  1  0.868322  0.562918  0.567630  1
  B  B35  1  0.131678  0.062918  0.432370  1
  B  B36  1  0.428482  0.750000  0.628353  1
  B  B37  1  0.071518  0.250000  0.128353  1
  B  B38  1  0.131678  0.437082  0.432370  1
  B  B39  1  0.515837  0.750000  0.288474  1
  O  O40  1  0.561833  0.640689  0.335443  1
  O  O41  1  0.198963  0.398924  0.522020  1
  O  O42  1  0.796890  0.035813  0.614574  1
  O  O43  1  0.013011  0.876006  0.603897  1
  O  O44  1  0.068965  0.250000  0.701927  1
  O  O45  1  0.486989  0.123994  0.103897  1
  O  O46  1  0.301037  0.898924  0.022020  1
  O  O47  1  0.061833  0.640689  0.164557  1
  O  O48  1  0.931035  0.750000  0.298073  1
  O  O49  1  0.062055  0.141039  0.184667  1
  O  O50  1  0.296890  0.464187  0.885426  1
  O  O51  1  0.086216  0.250000  0.029957  1
  O  O52  1  0.198963  0.101076  0.522020  1
  O  O53  1  0.801037  0.601076  0.477980  1
  O  O54  1  0.938167  0.140689  0.835443  1
  O  O55  1  0.562055  0.141039  0.315333  1
  O  O56  1  0.513011  0.623994  0.896103  1
  O  O57  1  0.568965  0.250000  0.798073  1
  O  O58  1  0.938167  0.359311  0.835443  1
  O  O59  1  0.561833  0.859311  0.335443  1
  O  O60  1  0.061833  0.859311  0.164557  1
  O  O61  1  0.986989  0.123994  0.396103  1
  O  O62  1  0.562055  0.358961  0.315333  1
  O  O63  1  0.986989  0.376006  0.396103  1
  O  O64  1  0.013011  0.623994  0.603897  1
  O  O65  1  0.301037  0.601076  0.022020  1
  O  O66  1  0.486989  0.376006  0.103897  1
  O  O67  1  0.586216  0.250000  0.470043  1
  O  O68  1  0.698963  0.101076  0.977980  1
  O  O69  1  0.913784  0.750000  0.970043  1
  O  O70  1  0.203110  0.535813  0.385426  1
  O  O71  1  0.438167  0.140689  0.664557  1
  O  O72  1  0.698963  0.398924  0.977980  1
  O  O73  1  0.703110  0.964187  0.114574  1
  O  O74  1  0.438167  0.359311  0.664557  1
  O  O75  1  0.937945  0.858961  0.815333  1
  O  O76  1  0.431035  0.750000  0.201927  1
  O  O77  1  0.296890  0.035813  0.885426  1
  O  O78  1  0.203110  0.964187  0.385426  1
  O  O79  1  0.937945  0.641039  0.815333  1
  O  O80  1  0.513011  0.876006  0.896103  1
  O  O81  1  0.062055  0.358961  0.184667  1
  O  O82  1  0.801037  0.898924  0.477980  1
  O  O83  1  0.703110  0.535813  0.114574  1
  O  O84  1  0.437945  0.858961  0.684667  1
  O  O85  1  0.413784  0.750000  0.529957  1
  O  O86  1  0.437945  0.641039  0.684667  1
  O  O87  1  0.796890  0.464187  0.614574  1
