# generated using pymatgen
data_Er(SiRh)2
_symmetry_space_group_name_H-M   'P 1'
_cell_length_a   5.74210191
_cell_length_b   5.74210191
_cell_length_c   5.74210191
_cell_angle_alpha   138.62799460
_cell_angle_beta   138.62799460
_cell_angle_gamma   59.94254428
_symmetry_Int_Tables_number   1
_chemical_formula_structural   Er(SiRh)2
_chemical_formula_sum   'Er1 Si2 Rh2'
_cell_volume   81.86235107
_cell_formula_units_Z   1
loop_
 _symmetry_equiv_pos_site_id
 _symmetry_equiv_pos_as_xyz
  1  'x, y, z'
loop_
 _atom_site_type_symbol
 _atom_site_label
 _atom_site_symmetry_multiplicity
 _atom_site_fract_x
 _atom_site_fract_y
 _atom_site_fract_z
 _atom_site_occupancy
  Er  Er0  1  0.000000  0.000000  0.000000  1
  Si  Si1  1  0.620974  0.620974  0.000000  1
  Si  Si2  1  0.379026  0.379026  0.000000  1
  Rh  Rh3  1  0.750000  0.250000  0.500000  1
  Rh  Rh4  1  0.250000  0.750000  0.500000  1
