# generated using pymatgen
data_KCu2AsS3
_symmetry_space_group_name_H-M   'P 1'
_cell_length_a   6.33851905
_cell_length_b   8.97341974
_cell_length_c   10.35405781
_cell_angle_alpha   90.70785782
_cell_angle_beta   91.33342816
_cell_angle_gamma   90.65266705
_symmetry_Int_Tables_number   1
_chemical_formula_structural   KCu2AsS3
_chemical_formula_sum   'K4 Cu8 As4 S12'
_cell_volume   588.67550265
_cell_formula_units_Z   4
loop_
 _symmetry_equiv_pos_site_id
 _symmetry_equiv_pos_as_xyz
  1  'x, y, z'
loop_
 _atom_site_type_symbol
 _atom_site_label
 _atom_site_symmetry_multiplicity
 _atom_site_fract_x
 _atom_site_fract_y
 _atom_site_fract_z
 _atom_site_occupancy
  K  K0  1  0.205633  0.933085  0.868533  1
  K  K1  1  0.702119  0.930153  0.629159  1
  K  K2  1  0.297881  0.069847  0.370841  1
  K  K3  1  0.794367  0.066915  0.131467  1
  Cu  Cu4  1  0.572136  0.347127  0.544734  1
  Cu  Cu5  1  0.985070  0.748348  0.355704  1
  Cu  Cu6  1  0.427864  0.652873  0.455266  1
  Cu  Cu7  1  0.067169  0.356878  0.961166  1
  Cu  Cu8  1  0.500855  0.597354  0.834907  1
  Cu  Cu9  1  0.499145  0.402646  0.165093  1
  Cu  Cu10  1  0.014930  0.251652  0.644296  1
  Cu  Cu11  1  0.932831  0.643122  0.038834  1
  As  As12  1  0.467851  0.684916  0.153111  1
  As  As13  1  0.982042  0.451836  0.355243  1
  As  As14  1  0.532149  0.315084  0.846889  1
  As  As15  1  0.017958  0.548164  0.644757  1
  S  S16  1  0.854316  0.194625  0.834750  1
  S  S17  1  0.364868  0.195910  0.671050  1
  S  S18  1  0.138928  0.582110  0.856457  1
  S  S19  1  0.861072  0.417890  0.143543  1
  S  S20  1  0.849519  0.229183  0.444121  1
  S  S21  1  0.635132  0.804090  0.328950  1
  S  S22  1  0.150481  0.770817  0.555879  1
  S  S23  1  0.363469  0.224741  0.026172  1
  S  S24  1  0.145684  0.805375  0.165250  1
  S  S25  1  0.346275  0.419768  0.360588  1
  S  S26  1  0.653725  0.580232  0.639412  1
  S  S27  1  0.636531  0.775259  0.973828  1
