# generated using pymatgen
data_Ag5IO6
_symmetry_space_group_name_H-M   'P 1'
_cell_length_a   11.48298259
_cell_length_b   11.48298259
_cell_length_c   11.48298259
_cell_angle_alpha   30.39157297
_cell_angle_beta   30.39157297
_cell_angle_gamma   30.39157297
_symmetry_Int_Tables_number   1
_chemical_formula_structural   Ag5IO6
_chemical_formula_sum   'Ag10 I2 O12'
_cell_volume   343.46761664
_cell_formula_units_Z   2
loop_
 _symmetry_equiv_pos_site_id
 _symmetry_equiv_pos_as_xyz
  1  'x, y, z'
loop_
 _atom_site_type_symbol
 _atom_site_label
 _atom_site_symmetry_multiplicity
 _atom_site_fract_x
 _atom_site_fract_y
 _atom_site_fract_z
 _atom_site_occupancy
  Ag  Ag0  1  0.250000  0.545265  0.954735  1
  Ag  Ag1  1  0.954735  0.250000  0.545265  1
  Ag  Ag2  1  0.545265  0.954735  0.250000  1
  Ag  Ag3  1  0.350108  0.350108  0.350108  1
  Ag  Ag4  1  0.850108  0.850108  0.850108  1
  Ag  Ag5  1  0.750000  0.454735  0.045265  1
  Ag  Ag6  1  0.149892  0.149892  0.149892  1
  Ag  Ag7  1  0.045265  0.750000  0.454735  1
  Ag  Ag8  1  0.649892  0.649892  0.649892  1
  Ag  Ag9  1  0.454735  0.045265  0.750000  1
  I  I10  1  0.000000  0.000000  0.000000  1
  I  I11  1  0.500000  0.500000  0.500000  1
  O  O12  1  0.483565  0.297418  0.820055  1
  O  O13  1  0.516435  0.702582  0.179945  1
  O  O14  1  0.202582  0.016435  0.679945  1
  O  O15  1  0.179945  0.516435  0.702582  1
  O  O16  1  0.320055  0.797418  0.983565  1
  O  O17  1  0.797418  0.983565  0.320055  1
  O  O18  1  0.983565  0.320055  0.797418  1
  O  O19  1  0.702582  0.179945  0.516435  1
  O  O20  1  0.679945  0.202582  0.016435  1
  O  O21  1  0.820055  0.483565  0.297418  1
  O  O22  1  0.016435  0.679945  0.202582  1
  O  O23  1  0.297418  0.820055  0.483565  1
