# generated using pymatgen
data_LiCaGaN2
_symmetry_space_group_name_H-M   'P 1'
_cell_length_a   5.82076593
_cell_length_b   6.97422657
_cell_length_c   5.93660751
_cell_angle_alpha   90.00000000
_cell_angle_beta   90.07208651
_cell_angle_gamma   90.00000000
_symmetry_Int_Tables_number   1
_chemical_formula_structural   LiCaGaN2
_chemical_formula_sum   'Li4 Ca4 Ga4 N8'
_cell_volume   240.99841234
_cell_formula_units_Z   4
loop_
 _symmetry_equiv_pos_site_id
 _symmetry_equiv_pos_as_xyz
  1  'x, y, z'
loop_
 _atom_site_type_symbol
 _atom_site_label
 _atom_site_symmetry_multiplicity
 _atom_site_fract_x
 _atom_site_fract_y
 _atom_site_fract_z
 _atom_site_occupancy
  Li  Li0  1  0.632450  0.105670  0.590542  1
  Li  Li1  1  0.367550  0.894330  0.409458  1
  Li  Li2  1  0.632450  0.394330  0.090542  1
  Li  Li3  1  0.367550  0.605670  0.909458  1
  Ca  Ca4  1  0.022470  0.626748  0.242533  1
  Ca  Ca5  1  0.977530  0.373252  0.757467  1
  Ca  Ca6  1  0.022470  0.873252  0.742533  1
  Ca  Ca7  1  0.977530  0.126748  0.257467  1
  Ga  Ga8  1  0.375857  0.359584  0.421711  1
  Ga  Ga9  1  0.375857  0.140416  0.921711  1
  Ga  Ga10  1  0.624143  0.640416  0.578289  1
  Ga  Ga11  1  0.624143  0.859584  0.078289  1
  N  N12  1  0.259466  0.137681  0.597762  1
  N  N13  1  0.740534  0.637681  0.902238  1
  N  N14  1  0.721824  0.111484  0.930694  1
  N  N15  1  0.740534  0.862319  0.402238  1
  N  N16  1  0.721824  0.388516  0.430694  1
  N  N17  1  0.278176  0.888516  0.069306  1
  N  N18  1  0.278176  0.611484  0.569306  1
  N  N19  1  0.259466  0.362319  0.097762  1
