# generated using pymatgen
data_KPr3Te8
_symmetry_space_group_name_H-M   'P 1'
_cell_length_a   9.05727719
_cell_length_b   13.00984555
_cell_length_c   14.38592432
_cell_angle_alpha   90.00000000
_cell_angle_beta   98.99778321
_cell_angle_gamma   90.00000000
_symmetry_Int_Tables_number   1
_chemical_formula_structural   KPr3Te8
_chemical_formula_sum   'K4 Pr12 Te32'
_cell_volume   1674.28797959
_cell_formula_units_Z   4
loop_
 _symmetry_equiv_pos_site_id
 _symmetry_equiv_pos_as_xyz
  1  'x, y, z'
loop_
 _atom_site_type_symbol
 _atom_site_label
 _atom_site_symmetry_multiplicity
 _atom_site_fract_x
 _atom_site_fract_y
 _atom_site_fract_z
 _atom_site_occupancy
  K  K0  1  0.758319  0.908032  0.036656  1
  K  K1  1  0.258319  0.591968  0.036656  1
  K  K2  1  0.241681  0.091968  0.963344  1
  K  K3  1  0.741681  0.408032  0.963344  1
  Pr  Pr4  1  0.580192  0.915210  0.349846  1
  Pr  Pr5  1  0.080192  0.584790  0.349846  1
  Pr  Pr6  1  0.404212  0.415962  0.647949  1
  Pr  Pr7  1  0.912977  0.750682  0.653889  1
  Pr  Pr8  1  0.904212  0.084038  0.647949  1
  Pr  Pr9  1  0.412977  0.749318  0.653889  1
  Pr  Pr10  1  0.919808  0.415210  0.650154  1
  Pr  Pr11  1  0.595788  0.584038  0.352051  1
  Pr  Pr12  1  0.587023  0.250682  0.346111  1
  Pr  Pr13  1  0.095788  0.915962  0.352051  1
  Pr  Pr14  1  0.087023  0.249318  0.346111  1
  Pr  Pr15  1  0.419808  0.084790  0.650154  1
  Te  Te16  1  0.956656  0.249304  0.825163  1
  Te  Te17  1  0.356278  0.085391  0.415715  1
  Te  Te18  1  0.351445  0.420263  0.413030  1
  Te  Te19  1  0.966605  0.920001  0.829697  1
  Te  Te20  1  0.466605  0.579999  0.829697  1
  Te  Te21  1  0.043344  0.750696  0.174837  1
  Te  Te22  1  0.148555  0.920263  0.586970  1
  Te  Te23  1  0.851445  0.079737  0.413030  1
  Te  Te24  1  0.644983  0.254388  0.580711  1
  Te  Te25  1  0.533395  0.420001  0.170303  1
  Te  Te26  1  0.791454  0.227089  0.163751  1
  Te  Te27  1  0.051890  0.419191  0.169720  1
  Te  Te28  1  0.144983  0.245612  0.580711  1
  Te  Te29  1  0.143722  0.585391  0.584285  1
  Te  Te30  1  0.708546  0.727089  0.836249  1
  Te  Te31  1  0.648555  0.579737  0.586970  1
  Te  Te32  1  0.551890  0.080809  0.169720  1
  Te  Te33  1  0.291454  0.272911  0.163751  1
  Te  Te34  1  0.292760  0.903802  0.172394  1
  Te  Te35  1  0.855017  0.754388  0.419289  1
  Te  Te36  1  0.856278  0.414609  0.415715  1
  Te  Te37  1  0.707240  0.096198  0.827606  1
  Te  Te38  1  0.207240  0.403802  0.827606  1
  Te  Te39  1  0.208546  0.772911  0.836249  1
  Te  Te40  1  0.033395  0.079999  0.170303  1
  Te  Te41  1  0.355017  0.745612  0.419289  1
  Te  Te42  1  0.643722  0.914609  0.584285  1
  Te  Te43  1  0.543344  0.749304  0.174837  1
  Te  Te44  1  0.792760  0.596198  0.172394  1
  Te  Te45  1  0.456656  0.250696  0.825163  1
  Te  Te46  1  0.948110  0.580809  0.830280  1
  Te  Te47  1  0.448110  0.919191  0.830280  1
