# generated using pymatgen
data_Rb3(FeS2)2
_symmetry_space_group_name_H-M   'P 1'
_cell_length_a   7.49356483
_cell_length_b   10.94619337
_cell_length_c   12.18558646
_cell_angle_alpha   90.00000000
_cell_angle_beta   90.00000000
_cell_angle_gamma   90.00000000
_symmetry_Int_Tables_number   1
_chemical_formula_structural   Rb3(FeS2)2
_chemical_formula_sum   'Rb12 Fe8 S16'
_cell_volume   999.53503268
_cell_formula_units_Z   4
loop_
 _symmetry_equiv_pos_site_id
 _symmetry_equiv_pos_as_xyz
  1  'x, y, z'
loop_
 _atom_site_type_symbol
 _atom_site_label
 _atom_site_symmetry_multiplicity
 _atom_site_fract_x
 _atom_site_fract_y
 _atom_site_fract_z
 _atom_site_occupancy
  Rb  Rb0  1  0.066667  0.426617  0.139186  1
  Rb  Rb1  1  0.566667  0.073383  0.360814  1
  Rb  Rb2  1  0.933333  0.926617  0.860814  1
  Rb  Rb3  1  0.433333  0.573383  0.639186  1
  Rb  Rb4  1  0.933333  0.573383  0.860814  1
  Rb  Rb5  1  0.433333  0.926617  0.639186  1
  Rb  Rb6  1  0.066667  0.073383  0.139186  1
  Rb  Rb7  1  0.566667  0.426617  0.360814  1
  Rb  Rb8  1  0.090514  0.250000  0.771178  1
  Rb  Rb9  1  0.590514  0.250000  0.728822  1
  Rb  Rb10  1  0.909486  0.750000  0.228822  1
  Rb  Rb11  1  0.409486  0.750000  0.271178  1
  Fe  Fe12  1  0.049371  0.369859  0.472692  1
  Fe  Fe13  1  0.549371  0.130141  0.027308  1
  Fe  Fe14  1  0.950629  0.869859  0.527308  1
  Fe  Fe15  1  0.450629  0.630141  0.972692  1
  Fe  Fe16  1  0.950629  0.630141  0.527308  1
  Fe  Fe17  1  0.450629  0.869859  0.972692  1
  Fe  Fe18  1  0.049371  0.130141  0.472692  1
  Fe  Fe19  1  0.549371  0.369859  0.027308  1
  S  S20  1  0.140565  0.549581  0.395685  1
  S  S21  1  0.640565  0.950419  0.104315  1
  S  S22  1  0.859435  0.049581  0.604315  1
  S  S23  1  0.359435  0.450419  0.895685  1
  S  S24  1  0.859435  0.450419  0.604315  1
  S  S25  1  0.359435  0.049581  0.895685  1
  S  S26  1  0.140565  0.950419  0.395685  1
  S  S27  1  0.640565  0.549581  0.104315  1
  S  S28  1  0.283487  0.250000  0.532139  1
  S  S29  1  0.783487  0.250000  0.967861  1
  S  S30  1  0.716513  0.750000  0.467861  1
  S  S31  1  0.216513  0.750000  0.032139  1
  S  S32  1  0.416989  0.250000  0.154885  1
  S  S33  1  0.916989  0.250000  0.345115  1
  S  S34  1  0.583011  0.750000  0.845115  1
  S  S35  1  0.083011  0.750000  0.654885  1
