# generated using pymatgen
data_CoAs
_symmetry_space_group_name_H-M   'P 1'
_cell_length_a   3.46896173
_cell_length_b   5.31571782
_cell_length_c   5.82498610
_cell_angle_alpha   90.00000000
_cell_angle_beta   90.00000000
_cell_angle_gamma   90.00000000
_symmetry_Int_Tables_number   1
_chemical_formula_structural   CoAs
_chemical_formula_sum   'Co4 As4'
_cell_volume   107.41287000
_cell_formula_units_Z   4
loop_
 _symmetry_equiv_pos_site_id
 _symmetry_equiv_pos_as_xyz
  1  'x, y, z'
loop_
 _atom_site_type_symbol
 _atom_site_label
 _atom_site_symmetry_multiplicity
 _atom_site_fract_x
 _atom_site_fract_y
 _atom_site_fract_z
 _atom_site_occupancy
  Co  Co0  1  0.750000  0.499057  0.302381  1
  Co  Co1  1  0.750000  0.999057  0.197619  1
  Co  Co2  1  0.250000  0.500943  0.697619  1
  Co  Co3  1  0.250000  0.000943  0.802381  1
  As  As4  1  0.750000  0.799823  0.588473  1
  As  As5  1  0.250000  0.700177  0.088473  1
  As  As6  1  0.250000  0.200177  0.411527  1
  As  As7  1  0.750000  0.299823  0.911527  1
