# generated using pymatgen
data_KCd3H8Cl7O4
_symmetry_space_group_name_H-M   'P 1'
_cell_length_a   6.79057057
_cell_length_b   16.25489109
_cell_length_c   7.25466854
_cell_angle_alpha   90.00000000
_cell_angle_beta   92.05263039
_cell_angle_gamma   90.00000000
_symmetry_Int_Tables_number   1
_chemical_formula_structural   KCd3H8Cl7O4
_chemical_formula_sum   'K2 Cd6 H16 Cl14 O8'
_cell_volume   800.25638917
_cell_formula_units_Z   2
loop_
 _symmetry_equiv_pos_site_id
 _symmetry_equiv_pos_as_xyz
  1  'x, y, z'
loop_
 _atom_site_type_symbol
 _atom_site_label
 _atom_site_symmetry_multiplicity
 _atom_site_fract_x
 _atom_site_fract_y
 _atom_site_fract_z
 _atom_site_occupancy
  K  K0  1  0.028307  0.250000  0.677015  1
  K  K1  1  0.971693  0.750000  0.322985  1
  Cd  Cd2  1  0.492265  0.096367  0.837870  1
  Cd  Cd3  1  0.507735  0.903633  0.162130  1
  Cd  Cd4  1  0.507735  0.596367  0.162130  1
  Cd  Cd5  1  0.000000  0.000000  0.000000  1
  Cd  Cd6  1  0.492265  0.403633  0.837870  1
  Cd  Cd7  1  0.000000  0.500000  0.000000  1
  H  H8  1  0.594011  0.750000  0.767316  1
  H  H9  1  0.728300  0.575981  0.510924  1
  H  H10  1  0.381493  0.162589  0.473789  1
  H  H11  1  0.381493  0.337411  0.473789  1
  H  H12  1  0.909948  0.202568  0.242067  1
  H  H13  1  0.909948  0.297432  0.242067  1
  H  H14  1  0.271700  0.075981  0.489076  1
  H  H15  1  0.090052  0.797432  0.757933  1
  H  H16  1  0.618507  0.662589  0.526211  1
  H  H17  1  0.090052  0.702568  0.757933  1
  H  H18  1  0.618507  0.837411  0.526211  1
  H  H19  1  0.387282  0.750000  0.662166  1
  H  H20  1  0.612718  0.250000  0.337834  1
  H  H21  1  0.728300  0.924019  0.510924  1
  H  H22  1  0.271700  0.424019  0.489076  1
  H  H23  1  0.405989  0.250000  0.232684  1
  Cl  Cl24  1  0.823378  0.858594  0.972597  1
  Cl  Cl25  1  0.615407  0.250000  0.853299  1
  Cl  Cl26  1  0.176622  0.141406  0.027403  1
  Cl  Cl27  1  0.384593  0.750000  0.146701  1
  Cl  Cl28  1  0.188618  0.952988  0.317582  1
  Cl  Cl29  1  0.811382  0.047012  0.682418  1
  Cl  Cl30  1  0.326483  0.554344  0.834874  1
  Cl  Cl31  1  0.326483  0.945656  0.834874  1
  Cl  Cl32  1  0.673517  0.445656  0.165126  1
  Cl  Cl33  1  0.673517  0.054344  0.165126  1
  Cl  Cl34  1  0.811382  0.452988  0.682418  1
  Cl  Cl35  1  0.188618  0.547012  0.317582  1
  Cl  Cl36  1  0.176622  0.358594  0.027403  1
  Cl  Cl37  1  0.823378  0.641406  0.972597  1
  O  O38  1  0.129225  0.750000  0.684342  1
  O  O39  1  0.532308  0.750000  0.643193  1
  O  O40  1  0.689554  0.625636  0.440652  1
  O  O41  1  0.310446  0.374364  0.559348  1
  O  O42  1  0.689554  0.874364  0.440652  1
  O  O43  1  0.870775  0.250000  0.315658  1
  O  O44  1  0.310446  0.125636  0.559348  1
  O  O45  1  0.467692  0.250000  0.356807  1
