# generated using pymatgen
data_MnSbS2Br
_symmetry_space_group_name_H-M   'P 1'
_cell_length_a   6.64950961
_cell_length_b   6.64950961
_cell_length_c   9.59898933
_cell_angle_alpha   88.60374476
_cell_angle_beta   91.39625524
_cell_angle_gamma   146.23061181
_symmetry_Int_Tables_number   1
_chemical_formula_structural   MnSbS2Br
_chemical_formula_sum   'Mn2 Sb2 S4 Br2'
_cell_volume   235.84285322
_cell_formula_units_Z   2
loop_
 _symmetry_equiv_pos_site_id
 _symmetry_equiv_pos_as_xyz
  1  'x, y, z'
loop_
 _atom_site_type_symbol
 _atom_site_label
 _atom_site_symmetry_multiplicity
 _atom_site_fract_x
 _atom_site_fract_y
 _atom_site_fract_z
 _atom_site_occupancy
  Mn  Mn0  1  0.000000  0.000000  0.000000  1
  Mn  Mn1  1  0.000000  0.000000  0.500000  1
  Sb  Sb2  1  0.289642  0.710358  0.190566  1
  Sb  Sb3  1  0.710358  0.289642  0.809434  1
  S  S4  1  0.362050  0.637950  0.949517  1
  S  S5  1  0.925485  0.074515  0.242441  1
  S  S6  1  0.637950  0.362050  0.050483  1
  S  S7  1  0.074515  0.925485  0.757559  1
  Br  Br8  1  0.632671  0.367329  0.430814  1
  Br  Br9  1  0.367329  0.632671  0.569186  1
