# generated using pymatgen
data_Cs2Ti(Si2O5)3
_symmetry_space_group_name_H-M   'P 1'
_cell_length_a   7.78135137
_cell_length_b   7.78135137
_cell_length_c   15.48663376
_cell_angle_alpha   74.30537102
_cell_angle_beta   105.69462898
_cell_angle_gamma   121.98336776
_symmetry_Int_Tables_number   1
_chemical_formula_structural   Cs2Ti(Si2O5)3
_chemical_formula_sum   'Cs4 Ti2 Si12 O30'
_cell_volume   756.36003632
_cell_formula_units_Z   2
loop_
 _symmetry_equiv_pos_site_id
 _symmetry_equiv_pos_as_xyz
  1  'x, y, z'
loop_
 _atom_site_type_symbol
 _atom_site_label
 _atom_site_symmetry_multiplicity
 _atom_site_fract_x
 _atom_site_fract_y
 _atom_site_fract_z
 _atom_site_occupancy
  Cs  Cs0  1  0.624297  0.858150  0.590003  1
  Cs  Cs1  1  0.375703  0.141850  0.409997  1
  Cs  Cs2  1  0.141850  0.375703  0.090003  1
  Cs  Cs3  1  0.858150  0.624297  0.909997  1
  Ti  Ti4  1  0.500000  0.000000  0.000000  1
  Ti  Ti5  1  0.000000  0.500000  0.500000  1
  Si  Si6  1  0.396379  0.748961  0.833531  1
  Si  Si7  1  0.115918  0.804711  0.643899  1
  Si  Si8  1  0.804711  0.115918  0.856101  1
  Si  Si9  1  0.251039  0.603621  0.333531  1
  Si  Si10  1  0.195289  0.884082  0.143899  1
  Si  Si11  1  0.265637  0.271027  0.854011  1
  Si  Si12  1  0.271027  0.265637  0.645989  1
  Si  Si13  1  0.884082  0.195289  0.356101  1
  Si  Si14  1  0.603621  0.251039  0.166469  1
  Si  Si15  1  0.728973  0.734363  0.354011  1
  Si  Si16  1  0.748961  0.396379  0.666469  1
  Si  Si17  1  0.734363  0.728973  0.145989  1
  O  O18  1  0.344479  0.510723  0.858963  1
  O  O19  1  0.286390  0.793353  0.730632  1
  O  O20  1  0.030840  0.133008  0.878477  1
  O  O21  1  0.800002  0.583035  0.424969  1
  O  O22  1  0.489277  0.655521  0.358963  1
  O  O23  1  0.655521  0.489277  0.141037  1
  O  O24  1  0.866992  0.969160  0.378477  1
  O  O25  1  0.253310  0.253310  0.750000  1
  O  O26  1  0.659697  0.186906  0.092024  1
  O  O27  1  0.583035  0.800002  0.075031  1
  O  O28  1  0.746690  0.746690  0.250000  1
  O  O29  1  0.750579  0.144374  0.942631  1
  O  O30  1  0.416965  0.199998  0.924969  1
  O  O31  1  0.115443  0.354503  0.327709  1
  O  O32  1  0.206647  0.713610  0.230632  1
  O  O33  1  0.340303  0.813094  0.907976  1
  O  O34  1  0.855626  0.249421  0.442631  1
  O  O35  1  0.969160  0.866992  0.121523  1
  O  O36  1  0.793353  0.286390  0.769368  1
  O  O37  1  0.510723  0.344479  0.641037  1
  O  O38  1  0.186906  0.659697  0.407976  1
  O  O39  1  0.144374  0.750579  0.557369  1
  O  O40  1  0.645497  0.884557  0.827709  1
  O  O41  1  0.199998  0.416965  0.575031  1
  O  O42  1  0.884557  0.645497  0.672291  1
  O  O43  1  0.133008  0.030840  0.621523  1
  O  O44  1  0.354503  0.115443  0.172291  1
  O  O45  1  0.713610  0.206647  0.269368  1
  O  O46  1  0.813094  0.340303  0.592024  1
  O  O47  1  0.249421  0.855626  0.057369  1
