# generated using pymatgen
data_NbAg2(PS4)2
_symmetry_space_group_name_H-M   'P 1'
_cell_length_a   6.89786806
_cell_length_b   12.51477088
_cell_length_c   26.82600198
_cell_angle_alpha   90.00000000
_cell_angle_beta   90.00000000
_cell_angle_gamma   90.00000000
_symmetry_Int_Tables_number   1
_chemical_formula_structural   NbAg2(PS4)2
_chemical_formula_sum   'Nb8 Ag16 P16 S64'
_cell_volume   2315.76101440
_cell_formula_units_Z   8
loop_
 _symmetry_equiv_pos_site_id
 _symmetry_equiv_pos_as_xyz
  1  'x, y, z'
loop_
 _atom_site_type_symbol
 _atom_site_label
 _atom_site_symmetry_multiplicity
 _atom_site_fract_x
 _atom_site_fract_y
 _atom_site_fract_z
 _atom_site_occupancy
  Nb  Nb0  1  0.467238  0.366735  0.195533  1
  Nb  Nb1  1  0.032762  0.866735  0.195533  1
  Nb  Nb2  1  0.532762  0.633265  0.695533  1
  Nb  Nb3  1  0.532762  0.633265  0.804467  1
  Nb  Nb4  1  0.032762  0.866735  0.304467  1
  Nb  Nb5  1  0.467238  0.366735  0.304467  1
  Nb  Nb6  1  0.967238  0.133265  0.695533  1
  Nb  Nb7  1  0.967238  0.133265  0.804467  1
  Ag  Ag8  1  0.520689  0.157188  0.459196  1
  Ag  Ag9  1  0.520689  0.157188  0.040804  1
  Ag  Ag10  1  0.485288  0.579728  0.055809  1
  Ag  Ag11  1  0.020689  0.342812  0.959196  1
  Ag  Ag12  1  0.014712  0.079728  0.444191  1
  Ag  Ag13  1  0.985288  0.920272  0.555809  1
  Ag  Ag14  1  0.514712  0.420272  0.555809  1
  Ag  Ag15  1  0.485288  0.579728  0.444191  1
  Ag  Ag16  1  0.979311  0.657188  0.040804  1
  Ag  Ag17  1  0.979311  0.657188  0.459196  1
  Ag  Ag18  1  0.479311  0.842812  0.540804  1
  Ag  Ag19  1  0.014712  0.079728  0.055809  1
  Ag  Ag20  1  0.020689  0.342812  0.540804  1
  Ag  Ag21  1  0.479311  0.842812  0.959196  1
  Ag  Ag22  1  0.985288  0.920272  0.944191  1
  Ag  Ag23  1  0.514712  0.420272  0.944191  1
  P  P24  1  0.691787  0.893040  0.106399  1
  P  P25  1  0.808213  0.393040  0.393601  1
  P  P26  1  0.374044  0.840348  0.107278  1
  P  P27  1  0.691787  0.893040  0.393601  1
  P  P28  1  0.191787  0.606960  0.893601  1
  P  P29  1  0.191787  0.606960  0.606399  1
  P  P30  1  0.125956  0.340348  0.392722  1
  P  P31  1  0.125956  0.340348  0.107278  1
  P  P32  1  0.625956  0.159652  0.892722  1
  P  P33  1  0.308213  0.106960  0.606399  1
  P  P34  1  0.808213  0.393040  0.106399  1
  P  P35  1  0.874044  0.659652  0.892722  1
  P  P36  1  0.874044  0.659652  0.607278  1
  P  P37  1  0.308213  0.106960  0.893601  1
  P  P38  1  0.374044  0.840348  0.392722  1
  P  P39  1  0.625956  0.159652  0.607278  1
  S  S40  1  0.671376  0.240770  0.959309  1
  S  S41  1  0.182483  0.243096  0.165700  1
  S  S42  1  0.317517  0.743096  0.334300  1
  S  S43  1  0.203323  0.438659  0.250000  1
  S  S44  1  0.714315  0.971646  0.038740  1
  S  S45  1  0.285685  0.028354  0.961260  1
  S  S46  1  0.817517  0.756904  0.665700  1
  S  S47  1  0.555461  0.469435  0.750000  1
  S  S48  1  0.944539  0.969435  0.750000  1
  S  S49  1  0.647127  0.259701  0.379775  1
  S  S50  1  0.221453  0.976185  0.377489  1
  S  S51  1  0.765999  0.795788  0.250000  1
  S  S52  1  0.352873  0.740299  0.620225  1
  S  S53  1  0.852873  0.759701  0.120225  1
  S  S54  1  0.328624  0.759230  0.040691  1
  S  S55  1  0.352873  0.740299  0.879775  1
  S  S56  1  0.752502  0.990933  0.335489  1
  S  S57  1  0.505638  0.797167  0.750000  1
  S  S58  1  0.714315  0.971646  0.461260  1
  S  S59  1  0.747498  0.490933  0.164511  1
  S  S60  1  0.317517  0.743096  0.165700  1
  S  S61  1  0.182483  0.243096  0.334300  1
  S  S62  1  0.817517  0.756904  0.834300  1
  S  S63  1  0.278547  0.476185  0.377489  1
  S  S64  1  0.796677  0.561341  0.750000  1
  S  S65  1  0.265999  0.704212  0.750000  1
  S  S66  1  0.171376  0.259230  0.040691  1
  S  S67  1  0.671376  0.240770  0.540691  1
  S  S68  1  0.703323  0.061341  0.750000  1
  S  S69  1  0.147127  0.240299  0.879775  1
  S  S70  1  0.752502  0.990933  0.164511  1
  S  S71  1  0.747498  0.490933  0.335489  1
  S  S72  1  0.852873  0.759701  0.379775  1
  S  S73  1  0.785685  0.471646  0.461260  1
  S  S74  1  0.994362  0.297167  0.750000  1
  S  S75  1  0.252502  0.509067  0.835489  1
  S  S76  1  0.214315  0.528354  0.538740  1
  S  S77  1  0.828624  0.740770  0.540691  1
  S  S78  1  0.721453  0.523815  0.877489  1
  S  S79  1  0.778547  0.023815  0.877489  1
  S  S80  1  0.647127  0.259701  0.120225  1
  S  S81  1  0.734001  0.295788  0.250000  1
  S  S82  1  0.247498  0.009067  0.835489  1
  S  S83  1  0.682483  0.256904  0.665700  1
  S  S84  1  0.444539  0.530565  0.250000  1
  S  S85  1  0.296677  0.938659  0.250000  1
  S  S86  1  0.721453  0.523815  0.622511  1
  S  S87  1  0.278547  0.476185  0.122511  1
  S  S88  1  0.785685  0.471646  0.038740  1
  S  S89  1  0.221453  0.976185  0.122511  1
  S  S90  1  0.682483  0.256904  0.834300  1
  S  S91  1  0.247498  0.009067  0.664511  1
  S  S92  1  0.778547  0.023815  0.622511  1
  S  S93  1  0.828624  0.740770  0.959309  1
  S  S94  1  0.214315  0.528354  0.961260  1
  S  S95  1  0.252502  0.509067  0.664511  1
  S  S96  1  0.494362  0.202833  0.250000  1
  S  S97  1  0.055461  0.030565  0.250000  1
  S  S98  1  0.328624  0.759230  0.459309  1
  S  S99  1  0.171376  0.259230  0.459309  1
  S  S100  1  0.234001  0.204212  0.750000  1
  S  S101  1  0.147127  0.240299  0.620225  1
  S  S102  1  0.285685  0.028354  0.538740  1
  S  S103  1  0.005638  0.702833  0.250000  1
