# generated using pymatgen
data_V2Ni(PO5)2
_symmetry_space_group_name_H-M   'P 1'
_cell_length_a   6.42264663
_cell_length_b   7.41765023
_cell_length_c   7.39031413
_cell_angle_alpha   90.00000000
_cell_angle_beta   90.12179572
_cell_angle_gamma   90.00000000
_symmetry_Int_Tables_number   1
_chemical_formula_structural   V2Ni(PO5)2
_chemical_formula_sum   'V4 Ni2 P4 O20'
_cell_volume   352.08076244
_cell_formula_units_Z   2
loop_
 _symmetry_equiv_pos_site_id
 _symmetry_equiv_pos_as_xyz
  1  'x, y, z'
loop_
 _atom_site_type_symbol
 _atom_site_label
 _atom_site_symmetry_multiplicity
 _atom_site_fract_x
 _atom_site_fract_y
 _atom_site_fract_z
 _atom_site_occupancy
  V  V0  1  0.745024  0.279290  0.165817  1
  V  V1  1  0.254976  0.779290  0.334183  1
  V  V2  1  0.254976  0.720710  0.834183  1
  V  V3  1  0.745024  0.220710  0.665817  1
  Ni  Ni4  1  0.000000  0.000000  0.000000  1
  Ni  Ni5  1  0.000000  0.500000  0.500000  1
  P  P6  1  0.749713  0.621969  0.872261  1
  P  P7  1  0.749713  0.878031  0.372261  1
  P  P8  1  0.250287  0.121969  0.627739  1
  P  P9  1  0.250287  0.378031  0.127739  1
  O  O10  1  0.778986  0.004970  0.205422  1
  O  O11  1  0.227239  0.664219  0.609512  1
  O  O12  1  0.938118  0.745786  0.376010  1
  O  O13  1  0.061882  0.254214  0.623990  1
  O  O14  1  0.938118  0.754214  0.876010  1
  O  O15  1  0.221014  0.504970  0.294578  1
  O  O16  1  0.221014  0.995030  0.794578  1
  O  O17  1  0.554052  0.739559  0.853748  1
  O  O18  1  0.254542  0.009564  0.453552  1
  O  O19  1  0.554052  0.760441  0.353748  1
  O  O20  1  0.254542  0.490436  0.953552  1
  O  O21  1  0.745458  0.990436  0.546448  1
  O  O22  1  0.772761  0.335781  0.390488  1
  O  O23  1  0.445948  0.260441  0.146252  1
  O  O24  1  0.227239  0.835781  0.109512  1
  O  O25  1  0.772761  0.164219  0.890488  1
  O  O26  1  0.745458  0.509564  0.046448  1
  O  O27  1  0.061882  0.245786  0.123990  1
  O  O28  1  0.778986  0.495030  0.705422  1
  O  O29  1  0.445948  0.239559  0.646252  1
