# generated using pymatgen
data_SrAsH3O5
_symmetry_space_group_name_H-M   'P 1'
_cell_length_a   7.60027808
_cell_length_b   8.51575426
_cell_length_c   14.45274347
_cell_angle_alpha   90.00000000
_cell_angle_beta   90.00000000
_cell_angle_gamma   90.00000000
_symmetry_Int_Tables_number   1
_chemical_formula_structural   SrAsH3O5
_chemical_formula_sum   'Sr8 As8 H24 O40'
_cell_volume   935.41191445
_cell_formula_units_Z   8
loop_
 _symmetry_equiv_pos_site_id
 _symmetry_equiv_pos_as_xyz
  1  'x, y, z'
loop_
 _atom_site_type_symbol
 _atom_site_label
 _atom_site_symmetry_multiplicity
 _atom_site_fract_x
 _atom_site_fract_y
 _atom_site_fract_z
 _atom_site_occupancy
  Sr  Sr0  1  0.636058  0.178237  0.083220  1
  Sr  Sr1  1  0.136058  0.321763  0.916780  1
  Sr  Sr2  1  0.363942  0.678237  0.416780  1
  Sr  Sr3  1  0.863942  0.821763  0.583220  1
  Sr  Sr4  1  0.363942  0.821763  0.916780  1
  Sr  Sr5  1  0.863942  0.678237  0.083220  1
  Sr  Sr6  1  0.636058  0.321763  0.583220  1
  Sr  Sr7  1  0.136058  0.178237  0.416780  1
  As  As8  1  0.145965  0.053610  0.113709  1
  As  As9  1  0.645965  0.446390  0.886291  1
  As  As10  1  0.854035  0.553610  0.386291  1
  As  As11  1  0.354035  0.946390  0.613709  1
  As  As12  1  0.854035  0.946390  0.886291  1
  As  As13  1  0.354035  0.553610  0.113709  1
  As  As14  1  0.145965  0.446390  0.613709  1
  As  As15  1  0.645965  0.053610  0.386291  1
  H  H16  1  0.278869  0.253076  0.193984  1
  H  H17  1  0.778869  0.246924  0.806016  1
  H  H18  1  0.721131  0.753076  0.306016  1
  H  H19  1  0.221131  0.746924  0.693984  1
  H  H20  1  0.721131  0.746924  0.806016  1
  H  H21  1  0.221131  0.753076  0.193984  1
  H  H22  1  0.278869  0.246924  0.693984  1
  H  H23  1  0.778869  0.253076  0.306016  1
  H  H24  1  0.946217  0.167400  0.621863  1
  H  H25  1  0.446217  0.332600  0.378137  1
  H  H26  1  0.053783  0.667400  0.878137  1
  H  H27  1  0.553783  0.832600  0.121863  1
  H  H28  1  0.053783  0.832600  0.378137  1
  H  H29  1  0.553783  0.667400  0.621863  1
  H  H30  1  0.946217  0.332600  0.121863  1
  H  H31  1  0.446217  0.167400  0.878137  1
  H  H32  1  0.896020  0.100642  0.721185  1
  H  H33  1  0.396020  0.399358  0.278815  1
  H  H34  1  0.103980  0.600642  0.778815  1
  H  H35  1  0.603980  0.899358  0.221185  1
  H  H36  1  0.103980  0.899358  0.278815  1
  H  H37  1  0.603980  0.600642  0.721185  1
  H  H38  1  0.896020  0.399358  0.221185  1
  H  H39  1  0.396020  0.100642  0.778815  1
  O  O40  1  0.202561  0.162370  0.215487  1
  O  O41  1  0.702561  0.337630  0.784513  1
  O  O42  1  0.797439  0.662370  0.284513  1
  O  O43  1  0.297439  0.837630  0.715487  1
  O  O44  1  0.797439  0.837630  0.784513  1
  O  O45  1  0.297439  0.662370  0.215487  1
  O  O46  1  0.202561  0.337630  0.715487  1
  O  O47  1  0.702561  0.162370  0.284513  1
  O  O48  1  0.073410  0.880217  0.160169  1
  O  O49  1  0.573410  0.619783  0.839831  1
  O  O50  1  0.926590  0.380217  0.339831  1
  O  O51  1  0.426590  0.119783  0.660169  1
  O  O52  1  0.926590  0.119783  0.839831  1
  O  O53  1  0.426590  0.380217  0.160169  1
  O  O54  1  0.073410  0.619783  0.660169  1
  O  O55  1  0.573410  0.880217  0.339831  1
  O  O56  1  0.329297  0.038322  0.046704  1
  O  O57  1  0.829297  0.461678  0.953296  1
  O  O58  1  0.670703  0.538322  0.453296  1
  O  O59  1  0.170703  0.961678  0.546704  1
  O  O60  1  0.670703  0.961678  0.953296  1
  O  O61  1  0.170703  0.538322  0.046704  1
  O  O62  1  0.329297  0.461678  0.546704  1
  O  O63  1  0.829297  0.038322  0.453296  1
  O  O64  1  0.989311  0.162216  0.057131  1
  O  O65  1  0.489311  0.337784  0.942869  1
  O  O66  1  0.010689  0.662216  0.442869  1
  O  O67  1  0.510689  0.837784  0.557131  1
  O  O68  1  0.010689  0.837784  0.942869  1
  O  O69  1  0.510689  0.662216  0.057131  1
  O  O70  1  0.989311  0.337784  0.557131  1
  O  O71  1  0.489311  0.162216  0.442869  1
  O  O72  1  0.862104  0.097007  0.654535  1
  O  O73  1  0.362104  0.402993  0.345465  1
  O  O74  1  0.137896  0.597007  0.845465  1
  O  O75  1  0.637896  0.902993  0.154535  1
  O  O76  1  0.137896  0.902993  0.345465  1
  O  O77  1  0.637896  0.597007  0.654535  1
  O  O78  1  0.862104  0.402993  0.154535  1
  O  O79  1  0.362104  0.097007  0.845465  1
