# generated using pymatgen
data_Eu2B5ClO9
_symmetry_space_group_name_H-M   'P 1'
_cell_length_a   6.56968180
_cell_length_b   11.40592394
_cell_length_c   11.49806442
_cell_angle_alpha   90.00000000
_cell_angle_beta   90.00000000
_cell_angle_gamma   90.00000000
_symmetry_Int_Tables_number   1
_chemical_formula_structural   Eu2B5ClO9
_chemical_formula_sum   'Eu8 B20 Cl4 O36'
_cell_volume   861.58780621
_cell_formula_units_Z   4
loop_
 _symmetry_equiv_pos_site_id
 _symmetry_equiv_pos_as_xyz
  1  'x, y, z'
loop_
 _atom_site_type_symbol
 _atom_site_label
 _atom_site_symmetry_multiplicity
 _atom_site_fract_x
 _atom_site_fract_y
 _atom_site_fract_z
 _atom_site_occupancy
  Eu  Eu0  1  0.331917  0.758906  0.973743  1
  Eu  Eu1  1  0.494488  0.546534  0.247324  1
  Eu  Eu2  1  0.994488  0.953466  0.747324  1
  Eu  Eu3  1  0.994488  0.046534  0.252676  1
  Eu  Eu4  1  0.494488  0.453466  0.752676  1
  Eu  Eu5  1  0.831917  0.741094  0.473743  1
  Eu  Eu6  1  0.831917  0.258906  0.526257  1
  Eu  Eu7  1  0.331917  0.241094  0.026257  1
  B  B8  1  0.190164  0.323135  0.273055  1
  B  B9  1  0.338535  0.201671  0.686113  1
  B  B10  1  0.964741  0.496542  0.253192  1
  B  B11  1  0.298598  0.767890  0.537736  1
  B  B12  1  0.798598  0.267890  0.962264  1
  B  B13  1  0.464741  0.996542  0.246808  1
  B  B14  1  0.964741  0.503458  0.746808  1
  B  B15  1  0.838535  0.701671  0.813887  1
  B  B16  1  0.338535  0.798329  0.313887  1
  B  B17  1  0.838535  0.298329  0.186113  1
  B  B18  1  0.021538  0.717938  0.208459  1
  B  B19  1  0.021538  0.282062  0.791541  1
  B  B20  1  0.464741  0.003458  0.753192  1
  B  B21  1  0.690164  0.176865  0.773055  1
  B  B22  1  0.190164  0.676865  0.726945  1
  B  B23  1  0.521538  0.782062  0.708459  1
  B  B24  1  0.690164  0.823135  0.226945  1
  B  B25  1  0.298598  0.232110  0.462264  1
  B  B26  1  0.798598  0.732110  0.037736  1
  B  B27  1  0.521538  0.217938  0.291541  1
  Cl  Cl28  1  0.888784  0.000000  0.500000  1
  Cl  Cl29  1  0.139785  0.000000  0.000000  1
  Cl  Cl30  1  0.639785  0.500000  0.500000  1
  Cl  Cl31  1  0.388784  0.500000  0.000000  1
  O  O32  1  0.649459  0.048691  0.785101  1
  O  O33  1  0.149459  0.548691  0.714899  1
  O  O34  1  0.237438  0.229348  0.575400  1
  O  O35  1  0.489891  0.208148  0.421395  1
  O  O36  1  0.489891  0.791852  0.578605  1
  O  O37  1  0.311448  0.926464  0.289219  1
  O  O38  1  0.737438  0.729348  0.924600  1
  O  O39  1  0.422412  0.886131  0.767990  1
  O  O40  1  0.143839  0.262785  0.385149  1
  O  O41  1  0.241323  0.274134  0.777407  1
  O  O42  1  0.643839  0.237215  0.885149  1
  O  O43  1  0.922412  0.386131  0.732010  1
  O  O44  1  0.907083  0.182155  0.743705  1
  O  O45  1  0.241323  0.725866  0.222593  1
  O  O46  1  0.907083  0.817845  0.256295  1
  O  O47  1  0.237438  0.770652  0.424600  1
  O  O48  1  0.311448  0.073536  0.710781  1
  O  O49  1  0.811448  0.573536  0.789219  1
  O  O50  1  0.649459  0.951309  0.214899  1
  O  O51  1  0.149459  0.451309  0.285101  1
  O  O52  1  0.558942  0.769949  0.317665  1
  O  O53  1  0.741323  0.774134  0.722593  1
  O  O54  1  0.989891  0.708148  0.078605  1
  O  O55  1  0.737438  0.270652  0.075400  1
  O  O56  1  0.407083  0.317845  0.243705  1
  O  O57  1  0.643839  0.762785  0.114851  1
  O  O58  1  0.058942  0.269949  0.182335  1
  O  O59  1  0.558942  0.230051  0.682335  1
  O  O60  1  0.407083  0.682155  0.756295  1
  O  O61  1  0.811448  0.426464  0.210781  1
  O  O62  1  0.058942  0.730051  0.817665  1
  O  O63  1  0.741323  0.225866  0.277407  1
  O  O64  1  0.143839  0.737215  0.614851  1
  O  O65  1  0.422412  0.113869  0.232010  1
  O  O66  1  0.989891  0.291852  0.921395  1
  O  O67  1  0.922412  0.613869  0.267990  1
