# generated using pymatgen
data_La5Sb4(O4F)3
_symmetry_space_group_name_H-M   'P 1'
_cell_length_a   12.29337369
_cell_length_b   12.29337369
_cell_length_c   11.62368364
_cell_angle_alpha   90.00000000
_cell_angle_beta   90.00000000
_cell_angle_gamma   90.00000000
_symmetry_Int_Tables_number   1
_chemical_formula_structural   La5Sb4(O4F)3
_chemical_formula_sum   'La20 Sb16 O48 F12'
_cell_volume   1756.65286384
_cell_formula_units_Z   4
loop_
 _symmetry_equiv_pos_site_id
 _symmetry_equiv_pos_as_xyz
  1  'x, y, z'
loop_
 _atom_site_type_symbol
 _atom_site_label
 _atom_site_symmetry_multiplicity
 _atom_site_fract_x
 _atom_site_fract_y
 _atom_site_fract_z
 _atom_site_occupancy
  La  La0  1  0.147885  0.328876  0.605073  1
  La  La1  1  0.171124  0.352115  0.105073  1
  La  La2  1  0.352115  0.828876  0.894927  1
  La  La3  1  0.000000  0.500000  0.351272  1
  La  La4  1  0.671124  0.147885  0.394927  1
  La  La5  1  0.171124  0.647885  0.605073  1
  La  La6  1  0.647885  0.171124  0.894927  1
  La  La7  1  0.000000  0.500000  0.851272  1
  La  La8  1  0.500000  0.000000  0.648728  1
  La  La9  1  0.647885  0.828876  0.394927  1
  La  La10  1  0.671124  0.852115  0.894927  1
  La  La11  1  0.352115  0.171124  0.394927  1
  La  La12  1  0.828876  0.352115  0.605073  1
  La  La13  1  0.828876  0.647885  0.105073  1
  La  La14  1  0.328876  0.147885  0.894927  1
  La  La15  1  0.852115  0.671124  0.605073  1
  La  La16  1  0.852115  0.328876  0.105073  1
  La  La17  1  0.147885  0.671124  0.105073  1
  La  La18  1  0.500000  0.000000  0.148728  1
  La  La19  1  0.328876  0.852115  0.394927  1
  Sb  Sb20  1  0.799255  0.986140  0.129260  1
  Sb  Sb21  1  0.013860  0.799255  0.870740  1
  Sb  Sb22  1  0.200745  0.013860  0.129260  1
  Sb  Sb23  1  0.986140  0.799255  0.370740  1
  Sb  Sb24  1  0.799255  0.013860  0.629260  1
  Sb  Sb25  1  0.013860  0.200745  0.370740  1
  Sb  Sb26  1  0.200745  0.986140  0.629260  1
  Sb  Sb27  1  0.299255  0.486140  0.870740  1
  Sb  Sb28  1  0.299255  0.513860  0.370740  1
  Sb  Sb29  1  0.513860  0.299255  0.129260  1
  Sb  Sb30  1  0.986140  0.200745  0.870740  1
  Sb  Sb31  1  0.486140  0.299255  0.629260  1
  Sb  Sb32  1  0.486140  0.700745  0.129260  1
  Sb  Sb33  1  0.700745  0.513860  0.870740  1
  Sb  Sb34  1  0.513860  0.700745  0.629260  1
  Sb  Sb35  1  0.700745  0.486140  0.370740  1
  O  O36  1  0.473561  0.808729  0.257074  1
  O  O37  1  0.808729  0.526439  0.742926  1
  O  O38  1  0.479078  0.173453  0.026112  1
  O  O39  1  0.691271  0.026439  0.757074  1
  O  O40  1  0.800432  0.837784  0.063008  1
  O  O41  1  0.191271  0.473561  0.742926  1
  O  O42  1  0.337784  0.699568  0.063008  1
  O  O43  1  0.191271  0.526439  0.242926  1
  O  O44  1  0.308729  0.973561  0.757074  1
  O  O45  1  0.173453  0.479078  0.473888  1
  O  O46  1  0.026439  0.691271  0.742926  1
  O  O47  1  0.326547  0.020922  0.526112  1
  O  O48  1  0.337784  0.300432  0.563008  1
  O  O49  1  0.800432  0.162216  0.563008  1
  O  O50  1  0.662216  0.300432  0.063008  1
  O  O51  1  0.199568  0.162216  0.063008  1
  O  O52  1  0.020922  0.326547  0.973888  1
  O  O53  1  0.199568  0.837784  0.563008  1
  O  O54  1  0.520922  0.173453  0.526112  1
  O  O55  1  0.673453  0.979078  0.526112  1
  O  O56  1  0.973561  0.691271  0.242926  1
  O  O57  1  0.173453  0.520922  0.973888  1
  O  O58  1  0.662216  0.699568  0.563008  1
  O  O59  1  0.300432  0.337784  0.936992  1
  O  O60  1  0.973561  0.308729  0.742926  1
  O  O61  1  0.979078  0.326547  0.473888  1
  O  O62  1  0.300432  0.662216  0.436992  1
  O  O63  1  0.826547  0.520922  0.473888  1
  O  O64  1  0.526439  0.808729  0.757074  1
  O  O65  1  0.479078  0.826547  0.526112  1
  O  O66  1  0.979078  0.673453  0.973888  1
  O  O67  1  0.699568  0.662216  0.936992  1
  O  O68  1  0.026439  0.308729  0.242926  1
  O  O69  1  0.691271  0.973561  0.257074  1
  O  O70  1  0.837784  0.800432  0.436992  1
  O  O71  1  0.473561  0.191271  0.757074  1
  O  O72  1  0.808729  0.473561  0.242926  1
  O  O73  1  0.673453  0.020922  0.026112  1
  O  O74  1  0.826547  0.479078  0.973888  1
  O  O75  1  0.308729  0.026439  0.257074  1
  O  O76  1  0.526439  0.191271  0.257074  1
  O  O77  1  0.162216  0.199568  0.436992  1
  O  O78  1  0.326547  0.979078  0.026112  1
  O  O79  1  0.520922  0.826547  0.026112  1
  O  O80  1  0.162216  0.800432  0.936992  1
  O  O81  1  0.020922  0.673453  0.473888  1
  O  O82  1  0.699568  0.337784  0.436992  1
  O  O83  1  0.837784  0.199568  0.936992  1
  F  F84  1  0.500000  0.000000  0.369501  1
  F  F85  1  0.805186  0.805186  0.750000  1
  F  F86  1  0.305186  0.694814  0.750000  1
  F  F87  1  0.500000  0.000000  0.869501  1
  F  F88  1  0.000000  0.500000  0.130499  1
  F  F89  1  0.305186  0.305186  0.250000  1
  F  F90  1  0.805186  0.194814  0.250000  1
  F  F91  1  0.694814  0.694814  0.250000  1
  F  F92  1  0.694814  0.305186  0.750000  1
  F  F93  1  0.000000  0.500000  0.630499  1
  F  F94  1  0.194814  0.805186  0.250000  1
  F  F95  1  0.194814  0.194814  0.750000  1
