# generated using pymatgen
data_Ga8Cu3W2
_symmetry_space_group_name_H-M   'P 1'
_cell_length_a   10.42434165
_cell_length_b   10.42434165
_cell_length_c   10.42434165
_cell_angle_alpha   109.47122063
_cell_angle_beta   109.47122063
_cell_angle_gamma   109.47122063
_symmetry_Int_Tables_number   1
_chemical_formula_structural   Ga8Cu3W2
_chemical_formula_sum   'Ga32 Cu12 W8'
_cell_volume   872.01512762
_cell_formula_units_Z   4
loop_
 _symmetry_equiv_pos_site_id
 _symmetry_equiv_pos_as_xyz
  1  'x, y, z'
loop_
 _atom_site_type_symbol
 _atom_site_label
 _atom_site_symmetry_multiplicity
 _atom_site_fract_x
 _atom_site_fract_y
 _atom_site_fract_z
 _atom_site_occupancy
  Ga  Ga0  1  0.000000  0.290011  0.500000  1
  Ga  Ga1  1  0.256901  0.766893  0.767448  1
  Ga  Ga2  1  0.990008  0.000555  0.733107  1
  Ga  Ga3  1  0.499445  0.489453  0.732552  1
  Ga  Ga4  1  0.999445  0.232552  0.989453  1
  Ga  Ga5  1  0.009992  0.510547  0.743099  1
  Ga  Ga6  1  0.766893  0.767448  0.256901  1
  Ga  Ga7  1  0.989453  0.999445  0.232552  1
  Ga  Ga8  1  0.709989  0.709989  0.709989  1
  Ga  Ga9  1  0.267448  0.266893  0.756901  1
  Ga  Ga10  1  0.790011  0.500000  0.000000  1
  Ga  Ga11  1  0.767448  0.256901  0.766893  1
  Ga  Ga12  1  0.510547  0.743099  0.009992  1
  Ga  Ga13  1  0.489453  0.732552  0.499445  1
  Ga  Ga14  1  0.509992  0.243099  0.010547  1
  Ga  Ga15  1  0.000555  0.733107  0.990008  1
  Ga  Ga16  1  0.756901  0.267448  0.266893  1
  Ga  Ga17  1  0.490008  0.233107  0.500555  1
  Ga  Ga18  1  0.500555  0.490008  0.233107  1
  Ga  Ga19  1  0.010547  0.509992  0.243099  1
  Ga  Ga20  1  0.243099  0.010547  0.509992  1
  Ga  Ga21  1  0.000000  0.790011  0.500000  1
  Ga  Ga22  1  0.733107  0.990008  0.000555  1
  Ga  Ga23  1  0.743099  0.009992  0.510547  1
  Ga  Ga24  1  0.500000  0.000000  0.290011  1
  Ga  Ga25  1  0.500000  0.000000  0.790011  1
  Ga  Ga26  1  0.232552  0.989453  0.999445  1
  Ga  Ga27  1  0.209989  0.209989  0.209989  1
  Ga  Ga28  1  0.732552  0.499445  0.489453  1
  Ga  Ga29  1  0.233107  0.500555  0.490008  1
  Ga  Ga30  1  0.290011  0.500000  0.000000  1
  Ga  Ga31  1  0.266893  0.756901  0.267448  1
  Cu  Cu32  1  0.018011  0.268011  0.750000  1
  Cu  Cu33  1  0.518011  0.250000  0.768011  1
  Cu  Cu34  1  0.981989  0.750000  0.731989  1
  Cu  Cu35  1  0.231989  0.250000  0.481989  1
  Cu  Cu36  1  0.768011  0.518011  0.250000  1
  Cu  Cu37  1  0.250000  0.481989  0.231989  1
  Cu  Cu38  1  0.250000  0.768011  0.518011  1
  Cu  Cu39  1  0.750000  0.018011  0.268011  1
  Cu  Cu40  1  0.750000  0.731989  0.981989  1
  Cu  Cu41  1  0.731989  0.981989  0.750000  1
  Cu  Cu42  1  0.268011  0.750000  0.018011  1
  Cu  Cu43  1  0.481989  0.231989  0.250000  1
  W  W44  1  0.457924  0.457924  0.457924  1
  W  W45  1  0.500000  0.000000  0.542076  1
  W  W46  1  0.542076  0.500000  0.000000  1
  W  W47  1  0.000000  0.542076  0.500000  1
  W  W48  1  0.042076  0.500000  0.000000  1
  W  W49  1  0.957924  0.957924  0.957924  1
  W  W50  1  0.500000  0.000000  0.042076  1
  W  W51  1  0.000000  0.042076  0.500000  1
