# generated using pymatgen
data_NdGe2Ir
_symmetry_space_group_name_H-M   'P 1'
_cell_length_a   9.57708802
_cell_length_b   9.57708802
_cell_length_c   9.57708802
_cell_angle_alpha   153.47163733
_cell_angle_beta   123.84108985
_cell_angle_gamma   63.15330770
_symmetry_Int_Tables_number   1
_chemical_formula_structural   NdGe2Ir
_chemical_formula_sum   'Nd4 Ge8 Ir4'
_cell_volume   323.28184555
_cell_formula_units_Z   4
loop_
 _symmetry_equiv_pos_site_id
 _symmetry_equiv_pos_as_xyz
  1  'x, y, z'
loop_
 _atom_site_type_symbol
 _atom_site_label
 _atom_site_symmetry_multiplicity
 _atom_site_fract_x
 _atom_site_fract_y
 _atom_site_fract_z
 _atom_site_occupancy
  Nd  Nd0  1  0.706391  0.206391  0.500000  1
  Nd  Nd1  1  0.293609  0.793609  0.500000  1
  Nd  Nd2  1  0.739854  0.000000  0.739854  1
  Nd  Nd3  1  0.260146  1.000000  0.260146  1
  Ge  Ge4  1  0.422470  0.422470  0.000000  1
  Ge  Ge5  1  0.577530  0.577530  0.000000  1
  Ge  Ge6  1  0.921094  0.421094  0.500000  1
  Ge  Ge7  1  0.078906  0.578906  0.500000  1
  Ge  Ge8  1  0.044671  0.198756  0.845916  1
  Ge  Ge9  1  0.955329  0.801244  0.154084  1
  Ge  Ge10  1  0.647160  0.801244  0.845916  1
  Ge  Ge11  1  0.352840  0.198756  0.154084  1
  Ir  Ir12  1  0.101598  0.353560  0.748038  1
  Ir  Ir13  1  0.898402  0.646440  0.251962  1
  Ir  Ir14  1  0.394477  0.646440  0.748038  1
  Ir  Ir15  1  0.605523  0.353560  0.251962  1
