# generated using pymatgen
data_ThCl4
_symmetry_space_group_name_H-M   'P 1'
_cell_length_a   7.97736417
_cell_length_b   7.97736417
_cell_length_c   7.97736417
_cell_angle_alpha   131.48300895
_cell_angle_beta   131.48300895
_cell_angle_gamma   71.04679396
_symmetry_Int_Tables_number   1
_chemical_formula_structural   ThCl4
_chemical_formula_sum   'Th2 Cl8'
_cell_volume   278.97985712
_cell_formula_units_Z   2
loop_
 _symmetry_equiv_pos_site_id
 _symmetry_equiv_pos_as_xyz
  1  'x, y, z'
loop_
 _atom_site_type_symbol
 _atom_site_label
 _atom_site_symmetry_multiplicity
 _atom_site_fract_x
 _atom_site_fract_y
 _atom_site_fract_z
 _atom_site_occupancy
  Th  Th0  1  0.250000  0.750000  0.500000  1
  Th  Th1  1  0.500000  0.500000  0.000000  1
  Cl  Cl2  1  0.205685  0.088751  0.451361  1
  Cl  Cl3  1  0.911249  0.362610  0.116934  1
  Cl  Cl4  1  0.504324  0.455685  0.616934  1
  Cl  Cl5  1  0.838751  0.887390  0.383066  1
  Cl  Cl6  1  0.245676  0.794315  0.883066  1
  Cl  Cl7  1  0.544315  0.161249  0.048639  1
  Cl  Cl8  1  0.112610  0.495676  0.951361  1
  Cl  Cl9  1  0.637390  0.754324  0.548639  1
