# generated using pymatgen
data_V3S
_symmetry_space_group_name_H-M   'P 1'
_cell_length_a   9.33367232
_cell_length_b   9.33367232
_cell_length_c   4.63627246
_cell_angle_alpha   90.00000000
_cell_angle_beta   90.00000000
_cell_angle_gamma   90.00000000
_symmetry_Int_Tables_number   1
_chemical_formula_structural   V3S
_chemical_formula_sum   'V24 S8'
_cell_volume   403.90018312
_cell_formula_units_Z   8
loop_
 _symmetry_equiv_pos_site_id
 _symmetry_equiv_pos_as_xyz
  1  'x, y, z'
loop_
 _atom_site_type_symbol
 _atom_site_label
 _atom_site_symmetry_multiplicity
 _atom_site_fract_x
 _atom_site_fract_y
 _atom_site_fract_z
 _atom_site_occupancy
  V  V0  1  0.589951  0.089951  0.500000  1
  V  V1  1  0.910049  0.410049  0.000000  1
  V  V2  1  0.297748  0.797748  0.000000  1
  V  V3  1  0.202252  0.702252  0.500000  1
  V  V4  1  0.853155  0.000000  0.750000  1
  V  V5  1  0.146845  0.000000  0.750000  1
  V  V6  1  0.910049  0.589951  0.500000  1
  V  V7  1  0.589951  0.910049  0.000000  1
  V  V8  1  0.702252  0.797748  0.500000  1
  V  V9  1  0.797748  0.297748  0.500000  1
  V  V10  1  0.353155  0.500000  0.750000  1
  V  V11  1  0.089951  0.589951  0.000000  1
  V  V12  1  0.646845  0.500000  0.750000  1
  V  V13  1  0.410049  0.910049  0.500000  1
  V  V14  1  0.000000  0.146845  0.250000  1
  V  V15  1  0.089951  0.410049  0.500000  1
  V  V16  1  0.202252  0.297748  0.000000  1
  V  V17  1  0.410049  0.089951  0.000000  1
  V  V18  1  0.500000  0.353155  0.250000  1
  V  V19  1  0.000000  0.853155  0.250000  1
  V  V20  1  0.702252  0.202252  0.000000  1
  V  V21  1  0.797748  0.702252  0.000000  1
  V  V22  1  0.500000  0.646845  0.250000  1
  V  V23  1  0.297748  0.202252  0.500000  1
  S  S24  1  0.209564  0.000000  0.250000  1
  S  S25  1  0.790436  0.000000  0.250000  1
  S  S26  1  0.709564  0.500000  0.250000  1
  S  S27  1  0.290436  0.500000  0.250000  1
  S  S28  1  0.500000  0.290436  0.750000  1
  S  S29  1  0.000000  0.209564  0.750000  1
  S  S30  1  0.500000  0.709564  0.750000  1
  S  S31  1  0.000000  0.790436  0.750000  1
