# generated using pymatgen
data_NdAsO4
_symmetry_space_group_name_H-M   'P 1'
_cell_length_a   6.77150315
_cell_length_b   7.19911695
_cell_length_c   8.38249980
_cell_angle_alpha   90.00000000
_cell_angle_beta   126.19112716
_cell_angle_gamma   90.00000000
_symmetry_Int_Tables_number   1
_chemical_formula_structural   NdAsO4
_chemical_formula_sum   'Nd4 As4 O16'
_cell_volume   329.79134692
_cell_formula_units_Z   4
loop_
 _symmetry_equiv_pos_site_id
 _symmetry_equiv_pos_as_xyz
  1  'x, y, z'
loop_
 _atom_site_type_symbol
 _atom_site_label
 _atom_site_symmetry_multiplicity
 _atom_site_fract_x
 _atom_site_fract_y
 _atom_site_fract_z
 _atom_site_occupancy
  Nd  Nd0  1  0.812705  0.848583  0.217636  1
  Nd  Nd1  1  0.187295  0.151417  0.782364  1
  Nd  Nd2  1  0.187295  0.348583  0.282364  1
  Nd  Nd3  1  0.812705  0.651417  0.717636  1
  As  As4  1  0.689854  0.162058  0.802538  1
  As  As5  1  0.310146  0.662058  0.697462  1
  As  As6  1  0.689854  0.337942  0.302538  1
  As  As7  1  0.310146  0.837942  0.197462  1
  O  O8  1  0.609381  0.786952  0.384193  1
  O  O9  1  0.390619  0.213048  0.615807  1
  O  O10  1  0.828635  0.504065  0.252333  1
  O  O11  1  0.349810  0.605875  0.518082  1
  O  O12  1  0.390619  0.286952  0.115807  1
  O  O13  1  0.828635  0.995935  0.752333  1
  O  O14  1  0.171365  0.004065  0.247667  1
  O  O15  1  0.894676  0.155970  0.393234  1
  O  O16  1  0.105324  0.655970  0.106766  1
  O  O17  1  0.650190  0.394125  0.481918  1
  O  O18  1  0.349810  0.894125  0.018082  1
  O  O19  1  0.894676  0.344030  0.893234  1
  O  O20  1  0.609381  0.713048  0.884193  1
  O  O21  1  0.171365  0.495935  0.747667  1
  O  O22  1  0.105324  0.844030  0.606766  1
  O  O23  1  0.650190  0.105875  0.981918  1
