# generated using pymatgen
data_Sb2Pb2S5
_symmetry_space_group_name_H-M   'P 1'
_cell_length_a   4.00703610
_cell_length_b   11.37815609
_cell_length_c   20.45866725
_cell_angle_alpha   90.00000000
_cell_angle_beta   90.00000000
_cell_angle_gamma   90.00000000
_symmetry_Int_Tables_number   1
_chemical_formula_structural   Sb2Pb2S5
_chemical_formula_sum   'Sb8 Pb8 S20'
_cell_volume   932.76551425
_cell_formula_units_Z   4
loop_
 _symmetry_equiv_pos_site_id
 _symmetry_equiv_pos_as_xyz
  1  'x, y, z'
loop_
 _atom_site_type_symbol
 _atom_site_label
 _atom_site_symmetry_multiplicity
 _atom_site_fract_x
 _atom_site_fract_y
 _atom_site_fract_z
 _atom_site_occupancy
  Sb  Sb0  1  0.250000  0.378808  0.368605  1
  Sb  Sb1  1  0.750000  0.621192  0.631395  1
  Sb  Sb2  1  0.750000  0.878808  0.131395  1
  Sb  Sb3  1  0.250000  0.121192  0.868605  1
  Sb  Sb4  1  0.250000  0.702905  0.473163  1
  Sb  Sb5  1  0.750000  0.297095  0.526837  1
  Sb  Sb6  1  0.750000  0.202905  0.026837  1
  Sb  Sb7  1  0.250000  0.797095  0.973163  1
  Pb  Pb8  1  0.250000  0.168826  0.206878  1
  Pb  Pb9  1  0.750000  0.831174  0.793122  1
  Pb  Pb10  1  0.750000  0.668826  0.293122  1
  Pb  Pb11  1  0.250000  0.331174  0.706878  1
  Pb  Pb12  1  0.250000  0.498797  0.095516  1
  Pb  Pb13  1  0.750000  0.501203  0.904484  1
  Pb  Pb14  1  0.750000  0.998797  0.404484  1
  Pb  Pb15  1  0.250000  0.001203  0.595516  1
  S  S16  1  0.250000  0.492216  0.267383  1
  S  S17  1  0.750000  0.507784  0.732617  1
  S  S18  1  0.750000  0.992216  0.232617  1
  S  S19  1  0.250000  0.007784  0.767383  1
  S  S20  1  0.250000  0.685224  0.870306  1
  S  S21  1  0.750000  0.314776  0.129694  1
  S  S22  1  0.750000  0.185224  0.629694  1
  S  S23  1  0.250000  0.814776  0.370306  1
  S  S24  1  0.250000  0.748665  0.168803  1
  S  S25  1  0.750000  0.251335  0.831197  1
  S  S26  1  0.750000  0.248665  0.331197  1
  S  S27  1  0.250000  0.751335  0.668803  1
  S  S28  1  0.250000  0.138357  0.479603  1
  S  S29  1  0.750000  0.861643  0.520397  1
  S  S30  1  0.750000  0.638357  0.020397  1
  S  S31  1  0.250000  0.361643  0.979603  1
  S  S32  1  0.250000  0.068062  0.076423  1
  S  S33  1  0.750000  0.931937  0.923577  1
  S  S34  1  0.750000  0.568063  0.423577  1
  S  S35  1  0.250000  0.431937  0.576423  1
