# generated using pymatgen
data_B4C
_symmetry_space_group_name_H-M   'P 1'
_cell_length_a   5.11891082
_cell_length_b   5.11881543
_cell_length_c   22.36804716
_cell_angle_alpha   92.91352323
_cell_angle_beta   94.78121810
_cell_angle_gamma   114.43464304
_symmetry_Int_Tables_number   1
_chemical_formula_structural   B4C
_chemical_formula_sum   'B56 C14'
_cell_volume   529.39668056
_cell_formula_units_Z   14
loop_
 _symmetry_equiv_pos_site_id
 _symmetry_equiv_pos_as_xyz
  1  'x, y, z'
loop_
 _atom_site_type_symbol
 _atom_site_label
 _atom_site_symmetry_multiplicity
 _atom_site_fract_x
 _atom_site_fract_y
 _atom_site_fract_z
 _atom_site_occupancy
  B  B0  1  0.325634  0.006772  0.998412  1
  B  B1  1  0.129223  0.938895  0.065688  1
  B  B2  1  0.992742  0.673875  0.998564  1
  B  B3  1  0.735310  0.795784  0.199933  1
  B  B4  1  0.538317  0.728929  0.265974  1
  B  B5  1  0.470611  0.662191  0.135356  1
  B  B6  1  0.750254  0.768541  0.037855  1
  B  B7  1  0.404679  0.451383  0.199827  1
  B  B8  1  0.270672  0.288266  0.037869  1
  B  B9  1  0.936607  0.530744  0.467990  1
  B  B10  1  0.164891  0.556770  0.240189  1
  B  B11  1  0.873744  0.466038  0.336819  1
  B  B12  1  0.120643  0.518026  0.159887  1
  B  B13  1  0.802589  0.269457  0.401137  1
  B  B14  1  0.681949  0.079674  0.240376  1
  B  B15  1  0.919656  0.142292  0.062502  1
  B  B16  1  0.637141  0.040503  0.159792  1
  B  B17  1  0.544171  0.389164  0.602704  1
  B  B18  1  0.279198  0.258146  0.537901  1
  B  B19  1  0.558429  0.361053  0.440360  1
  B  B20  1  0.516454  0.324974  0.360075  1
  B  B21  1  0.214264  0.059296  0.602883  1
  B  B22  1  0.080481  0.877354  0.440434  1
  B  B23  1  0.039094  0.841848  0.359900  1
  B  B24  1  0.329181  0.937141  0.263401  1
  B  B25  1  0.262571  0.868947  0.132207  1
  B  B26  1  0.068292  0.801686  0.199051  1
  B  B27  1  0.933503  0.197607  0.801037  1
  B  B28  1  0.972997  0.151289  0.642695  1
  B  B29  1  0.674145  0.063015  0.736752  1
  B  B30  1  0.930893  0.113689  0.562461  1
  B  B31  1  0.795698  0.935616  0.400229  1
  B  B32  1  0.603848  0.867923  0.801041  1
  B  B33  1  0.492146  0.670243  0.642717  1
  B  B34  1  0.449360  0.632753  0.562461  1
  B  B35  1  0.726267  0.735789  0.464797  1
  B  B36  1  0.662853  0.672550  0.334186  1
  B  B37  1  0.451395  0.605069  0.400329  1
  B  B38  1  0.361196  0.960105  0.839833  1
  B  B39  1  0.063678  0.871073  0.934071  1
  B  B40  1  0.321130  0.922521  0.759654  1
  B  B41  1  0.208244  0.726135  0.602065  1
  B  B42  1  0.880124  0.479032  0.839832  1
  B  B43  1  0.837506  0.438906  0.759653  1
  B  B44  1  0.138303  0.528211  0.665920  1
  B  B45  1  0.072313  0.464838  0.534736  1
  B  B46  1  0.876763  0.394688  0.601916  1
  B  B47  1  0.710541  0.728779  0.957443  1
  B  B48  1  0.596001  0.533641  0.799264  1
  B  B49  1  0.528620  0.335215  0.863407  1
  B  B50  1  0.229352  0.247715  0.957423  1
  B  B51  1  0.462601  0.269190  0.731367  1
  B  B52  1  0.266023  0.203672  0.799264  1
  B  B53  1  0.987871  0.342104  0.997451  1
  B  B54  1  0.656004  0.010130  0.997267  1
  B  B55  1  0.853216  0.076554  0.929222  1
  C  C56  1  0.512874  0.560274  0.072154  1
  C  C57  1  0.123178  0.601178  0.400887  1
  C  C58  1  0.931807  0.349237  0.276137  1
  C  C59  1  0.874885  0.249193  0.124694  1
  C  C60  1  0.338903  0.327723  0.666189  1
  C  C61  1  0.400300  0.122519  0.199272  1
  C  C62  1  0.325804  0.149141  0.475645  1
  C  C63  1  0.273015  0.056014  0.324078  1
  C  C64  1  0.728333  0.136389  0.864218  1
  C  C65  1  0.739610  0.939182  0.678209  1
  C  C66  1  0.687475  0.841485  0.527999  1
  C  C67  1  0.122923  0.752293  0.874829  1
  C  C68  1  0.079069  0.647265  0.725969  1
  C  C69  1  0.472436  0.452303  0.924142  1
