# generated using pymatgen
data_Al(Ni10B7)2
_symmetry_space_group_name_H-M   'P 1'
_cell_length_a   7.53571303
_cell_length_b   7.53571303
_cell_length_c   7.53571303
_cell_angle_alpha   60.00000000
_cell_angle_beta   60.00000000
_cell_angle_gamma   60.00000000
_symmetry_Int_Tables_number   1
_chemical_formula_structural   Al(Ni10B7)2
_chemical_formula_sum   'Al1 Ni20 B14'
_cell_volume   302.59242826
_cell_formula_units_Z   1
loop_
 _symmetry_equiv_pos_site_id
 _symmetry_equiv_pos_as_xyz
  1  'x, y, z'
loop_
 _atom_site_type_symbol
 _atom_site_label
 _atom_site_symmetry_multiplicity
 _atom_site_fract_x
 _atom_site_fract_y
 _atom_site_fract_z
 _atom_site_occupancy
  Al  Al0  1  0.000000  0.000000  0.000000  1
  Ni  Ni1  1  0.000000  0.665843  0.334157  1
  Ni  Ni2  1  1.000000  0.665843  0.000000  1
  Ni  Ni3  1  0.665843  0.000000  0.334157  1
  Ni  Ni4  1  0.334157  0.000000  1.000000  1
  Ni  Ni5  1  0.665843  1.000000  0.000000  1
  Ni  Ni6  1  0.334157  0.665843  1.000000  1
  Ni  Ni7  1  1.000000  1.000000  0.334157  1
  Ni  Ni8  1  0.334157  0.000000  0.665843  1
  Ni  Ni9  1  0.665843  0.334157  1.000000  1
  Ni  Ni10  1  0.000000  1.000000  0.665843  1
  Ni  Ni11  1  1.000000  0.334157  1.000000  1
  Ni  Ni12  1  1.000000  0.334157  0.665843  1
  Ni  Ni13  1  0.378548  0.864355  0.378548  1
  Ni  Ni14  1  0.621452  0.621452  0.621452  1
  Ni  Ni15  1  0.621452  0.621452  0.135645  1
  Ni  Ni16  1  0.135645  0.621452  0.621452  1
  Ni  Ni17  1  0.378548  0.378548  0.864355  1
  Ni  Ni18  1  0.864355  0.378548  0.378548  1
  Ni  Ni19  1  0.378548  0.378548  0.378548  1
  Ni  Ni20  1  0.621452  0.135645  0.621452  1
  B  B21  1  0.723796  0.276204  0.276204  1
  B  B22  1  0.276204  0.723796  0.276204  1
  B  B23  1  0.723796  0.276204  0.723796  1
  B  B24  1  0.723796  0.723796  0.276204  1
  B  B25  1  0.276204  0.276204  0.723796  1
  B  B26  1  0.276204  0.723796  0.723796  1
  B  B27  1  0.810130  0.569609  0.810130  1
  B  B28  1  0.189870  0.189870  0.189870  1
  B  B29  1  0.189870  0.189870  0.430391  1
  B  B30  1  0.430391  0.189870  0.189870  1
  B  B31  1  0.810130  0.810130  0.569609  1
  B  B32  1  0.569609  0.810130  0.810130  1
  B  B33  1  0.810130  0.810130  0.810130  1
  B  B34  1  0.189870  0.430391  0.189870  1
