# generated using pymatgen
data_Tb2Cu(BO2)8
_symmetry_space_group_name_H-M   'P 1'
_cell_length_a   6.29770481
_cell_length_b   8.46693902
_cell_length_c   10.28877192
_cell_angle_alpha   90.00000000
_cell_angle_beta   90.43556016
_cell_angle_gamma   90.00000000
_symmetry_Int_Tables_number   1
_chemical_formula_structural   Tb2Cu(BO2)8
_chemical_formula_sum   'Tb4 Cu2 B16 O32'
_cell_volume   548.60495186
_cell_formula_units_Z   2
loop_
 _symmetry_equiv_pos_site_id
 _symmetry_equiv_pos_as_xyz
  1  'x, y, z'
loop_
 _atom_site_type_symbol
 _atom_site_label
 _atom_site_symmetry_multiplicity
 _atom_site_fract_x
 _atom_site_fract_y
 _atom_site_fract_z
 _atom_site_occupancy
  Tb  Tb0  1  0.492671  0.010996  0.682055  1
  Tb  Tb1  1  0.007329  0.510996  0.317945  1
  Tb  Tb2  1  0.992671  0.489004  0.682055  1
  Tb  Tb3  1  0.507329  0.989004  0.317945  1
  Cu  Cu4  1  0.000000  0.500000  0.000000  1
  Cu  Cu5  1  0.500000  0.000000  0.000000  1
  B  B6  1  0.991858  0.005603  0.693771  1
  B  B7  1  0.878477  0.806683  0.870894  1
  B  B8  1  0.610435  0.681450  0.500703  1
  B  B9  1  0.491858  0.494397  0.693771  1
  B  B10  1  0.110435  0.818550  0.500703  1
  B  B11  1  0.621523  0.306683  0.129106  1
  B  B12  1  0.386307  0.688774  0.115304  1
  B  B13  1  0.613693  0.311226  0.884696  1
  B  B14  1  0.008142  0.994397  0.306229  1
  B  B15  1  0.508142  0.505603  0.306229  1
  B  B16  1  0.378477  0.693317  0.870894  1
  B  B17  1  0.886307  0.811226  0.115304  1
  B  B18  1  0.389565  0.318550  0.499297  1
  B  B19  1  0.113693  0.188774  0.884696  1
  B  B20  1  0.889565  0.181450  0.499297  1
  B  B21  1  0.121523  0.193317  0.129106  1
  O  O22  1  0.943881  0.659284  0.134825  1
  O  O23  1  0.658664  0.403999  0.237289  1
  O  O24  1  0.349583  0.624640  0.992609  1
  O  O25  1  0.651384  0.617769  0.376623  1
  O  O26  1  0.158664  0.096001  0.237289  1
  O  O27  1  0.138398  0.919865  0.606546  1
  O  O28  1  0.341336  0.596001  0.762711  1
  O  O29  1  0.556119  0.159284  0.865175  1
  O  O30  1  0.556892  0.835413  0.511653  1
  O  O31  1  0.937148  0.654702  0.855447  1
  O  O32  1  0.348616  0.382231  0.623377  1
  O  O33  1  0.062852  0.345298  0.144553  1
  O  O34  1  0.056119  0.340716  0.865175  1
  O  O35  1  0.361602  0.419865  0.393454  1
  O  O36  1  0.355293  0.588561  0.221264  1
  O  O37  1  0.849583  0.875360  0.992609  1
  O  O38  1  0.848616  0.117769  0.623377  1
  O  O39  1  0.144707  0.088561  0.778736  1
  O  O40  1  0.562852  0.154702  0.144553  1
  O  O41  1  0.650417  0.375360  0.007391  1
  O  O42  1  0.150417  0.124640  0.007391  1
  O  O43  1  0.437148  0.845298  0.855447  1
  O  O44  1  0.443881  0.840716  0.134825  1
  O  O45  1  0.644707  0.411439  0.778736  1
  O  O46  1  0.638398  0.580135  0.606546  1
  O  O47  1  0.443108  0.164587  0.488347  1
  O  O48  1  0.861602  0.080135  0.393454  1
  O  O49  1  0.943108  0.335413  0.488347  1
  O  O50  1  0.151384  0.882231  0.376623  1
  O  O51  1  0.056892  0.664587  0.511653  1
  O  O52  1  0.855293  0.911439  0.221264  1
  O  O53  1  0.841336  0.903999  0.762711  1
