# generated using pymatgen
data_Ta2Hg3S(O2F5)2
_symmetry_space_group_name_H-M   'P 1'
_cell_length_a   12.30912163
_cell_length_b   10.48936127
_cell_length_c   9.30622766
_cell_angle_alpha   76.63821678
_cell_angle_beta   56.00576451
_cell_angle_gamma   47.35601871
_symmetry_Int_Tables_number   1
_chemical_formula_structural   Ta2Hg3S(O2F5)2
_chemical_formula_sum   'Ta4 Hg6 S2 O8 F20'
_cell_volume   710.98906382
_cell_formula_units_Z   2
loop_
 _symmetry_equiv_pos_site_id
 _symmetry_equiv_pos_as_xyz
  1  'x, y, z'
loop_
 _atom_site_type_symbol
 _atom_site_label
 _atom_site_symmetry_multiplicity
 _atom_site_fract_x
 _atom_site_fract_y
 _atom_site_fract_z
 _atom_site_occupancy
  Ta  Ta0  1  0.012781  0.873260  0.609678  1
  Ta  Ta1  1  0.504281  0.609678  0.873260  1
  Ta  Ta2  1  0.640322  0.745719  0.237219  1
  Ta  Ta3  1  0.376740  0.237219  0.745719  1
  Hg  Hg4  1  0.997781  0.502219  0.502219  1
  Hg  Hg5  1  0.747781  0.252219  0.252219  1
  Hg  Hg6  1  0.020506  0.678076  0.248511  1
  Hg  Hg7  1  0.052906  0.248511  0.678076  1
  Hg  Hg8  1  0.001489  0.197094  0.229494  1
  Hg  Hg9  1  0.571924  0.229494  0.197094  1
  S  S10  1  0.146187  0.853813  0.853813  1
  S  S11  1  0.396187  0.103813  0.103813  1
  O  O12  1  0.146408  0.782367  0.730181  1
  O  O13  1  0.341045  0.730181  0.782367  1
  O  O14  1  0.519819  0.908955  0.103592  1
  O  O15  1  0.467633  0.103592  0.908955  1
  O  O16  1  0.044445  0.848215  0.037624  1
  O  O17  1  0.069716  0.037624  0.848215  1
  O  O18  1  0.212376  0.180284  0.205555  1
  O  O19  1  0.401785  0.205555  0.180284  1
  F  F20  1  0.896134  0.968200  0.490728  1
  F  F21  1  0.644938  0.490728  0.968200  1
  F  F22  1  0.759272  0.605062  0.353866  1
  F  F23  1  0.281800  0.353866  0.605062  1
  F  F24  1  0.228121  0.661619  0.422877  1
  F  F25  1  0.687383  0.422877  0.661619  1
  F  F26  1  0.827123  0.562617  0.021879  1
  F  F27  1  0.588381  0.021879  0.562617  1
  F  F28  1  0.807236  0.068167  0.819399  1
  F  F29  1  0.305199  0.819399  0.068167  1
  F  F30  1  0.430601  0.944801  0.442764  1
  F  F31  1  0.181833  0.442764  0.944801  1
  F  F32  1  0.932826  0.750452  0.720173  1
  F  F33  1  0.596550  0.720173  0.750452  1
  F  F34  1  0.529827  0.653450  0.317174  1
  F  F35  1  0.499548  0.317174  0.653450  1
  F  F36  1  0.087081  0.003121  0.499522  1
  F  F37  1  0.410276  0.499522  0.003121  1
  F  F38  1  0.750478  0.839724  0.162919  1
  F  F39  1  0.246879  0.162919  0.839724  1
