# generated using pymatgen
data_BaZr(PO4)2
_symmetry_space_group_name_H-M   'P 1'
_cell_length_a   5.11461796
_cell_length_b   5.11461796
_cell_length_c   8.01650639
_cell_angle_alpha   87.23094368
_cell_angle_beta   92.76905632
_cell_angle_gamma   116.48437074
_symmetry_Int_Tables_number   1
_chemical_formula_structural   BaZr(PO4)2
_chemical_formula_sum   'Ba1 Zr1 P2 O8'
_cell_volume   187.39571240
_cell_formula_units_Z   1
loop_
 _symmetry_equiv_pos_site_id
 _symmetry_equiv_pos_as_xyz
  1  'x, y, z'
loop_
 _atom_site_type_symbol
 _atom_site_label
 _atom_site_symmetry_multiplicity
 _atom_site_fract_x
 _atom_site_fract_y
 _atom_site_fract_z
 _atom_site_occupancy
  Ba  Ba0  1  0.000000  1.000000  0.500000  1
  Zr  Zr1  1  0.000000  0.000000  0.000000  1
  P  P2  1  0.362291  0.637709  0.221347  1
  P  P3  1  0.637709  0.362291  0.778653  1
  O  O4  1  0.686669  0.313331  0.599177  1
  O  O5  1  0.313331  0.686669  0.400823  1
  O  O6  1  0.227114  0.302350  0.190058  1
  O  O7  1  0.697650  0.772886  0.190058  1
  O  O8  1  0.226500  0.773500  0.088153  1
  O  O9  1  0.772886  0.697650  0.809942  1
  O  O10  1  0.773500  0.226500  0.911847  1
  O  O11  1  0.302350  0.227114  0.809942  1
