# generated using pymatgen
data_Ba3Y(BO2)9
_symmetry_space_group_name_H-M   'P 1'
_cell_length_a   7.28584405
_cell_length_b   7.28584405
_cell_length_c   17.43704506
_cell_angle_alpha   90.00000000
_cell_angle_beta   90.00000000
_cell_angle_gamma   120.00000000
_symmetry_Int_Tables_number   1
_chemical_formula_structural   Ba3Y(BO2)9
_chemical_formula_sum   'Ba6 Y2 B18 O36'
_cell_volume   801.61025443
_cell_formula_units_Z   2
loop_
 _symmetry_equiv_pos_site_id
 _symmetry_equiv_pos_as_xyz
  1  'x, y, z'
loop_
 _atom_site_type_symbol
 _atom_site_label
 _atom_site_symmetry_multiplicity
 _atom_site_fract_x
 _atom_site_fract_y
 _atom_site_fract_z
 _atom_site_occupancy
  Ba  Ba0  1  0.666667  0.333333  0.367626  1
  Ba  Ba1  1  0.000000  0.000000  0.250000  1
  Ba  Ba2  1  0.333333  0.666667  0.632374  1
  Ba  Ba3  1  0.333333  0.666667  0.867626  1
  Ba  Ba4  1  0.000000  0.000000  0.750000  1
  Ba  Ba5  1  0.666667  0.333333  0.132374  1
  Y  Y6  1  0.000000  0.000000  0.000000  1
  Y  Y7  1  0.000000  0.000000  0.500000  1
  B  B8  1  0.449997  0.284475  0.918127  1
  B  B9  1  0.284475  0.834478  0.418127  1
  B  B10  1  0.715525  0.165522  0.581873  1
  B  B11  1  0.550003  0.715525  0.081873  1
  B  B12  1  0.621648  0.504256  0.750000  1
  B  B13  1  0.495744  0.117392  0.750000  1
  B  B14  1  0.834478  0.550003  0.918127  1
  B  B15  1  0.834478  0.550003  0.581873  1
  B  B16  1  0.165522  0.449997  0.081873  1
  B  B17  1  0.284475  0.834478  0.081873  1
  B  B18  1  0.165522  0.449997  0.418127  1
  B  B19  1  0.550003  0.715525  0.418127  1
  B  B20  1  0.378352  0.495744  0.250000  1
  B  B21  1  0.882608  0.378352  0.750000  1
  B  B22  1  0.449997  0.284475  0.581873  1
  B  B23  1  0.715525  0.165522  0.918127  1
  B  B24  1  0.117392  0.621648  0.250000  1
  B  B25  1  0.504256  0.882608  0.250000  1
  O  O26  1  0.250546  0.245189  0.580991  1
  O  O27  1  0.496107  0.876463  0.418047  1
  O  O28  1  0.496107  0.876463  0.081953  1
  O  O29  1  0.994644  0.749454  0.580991  1
  O  O30  1  0.754811  0.005356  0.919009  1
  O  O31  1  0.245189  0.994644  0.419009  1
  O  O32  1  0.333463  0.919852  0.750000  1
  O  O33  1  0.005356  0.250546  0.080991  1
  O  O34  1  0.380357  0.503893  0.418047  1
  O  O35  1  0.167661  0.458222  0.250000  1
  O  O36  1  0.503893  0.123537  0.918047  1
  O  O37  1  0.413612  0.333463  0.250000  1
  O  O38  1  0.754811  0.005356  0.580991  1
  O  O39  1  0.080148  0.413612  0.750000  1
  O  O40  1  0.245189  0.994644  0.080991  1
  O  O41  1  0.876463  0.380357  0.918047  1
  O  O42  1  0.619643  0.496107  0.918047  1
  O  O43  1  0.005356  0.250546  0.419009  1
  O  O44  1  0.290561  0.832339  0.250000  1
  O  O45  1  0.541778  0.709439  0.250000  1
  O  O46  1  0.749454  0.754811  0.080991  1
  O  O47  1  0.919852  0.586388  0.250000  1
  O  O48  1  0.619643  0.496107  0.581953  1
  O  O49  1  0.876463  0.380357  0.581953  1
  O  O50  1  0.832339  0.541778  0.750000  1
  O  O51  1  0.503893  0.123537  0.581953  1
  O  O52  1  0.666537  0.080148  0.250000  1
  O  O53  1  0.749454  0.754811  0.419009  1
  O  O54  1  0.123537  0.619643  0.418047  1
  O  O55  1  0.709439  0.167661  0.750000  1
  O  O56  1  0.458222  0.290561  0.750000  1
  O  O57  1  0.380357  0.503893  0.081953  1
  O  O58  1  0.994644  0.749454  0.919009  1
  O  O59  1  0.586388  0.666537  0.750000  1
  O  O60  1  0.123537  0.619643  0.081953  1
  O  O61  1  0.250546  0.245189  0.919009  1
