# generated using pymatgen
data_Ta6Fe16Si7
_symmetry_space_group_name_H-M   'P 1'
_cell_length_a   7.92545503
_cell_length_b   7.92545503
_cell_length_c   7.92545503
_cell_angle_alpha   60.00000000
_cell_angle_beta   60.00000000
_cell_angle_gamma   60.00000000
_symmetry_Int_Tables_number   1
_chemical_formula_structural   Ta6Fe16Si7
_chemical_formula_sum   'Ta6 Fe16 Si7'
_cell_volume   352.01212350
_cell_formula_units_Z   1
loop_
 _symmetry_equiv_pos_site_id
 _symmetry_equiv_pos_as_xyz
  1  'x, y, z'
loop_
 _atom_site_type_symbol
 _atom_site_label
 _atom_site_symmetry_multiplicity
 _atom_site_fract_x
 _atom_site_fract_y
 _atom_site_fract_z
 _atom_site_occupancy
  Ta  Ta0  1  0.796407  0.203593  0.203593  1
  Ta  Ta1  1  0.203593  0.796407  0.203593  1
  Ta  Ta2  1  0.796407  0.203593  0.796407  1
  Ta  Ta3  1  0.796407  0.796407  0.203593  1
  Ta  Ta4  1  0.203593  0.203593  0.796407  1
  Ta  Ta5  1  0.203593  0.796407  0.796407  1
  Fe  Fe6  1  0.826759  0.519722  0.826759  1
  Fe  Fe7  1  0.173241  0.173241  0.173241  1
  Fe  Fe8  1  0.173241  0.173241  0.480278  1
  Fe  Fe9  1  0.480278  0.173241  0.173241  1
  Fe  Fe10  1  0.826759  0.826759  0.519722  1
  Fe  Fe11  1  0.519722  0.826759  0.826759  1
  Fe  Fe12  1  0.826759  0.826759  0.826759  1
  Fe  Fe13  1  0.173241  0.480278  0.173241  1
  Fe  Fe14  1  0.619749  0.140754  0.619749  1
  Fe  Fe15  1  0.380251  0.380251  0.380251  1
  Fe  Fe16  1  0.380251  0.380251  0.859246  1
  Fe  Fe17  1  0.859246  0.380251  0.380251  1
  Fe  Fe18  1  0.619749  0.619749  0.140754  1
  Fe  Fe19  1  0.140754  0.619749  0.619749  1
  Fe  Fe20  1  0.619749  0.619749  0.619749  1
  Fe  Fe21  1  0.380251  0.859246  0.380251  1
  Si  Si22  1  0.500000  0.500000  0.500000  1
  Si  Si23  1  1.000000  0.500000  0.500000  1
  Si  Si24  1  0.000000  0.500000  1.000000  1
  Si  Si25  1  0.500000  0.000000  0.500000  1
  Si  Si26  1  0.500000  0.000000  1.000000  1
  Si  Si27  1  0.500000  0.500000  0.000000  1
  Si  Si28  1  1.000000  0.000000  0.500000  1
