# generated using pymatgen
data_MgSeO4
_symmetry_space_group_name_H-M   'P 1'
_cell_length_a   5.00941879
_cell_length_b   6.88632434
_cell_length_c   9.13043939
_cell_angle_alpha   90.00000000
_cell_angle_beta   90.00000000
_cell_angle_gamma   90.00000000
_symmetry_Int_Tables_number   1
_chemical_formula_structural   MgSeO4
_chemical_formula_sum   'Mg4 Se4 O16'
_cell_volume   314.96804303
_cell_formula_units_Z   4
loop_
 _symmetry_equiv_pos_site_id
 _symmetry_equiv_pos_as_xyz
  1  'x, y, z'
loop_
 _atom_site_type_symbol
 _atom_site_label
 _atom_site_symmetry_multiplicity
 _atom_site_fract_x
 _atom_site_fract_y
 _atom_site_fract_z
 _atom_site_occupancy
  Mg  Mg0  1  0.500000  0.000000  0.000000  1
  Mg  Mg1  1  0.000000  0.500000  0.500000  1
  Mg  Mg2  1  0.500000  0.500000  0.000000  1
  Mg  Mg3  1  0.000000  0.000000  0.500000  1
  Se  Se4  1  0.972573  0.750000  0.819214  1
  Se  Se5  1  0.527427  0.750000  0.319214  1
  Se  Se6  1  0.027427  0.250000  0.180786  1
  Se  Se7  1  0.472573  0.250000  0.680786  1
  O  O8  1  0.209627  0.750000  0.378497  1
  O  O9  1  0.324319  0.451797  0.625346  1
  O  O10  1  0.054880  0.250000  0.366221  1
  O  O11  1  0.824319  0.548203  0.874654  1
  O  O12  1  0.175681  0.048203  0.125346  1
  O  O13  1  0.445120  0.250000  0.866221  1
  O  O14  1  0.945120  0.750000  0.633779  1
  O  O15  1  0.175681  0.451797  0.125346  1
  O  O16  1  0.790373  0.250000  0.621503  1
  O  O17  1  0.324319  0.048203  0.625346  1
  O  O18  1  0.290373  0.750000  0.878497  1
  O  O19  1  0.554880  0.750000  0.133779  1
  O  O20  1  0.824319  0.951797  0.874654  1
  O  O21  1  0.709627  0.250000  0.121503  1
  O  O22  1  0.675681  0.548203  0.374654  1
  O  O23  1  0.675681  0.951797  0.374654  1
