# generated using pymatgen
data_Nd2Te3MoO12
_symmetry_space_group_name_H-M   'P 1'
_cell_length_a   5.39578578
_cell_length_b   11.42417846
_cell_length_c   18.25076203
_cell_angle_alpha   90.00000000
_cell_angle_beta   90.00000000
_cell_angle_gamma   90.00000000
_symmetry_Int_Tables_number   1
_chemical_formula_structural   Nd2Te3MoO12
_chemical_formula_sum   'Nd8 Te12 Mo4 O48'
_cell_volume   1125.02113258
_cell_formula_units_Z   4
loop_
 _symmetry_equiv_pos_site_id
 _symmetry_equiv_pos_as_xyz
  1  'x, y, z'
loop_
 _atom_site_type_symbol
 _atom_site_label
 _atom_site_symmetry_multiplicity
 _atom_site_fract_x
 _atom_site_fract_y
 _atom_site_fract_z
 _atom_site_occupancy
  Nd  Nd0  1  0.256353  0.922891  0.937471  1
  Nd  Nd1  1  0.756353  0.422891  0.562529  1
  Nd  Nd2  1  0.743647  0.422891  0.062529  1
  Nd  Nd3  1  0.743647  0.077109  0.062529  1
  Nd  Nd4  1  0.756353  0.077109  0.562529  1
  Nd  Nd5  1  0.243647  0.922891  0.437471  1
  Nd  Nd6  1  0.256353  0.577109  0.937471  1
  Nd  Nd7  1  0.243647  0.577109  0.437471  1
  Te  Te8  1  0.226944  0.588812  0.169425  1
  Te  Te9  1  0.713677  0.750000  0.546313  1
  Te  Te10  1  0.213677  0.250000  0.953687  1
  Te  Te11  1  0.726944  0.411188  0.330575  1
  Te  Te12  1  0.786323  0.750000  0.046313  1
  Te  Te13  1  0.273056  0.588812  0.669425  1
  Te  Te14  1  0.273056  0.911188  0.669425  1
  Te  Te15  1  0.773056  0.088812  0.830575  1
  Te  Te16  1  0.773056  0.411188  0.830575  1
  Te  Te17  1  0.226944  0.911188  0.169425  1
  Te  Te18  1  0.726944  0.088812  0.330575  1
  Te  Te19  1  0.286323  0.250000  0.453687  1
  Mo  Mo20  1  0.741215  0.750000  0.319231  1
  Mo  Mo21  1  0.258785  0.250000  0.680769  1
  Mo  Mo22  1  0.758785  0.750000  0.819231  1
  Mo  Mo23  1  0.241215  0.250000  0.180769  1
  O  O24  1  0.516372  0.250000  0.534600  1
  O  O25  1  0.953521  0.879274  0.828312  1
  O  O26  1  0.605717  0.617361  0.009901  1
  O  O27  1  0.356656  0.250000  0.270800  1
  O  O28  1  0.983628  0.250000  0.034600  1
  O  O29  1  0.967384  0.984800  0.659306  1
  O  O30  1  0.046479  0.120726  0.171688  1
  O  O31  1  0.394283  0.117361  0.990099  1
  O  O32  1  0.546479  0.879274  0.328312  1
  O  O33  1  0.415852  0.933060  0.573655  1
  O  O34  1  0.517864  0.250000  0.122266  1
  O  O35  1  0.605717  0.882639  0.009901  1
  O  O36  1  0.017864  0.750000  0.377734  1
  O  O37  1  0.584148  0.066940  0.426345  1
  O  O38  1  0.467384  0.484800  0.840694  1
  O  O39  1  0.146724  0.750000  0.644226  1
  O  O40  1  0.394283  0.382639  0.990099  1
  O  O41  1  0.415852  0.566940  0.573655  1
  O  O42  1  0.546479  0.620726  0.328312  1
  O  O43  1  0.046479  0.379274  0.171688  1
  O  O44  1  0.032616  0.484800  0.340694  1
  O  O45  1  0.643344  0.750000  0.729200  1
  O  O46  1  0.915852  0.433060  0.926345  1
  O  O47  1  0.894283  0.882639  0.509901  1
  O  O48  1  0.143344  0.250000  0.770800  1
  O  O49  1  0.032616  0.015200  0.340694  1
  O  O50  1  0.532616  0.515200  0.159306  1
  O  O51  1  0.084148  0.566940  0.073655  1
  O  O52  1  0.453521  0.379274  0.671688  1
  O  O53  1  0.105717  0.117361  0.490099  1
  O  O54  1  0.467384  0.015200  0.840694  1
  O  O55  1  0.105717  0.382639  0.490099  1
  O  O56  1  0.532616  0.984800  0.159306  1
  O  O57  1  0.856656  0.750000  0.229200  1
  O  O58  1  0.453521  0.120726  0.671688  1
  O  O59  1  0.953521  0.620726  0.828312  1
  O  O60  1  0.982136  0.250000  0.622266  1
  O  O61  1  0.915852  0.066940  0.926345  1
  O  O62  1  0.894283  0.617361  0.509901  1
  O  O63  1  0.853276  0.250000  0.355774  1
  O  O64  1  0.646724  0.250000  0.855774  1
  O  O65  1  0.482136  0.750000  0.877734  1
  O  O66  1  0.353276  0.750000  0.144226  1
  O  O67  1  0.016372  0.750000  0.965400  1
  O  O68  1  0.967384  0.515200  0.659306  1
  O  O69  1  0.084148  0.933060  0.073655  1
  O  O70  1  0.584148  0.433060  0.426345  1
  O  O71  1  0.483628  0.750000  0.465400  1
