# generated using pymatgen
data_LiV2P5O16
_symmetry_space_group_name_H-M   'P 1'
_cell_length_a   5.08218745
_cell_length_b   6.81572554
_cell_length_c   18.86099784
_cell_angle_alpha   90.00000000
_cell_angle_beta   90.22202578
_cell_angle_gamma   90.00000000
_symmetry_Int_Tables_number   1
_chemical_formula_structural   LiV2P5O16
_chemical_formula_sum   'Li2 V4 P10 O32'
_cell_volume   653.31732912
_cell_formula_units_Z   2
loop_
 _symmetry_equiv_pos_site_id
 _symmetry_equiv_pos_as_xyz
  1  'x, y, z'
loop_
 _atom_site_type_symbol
 _atom_site_label
 _atom_site_symmetry_multiplicity
 _atom_site_fract_x
 _atom_site_fract_y
 _atom_site_fract_z
 _atom_site_occupancy
  Li  Li0  1  0.729652  0.348470  0.470759  1
  Li  Li1  1  0.729652  0.651530  0.970759  1
  V  V2  1  0.732780  0.817679  0.407057  1
  V  V3  1  0.732780  0.182321  0.907057  1
  V  V4  1  0.258371  0.821161  0.093096  1
  V  V5  1  0.258371  0.178839  0.593096  1
  P  P6  1  0.250066  0.526413  0.369528  1
  P  P7  1  0.250066  0.473587  0.869528  1
  P  P8  1  0.747177  0.534454  0.130237  1
  P  P9  1  0.227444  0.873685  0.920379  1
  P  P10  1  0.747177  0.465546  0.630237  1
  P  P11  1  0.009066  0.258724  0.750394  1
  P  P12  1  0.009066  0.741276  0.250394  1
  P  P13  1  0.772255  0.871302  0.577675  1
  P  P14  1  0.227444  0.126315  0.420379  1
  P  P15  1  0.772255  0.128698  0.077675  1
  O  O16  1  0.851058  0.151207  0.805320  1
  O  O17  1  0.053838  0.944774  0.569792  1
  O  O18  1  0.216425  0.597123  0.288995  1
  O  O19  1  0.036580  0.391299  0.916235  1
  O  O20  1  0.392148  0.962220  0.388886  1
  O  O21  1  0.851058  0.848793  0.305320  1
  O  O22  1  0.392148  0.037780  0.888886  1
  O  O23  1  0.036580  0.608701  0.416235  1
  O  O24  1  0.816343  0.589575  0.210917  1
  O  O25  1  0.929012  0.364394  0.577489  1
  O  O26  1  0.218886  0.296315  0.358962  1
  O  O27  1  0.798252  0.306379  0.135450  1
  O  O28  1  0.929012  0.635606  0.077489  1
  O  O29  1  0.158348  0.858687  0.197297  1
  O  O30  1  0.816343  0.410425  0.710917  1
  O  O31  1  0.533198  0.558448  0.392040  1
  O  O32  1  0.935064  0.920062  0.930967  1
  O  O33  1  0.584415  0.017463  0.610778  1
  O  O34  1  0.584415  0.982537  0.110778  1
  O  O35  1  0.358539  0.221616  0.485838  1
  O  O36  1  0.935064  0.079938  0.430967  1
  O  O37  1  0.458452  0.428118  0.617555  1
  O  O38  1  0.053838  0.055226  0.069792  1
  O  O39  1  0.673929  0.773499  0.509328  1
  O  O40  1  0.218886  0.703685  0.858962  1
  O  O41  1  0.673929  0.226501  0.009328  1
  O  O42  1  0.158348  0.141313  0.697297  1
  O  O43  1  0.216425  0.402877  0.788995  1
  O  O44  1  0.358539  0.778384  0.985838  1
  O  O45  1  0.798252  0.693621  0.635450  1
  O  O46  1  0.533198  0.441552  0.892040  1
  O  O47  1  0.458452  0.571882  0.117555  1
