# generated using pymatgen
data_NaV6O11
_symmetry_space_group_name_H-M   'P 1'
_cell_length_a   5.91421508
_cell_length_b   5.91421508
_cell_length_c   13.28001585
_cell_angle_alpha   90.00000000
_cell_angle_beta   90.00000000
_cell_angle_gamma   120.79969767
_symmetry_Int_Tables_number   1
_chemical_formula_structural   NaV6O11
_chemical_formula_sum   'Na2 V12 O22'
_cell_volume   398.99465382
_cell_formula_units_Z   2
loop_
 _symmetry_equiv_pos_site_id
 _symmetry_equiv_pos_as_xyz
  1  'x, y, z'
loop_
 _atom_site_type_symbol
 _atom_site_label
 _atom_site_symmetry_multiplicity
 _atom_site_fract_x
 _atom_site_fract_y
 _atom_site_fract_z
 _atom_site_occupancy
  Na  Na0  1  0.663719  0.336281  0.234594  1
  Na  Na1  1  0.336281  0.663719  0.734594  1
  V  V2  1  0.498921  0.999282  0.000094  1
  V  V3  1  0.669237  0.330763  0.752524  1
  V  V4  1  0.000718  0.501079  0.000094  1
  V  V5  1  0.998134  0.001866  0.853800  1
  V  V6  1  0.000678  0.999322  0.145543  1
  V  V7  1  0.999322  0.000678  0.645543  1
  V  V8  1  0.498856  0.501144  0.000079  1
  V  V9  1  0.330763  0.669237  0.252524  1
  V  V10  1  0.501079  0.000718  0.500094  1
  V  V11  1  0.501144  0.498856  0.500079  1
  V  V12  1  0.001866  0.998134  0.353800  1
  V  V13  1  0.999282  0.498921  0.500094  1
  O  O14  1  0.174241  0.825759  0.924172  1
  O  O15  1  0.302015  0.157372  0.750785  1
  O  O16  1  0.672324  0.327676  0.588122  1
  O  O17  1  0.345273  0.163023  0.423074  1
  O  O18  1  0.163023  0.345273  0.923074  1
  O  O19  1  0.328792  0.671208  0.412222  1
  O  O20  1  0.176835  0.823165  0.578300  1
  O  O21  1  0.167246  0.347725  0.578371  1
  O  O22  1  0.671208  0.328792  0.912222  1
  O  O23  1  0.347725  0.167246  0.078371  1
  O  O24  1  0.840130  0.159870  0.749995  1
  O  O25  1  0.836977  0.654727  0.423074  1
  O  O26  1  0.823165  0.176835  0.078300  1
  O  O27  1  0.825759  0.174241  0.424172  1
  O  O28  1  0.327676  0.672324  0.088122  1
  O  O29  1  0.697985  0.842628  0.250785  1
  O  O30  1  0.832754  0.652275  0.078371  1
  O  O31  1  0.842628  0.697985  0.750785  1
  O  O32  1  0.159870  0.840130  0.249995  1
  O  O33  1  0.157372  0.302015  0.250785  1
  O  O34  1  0.654727  0.836977  0.923074  1
  O  O35  1  0.652275  0.832754  0.578371  1
