# generated using pymatgen
data_Nb2Tl3CuSe12
_symmetry_space_group_name_H-M   'P 1'
_cell_length_a   9.83325147
_cell_length_b   13.76184282
_cell_length_c   17.32591190
_cell_angle_alpha   90.00000000
_cell_angle_beta   118.60255973
_cell_angle_gamma   90.00000000
_symmetry_Int_Tables_number   1
_chemical_formula_structural   Nb2Tl3CuSe12
_chemical_formula_sum   'Nb8 Tl12 Cu4 Se48'
_cell_volume   2058.47385981
_cell_formula_units_Z   4
loop_
 _symmetry_equiv_pos_site_id
 _symmetry_equiv_pos_as_xyz
  1  'x, y, z'
loop_
 _atom_site_type_symbol
 _atom_site_label
 _atom_site_symmetry_multiplicity
 _atom_site_fract_x
 _atom_site_fract_y
 _atom_site_fract_z
 _atom_site_occupancy
  Nb  Nb0  1  0.908237  0.222128  0.582814  1
  Nb  Nb1  1  0.091763  0.722128  0.917186  1
  Nb  Nb2  1  0.091763  0.777872  0.417186  1
  Nb  Nb3  1  0.908237  0.277872  0.082814  1
  Nb  Nb4  1  0.715439  0.724427  0.221387  1
  Nb  Nb5  1  0.284561  0.224427  0.278613  1
  Nb  Nb6  1  0.284561  0.275573  0.778613  1
  Nb  Nb7  1  0.715439  0.775573  0.721387  1
  Tl  Tl8  1  0.398149  0.592356  0.265278  1
  Tl  Tl9  1  0.742976  0.579829  0.000785  1
  Tl  Tl10  1  0.167767  0.623321  0.642916  1
  Tl  Tl11  1  0.257024  0.079829  0.499215  1
  Tl  Tl12  1  0.398149  0.907644  0.765278  1
  Tl  Tl13  1  0.257024  0.420171  0.999215  1
  Tl  Tl14  1  0.832233  0.123321  0.857084  1
  Tl  Tl15  1  0.601851  0.092356  0.234722  1
  Tl  Tl16  1  0.601851  0.407644  0.734722  1
  Tl  Tl17  1  0.167767  0.876679  0.142916  1
  Tl  Tl18  1  0.742976  0.920171  0.500785  1
  Tl  Tl19  1  0.832233  0.376679  0.357084  1
  Cu  Cu20  1  0.606822  0.188055  0.427674  1
  Cu  Cu21  1  0.606822  0.311945  0.927674  1
  Cu  Cu22  1  0.393178  0.688055  0.072326  1
  Cu  Cu23  1  0.393178  0.811945  0.572326  1
  Se  Se24  1  0.862710  0.605620  0.823123  1
  Se  Se25  1  0.137290  0.394380  0.176877  1
  Se  Se26  1  0.890621  0.430430  0.168521  1
  Se  Se27  1  0.169664  0.224274  0.878793  1
  Se  Se28  1  0.109379  0.930430  0.331479  1
  Se  Se29  1  0.430302  0.291704  0.198559  1
  Se  Se30  1  0.583206  0.932182  0.659121  1
  Se  Se31  1  0.507282  0.114077  0.013679  1
  Se  Se32  1  0.006913  0.321121  0.750665  1
  Se  Se33  1  0.504524  0.643753  0.632723  1
  Se  Se34  1  0.104738  0.909266  0.936555  1
  Se  Se35  1  0.492718  0.885923  0.986321  1
  Se  Se36  1  0.416794  0.432182  0.840879  1
  Se  Se37  1  0.104738  0.590734  0.436555  1
  Se  Se38  1  0.583206  0.567818  0.159121  1
  Se  Se39  1  0.633319  0.231009  0.572907  1
  Se  Se40  1  0.507282  0.385923  0.513679  1
  Se  Se41  1  0.109379  0.569570  0.831479  1
  Se  Se42  1  0.851565  0.834933  0.893078  1
  Se  Se43  1  0.830336  0.724274  0.621207  1
  Se  Se44  1  0.504524  0.856247  0.132723  1
  Se  Se45  1  0.143066  0.839726  0.562905  1
  Se  Se46  1  0.143066  0.660274  0.062905  1
  Se  Se47  1  0.856934  0.339726  0.937095  1
  Se  Se48  1  0.895262  0.090734  0.063445  1
  Se  Se49  1  0.006913  0.178879  0.250665  1
  Se  Se50  1  0.416794  0.067818  0.340879  1
  Se  Se51  1  0.137290  0.105620  0.676877  1
  Se  Se52  1  0.495476  0.143753  0.867277  1
  Se  Se53  1  0.851565  0.665067  0.393078  1
  Se  Se54  1  0.993087  0.678879  0.249335  1
  Se  Se55  1  0.633319  0.268991  0.072907  1
  Se  Se56  1  0.830336  0.775726  0.121207  1
  Se  Se57  1  0.366681  0.768991  0.427093  1
  Se  Se58  1  0.492718  0.614077  0.486321  1
  Se  Se59  1  0.993087  0.821121  0.749335  1
  Se  Se60  1  0.169664  0.275726  0.378793  1
  Se  Se61  1  0.430302  0.208296  0.698559  1
  Se  Se62  1  0.862710  0.894380  0.323123  1
  Se  Se63  1  0.495476  0.356247  0.367277  1
  Se  Se64  1  0.890621  0.069570  0.668521  1
  Se  Se65  1  0.366681  0.731009  0.927093  1
  Se  Se66  1  0.148435  0.165067  0.106922  1
  Se  Se67  1  0.569698  0.708296  0.801441  1
  Se  Se68  1  0.856934  0.160274  0.437095  1
  Se  Se69  1  0.148435  0.334933  0.606922  1
  Se  Se70  1  0.895262  0.409266  0.563445  1
  Se  Se71  1  0.569698  0.791704  0.301441  1
