# generated using pymatgen
data_Li2Ni(PO4)2
_symmetry_space_group_name_H-M   'P 1'
_cell_length_a   4.93857934
_cell_length_b   17.48941689
_cell_length_c   6.69133127
_cell_angle_alpha   90.00000000
_cell_angle_beta   94.08901458
_cell_angle_gamma   90.00000000
_symmetry_Int_Tables_number   1
_chemical_formula_structural   Li2Ni(PO4)2
_chemical_formula_sum   'Li8 Ni4 P8 O32'
_cell_volume   576.47831924
_cell_formula_units_Z   4
loop_
 _symmetry_equiv_pos_site_id
 _symmetry_equiv_pos_as_xyz
  1  'x, y, z'
loop_
 _atom_site_type_symbol
 _atom_site_label
 _atom_site_symmetry_multiplicity
 _atom_site_fract_x
 _atom_site_fract_y
 _atom_site_fract_z
 _atom_site_occupancy
  Li  Li0  1  0.424506  0.121937  0.804153  1
  Li  Li1  1  0.575494  0.621937  0.195847  1
  Li  Li2  1  0.542372  0.447330  0.469937  1
  Li  Li3  1  0.457628  0.947330  0.530063  1
  Li  Li4  1  0.985593  0.387271  0.220707  1
  Li  Li5  1  0.953621  0.198838  0.572504  1
  Li  Li6  1  0.014407  0.887271  0.779293  1
  Li  Li7  1  0.046379  0.698838  0.427496  1
  Ni  Ni8  1  0.442932  0.124096  0.257116  1
  Ni  Ni9  1  0.557068  0.624096  0.742884  1
  Ni  Ni10  1  0.947859  0.369426  0.766645  1
  Ni  Ni11  1  0.052141  0.869426  0.233355  1
  P  P12  1  0.470894  0.461140  0.971043  1
  P  P13  1  0.425200  0.287287  0.529441  1
  P  P14  1  0.529106  0.961140  0.028957  1
  P  P15  1  0.574800  0.787287  0.470559  1
  P  P16  1  0.937431  0.210845  0.034741  1
  P  P17  1  0.953458  0.038853  0.478376  1
  P  P18  1  0.062569  0.710845  0.965259  1
  P  P19  1  0.046542  0.538853  0.521624  1
  O  O20  1  0.262190  0.299806  0.717218  1
  O  O21  1  0.317916  0.347628  0.376385  1
  O  O22  1  0.357844  0.550301  0.533179  1
  O  O23  1  0.396032  0.928166  0.210718  1
  O  O24  1  0.359179  0.203150  0.471609  1
  O  O25  1  0.380284  0.939448  0.826733  1
  O  O26  1  0.471590  0.550124  0.966322  1
  O  O27  1  0.528410  0.050124  0.033678  1
  O  O28  1  0.619716  0.439448  0.173267  1
  O  O29  1  0.603968  0.428166  0.789282  1
  O  O30  1  0.640821  0.703150  0.528391  1
  O  O31  1  0.642156  0.050301  0.466821  1
  O  O32  1  0.682084  0.847628  0.623615  1
  O  O33  1  0.737810  0.799806  0.282782  1
  O  O34  1  0.763040  0.686219  0.963883  1
  O  O35  1  0.735229  0.298315  0.568104  1
  O  O36  1  0.812692  0.181409  0.231760  1
  O  O37  1  0.783891  0.178130  0.842896  1
  O  O38  1  0.828774  0.933792  0.028109  1
  O  O39  1  0.899440  0.298288  0.026444  1
  O  O40  1  0.925092  0.569797  0.718407  1
  O  O41  1  0.917481  0.585073  0.344271  1
  O  O42  1  0.028304  0.952914  0.484741  1
  O  O43  1  0.971696  0.452914  0.515259  1
  O  O44  1  0.100560  0.798288  0.973556  1
  O  O45  1  0.082519  0.085073  0.655729  1
  O  O46  1  0.074908  0.069797  0.281593  1
  O  O47  1  0.171226  0.433792  0.971891  1
  O  O48  1  0.216109  0.678130  0.157104  1
  O  O49  1  0.187308  0.681409  0.768240  1
  O  O50  1  0.236960  0.186219  0.036117  1
  O  O51  1  0.264771  0.798315  0.431896  1
