# generated using pymatgen
data_Ce2WC2
_symmetry_space_group_name_H-M   'P 1'
_cell_length_a   5.67729756
_cell_length_b   5.67729756
_cell_length_c   10.41354638
_cell_angle_alpha   90.00000000
_cell_angle_beta   90.00000000
_cell_angle_gamma   90.00000000
_symmetry_Int_Tables_number   1
_chemical_formula_structural   Ce2WC2
_chemical_formula_sum   'Ce8 W4 C8'
_cell_volume   335.64638184
_cell_formula_units_Z   4
loop_
 _symmetry_equiv_pos_site_id
 _symmetry_equiv_pos_as_xyz
  1  'x, y, z'
loop_
 _atom_site_type_symbol
 _atom_site_label
 _atom_site_symmetry_multiplicity
 _atom_site_fract_x
 _atom_site_fract_y
 _atom_site_fract_z
 _atom_site_occupancy
  Ce  Ce0  1  0.184211  0.184211  0.344505  1
  Ce  Ce1  1  0.315789  0.684211  0.844505  1
  Ce  Ce2  1  0.684211  0.315789  0.844505  1
  Ce  Ce3  1  0.684211  0.315789  0.155495  1
  Ce  Ce4  1  0.315789  0.684211  0.155495  1
  Ce  Ce5  1  0.184211  0.184211  0.655495  1
  Ce  Ce6  1  0.815789  0.815789  0.344505  1
  Ce  Ce7  1  0.815789  0.815789  0.655495  1
  W  W8  1  0.320535  0.679465  0.500000  1
  W  W9  1  0.820535  0.820535  0.000000  1
  W  W10  1  0.179465  0.179465  0.000000  1
  W  W11  1  0.679465  0.320535  0.500000  1
  C  C12  1  0.000000  0.000000  0.145272  1
  C  C13  1  0.500000  0.500000  0.645272  1
  C  C14  1  0.500000  0.000000  0.500000  1
  C  C15  1  0.500000  0.500000  0.354728  1
  C  C16  1  0.000000  0.000000  0.854728  1
  C  C17  1  0.500000  0.000000  0.000000  1
  C  C18  1  0.000000  0.500000  0.000000  1
  C  C19  1  0.000000  0.500000  0.500000  1
