# generated using pymatgen
data_Ag15P4S16Cl3
_symmetry_space_group_name_H-M   'P 1'
_cell_length_a   13.04682113
_cell_length_b   13.04682113
_cell_length_c   13.04682113
_cell_angle_alpha   109.47122063
_cell_angle_beta   109.47122063
_cell_angle_gamma   109.47122063
_symmetry_Int_Tables_number   1
_chemical_formula_structural   Ag15P4S16Cl3
_chemical_formula_sum   'Ag30 P8 S32 Cl6'
_cell_volume   1709.59104432
_cell_formula_units_Z   2
loop_
 _symmetry_equiv_pos_site_id
 _symmetry_equiv_pos_as_xyz
  1  'x, y, z'
loop_
 _atom_site_type_symbol
 _atom_site_label
 _atom_site_symmetry_multiplicity
 _atom_site_fract_x
 _atom_site_fract_y
 _atom_site_fract_z
 _atom_site_occupancy
  Ag  Ag0  1  0.627019  0.781653  0.587974  1
  Ag  Ag1  1  0.875000  0.125000  0.750000  1
  Ag  Ag2  1  0.460955  0.154634  0.872981  1
  Ag  Ag3  1  0.912026  0.693680  0.039045  1
  Ag  Ag4  1  0.539045  0.193680  0.412026  1
  Ag  Ag5  1  0.654634  0.960955  0.372981  1
  Ag  Ag6  1  0.872981  0.460955  0.154634  1
  Ag  Ag7  1  0.127019  0.087974  0.281653  1
  Ag  Ag8  1  0.039045  0.912026  0.693680  1
  Ag  Ag9  1  0.345366  0.806320  0.718347  1
  Ag  Ag10  1  0.412026  0.539045  0.193680  1
  Ag  Ag11  1  0.125000  0.750000  0.875000  1
  Ag  Ag12  1  0.781653  0.587974  0.627019  1
  Ag  Ag13  1  0.845366  0.218347  0.306320  1
  Ag  Ag14  1  0.693680  0.039045  0.912026  1
  Ag  Ag15  1  0.281653  0.127019  0.087974  1
  Ag  Ag16  1  0.372981  0.654634  0.960955  1
  Ag  Ag17  1  0.960955  0.372981  0.654634  1
  Ag  Ag18  1  0.750000  0.875000  0.125000  1
  Ag  Ag19  1  0.625000  0.375000  0.250000  1
  Ag  Ag20  1  0.306320  0.845366  0.218347  1
  Ag  Ag21  1  0.718347  0.345366  0.806320  1
  Ag  Ag22  1  0.154634  0.872981  0.460955  1
  Ag  Ag23  1  0.087974  0.281653  0.127019  1
  Ag  Ag24  1  0.587974  0.627019  0.781653  1
  Ag  Ag25  1  0.806320  0.718347  0.345366  1
  Ag  Ag26  1  0.250000  0.625000  0.375000  1
  Ag  Ag27  1  0.193680  0.412026  0.539045  1
  Ag  Ag28  1  0.218347  0.306320  0.845366  1
  Ag  Ag29  1  0.375000  0.250000  0.625000  1
  P  P30  1  0.399730  0.399730  0.399730  1
  P  P31  1  0.100270  0.500000  0.000000  1
  P  P32  1  0.000000  0.600270  0.500000  1
  P  P33  1  0.000000  0.100270  0.500000  1
  P  P34  1  0.500000  0.000000  0.600270  1
  P  P35  1  0.500000  0.000000  0.100270  1
  P  P36  1  0.899730  0.899730  0.899730  1
  P  P37  1  0.600270  0.500000  0.000000  1
  S  S38  1  0.081707  0.322099  0.947578  1
  S  S39  1  0.947578  0.081707  0.322099  1
  S  S40  1  0.443038  0.500000  0.000000  1
  S  S41  1  0.759609  0.677901  0.125479  1
  S  S42  1  0.634129  0.374521  0.052422  1
  S  S43  1  0.943038  0.500000  0.000000  1
  S  S44  1  0.056962  0.056962  0.056962  1
  S  S45  1  0.259609  0.625479  0.177901  1
  S  S46  1  0.000000  0.943038  0.500000  1
  S  S47  1  0.240391  0.418293  0.365871  1
  S  S48  1  0.134129  0.552422  0.874521  1
  S  S49  1  0.581707  0.447578  0.822099  1
  S  S50  1  0.500000  0.000000  0.943038  1
  S  S51  1  0.125479  0.759609  0.677901  1
  S  S52  1  0.418293  0.365871  0.240391  1
  S  S53  1  0.447578  0.822099  0.581707  1
  S  S54  1  0.322099  0.947578  0.081707  1
  S  S55  1  0.740391  0.865871  0.918293  1
  S  S56  1  0.865871  0.918293  0.740391  1
  S  S57  1  0.677901  0.125479  0.759609  1
  S  S58  1  0.500000  0.000000  0.443038  1
  S  S59  1  1.000000  0.443038  0.500000  1
  S  S60  1  0.052422  0.634129  0.374521  1
  S  S61  1  0.822099  0.581707  0.447578  1
  S  S62  1  0.365871  0.240391  0.418293  1
  S  S63  1  0.556962  0.556962  0.556962  1
  S  S64  1  0.177901  0.259609  0.625479  1
  S  S65  1  0.374521  0.052422  0.634129  1
  S  S66  1  0.625479  0.177901  0.259609  1
  S  S67  1  0.552422  0.874521  0.134129  1
  S  S68  1  0.918293  0.740391  0.865871  1
  S  S69  1  0.874521  0.134129  0.552422  1
  Cl  Cl70  1  0.250000  0.125000  0.875000  1
  Cl  Cl71  1  0.375000  0.625000  0.750000  1
  Cl  Cl72  1  0.625000  0.750000  0.375000  1
  Cl  Cl73  1  0.875000  0.250000  0.125000  1
  Cl  Cl74  1  0.750000  0.375000  0.625000  1
  Cl  Cl75  1  0.125000  0.875000  0.250000  1
