# generated using pymatgen
data_Rb7Au5O2
_symmetry_space_group_name_H-M   'P 1'
_cell_length_a   10.15256714
_cell_length_b   10.15256714
_cell_length_c   10.15256714
_cell_angle_alpha   146.74731647
_cell_angle_beta   124.34041962
_cell_angle_gamma   66.39874159
_symmetry_Int_Tables_number   1
_chemical_formula_structural   Rb7Au5O2
_chemical_formula_sum   'Rb7 Au5 O2'
_cell_volume   467.87490113
_cell_formula_units_Z   1
loop_
 _symmetry_equiv_pos_site_id
 _symmetry_equiv_pos_as_xyz
  1  'x, y, z'
loop_
 _atom_site_type_symbol
 _atom_site_label
 _atom_site_symmetry_multiplicity
 _atom_site_fract_x
 _atom_site_fract_y
 _atom_site_fract_z
 _atom_site_occupancy
  Rb  Rb0  1  0.611921  0.833901  0.778020  1
  Rb  Rb1  1  0.788857  0.500000  0.288857  1
  Rb  Rb2  1  0.055881  0.833901  0.221980  1
  Rb  Rb3  1  0.388079  0.166099  0.221980  1
  Rb  Rb4  1  0.944119  0.166099  0.778020  1
  Rb  Rb5  1  0.211143  0.500000  0.711143  1
  Rb  Rb6  1  0.500000  1.000000  0.500000  1
  Au  Au7  1  0.651762  0.651762  0.000000  1
  Au  Au8  1  0.807090  0.307090  0.500000  1
  Au  Au9  1  0.000000  0.000000  0.000000  1
  Au  Au10  1  0.348238  0.348238  0.000000  1
  Au  Au11  1  0.192910  0.692910  0.500000  1
  O  O12  1  0.784632  1.000000  0.784632  1
  O  O13  1  0.215368  1.000000  0.215368  1
