# generated using pymatgen
data_AlPO4
_symmetry_space_group_name_H-M   'P 1'
_cell_length_a   9.46890507
_cell_length_b   9.46890507
_cell_length_c   18.78603322
_cell_angle_alpha   89.82151690
_cell_angle_beta   90.17848310
_cell_angle_gamma   94.44650676
_symmetry_Int_Tables_number   1
_chemical_formula_structural   AlPO4
_chemical_formula_sum   'Al12 P12 O48'
_cell_volume   1679.27401551
_cell_formula_units_Z   12
loop_
 _symmetry_equiv_pos_site_id
 _symmetry_equiv_pos_as_xyz
  1  'x, y, z'
loop_
 _atom_site_type_symbol
 _atom_site_label
 _atom_site_symmetry_multiplicity
 _atom_site_fract_x
 _atom_site_fract_y
 _atom_site_fract_z
 _atom_site_occupancy
  Al  Al0  1  0.928021  0.149667  0.165924  1
  Al  Al1  1  0.149667  0.928021  0.334076  1
  Al  Al2  1  0.071979  0.850333  0.834076  1
  Al  Al3  1  0.850333  0.071979  0.665924  1
  Al  Al4  1  0.656848  0.891036  0.938372  1
  Al  Al5  1  0.891036  0.656848  0.561628  1
  Al  Al6  1  0.343152  0.108964  0.061628  1
  Al  Al7  1  0.108964  0.343152  0.438372  1
  Al  Al8  1  0.133683  0.675509  0.050292  1
  Al  Al9  1  0.675509  0.133683  0.449708  1
  Al  Al10  1  0.866317  0.324491  0.949708  1
  Al  Al11  1  0.324491  0.866317  0.550292  1
  P  P12  1  0.673943  0.132185  0.054053  1
  P  P13  1  0.132185  0.673943  0.445947  1
  P  P14  1  0.326057  0.867815  0.945947  1
  P  P15  1  0.867815  0.326057  0.554053  1
  P  P16  1  0.880859  0.658793  0.937324  1
  P  P17  1  0.658793  0.880859  0.562676  1
  P  P18  1  0.119141  0.341207  0.062676  1
  P  P19  1  0.341207  0.119141  0.437324  1
  P  P20  1  0.148501  0.915301  0.165494  1
  P  P21  1  0.915301  0.148501  0.334506  1
  P  P22  1  0.851499  0.084699  0.834506  1
  P  P23  1  0.084699  0.851499  0.665494  1
  O  O24  1  0.127012  0.769228  0.130147  1
  O  O25  1  0.769228  0.127012  0.369853  1
  O  O26  1  0.872988  0.230772  0.869853  1
  O  O27  1  0.230772  0.872988  0.630147  1
  O  O28  1  0.973765  0.688057  0.004018  1
  O  O29  1  0.688057  0.973765  0.495982  1
  O  O30  1  0.026235  0.311943  0.995982  1
  O  O31  1  0.311943  0.026235  0.504018  1
  O  O32  1  0.745749  0.736826  0.944892  1
  O  O33  1  0.736826  0.745749  0.555108  1
  O  O34  1  0.254251  0.263174  0.055108  1
  O  O35  1  0.263174  0.254251  0.444892  1
  O  O36  1  0.679048  0.986418  0.018129  1
  O  O37  1  0.986418  0.679048  0.481871  1
  O  O38  1  0.320952  0.013582  0.981871  1
  O  O39  1  0.013582  0.320952  0.518129  1
  O  O40  1  0.766694  0.135207  0.121003  1
  O  O41  1  0.135207  0.766694  0.378997  1
  O  O42  1  0.233306  0.864793  0.878997  1
  O  O43  1  0.864793  0.233306  0.621003  1
  O  O44  1  0.012036  0.992208  0.155642  1
  O  O45  1  0.992208  0.012036  0.344358  1
  O  O46  1  0.987964  0.007792  0.844358  1
  O  O47  1  0.007792  0.987964  0.655642  1
  O  O48  1  0.275377  0.002809  0.132074  1
  O  O49  1  0.002809  0.275377  0.367926  1
  O  O50  1  0.724623  0.997191  0.867926  1
  O  O51  1  0.997191  0.724623  0.632074  1
  O  O52  1  0.162026  0.499862  0.069711  1
  O  O53  1  0.499862  0.162026  0.430289  1
  O  O54  1  0.837974  0.500138  0.930289  1
  O  O55  1  0.500138  0.837974  0.569711  1
  O  O56  1  0.894328  0.180491  0.255371  1
  O  O57  1  0.180491  0.894328  0.244629  1
  O  O58  1  0.105672  0.819509  0.744629  1
  O  O59  1  0.819509  0.105672  0.755371  1
  O  O60  1  0.477645  0.843654  0.923202  1
  O  O61  1  0.843654  0.477645  0.576798  1
  O  O62  1  0.522355  0.156346  0.076798  1
  O  O63  1  0.156346  0.522355  0.423202  1
  O  O64  1  0.962390  0.709398  0.869777  1
  O  O65  1  0.709398  0.962390  0.630223  1
  O  O66  1  0.037610  0.290602  0.130223  1
  O  O67  1  0.290602  0.037610  0.369777  1
  O  O68  1  0.273831  0.748654  0.997748  1
  O  O69  1  0.748654  0.273831  0.502252  1
  O  O70  1  0.726169  0.251346  0.002252  1
  O  O71  1  0.251346  0.726169  0.497748  1
