# generated using pymatgen
data_K(Mo6S7)2
_symmetry_space_group_name_H-M   'P 1'
_cell_length_a   9.27955278
_cell_length_b   9.27955278
_cell_length_c   16.48243373
_cell_angle_alpha   90.00000000
_cell_angle_beta   90.00000000
_cell_angle_gamma   120.00000000
_symmetry_Int_Tables_number   1
_chemical_formula_structural   K(Mo6S7)2
_chemical_formula_sum   'K2 Mo24 S28'
_cell_volume   1229.15333245
_cell_formula_units_Z   2
loop_
 _symmetry_equiv_pos_site_id
 _symmetry_equiv_pos_as_xyz
  1  'x, y, z'
loop_
 _atom_site_type_symbol
 _atom_site_label
 _atom_site_symmetry_multiplicity
 _atom_site_fract_x
 _atom_site_fract_y
 _atom_site_fract_z
 _atom_site_occupancy
  K  K0  1  0.666667  0.333333  0.750000  1
  K  K1  1  0.333333  0.666667  0.250000  1
  Mo  Mo2  1  0.668813  0.503175  0.316069  1
  Mo  Mo3  1  0.653463  0.158159  0.458142  1
  Mo  Mo4  1  0.496825  0.165638  0.316069  1
  Mo  Mo5  1  0.346537  0.504696  0.958142  1
  Mo  Mo6  1  0.158159  0.653463  0.958142  1
  Mo  Mo7  1  0.346537  0.841841  0.541858  1
  Mo  Mo8  1  0.504696  0.346537  0.458142  1
  Mo  Mo9  1  0.841841  0.495304  0.458142  1
  Mo  Mo10  1  0.668813  0.165638  0.183931  1
  Mo  Mo11  1  0.834362  0.331187  0.316069  1
  Mo  Mo12  1  0.495304  0.841841  0.958142  1
  Mo  Mo13  1  0.331187  0.496825  0.683931  1
  Mo  Mo14  1  0.495304  0.653463  0.541858  1
  Mo  Mo15  1  0.504696  0.158159  0.041858  1
  Mo  Mo16  1  0.834362  0.503175  0.183931  1
  Mo  Mo17  1  0.158159  0.504696  0.541858  1
  Mo  Mo18  1  0.503175  0.834362  0.683931  1
  Mo  Mo19  1  0.331187  0.834362  0.816069  1
  Mo  Mo20  1  0.653463  0.495304  0.041858  1
  Mo  Mo21  1  0.841841  0.346537  0.041858  1
  Mo  Mo22  1  0.165638  0.496825  0.816069  1
  Mo  Mo23  1  0.496825  0.331187  0.183931  1
  Mo  Mo24  1  0.165638  0.668813  0.683931  1
  Mo  Mo25  1  0.503175  0.668813  0.816069  1
  S  S26  1  0.339298  0.362155  0.818700  1
  S  S27  1  0.362155  0.339298  0.318700  1
  S  S28  1  0.957587  0.309402  0.442615  1
  S  S29  1  0.362155  0.022857  0.181300  1
  S  S30  1  0.637845  0.977143  0.818700  1
  S  S31  1  0.351815  0.042413  0.442615  1
  S  S32  1  0.637845  0.660702  0.681300  1
  S  S33  1  0.690598  0.648185  0.442615  1
  S  S34  1  0.666667  0.333333  0.568138  1
  S  S35  1  0.351815  0.309402  0.057385  1
  S  S36  1  0.339298  0.977143  0.681300  1
  S  S37  1  0.957587  0.648185  0.057385  1
  S  S38  1  0.648185  0.690598  0.942615  1
  S  S39  1  0.977143  0.637845  0.318700  1
  S  S40  1  0.660702  0.637845  0.181300  1
  S  S41  1  0.690598  0.042413  0.057385  1
  S  S42  1  0.333333  0.666667  0.431862  1
  S  S43  1  0.666667  0.333333  0.931862  1
  S  S44  1  0.022857  0.660702  0.818700  1
  S  S45  1  0.977143  0.339298  0.181300  1
  S  S46  1  0.042413  0.690598  0.557385  1
  S  S47  1  0.042413  0.351815  0.942615  1
  S  S48  1  0.309402  0.957587  0.942615  1
  S  S49  1  0.333333  0.666667  0.068138  1
  S  S50  1  0.022857  0.362155  0.681300  1
  S  S51  1  0.309402  0.351815  0.557385  1
  S  S52  1  0.660702  0.022857  0.318700  1
  S  S53  1  0.648185  0.957587  0.557385  1
