# generated using pymatgen
data_Cs5CaNi4F15
_symmetry_space_group_name_H-M   'P 1'
_cell_length_a   6.31489217
_cell_length_b   6.31489217
_cell_length_c   25.59410873
_cell_angle_alpha   90.00000000
_cell_angle_beta   90.00000000
_cell_angle_gamma   120.00000000
_symmetry_Int_Tables_number   1
_chemical_formula_structural   Cs5CaNi4F15
_chemical_formula_sum   'Cs10 Ca2 Ni8 F30'
_cell_volume   883.89875169
_cell_formula_units_Z   2
loop_
 _symmetry_equiv_pos_site_id
 _symmetry_equiv_pos_as_xyz
  1  'x, y, z'
loop_
 _atom_site_type_symbol
 _atom_site_label
 _atom_site_symmetry_multiplicity
 _atom_site_fract_x
 _atom_site_fract_y
 _atom_site_fract_z
 _atom_site_occupancy
  Cs  Cs0  1  0.666667  0.333333  0.941956  1
  Cs  Cs1  1  0.000000  0.000000  0.845030  1
  Cs  Cs2  1  0.000000  0.000000  0.154970  1
  Cs  Cs3  1  0.333333  0.666667  0.058044  1
  Cs  Cs4  1  0.333333  0.666667  0.441956  1
  Cs  Cs5  1  0.000000  0.000000  0.654970  1
  Cs  Cs6  1  0.666667  0.333333  0.750000  1
  Cs  Cs7  1  0.666667  0.333333  0.558044  1
  Cs  Cs8  1  0.333333  0.666667  0.250000  1
  Cs  Cs9  1  0.000000  0.000000  0.345030  1
  Ca  Ca10  1  0.000000  0.000000  0.000000  1
  Ca  Ca11  1  0.000000  0.000000  0.500000  1
  Ni  Ni12  1  0.666667  0.333333  0.090697  1
  Ni  Ni13  1  0.333333  0.666667  0.697239  1
  Ni  Ni14  1  0.333333  0.666667  0.909303  1
  Ni  Ni15  1  0.666667  0.333333  0.409303  1
  Ni  Ni16  1  0.666667  0.333333  0.302761  1
  Ni  Ni17  1  0.333333  0.666667  0.590697  1
  Ni  Ni18  1  0.666667  0.333333  0.197239  1
  Ni  Ni19  1  0.333333  0.666667  0.802761  1
  F  F20  1  0.525790  0.474210  0.353927  1
  F  F21  1  0.474210  0.948420  0.646073  1
  F  F22  1  0.824939  0.649878  0.450656  1
  F  F23  1  0.948420  0.474210  0.353927  1
  F  F24  1  0.474210  0.525790  0.646073  1
  F  F25  1  0.474210  0.948420  0.853927  1
  F  F26  1  0.175061  0.350122  0.549344  1
  F  F27  1  0.948420  0.474210  0.146073  1
  F  F28  1  0.649878  0.824939  0.549344  1
  F  F29  1  0.807913  0.615826  0.250000  1
  F  F30  1  0.384174  0.192087  0.250000  1
  F  F31  1  0.175061  0.824939  0.549344  1
  F  F32  1  0.824939  0.175061  0.450656  1
  F  F33  1  0.824939  0.649878  0.049344  1
  F  F34  1  0.051580  0.525790  0.646073  1
  F  F35  1  0.649878  0.824939  0.950656  1
  F  F36  1  0.615826  0.807913  0.750000  1
  F  F37  1  0.051580  0.525790  0.853927  1
  F  F38  1  0.175061  0.824939  0.950656  1
  F  F39  1  0.807913  0.192087  0.250000  1
  F  F40  1  0.525790  0.051580  0.353927  1
  F  F41  1  0.525790  0.474210  0.146073  1
  F  F42  1  0.350122  0.175061  0.049344  1
  F  F43  1  0.175061  0.350122  0.950656  1
  F  F44  1  0.350122  0.175061  0.450656  1
  F  F45  1  0.192087  0.807913  0.750000  1
  F  F46  1  0.525790  0.051580  0.146073  1
  F  F47  1  0.192087  0.384174  0.750000  1
  F  F48  1  0.474210  0.525790  0.853927  1
  F  F49  1  0.824939  0.175061  0.049344  1
