# generated using pymatgen
data_Ca2BClO3
_symmetry_space_group_name_H-M   'P 1'
_cell_length_a   3.98374856
_cell_length_b   8.75360895
_cell_length_c   12.51664776
_cell_angle_alpha   90.00000000
_cell_angle_beta   100.31796328
_cell_angle_gamma   90.00000000
_symmetry_Int_Tables_number   1
_chemical_formula_structural   Ca2BClO3
_chemical_formula_sum   'Ca8 B4 Cl4 O12'
_cell_volume   429.42436420
_cell_formula_units_Z   4
loop_
 _symmetry_equiv_pos_site_id
 _symmetry_equiv_pos_as_xyz
  1  'x, y, z'
loop_
 _atom_site_type_symbol
 _atom_site_label
 _atom_site_symmetry_multiplicity
 _atom_site_fract_x
 _atom_site_fract_y
 _atom_site_fract_z
 _atom_site_occupancy
  Ca  Ca0  1  0.670504  0.620861  0.116558  1
  Ca  Ca1  1  0.329496  0.379139  0.883442  1
  Ca  Ca2  1  0.706685  0.117989  0.139531  1
  Ca  Ca3  1  0.670504  0.879139  0.616558  1
  Ca  Ca4  1  0.293315  0.617989  0.360469  1
  Ca  Ca5  1  0.706685  0.382011  0.639531  1
  Ca  Ca6  1  0.293315  0.882011  0.860469  1
  Ca  Ca7  1  0.329496  0.120861  0.383442  1
  B  B8  1  0.710142  0.633591  0.844298  1
  B  B9  1  0.710142  0.866409  0.344298  1
  B  B10  1  0.289858  0.366409  0.155702  1
  B  B11  1  0.289858  0.133591  0.655702  1
  Cl  Cl12  1  0.200170  0.874807  0.087146  1
  Cl  Cl13  1  0.799830  0.125193  0.912854  1
  Cl  Cl14  1  0.799830  0.374807  0.412854  1
  Cl  Cl15  1  0.200170  0.625193  0.587146  1
  O  O16  1  0.801219  0.489565  0.812378  1
  O  O17  1  0.198781  0.989565  0.687622  1
  O  O18  1  0.775755  0.769594  0.794830  1
  O  O19  1  0.519188  0.640992  0.927505  1
  O  O20  1  0.801219  0.010435  0.312378  1
  O  O21  1  0.775755  0.730406  0.294830  1
  O  O22  1  0.198781  0.510435  0.187622  1
  O  O23  1  0.224245  0.269594  0.705170  1
  O  O24  1  0.480812  0.359008  0.072495  1
  O  O25  1  0.480812  0.140992  0.572495  1
  O  O26  1  0.519188  0.859008  0.427505  1
  O  O27  1  0.224245  0.230406  0.205170  1
