# generated using pymatgen
data_Ba6Hf5S16
_symmetry_space_group_name_H-M   'P 1'
_cell_length_a   28.10845667
_cell_length_b   28.10845667
_cell_length_c   28.10845667
_cell_angle_alpha   169.78399590
_cell_angle_beta   169.78399590
_cell_angle_gamma   14.46688012
_symmetry_Int_Tables_number   1
_chemical_formula_structural   Ba6Hf5S16
_chemical_formula_sum   'Ba6 Hf5 S16'
_cell_volume   698.56488488
_cell_formula_units_Z   1
loop_
 _symmetry_equiv_pos_site_id
 _symmetry_equiv_pos_as_xyz
  1  'x, y, z'
loop_
 _atom_site_type_symbol
 _atom_site_label
 _atom_site_symmetry_multiplicity
 _atom_site_fract_x
 _atom_site_fract_y
 _atom_site_fract_z
 _atom_site_occupancy
  Ba  Ba0  1  0.717892  0.717892  0.000000  1
  Ba  Ba1  1  0.367230  0.367230  0.000000  1
  Ba  Ba2  1  0.544504  0.544504  0.000000  1
  Ba  Ba3  1  0.632770  0.632770  0.000000  1
  Ba  Ba4  1  0.455496  0.455496  0.000000  1
  Ba  Ba5  1  0.282108  0.282108  0.000000  1
  Hf  Hf6  1  0.909589  0.909589  0.000000  1
  Hf  Hf7  1  0.000000  0.000000  0.000000  1
  Hf  Hf8  1  0.818638  0.818638  0.000000  1
  Hf  Hf9  1  0.181362  0.181362  0.000000  1
  Hf  Hf10  1  0.090411  0.090411  0.000000  1
  S  S11  1  0.774078  0.774078  0.000000  1
  S  S12  1  0.954945  0.954945  0.000000  1
  S  S13  1  0.178950  0.678950  0.500000  1
  S  S14  1  0.910133  0.410133  0.500000  1
  S  S15  1  0.410133  0.910133  0.500000  1
  S  S16  1  0.821050  0.321050  0.500000  1
  S  S17  1  0.678950  0.178950  0.500000  1
  S  S18  1  0.321050  0.821050  0.500000  1
  S  S19  1  0.089867  0.589867  0.500000  1
  S  S20  1  0.134986  0.134986  0.000000  1
  S  S21  1  0.865014  0.865014  0.000000  1
  S  S22  1  0.225922  0.225922  0.000000  1
  S  S23  1  0.589867  0.089867  0.500000  1
  S  S24  1  0.500000  0.000000  0.500000  1
  S  S25  1  0.045055  0.045055  0.000000  1
  S  S26  1  0.000000  0.500000  0.500000  1
