# generated using pymatgen
data_Bi2(PSe3)3
_symmetry_space_group_name_H-M   'P 1'
_cell_length_a   6.97134932
_cell_length_b   12.46791377
_cell_length_c   18.25460193
_cell_angle_alpha   94.29139988
_cell_angle_beta   90.38878118
_cell_angle_gamma   91.58834984
_symmetry_Int_Tables_number   1
_chemical_formula_structural   Bi2(PSe3)3
_chemical_formula_sum   'Bi8 P12 Se36'
_cell_volume   1581.53802853
_cell_formula_units_Z   4
loop_
 _symmetry_equiv_pos_site_id
 _symmetry_equiv_pos_as_xyz
  1  'x, y, z'
loop_
 _atom_site_type_symbol
 _atom_site_label
 _atom_site_symmetry_multiplicity
 _atom_site_fract_x
 _atom_site_fract_y
 _atom_site_fract_z
 _atom_site_occupancy
  Bi  Bi0  1  0.522654  0.396856  0.382272  1
  Bi  Bi1  1  0.064083  0.467372  0.810331  1
  Bi  Bi2  1  0.435283  0.975573  0.312179  1
  Bi  Bi3  1  0.983702  0.904130  0.886281  1
  Bi  Bi4  1  0.016298  0.095870  0.113719  1
  Bi  Bi5  1  0.564717  0.024427  0.687821  1
  Bi  Bi6  1  0.935917  0.532628  0.189669  1
  Bi  Bi7  1  0.477346  0.603144  0.617728  1
  P  P8  1  0.564954  0.920668  0.512539  1
  P  P9  1  0.547187  0.252402  0.180548  1
  P  P10  1  0.059177  0.488463  0.442298  1
  P  P11  1  0.048855  0.163776  0.771765  1
  P  P12  1  0.431475  0.412751  0.152660  1
  P  P13  1  0.929521  0.175210  0.886876  1
  P  P14  1  0.951145  0.836224  0.228235  1
  P  P15  1  0.452813  0.747598  0.819452  1
  P  P16  1  0.435046  0.079332  0.487461  1
  P  P17  1  0.568525  0.587249  0.847340  1
  P  P18  1  0.940823  0.511537  0.557702  1
  P  P19  1  0.070479  0.824790  0.113124  1
  Se  Se20  1  0.162255  0.382525  0.087966  1
  Se  Se21  1  0.303155  0.187630  0.242659  1
  Se  Se22  1  0.679549  0.060844  0.886123  1
  Se  Se23  1  0.304396  0.271034  0.776642  1
  Se  Se24  1  0.175821  0.781819  0.299504  1
  Se  Se25  1  0.695604  0.728966  0.223358  1
  Se  Se26  1  0.647212  0.148551  0.412934  1
  Se  Se27  1  0.330730  0.591568  0.445647  1
  Se  Se28  1  0.135116  0.654498  0.084255  1
  Se  Se29  1  0.373913  0.167285  0.593861  1
  Se  Se30  1  0.647845  0.487800  0.082504  1
  Se  Se31  1  0.122785  0.318799  0.417342  1
  Se  Se32  1  0.204567  0.699605  0.746307  1
  Se  Se33  1  0.352155  0.512200  0.917496  1
  Se  Se34  1  0.795433  0.300395  0.253693  1
  Se  Se35  1  0.864884  0.345502  0.915745  1
  Se  Se36  1  0.884789  0.011420  0.250366  1
  Se  Se37  1  0.840288  0.560836  0.373623  1
  Se  Se38  1  0.696845  0.812370  0.757341  1
  Se  Se39  1  0.669270  0.408432  0.554353  1
  Se  Se40  1  0.115211  0.988580  0.749634  1
  Se  Se41  1  0.352788  0.851449  0.587066  1
  Se  Se42  1  0.320451  0.939156  0.113877  1
  Se  Se43  1  0.386682  0.835040  0.924732  1
  Se  Se44  1  0.877215  0.681201  0.582658  1
  Se  Se45  1  0.835668  0.896046  0.048083  1
  Se  Se46  1  0.172456  0.031747  0.422113  1
  Se  Se47  1  0.378981  0.510541  0.258699  1
  Se  Se48  1  0.621019  0.489459  0.741301  1
  Se  Se49  1  0.837745  0.617475  0.912034  1
  Se  Se50  1  0.159712  0.439164  0.626377  1
  Se  Se51  1  0.827544  0.968253  0.577887  1
  Se  Se52  1  0.626087  0.832715  0.406139  1
  Se  Se53  1  0.613318  0.164960  0.075268  1
  Se  Se54  1  0.164332  0.103954  0.951917  1
  Se  Se55  1  0.824179  0.218181  0.700496  1
