# generated using pymatgen
data_Na2Th(PO4)2
_symmetry_space_group_name_H-M   'P 1'
_cell_length_a   11.53147207
_cell_length_b   11.53147207
_cell_length_c   9.26760732
_cell_angle_alpha   83.59479139
_cell_angle_beta   96.40520861
_cell_angle_gamma   35.96730001
_symmetry_Int_Tables_number   1
_chemical_formula_structural   Na2Th(PO4)2
_chemical_formula_sum   'Na8 Th4 P8 O32'
_cell_volume   674.89201057
_cell_formula_units_Z   4
loop_
 _symmetry_equiv_pos_site_id
 _symmetry_equiv_pos_as_xyz
  1  'x, y, z'
loop_
 _atom_site_type_symbol
 _atom_site_label
 _atom_site_symmetry_multiplicity
 _atom_site_fract_x
 _atom_site_fract_y
 _atom_site_fract_z
 _atom_site_occupancy
  Na  Na0  1  0.708519  0.911704  0.545112  1
  Na  Na1  1  0.312175  0.561735  0.007032  1
  Na  Na2  1  0.911704  0.708519  0.954888  1
  Na  Na3  1  0.561735  0.312175  0.492968  1
  Na  Na4  1  0.687825  0.438265  0.992968  1
  Na  Na5  1  0.088296  0.291481  0.045112  1
  Na  Na6  1  0.291481  0.088296  0.454888  1
  Na  Na7  1  0.438265  0.687825  0.507032  1
  Th  Th8  1  0.928201  0.928201  0.250000  1
  Th  Th9  1  0.071799  0.071799  0.750000  1
  Th  Th10  1  0.296234  0.296234  0.750000  1
  Th  Th11  1  0.703766  0.703766  0.250000  1
  P  P12  1  0.117439  0.750321  0.619664  1
  P  P13  1  0.750321  0.117439  0.880336  1
  P  P14  1  0.882561  0.249679  0.380336  1
  P  P15  1  0.128546  0.492993  0.352372  1
  P  P16  1  0.871454  0.507007  0.647628  1
  P  P17  1  0.507007  0.871454  0.852372  1
  P  P18  1  0.249679  0.882561  0.119664  1
  P  P19  1  0.492993  0.128546  0.147628  1
  O  O20  1  0.759512  0.341392  0.494906  1
  O  O21  1  0.207219  0.816117  0.228482  1
  O  O22  1  0.118106  0.046776  0.485815  1
  O  O23  1  0.450271  0.055682  0.249748  1
  O  O24  1  0.421730  0.839194  0.756197  1
  O  O25  1  0.046776  0.118106  0.014185  1
  O  O26  1  0.330424  0.292141  0.493853  1
  O  O27  1  0.401590  0.842686  0.223448  1
  O  O28  1  0.160806  0.578270  0.256197  1
  O  O29  1  0.058116  0.332933  0.589729  1
  O  O30  1  0.341392  0.759512  0.005094  1
  O  O31  1  0.240488  0.658608  0.505094  1
  O  O32  1  0.598410  0.157314  0.776552  1
  O  O33  1  0.549729  0.944318  0.750252  1
  O  O34  1  0.881894  0.953224  0.514185  1
  O  O35  1  0.332933  0.058116  0.910271  1
  O  O36  1  0.669576  0.707859  0.506147  1
  O  O37  1  0.667067  0.941884  0.089729  1
  O  O38  1  0.839194  0.421730  0.743803  1
  O  O39  1  0.578270  0.160806  0.243803  1
  O  O40  1  0.292141  0.330424  0.006147  1
  O  O41  1  0.944318  0.549729  0.749748  1
  O  O42  1  0.941884  0.667067  0.410271  1
  O  O43  1  0.157314  0.598410  0.723448  1
  O  O44  1  0.707859  0.669576  0.993853  1
  O  O45  1  0.953224  0.881894  0.985815  1
  O  O46  1  0.183883  0.792781  0.728482  1
  O  O47  1  0.055682  0.450271  0.250252  1
  O  O48  1  0.816117  0.207219  0.271518  1
  O  O49  1  0.658608  0.240488  0.994906  1
  O  O50  1  0.842686  0.401590  0.276552  1
  O  O51  1  0.792781  0.183883  0.771518  1
