# generated using pymatgen
data_CsSi2HO5
_symmetry_space_group_name_H-M   'P 1'
_cell_length_a   5.04919696
_cell_length_b   8.98412872
_cell_length_c   13.04073080
_cell_angle_alpha   90.00000000
_cell_angle_beta   90.00000000
_cell_angle_gamma   90.00000000
_symmetry_Int_Tables_number   1
_chemical_formula_structural   CsSi2HO5
_chemical_formula_sum   'Cs4 Si8 H4 O20'
_cell_volume   591.56191644
_cell_formula_units_Z   4
loop_
 _symmetry_equiv_pos_site_id
 _symmetry_equiv_pos_as_xyz
  1  'x, y, z'
loop_
 _atom_site_type_symbol
 _atom_site_label
 _atom_site_symmetry_multiplicity
 _atom_site_fract_x
 _atom_site_fract_y
 _atom_site_fract_z
 _atom_site_occupancy
  Cs  Cs0  1  0.067117  0.750000  0.941839  1
  Cs  Cs1  1  0.567117  0.750000  0.558161  1
  Cs  Cs2  1  0.432883  0.250000  0.441839  1
  Cs  Cs3  1  0.932883  0.250000  0.058161  1
  Si  Si4  1  0.030164  0.071166  0.683496  1
  Si  Si5  1  0.969836  0.571166  0.316504  1
  Si  Si6  1  0.469836  0.571166  0.183496  1
  Si  Si7  1  0.969836  0.928834  0.316504  1
  Si  Si8  1  0.530164  0.428834  0.816504  1
  Si  Si9  1  0.469836  0.928834  0.183496  1
  Si  Si10  1  0.530164  0.071166  0.816504  1
  Si  Si11  1  0.030164  0.428834  0.683496  1
  H  H12  1  0.500000  0.500000  0.000000  1
  H  H13  1  0.500000  0.000000  0.000000  1
  H  H14  1  0.000000  0.500000  0.500000  1
  H  H15  1  0.000000  0.000000  0.500000  1
  O  O16  1  0.396512  0.474838  0.083573  1
  O  O17  1  0.726165  0.033254  0.722123  1
  O  O18  1  0.603488  0.525162  0.916427  1
  O  O19  1  0.546873  0.250000  0.845895  1
  O  O20  1  0.273835  0.966746  0.277877  1
  O  O21  1  0.953127  0.750000  0.345895  1
  O  O22  1  0.226165  0.466746  0.777877  1
  O  O23  1  0.226165  0.033254  0.777877  1
  O  O24  1  0.896512  0.025162  0.416427  1
  O  O25  1  0.726165  0.466746  0.722123  1
  O  O26  1  0.603488  0.974838  0.916427  1
  O  O27  1  0.103488  0.974838  0.583573  1
  O  O28  1  0.773835  0.533254  0.222123  1
  O  O29  1  0.103488  0.525162  0.583573  1
  O  O30  1  0.773835  0.966746  0.222123  1
  O  O31  1  0.046873  0.250000  0.654105  1
  O  O32  1  0.273835  0.533254  0.277877  1
  O  O33  1  0.453127  0.750000  0.154105  1
  O  O34  1  0.396512  0.025162  0.083573  1
  O  O35  1  0.896512  0.474838  0.416427  1
