# generated using pymatgen
data_Th(GeOs)2
_symmetry_space_group_name_H-M   'P 1'
_cell_length_a   5.86303754
_cell_length_b   5.86303754
_cell_length_c   5.86303754
_cell_angle_alpha   136.81194802
_cell_angle_beta   136.81194802
_cell_angle_gamma   62.72751756
_symmetry_Int_Tables_number   1
_chemical_formula_structural   Th(GeOs)2
_chemical_formula_sum   'Th1 Ge2 Os2'
_cell_volume   93.23645288
_cell_formula_units_Z   1
loop_
 _symmetry_equiv_pos_site_id
 _symmetry_equiv_pos_as_xyz
  1  'x, y, z'
loop_
 _atom_site_type_symbol
 _atom_site_label
 _atom_site_symmetry_multiplicity
 _atom_site_fract_x
 _atom_site_fract_y
 _atom_site_fract_z
 _atom_site_occupancy
  Th  Th0  1  0.000000  0.000000  0.000000  1
  Ge  Ge1  1  0.371345  0.371345  0.000000  1
  Ge  Ge2  1  0.628655  0.628655  0.000000  1
  Os  Os3  1  0.250000  0.750000  0.500000  1
  Os  Os4  1  0.750000  0.250000  0.500000  1
