# generated using pymatgen
data_Na2NbAsO6
_symmetry_space_group_name_H-M   'P 1'
_cell_length_a   9.23160306
_cell_length_b   9.23160306
_cell_length_c   7.42882589
_cell_angle_alpha   75.27834095
_cell_angle_beta   104.72165905
_cell_angle_gamma   106.96516677
_symmetry_Int_Tables_number   1
_chemical_formula_structural   Na2NbAsO6
_chemical_formula_sum   'Na8 Nb4 As4 O24'
_cell_volume   574.48227722
_cell_formula_units_Z   4
loop_
 _symmetry_equiv_pos_site_id
 _symmetry_equiv_pos_as_xyz
  1  'x, y, z'
loop_
 _atom_site_type_symbol
 _atom_site_label
 _atom_site_symmetry_multiplicity
 _atom_site_fract_x
 _atom_site_fract_y
 _atom_site_fract_z
 _atom_site_occupancy
  Na  Na0  1  0.351736  0.070423  0.059572  1
  Na  Na1  1  0.929577  0.648264  0.559572  1
  Na  Na2  1  0.648264  0.929577  0.940428  1
  Na  Na3  1  0.005115  0.005115  0.250000  1
  Na  Na4  1  0.070423  0.351736  0.440428  1
  Na  Na5  1  0.546350  0.546350  0.750000  1
  Na  Na6  1  0.994885  0.994885  0.750000  1
  Na  Na7  1  0.453650  0.453650  0.250000  1
  Nb  Nb8  1  0.708257  0.286772  0.616128  1
  Nb  Nb9  1  0.713228  0.291743  0.116128  1
  Nb  Nb10  1  0.286772  0.708257  0.883872  1
  Nb  Nb11  1  0.291743  0.713228  0.383872  1
  As  As12  1  0.059013  0.316054  0.953289  1
  As  As13  1  0.683946  0.940987  0.453289  1
  As  As14  1  0.316054  0.059013  0.546711  1
  As  As15  1  0.940987  0.683946  0.046711  1
  O  O16  1  0.519718  0.319632  0.061896  1
  O  O17  1  0.480282  0.680368  0.938104  1
  O  O18  1  0.523283  0.791102  0.496038  1
  O  O19  1  0.126729  0.160473  0.971959  1
  O  O20  1  0.210502  0.686597  0.624597  1
  O  O21  1  0.789498  0.313403  0.375403  1
  O  O22  1  0.953057  0.359765  0.724308  1
  O  O23  1  0.839527  0.873271  0.471959  1
  O  O24  1  0.686597  0.210502  0.875403  1
  O  O25  1  0.313403  0.789498  0.124597  1
  O  O26  1  0.359765  0.953057  0.775692  1
  O  O27  1  0.319632  0.519718  0.438104  1
  O  O28  1  0.791102  0.523283  0.003962  1
  O  O29  1  0.955991  0.276835  0.131344  1
  O  O30  1  0.723165  0.044009  0.631344  1
  O  O31  1  0.873271  0.839527  0.028041  1
  O  O32  1  0.208898  0.476717  0.996038  1
  O  O33  1  0.044009  0.723165  0.868656  1
  O  O34  1  0.160473  0.126729  0.528041  1
  O  O35  1  0.680368  0.480282  0.561896  1
  O  O36  1  0.046943  0.640235  0.275692  1
  O  O37  1  0.276835  0.955991  0.368656  1
  O  O38  1  0.476717  0.208898  0.503962  1
  O  O39  1  0.640235  0.046943  0.224308  1
