# generated using pymatgen
data_ZnBi2B2O7
_symmetry_space_group_name_H-M   'P 1'
_cell_length_a   4.95292205
_cell_length_b   10.95786558
_cell_length_c   11.12700829
_cell_angle_alpha   90.00000000
_cell_angle_beta   90.00000000
_cell_angle_gamma   90.00000000
_symmetry_Int_Tables_number   1
_chemical_formula_structural   ZnBi2B2O7
_chemical_formula_sum   'Zn4 Bi8 B8 O28'
_cell_volume   603.90117316
_cell_formula_units_Z   4
loop_
 _symmetry_equiv_pos_site_id
 _symmetry_equiv_pos_as_xyz
  1  'x, y, z'
loop_
 _atom_site_type_symbol
 _atom_site_label
 _atom_site_symmetry_multiplicity
 _atom_site_fract_x
 _atom_site_fract_y
 _atom_site_fract_z
 _atom_site_occupancy
  Zn  Zn0  1  0.069958  0.741473  0.240237  1
  Zn  Zn1  1  0.069958  0.241473  0.259763  1
  Zn  Zn2  1  0.069958  0.258527  0.759763  1
  Zn  Zn3  1  0.069958  0.758527  0.740237  1
  Bi  Bi4  1  0.581684  0.320165  0.032711  1
  Bi  Bi5  1  0.577952  0.514961  0.312750  1
  Bi  Bi6  1  0.577952  0.485039  0.687250  1
  Bi  Bi7  1  0.581684  0.679835  0.967289  1
  Bi  Bi8  1  0.577952  0.985039  0.812750  1
  Bi  Bi9  1  0.581684  0.179835  0.532711  1
  Bi  Bi10  1  0.581684  0.820165  0.467289  1
  Bi  Bi11  1  0.577952  0.014961  0.187250  1
  B  B12  1  0.124735  0.514325  0.873235  1
  B  B13  1  0.080804  0.384514  0.479917  1
  B  B14  1  0.124735  0.985675  0.373235  1
  B  B15  1  0.080804  0.884514  0.020083  1
  B  B16  1  0.124735  0.014325  0.626765  1
  B  B17  1  0.080804  0.115486  0.979917  1
  B  B18  1  0.080804  0.615486  0.520083  1
  B  B19  1  0.124735  0.485675  0.126765  1
  O  O20  1  0.956984  0.500000  0.500000  1
  O  O21  1  0.216379  0.500000  0.000000  1
  O  O22  1  0.930381  0.196450  0.915372  1
  O  O23  1  0.930381  0.696450  0.584628  1
  O  O24  1  0.737782  0.199614  0.174472  1
  O  O25  1  0.956984  0.000000  0.000000  1
  O  O26  1  0.829436  0.478926  0.140172  1
  O  O27  1  0.248423  0.086983  0.299967  1
  O  O28  1  0.829436  0.521074  0.859828  1
  O  O29  1  0.216379  0.000000  0.500000  1
  O  O30  1  0.737782  0.300386  0.674472  1
  O  O31  1  0.930381  0.803550  0.084628  1
  O  O32  1  0.930381  0.303550  0.415372  1
  O  O33  1  0.267179  0.871300  0.326737  1
  O  O34  1  0.267179  0.128700  0.673263  1
  O  O35  1  0.335935  0.634556  0.477968  1
  O  O36  1  0.335935  0.865444  0.977968  1
  O  O37  1  0.335935  0.134556  0.022032  1
  O  O38  1  0.248423  0.586983  0.200033  1
  O  O39  1  0.248423  0.913017  0.700033  1
  O  O40  1  0.829436  0.978926  0.359828  1
  O  O41  1  0.335935  0.365444  0.522032  1
  O  O42  1  0.737782  0.699614  0.325528  1
  O  O43  1  0.248423  0.413017  0.799967  1
  O  O44  1  0.829436  0.021074  0.640172  1
  O  O45  1  0.737782  0.800386  0.825528  1
  O  O46  1  0.267179  0.371300  0.173263  1
  O  O47  1  0.267179  0.628700  0.826737  1
