# generated using pymatgen
data_Sm2(CN2)3
_symmetry_space_group_name_H-M   'P 1'
_cell_length_a   7.61573598
_cell_length_b   7.61573598
_cell_length_c   5.31056730
_cell_angle_alpha   83.89183766
_cell_angle_beta   96.10816234
_cell_angle_gamma   150.11265797
_symmetry_Int_Tables_number   1
_chemical_formula_structural   Sm2(CN2)3
_chemical_formula_sum   'Sm2 C3 N6'
_cell_volume   152.54656958
_cell_formula_units_Z   1
loop_
 _symmetry_equiv_pos_site_id
 _symmetry_equiv_pos_as_xyz
  1  'x, y, z'
loop_
 _atom_site_type_symbol
 _atom_site_label
 _atom_site_symmetry_multiplicity
 _atom_site_fract_x
 _atom_site_fract_y
 _atom_site_fract_z
 _atom_site_occupancy
  Sm  Sm0  1  0.134527  0.865473  0.071142  1
  Sm  Sm1  1  0.865473  0.134527  0.928858  1
  C  C2  1  0.672054  0.327946  0.593865  1
  C  C3  1  0.327946  0.672054  0.406135  1
  C  C4  1  0.000000  0.000000  0.500000  1
  N  N5  1  0.010913  0.989087  0.733505  1
  N  N6  1  0.310472  0.689528  0.170487  1
  N  N7  1  0.342435  0.657565  0.636731  1
  N  N8  1  0.989087  0.010913  0.266495  1
  N  N9  1  0.689528  0.310472  0.829513  1
  N  N10  1  0.657565  0.342435  0.363269  1
