# generated using pymatgen
data_Ba2Nd7Si11N23
_symmetry_space_group_name_H-M   'P 1'
_cell_length_a   12.85148244
_cell_length_b   12.85148244
_cell_length_c   9.76711769
_cell_angle_alpha   90.00000000
_cell_angle_beta   90.00000000
_cell_angle_gamma   129.20851084
_symmetry_Int_Tables_number   1
_chemical_formula_structural   Ba2Nd7Si11N23
_chemical_formula_sum   'Ba4 Nd14 Si22 N46'
_cell_volume   1249.94483770
_cell_formula_units_Z   2
loop_
 _symmetry_equiv_pos_site_id
 _symmetry_equiv_pos_as_xyz
  1  'x, y, z'
loop_
 _atom_site_type_symbol
 _atom_site_label
 _atom_site_symmetry_multiplicity
 _atom_site_fract_x
 _atom_site_fract_y
 _atom_site_fract_z
 _atom_site_occupancy
  Ba  Ba0  1  0.000000  0.000000  0.791186  1
  Ba  Ba1  1  0.333973  0.333973  0.000000  1
  Ba  Ba2  1  0.666027  0.666027  0.000000  1
  Ba  Ba3  1  0.000000  0.000000  0.208814  1
  Nd  Nd4  1  0.379002  0.620998  0.294921  1
  Nd  Nd5  1  0.500000  0.000000  0.265809  1
  Nd  Nd6  1  0.000000  0.500000  0.265809  1
  Nd  Nd7  1  0.163795  0.836205  0.000000  1
  Nd  Nd8  1  0.680385  0.885947  0.500000  1
  Nd  Nd9  1  0.379002  0.620998  0.705079  1
  Nd  Nd10  1  0.885947  0.680385  0.500000  1
  Nd  Nd11  1  0.620998  0.379002  0.705079  1
  Nd  Nd12  1  0.114053  0.319615  0.500000  1
  Nd  Nd13  1  0.620998  0.379002  0.294921  1
  Nd  Nd14  1  0.836205  0.163795  1.000000  1
  Nd  Nd15  1  0.000000  0.500000  0.734191  1
  Nd  Nd16  1  0.319615  0.114053  0.500000  1
  Nd  Nd17  1  0.500000  0.000000  0.734191  1
  Si  Si18  1  0.173450  0.826550  0.338882  1
  Si  Si19  1  0.116115  0.346907  0.838772  1
  Si  Si20  1  0.173450  0.826550  0.661118  1
  Si  Si21  1  0.651978  0.651978  0.328516  1
  Si  Si22  1  0.285165  0.714835  0.500000  1
  Si  Si23  1  0.570315  0.166854  0.000000  1
  Si  Si24  1  0.714835  0.285165  0.500000  1
  Si  Si25  1  0.116115  0.346907  0.161228  1
  Si  Si26  1  0.826550  0.173450  0.338882  1
  Si  Si27  1  0.166854  0.570315  0.000000  1
  Si  Si28  1  0.429685  0.833146  0.000000  1
  Si  Si29  1  0.348022  0.348022  0.671484  1
  Si  Si30  1  0.346907  0.116115  0.838772  1
  Si  Si31  1  0.826550  0.173450  0.661118  1
  Si  Si32  1  0.348022  0.348022  0.328516  1
  Si  Si33  1  0.883885  0.653093  0.161228  1
  Si  Si34  1  0.833146  0.429685  1.000000  1
  Si  Si35  1  0.651978  0.651978  0.671484  1
  Si  Si36  1  0.346907  0.116115  0.161228  1
  Si  Si37  1  0.653093  0.883885  0.161228  1
  Si  Si38  1  0.653093  0.883885  0.838772  1
  Si  Si39  1  0.883885  0.653093  0.838772  1
  N  N40  1  0.260757  0.739243  0.000000  1
  N  N41  1  0.862420  0.137580  0.500000  1
  N  N42  1  0.734402  0.915168  0.000000  1
  N  N43  1  0.336188  0.216180  0.734213  1
  N  N44  1  0.084832  0.265598  0.000000  1
  N  N45  1  0.721446  0.029158  0.753665  1
  N  N46  1  0.029158  0.721446  0.246335  1
  N  N47  1  0.278554  0.970842  0.246335  1
  N  N48  1  0.192903  0.514762  0.145883  1
  N  N49  1  0.216180  0.336188  0.265787  1
  N  N50  1  0.485238  0.807097  0.854117  1
  N  N51  1  0.500000  0.000000  0.000000  1
  N  N52  1  0.278554  0.970842  0.753665  1
  N  N53  1  0.807097  0.485238  0.145883  1
  N  N54  1  0.970842  0.278554  0.753665  1
  N  N55  1  0.208952  0.540857  0.500000  1
  N  N56  1  0.663812  0.783820  0.734213  1
  N  N57  1  0.514762  0.192903  0.145883  1
  N  N58  1  0.783820  0.663812  0.265787  1
  N  N59  1  0.753005  0.246995  0.649145  1
  N  N60  1  0.514762  0.192903  0.854117  1
  N  N61  1  0.336188  0.216180  0.265787  1
  N  N62  1  0.192903  0.514762  0.854117  1
  N  N63  1  0.663812  0.783820  0.265787  1
  N  N64  1  0.029158  0.721446  0.753665  1
  N  N65  1  0.137580  0.862420  0.500000  1
  N  N66  1  0.970842  0.278554  0.246335  1
  N  N67  1  0.317706  0.317706  0.500000  1
  N  N68  1  0.682294  0.682294  0.500000  1
  N  N69  1  0.807097  0.485238  0.854117  1
  N  N70  1  0.791048  0.459143  0.500000  1
  N  N71  1  0.783820  0.663812  0.734213  1
  N  N72  1  0.721446  0.029158  0.246335  1
  N  N73  1  0.246995  0.753005  0.350855  1
  N  N74  1  0.739243  0.260757  1.000000  1
  N  N75  1  0.246995  0.753005  0.649145  1
  N  N76  1  0.485238  0.807097  0.145883  1
  N  N77  1  0.500000  0.500000  0.274852  1
  N  N78  1  0.459143  0.791048  0.500000  1
  N  N79  1  0.000000  0.500000  0.000000  1
  N  N80  1  0.540857  0.208952  0.500000  1
  N  N81  1  0.500000  0.500000  0.725148  1
  N  N82  1  0.216180  0.336188  0.734213  1
  N  N83  1  0.753005  0.246995  0.350855  1
  N  N84  1  0.915168  0.734402  0.000000  1
  N  N85  1  0.265598  0.084832  0.000000  1
