# generated using pymatgen
data_KBi6ClO9
_symmetry_space_group_name_H-M   'P 1'
_cell_length_a   15.09720775
_cell_length_b   15.09720775
_cell_length_c   15.09720775
_cell_angle_alpha   109.47122063
_cell_angle_beta   109.47122063
_cell_angle_gamma   109.47122063
_symmetry_Int_Tables_number   1
_chemical_formula_structural   KBi6ClO9
_chemical_formula_sum   'K8 Bi48 Cl8 O72'
_cell_volume   2648.91488213
_cell_formula_units_Z   8
loop_
 _symmetry_equiv_pos_site_id
 _symmetry_equiv_pos_as_xyz
  1  'x, y, z'
loop_
 _atom_site_type_symbol
 _atom_site_label
 _atom_site_symmetry_multiplicity
 _atom_site_fract_x
 _atom_site_fract_y
 _atom_site_fract_z
 _atom_site_occupancy
  K  K0  1  1.000000  1.000000  0.500000  1
  K  K1  1  0.500000  0.500000  0.000000  1
  K  K2  1  0.500000  0.500000  0.500000  1
  K  K3  1  0.000000  0.000000  0.000000  1
  K  K4  1  0.500000  1.000000  0.500000  1
  K  K5  1  1.000000  0.500000  0.500000  1
  K  K6  1  0.500000  1.000000  1.000000  1
  K  K7  1  1.000000  0.500000  1.000000  1
  Bi  Bi8  1  0.236059  0.486059  0.750000  1
  Bi  Bi9  1  0.763941  0.750000  0.513941  1
  Bi  Bi10  1  0.750000  0.513941  0.763941  1
  Bi  Bi11  1  0.486059  0.236059  0.250000  1
  Bi  Bi12  1  0.519073  0.269073  0.538145  1
  Bi  Bi13  1  0.519073  0.750000  0.980927  1
  Bi  Bi14  1  0.513941  0.250000  0.763941  1
  Bi  Bi15  1  0.019073  0.038145  0.769073  1
  Bi  Bi16  1  0.750000  0.236059  0.486059  1
  Bi  Bi17  1  0.736059  0.986059  0.750000  1
  Bi  Bi18  1  0.980927  0.961855  0.230927  1
  Bi  Bi19  1  0.980927  0.519073  0.750000  1
  Bi  Bi20  1  0.750000  0.980927  0.519073  1
  Bi  Bi21  1  0.750000  0.013941  0.263941  1
  Bi  Bi22  1  0.730927  0.461855  0.480927  1
  Bi  Bi23  1  0.730927  0.769073  0.250000  1
  Bi  Bi24  1  0.769073  0.019073  0.038145  1
  Bi  Bi25  1  0.230927  0.750000  0.269073  1
  Bi  Bi26  1  0.263941  0.750000  0.013941  1
  Bi  Bi27  1  0.230927  0.980927  0.961855  1
  Bi  Bi28  1  0.236059  0.250000  0.486059  1
  Bi  Bi29  1  0.250000  0.730927  0.769073  1
  Bi  Bi30  1  0.250000  0.019073  0.480927  1
  Bi  Bi31  1  0.480927  0.250000  0.019073  1
  Bi  Bi32  1  0.538145  0.519073  0.269073  1
  Bi  Bi33  1  0.263941  0.013941  0.250000  1
  Bi  Bi34  1  0.461855  0.480927  0.730927  1
  Bi  Bi35  1  0.750000  0.269073  0.230927  1
  Bi  Bi36  1  0.763941  0.513941  0.250000  1
  Bi  Bi37  1  0.513941  0.763941  0.750000  1
  Bi  Bi38  1  0.019073  0.480927  0.250000  1
  Bi  Bi39  1  0.250000  0.263941  0.013941  1
  Bi  Bi40  1  0.750000  0.736059  0.986059  1
  Bi  Bi41  1  0.961855  0.230927  0.980927  1
  Bi  Bi42  1  0.038145  0.769073  0.019073  1
  Bi  Bi43  1  0.250000  0.986059  0.736059  1
  Bi  Bi44  1  0.269073  0.538145  0.519073  1
  Bi  Bi45  1  0.986059  0.750000  0.736059  1
  Bi  Bi46  1  0.013941  0.263941  0.750000  1
  Bi  Bi47  1  0.250000  0.763941  0.513941  1
  Bi  Bi48  1  0.769073  0.250000  0.730927  1
  Bi  Bi49  1  0.986059  0.736059  0.250000  1
  Bi  Bi50  1  0.269073  0.230927  0.750000  1
  Bi  Bi51  1  0.480927  0.730927  0.461855  1
  Bi  Bi52  1  0.250000  0.486059  0.236059  1
  Bi  Bi53  1  0.736059  0.250000  0.986059  1
  Bi  Bi54  1  0.486059  0.750000  0.236059  1
  Bi  Bi55  1  0.013941  0.250000  0.263941  1
  Cl  Cl56  1  0.250000  0.250000  0.250000  1
  Cl  Cl57  1  0.250000  0.500000  0.000000  1
  Cl  Cl58  1  0.500000  1.000000  0.250000  1
  Cl  Cl59  1  0.750000  0.750000  0.750000  1
  Cl  Cl60  1  1.000000  0.750000  0.500000  1
  Cl  Cl61  1  0.500000  1.000000  0.750000  1
  Cl  Cl62  1  1.000000  0.250000  0.500000  1
  Cl  Cl63  1  0.750000  0.500000  0.000000  1
  O  O64  1  0.143905  0.893905  0.787809  1
  O  O65  1  0.643905  0.287809  0.393905  1
  O  O66  1  0.347665  0.287338  0.937548  1
  O  O67  1  0.212662  0.152335  0.562452  1
  O  O68  1  0.937548  0.089883  0.650210  1
  O  O69  1  0.089883  0.939673  0.152335  1
  O  O70  1  0.847665  0.910117  0.060327  1
  O  O71  1  0.589883  0.652335  0.439673  1
  O  O72  1  0.062452  0.652335  0.712662  1
  O  O73  1  0.393905  0.643905  0.287809  1
  O  O74  1  0.652335  0.712662  0.062452  1
  O  O75  1  0.910117  0.060327  0.847665  1
  O  O76  1  0.152335  0.562452  0.212662  1
  O  O77  1  0.287338  0.849790  0.939673  1
  O  O78  1  0.606095  0.356095  0.712191  1
  O  O79  1  0.787809  0.143905  0.893905  1
  O  O80  1  0.787338  0.439673  0.349790  1
  O  O81  1  0.150210  0.589883  0.437548  1
  O  O82  1  0.437548  0.150210  0.589883  1
  O  O83  1  0.349790  0.787338  0.439673  1
  O  O84  1  0.150210  0.060327  0.712662  1
  O  O85  1  0.062452  0.910117  0.349790  1
  O  O86  1  0.152335  0.089883  0.939673  1
  O  O87  1  0.650210  0.937548  0.089883  1
  O  O88  1  0.439673  0.349790  0.787338  1
  O  O89  1  0.439673  0.589883  0.652335  1
  O  O90  1  0.847665  0.437548  0.787338  1
  O  O91  1  0.060327  0.712662  0.150210  1
  O  O92  1  0.712662  0.062452  0.652335  1
  O  O93  1  0.643905  0.856095  0.250000  1
  O  O94  1  0.652335  0.439673  0.589883  1
  O  O95  1  0.939673  0.152335  0.089883  1
  O  O96  1  0.356095  0.712191  0.606095  1
  O  O97  1  0.712191  0.606095  0.356095  1
  O  O98  1  0.937548  0.347665  0.287338  1
  O  O99  1  0.106095  0.393905  0.250000  1
  O  O100  1  0.650210  0.212662  0.560327  1
  O  O101  1  0.287338  0.937548  0.347665  1
  O  O102  1  0.939673  0.287338  0.849790  1
  O  O103  1  0.562452  0.212662  0.152335  1
  O  O104  1  0.437548  0.787338  0.847665  1
  O  O105  1  0.712662  0.150210  0.060327  1
  O  O106  1  0.410117  0.347665  0.560327  1
  O  O107  1  0.250000  0.643905  0.856095  1
  O  O108  1  0.849790  0.410117  0.562452  1
  O  O109  1  0.347665  0.560327  0.410117  1
  O  O110  1  0.562452  0.849790  0.410117  1
  O  O111  1  0.250000  0.106095  0.393905  1
  O  O112  1  0.287809  0.393905  0.643905  1
  O  O113  1  0.560327  0.650210  0.212662  1
  O  O114  1  0.212191  0.856095  0.106095  1
  O  O115  1  0.893905  0.606095  0.750000  1
  O  O116  1  0.893905  0.787809  0.143905  1
  O  O117  1  0.560327  0.410117  0.347665  1
  O  O118  1  0.606095  0.750000  0.893905  1
  O  O119  1  0.910117  0.349790  0.062452  1
  O  O120  1  0.106095  0.212191  0.856095  1
  O  O121  1  0.356095  0.143905  0.750000  1
  O  O122  1  0.393905  0.250000  0.106095  1
  O  O123  1  0.750000  0.356095  0.143905  1
  O  O124  1  0.349790  0.062452  0.910117  1
  O  O125  1  0.849790  0.939673  0.287338  1
  O  O126  1  0.089883  0.650210  0.937548  1
  O  O127  1  0.410117  0.562452  0.849790  1
  O  O128  1  0.787338  0.847665  0.437548  1
  O  O129  1  0.212662  0.560327  0.650210  1
  O  O130  1  0.750000  0.893905  0.606095  1
  O  O131  1  0.589883  0.437548  0.150210  1
  O  O132  1  0.143905  0.750000  0.356095  1
  O  O133  1  0.060327  0.847665  0.910117  1
  O  O134  1  0.856095  0.250000  0.643905  1
  O  O135  1  0.856095  0.106095  0.212191  1
