# generated using pymatgen
data_Mg10Ge3(H2O9)2
_symmetry_space_group_name_H-M   'P 1'
_cell_length_a   5.23150846
_cell_length_b   8.98686037
_cell_length_c   14.34582717
_cell_angle_alpha   90.00000000
_cell_angle_beta   90.00000000
_cell_angle_gamma   90.00000000
_symmetry_Int_Tables_number   1
_chemical_formula_structural   Mg10Ge3(H2O9)2
_chemical_formula_sum   'Mg20 Ge6 H8 O36'
_cell_volume   674.46671246
_cell_formula_units_Z   2
loop_
 _symmetry_equiv_pos_site_id
 _symmetry_equiv_pos_as_xyz
  1  'x, y, z'
loop_
 _atom_site_type_symbol
 _atom_site_label
 _atom_site_symmetry_multiplicity
 _atom_site_fract_x
 _atom_site_fract_y
 _atom_site_fract_z
 _atom_site_occupancy
  Mg  Mg0  1  0.500000  0.175419  0.000000  1
  Mg  Mg1  1  0.339573  0.000000  0.173877  1
  Mg  Mg2  1  0.839573  0.500000  0.326123  1
  Mg  Mg3  1  0.343898  0.675405  0.322096  1
  Mg  Mg4  1  0.000000  0.324581  0.500000  1
  Mg  Mg5  1  0.160427  0.500000  0.673877  1
  Mg  Mg6  1  0.000000  0.659894  0.000000  1
  Mg  Mg7  1  0.656102  0.324595  0.677904  1
  Mg  Mg8  1  0.156102  0.175405  0.822096  1
  Mg  Mg9  1  0.500000  0.824581  0.000000  1
  Mg  Mg10  1  0.000000  0.340106  0.000000  1
  Mg  Mg11  1  0.156102  0.824595  0.822096  1
  Mg  Mg12  1  0.000000  0.675419  0.500000  1
  Mg  Mg13  1  0.843898  0.824595  0.177904  1
  Mg  Mg14  1  0.660427  0.000000  0.826123  1
  Mg  Mg15  1  0.500000  0.159894  0.500000  1
  Mg  Mg16  1  0.343898  0.324595  0.322096  1
  Mg  Mg17  1  0.500000  0.840106  0.500000  1
  Mg  Mg18  1  0.843898  0.175405  0.177904  1
  Mg  Mg19  1  0.656102  0.675405  0.677904  1
  Ge  Ge20  1  0.500000  0.500000  0.500000  1
  Ge  Ge21  1  0.483988  0.500000  0.876944  1
  Ge  Ge22  1  0.000000  0.000000  0.000000  1
  Ge  Ge23  1  0.016012  0.000000  0.376944  1
  Ge  Ge24  1  0.983988  0.000000  0.623056  1
  Ge  Ge25  1  0.516012  0.500000  0.123056  1
  H  H26  1  0.423771  0.100484  0.690274  1
  H  H27  1  0.923771  0.399516  0.809726  1
  H  H28  1  0.923771  0.600484  0.809726  1
  H  H29  1  0.076229  0.600484  0.190274  1
  H  H30  1  0.576229  0.899516  0.309726  1
  H  H31  1  0.076229  0.399516  0.190274  1
  H  H32  1  0.576229  0.100484  0.309726  1
  H  H33  1  0.423771  0.899516  0.690274  1
  O  O34  1  0.682584  0.000000  0.081758  1
  O  O35  1  0.823904  0.833642  0.584429  1
  O  O36  1  0.688660  0.000000  0.414754  1
  O  O37  1  0.823904  0.166358  0.584429  1
  O  O38  1  0.521243  0.156394  0.253783  1
  O  O39  1  0.978757  0.343606  0.753783  1
  O  O40  1  0.010489  0.000000  0.252468  1
  O  O41  1  0.651346  0.349483  0.423820  1
  O  O42  1  0.478757  0.156394  0.746217  1
  O  O43  1  0.323904  0.666358  0.915571  1
  O  O44  1  0.676096  0.666358  0.084429  1
  O  O45  1  0.151346  0.150517  0.076180  1
  O  O46  1  0.311340  0.000000  0.585246  1
  O  O47  1  0.323904  0.333642  0.915571  1
  O  O48  1  0.478757  0.843606  0.746217  1
  O  O49  1  0.021243  0.656394  0.246217  1
  O  O50  1  0.317416  0.000000  0.918242  1
  O  O51  1  0.651346  0.650517  0.423820  1
  O  O52  1  0.348654  0.650517  0.576180  1
  O  O53  1  0.989511  0.000000  0.747532  1
  O  O54  1  0.489511  0.500000  0.752468  1
  O  O55  1  0.188660  0.500000  0.085246  1
  O  O56  1  0.848654  0.849483  0.923820  1
  O  O57  1  0.817416  0.500000  0.581758  1
  O  O58  1  0.811340  0.500000  0.914754  1
  O  O59  1  0.348654  0.349483  0.576180  1
  O  O60  1  0.176096  0.166358  0.415571  1
  O  O61  1  0.182584  0.500000  0.418242  1
  O  O62  1  0.021243  0.343606  0.246217  1
  O  O63  1  0.151346  0.849483  0.076180  1
  O  O64  1  0.176096  0.833642  0.415571  1
  O  O65  1  0.848654  0.150517  0.923820  1
  O  O66  1  0.978757  0.656394  0.753783  1
  O  O67  1  0.521243  0.843606  0.253783  1
  O  O68  1  0.510489  0.500000  0.247532  1
  O  O69  1  0.676096  0.333642  0.084429  1
