# generated using pymatgen
data_MnCoH18(CN2)6
_symmetry_space_group_name_H-M   'P 1'
_cell_length_a   7.39763985
_cell_length_b   7.39763985
_cell_length_c   7.39763985
_cell_angle_alpha   97.21283047
_cell_angle_beta   97.21283047
_cell_angle_gamma   97.21283047
_symmetry_Int_Tables_number   1
_chemical_formula_structural   MnCoH18(CN2)6
_chemical_formula_sum   'Mn1 Co1 H18 C6 N12'
_cell_volume   394.32581738
_cell_formula_units_Z   1
loop_
 _symmetry_equiv_pos_site_id
 _symmetry_equiv_pos_as_xyz
  1  'x, y, z'
loop_
 _atom_site_type_symbol
 _atom_site_label
 _atom_site_symmetry_multiplicity
 _atom_site_fract_x
 _atom_site_fract_y
 _atom_site_fract_z
 _atom_site_occupancy
  Mn  Mn0  1  0.500000  0.500000  0.500000  1
  Co  Co1  1  0.000000  0.000000  0.000000  1
  H  H2  1  0.694699  0.132378  0.955088  1
  H  H3  1  0.132378  0.955088  0.694699  1
  H  H4  1  0.955088  0.694699  0.132378  1
  H  H5  1  0.305301  0.867622  0.044912  1
  H  H6  1  0.867622  0.044912  0.305301  1
  H  H7  1  0.044912  0.305301  0.867622  1
  H  H8  1  0.784834  0.123255  0.762324  1
  H  H9  1  0.123255  0.762324  0.784834  1
  H  H10  1  0.762324  0.784834  0.123255  1
  H  H11  1  0.215166  0.876745  0.237676  1
  H  H12  1  0.876745  0.237676  0.215166  1
  H  H13  1  0.237676  0.215166  0.876745  1
  H  H14  1  0.674286  0.935004  0.817512  1
  H  H15  1  0.935004  0.817512  0.674286  1
  H  H16  1  0.817512  0.674286  0.935004  1
  H  H17  1  0.325714  0.064996  0.182488  1
  H  H18  1  0.064996  0.182488  0.325714  1
  H  H19  1  0.182488  0.325714  0.064996  1
  C  C20  1  0.267090  0.550831  0.370921  1
  C  C21  1  0.550831  0.370921  0.267090  1
  C  C22  1  0.370921  0.267090  0.550831  1
  C  C23  1  0.732910  0.449169  0.629079  1
  C  C24  1  0.449169  0.629079  0.732910  1
  C  C25  1  0.629079  0.732910  0.449169  1
  N  N26  1  0.764541  0.052100  0.870403  1
  N  N27  1  0.052100  0.870403  0.764541  1
  N  N28  1  0.870403  0.764541  0.052100  1
  N  N29  1  0.235459  0.947901  0.129597  1
  N  N30  1  0.947900  0.129597  0.235459  1
  N  N31  1  0.129597  0.235459  0.947901  1
  N  N32  1  0.129443  0.580150  0.288617  1
  N  N33  1  0.580150  0.288617  0.129443  1
  N  N34  1  0.288617  0.129443  0.580150  1
  N  N35  1  0.870557  0.419850  0.711383  1
  N  N36  1  0.419850  0.711383  0.870557  1
  N  N37  1  0.711383  0.870557  0.419850  1
