# generated using pymatgen
data_Ba3SrIr2O9
_symmetry_space_group_name_H-M   'P 1'
_cell_length_a   6.05654210
_cell_length_b   6.05654210
_cell_length_c   15.06945751
_cell_angle_alpha   88.43120601
_cell_angle_beta   91.56879399
_cell_angle_gamma   60.57492367
_symmetry_Int_Tables_number   1
_chemical_formula_structural   Ba3SrIr2O9
_chemical_formula_sum   'Ba6 Sr2 Ir4 O18'
_cell_volume   480.75508296
_cell_formula_units_Z   2
loop_
 _symmetry_equiv_pos_site_id
 _symmetry_equiv_pos_as_xyz
  1  'x, y, z'
loop_
 _atom_site_type_symbol
 _atom_site_label
 _atom_site_symmetry_multiplicity
 _atom_site_fract_x
 _atom_site_fract_y
 _atom_site_fract_z
 _atom_site_occupancy
  Ba  Ba0  1  0.988498  0.988498  0.750000  1
  Ba  Ba1  1  0.011502  0.011502  0.250000  1
  Ba  Ba2  1  0.326772  0.341008  0.908561  1
  Ba  Ba3  1  0.673228  0.658992  0.091439  1
  Ba  Ba4  1  0.658992  0.673228  0.408561  1
  Ba  Ba5  1  0.341008  0.326772  0.591439  1
  Sr  Sr6  1  0.000000  0.000000  0.000000  1
  Sr  Sr7  1  0.000000  0.000000  0.500000  1
  Ir  Ir8  1  0.689792  0.639282  0.665962  1
  Ir  Ir9  1  0.310208  0.360718  0.334038  1
  Ir  Ir10  1  0.360718  0.310208  0.165962  1
  Ir  Ir11  1  0.639282  0.689792  0.834038  1
  O  O12  1  0.682690  0.132731  0.108088  1
  O  O13  1  0.509402  0.509402  0.750000  1
  O  O14  1  0.129895  0.229663  0.404071  1
  O  O15  1  0.511123  0.966255  0.733347  1
  O  O16  1  0.229663  0.129895  0.095929  1
  O  O17  1  0.966255  0.511123  0.766653  1
  O  O18  1  0.317310  0.867269  0.891912  1
  O  O19  1  0.870105  0.770337  0.595929  1
  O  O20  1  0.488877  0.033745  0.266653  1
  O  O21  1  0.490598  0.490598  0.250000  1
  O  O22  1  0.867269  0.317310  0.608088  1
  O  O23  1  0.765536  0.418918  0.926059  1
  O  O24  1  0.581082  0.234464  0.426059  1
  O  O25  1  0.234464  0.581082  0.073941  1
  O  O26  1  0.033745  0.488877  0.233347  1
  O  O27  1  0.418918  0.765536  0.573941  1
  O  O28  1  0.132731  0.682690  0.391912  1
  O  O29  1  0.770337  0.870105  0.904071  1
