# generated using pymatgen
data_NaZn(PO3)3
_symmetry_space_group_name_H-M   'P 1'
_cell_length_a   12.76595466
_cell_length_b   12.76595466
_cell_length_c   12.76595466
_cell_angle_alpha   109.47122063
_cell_angle_beta   109.47122063
_cell_angle_gamma   109.47122063
_symmetry_Int_Tables_number   1
_chemical_formula_structural   NaZn(PO3)3
_chemical_formula_sum   'Na8 Zn8 P24 O72'
_cell_volume   1601.54078061
_cell_formula_units_Z   8
loop_
 _symmetry_equiv_pos_site_id
 _symmetry_equiv_pos_as_xyz
  1  'x, y, z'
loop_
 _atom_site_type_symbol
 _atom_site_label
 _atom_site_symmetry_multiplicity
 _atom_site_fract_x
 _atom_site_fract_y
 _atom_site_fract_z
 _atom_site_occupancy
  Na  Na0  1  1.000000  0.780164  0.500000  1
  Na  Na1  1  0.500000  0.000000  0.280164  1
  Na  Na2  1  0.000000  0.280164  0.500000  1
  Na  Na3  1  0.500000  0.000000  0.780164  1
  Na  Na4  1  0.719836  0.719836  0.719836  1
  Na  Na5  1  0.280164  0.500000  0.000000  1
  Na  Na6  1  0.780164  0.500000  0.000000  1
  Na  Na7  1  0.219836  0.219836  0.219836  1
  Zn  Zn8  1  0.000000  0.030098  0.500000  1
  Zn  Zn9  1  0.500000  0.000000  0.530098  1
  Zn  Zn10  1  0.469902  0.469902  0.469902  1
  Zn  Zn11  1  0.530098  0.500000  0.000000  1
  Zn  Zn12  1  0.969902  0.969902  0.969902  1
  Zn  Zn13  1  0.030098  0.500000  0.000000  1
  Zn  Zn14  1  0.000000  0.530098  0.500000  1
  Zn  Zn15  1  0.500000  0.000000  0.030098  1
  P  P16  1  0.719647  0.505539  0.442197  1
  P  P17  1  0.057803  0.563342  0.277450  1
  P  P18  1  0.714108  0.936658  0.994461  1
  P  P19  1  0.442197  0.719647  0.505539  1
  P  P20  1  0.005539  0.219647  0.942197  1
  P  P21  1  0.277450  0.057803  0.563342  1
  P  P22  1  0.722550  0.280353  0.285892  1
  P  P23  1  0.214108  0.494461  0.436658  1
  P  P24  1  0.280353  0.285892  0.722550  1
  P  P25  1  0.780353  0.222550  0.785892  1
  P  P26  1  0.563342  0.277450  0.057803  1
  P  P27  1  0.777450  0.063342  0.557803  1
  P  P28  1  0.222550  0.785892  0.780353  1
  P  P29  1  0.942197  0.005539  0.219647  1
  P  P30  1  0.219647  0.942197  0.005539  1
  P  P31  1  0.557803  0.777450  0.063342  1
  P  P32  1  0.285892  0.722550  0.280353  1
  P  P33  1  0.505539  0.442197  0.719647  1
  P  P34  1  0.994461  0.714108  0.936658  1
  P  P35  1  0.494461  0.436658  0.214108  1
  P  P36  1  0.063342  0.557803  0.777450  1
  P  P37  1  0.936658  0.994461  0.714108  1
  P  P38  1  0.785892  0.780353  0.222550  1
  P  P39  1  0.436658  0.214108  0.494461  1
  O  O40  1  0.497945  0.135457  0.969321  1
  O  O41  1  0.520574  0.321697  0.645275  1
  O  O42  1  0.862488  0.833864  0.364543  1
  O  O43  1  0.139617  0.226786  0.633548  1
  O  O44  1  0.301123  0.124700  0.479426  1
  O  O45  1  0.360383  0.993931  0.087170  1
  O  O46  1  0.366452  0.006069  0.593239  1
  O  O47  1  0.854725  0.176422  0.875300  1
  O  O48  1  0.593239  0.366452  0.006069  1
  O  O49  1  0.821697  0.020574  0.145275  1
  O  O50  1  0.471376  0.502055  0.137512  1
  O  O51  1  0.273214  0.412830  0.406761  1
  O  O52  1  0.093239  0.506069  0.866452  1
  O  O53  1  0.002055  0.971376  0.637512  1
  O  O54  1  0.906761  0.912830  0.773214  1
  O  O55  1  0.726786  0.639617  0.133548  1
  O  O56  1  0.502055  0.137512  0.471376  1
  O  O57  1  0.375300  0.676422  0.354725  1
  O  O58  1  0.137512  0.471376  0.502055  1
  O  O59  1  0.833864  0.364543  0.862488  1
  O  O60  1  0.971376  0.637512  0.002055  1
  O  O61  1  0.364543  0.862488  0.833864  1
  O  O62  1  0.145275  0.821697  0.020574  1
  O  O63  1  0.875300  0.854725  0.176422  1
  O  O64  1  0.333864  0.362488  0.864543  1
  O  O65  1  0.362488  0.864543  0.333864  1
  O  O66  1  0.645275  0.520574  0.321697  1
  O  O67  1  0.773214  0.906761  0.912830  1
  O  O68  1  0.030679  0.028624  0.166136  1
  O  O69  1  0.506069  0.866452  0.093239  1
  O  O70  1  0.226786  0.633548  0.139617  1
  O  O71  1  0.637512  0.002055  0.971376  1
  O  O72  1  0.321697  0.645275  0.520574  1
  O  O73  1  0.666136  0.528624  0.530679  1
  O  O74  1  0.997945  0.469321  0.635457  1
  O  O75  1  0.823578  0.198877  0.678303  1
  O  O76  1  0.969321  0.497945  0.135457  1
  O  O77  1  0.678303  0.823578  0.198877  1
  O  O78  1  0.912830  0.773214  0.906761  1
  O  O79  1  0.178303  0.698877  0.323578  1
  O  O80  1  0.087170  0.360383  0.993931  1
  O  O81  1  0.354725  0.375300  0.676422  1
  O  O82  1  0.124700  0.479426  0.301123  1
  O  O83  1  0.469321  0.635457  0.997945  1
  O  O84  1  0.979426  0.624700  0.801123  1
  O  O85  1  0.006069  0.593239  0.366452  1
  O  O86  1  0.493931  0.860383  0.587170  1
  O  O87  1  0.530679  0.666136  0.528624  1
  O  O88  1  0.801123  0.979426  0.624700  1
  O  O89  1  0.993931  0.087170  0.360383  1
  O  O90  1  0.866452  0.093239  0.506069  1
  O  O91  1  0.133548  0.726786  0.639617  1
  O  O92  1  0.479426  0.301123  0.124700  1
  O  O93  1  0.624700  0.801123  0.979426  1
  O  O94  1  0.698877  0.323578  0.178303  1
  O  O95  1  0.528624  0.530679  0.666136  1
  O  O96  1  0.864543  0.333864  0.362488  1
  O  O97  1  0.176422  0.875300  0.854725  1
  O  O98  1  0.028624  0.166136  0.030679  1
  O  O99  1  0.633548  0.139617  0.226786  1
  O  O100  1  0.412830  0.406761  0.273214  1
  O  O101  1  0.323578  0.178303  0.698877  1
  O  O102  1  0.198877  0.678303  0.823578  1
  O  O103  1  0.860383  0.587170  0.493931  1
  O  O104  1  0.635457  0.997945  0.469321  1
  O  O105  1  0.406761  0.273214  0.412830  1
  O  O106  1  0.676422  0.354725  0.375300  1
  O  O107  1  0.166136  0.030679  0.028624  1
  O  O108  1  0.020574  0.145275  0.821697  1
  O  O109  1  0.639617  0.133548  0.726786  1
  O  O110  1  0.587170  0.493931  0.860383  1
  O  O111  1  0.135457  0.969321  0.497945  1
