# generated using pymatgen
data_Zr(SeCl6)2
_symmetry_space_group_name_H-M   'P 1'
_cell_length_a   13.15720372
_cell_length_b   12.98667797
_cell_length_c   9.10644971
_cell_angle_alpha   70.62445024
_cell_angle_beta   68.61286394
_cell_angle_gamma   40.76268582
_symmetry_Int_Tables_number   1
_chemical_formula_structural   Zr(SeCl6)2
_chemical_formula_sum   'Zr2 Se4 Cl24'
_cell_volume   942.03932203
_cell_formula_units_Z   2
loop_
 _symmetry_equiv_pos_site_id
 _symmetry_equiv_pos_as_xyz
  1  'x, y, z'
loop_
 _atom_site_type_symbol
 _atom_site_label
 _atom_site_symmetry_multiplicity
 _atom_site_fract_x
 _atom_site_fract_y
 _atom_site_fract_z
 _atom_site_occupancy
  Zr  Zr0  1  0.376676  0.376676  0.123324  1
  Zr  Zr1  1  0.126676  0.126676  0.873324  1
  Se  Se2  1  0.776790  0.312284  0.675688  1
  Se  Se3  1  0.014762  0.574312  0.937716  1
  Se  Se4  1  0.574312  0.014762  0.473210  1
  Se  Se5  1  0.312284  0.776790  0.235238  1
  Cl  Cl6  1  0.258548  0.643769  0.103381  1
  Cl  Cl7  1  0.340208  0.895199  0.314426  1
  Cl  Cl8  1  0.581150  0.014626  0.711715  1
  Cl  Cl9  1  0.023528  0.071784  0.146706  1
  Cl  Cl10  1  0.391633  0.853554  0.922656  1
  Cl  Cl11  1  0.895199  0.340208  0.450167  1
  Cl  Cl12  1  0.200780  0.747020  0.470232  1
  Cl  Cl13  1  0.327344  0.417844  0.858367  1
  Cl  Cl14  1  0.014626  0.581150  0.692509  1
  Cl  Cl15  1  0.255698  0.146619  0.606231  1
  Cl  Cl16  1  0.417844  0.327344  0.396446  1
  Cl  Cl17  1  0.643769  0.258548  0.994302  1
  Cl  Cl18  1  0.071784  0.023528  0.757982  1
  Cl  Cl19  1  0.668033  0.779768  0.502980  1
  Cl  Cl20  1  0.747020  0.200780  0.581967  1
  Cl  Cl21  1  0.853554  0.391633  0.832156  1
  Cl  Cl22  1  0.146619  0.255698  0.991452  1
  Cl  Cl23  1  0.103294  0.492018  0.226472  1
  Cl  Cl24  1  0.799833  0.935574  0.354801  1
  Cl  Cl25  1  0.538285  0.557491  0.668850  1
  Cl  Cl26  1  0.779768  0.668033  0.049220  1
  Cl  Cl27  1  0.492018  0.103294  0.178216  1
  Cl  Cl28  1  0.557491  0.538285  0.235374  1
  Cl  Cl29  1  0.935574  0.799833  0.909792  1
