# generated using pymatgen
data_Ta2SnO6
_symmetry_space_group_name_H-M   'P 1'
_cell_length_a   9.05726050
_cell_length_b   9.05726050
_cell_length_c   5.62191598
_cell_angle_alpha   88.62122872
_cell_angle_beta   91.37877128
_cell_angle_gamma   148.45959568
_symmetry_Int_Tables_number   1
_chemical_formula_structural   Ta2SnO6
_chemical_formula_sum   'Ta4 Sn2 O12'
_cell_volume   241.17192711
_cell_formula_units_Z   2
loop_
 _symmetry_equiv_pos_site_id
 _symmetry_equiv_pos_as_xyz
  1  'x, y, z'
loop_
 _atom_site_type_symbol
 _atom_site_label
 _atom_site_symmetry_multiplicity
 _atom_site_fract_x
 _atom_site_fract_y
 _atom_site_fract_z
 _atom_site_occupancy
  Ta  Ta0  1  0.586237  0.925451  0.836732  1
  Ta  Ta1  1  0.074549  0.413763  0.336732  1
  Ta  Ta2  1  0.926691  0.584866  0.665226  1
  Ta  Ta3  1  0.415134  0.073309  0.165226  1
  Sn  Sn4  1  0.770892  0.768671  0.263323  1
  Sn  Sn5  1  0.231329  0.229108  0.763323  1
  O  O6  1  0.608438  0.320647  0.424741  1
  O  O7  1  0.398064  0.686259  0.570799  1
  O  O8  1  0.841821  0.279513  0.647336  1
  O  O9  1  0.679353  0.391562  0.924741  1
  O  O10  1  0.010843  0.157085  0.405585  1
  O  O11  1  0.991032  0.844477  0.600421  1
  O  O12  1  0.842915  0.989157  0.905585  1
  O  O13  1  0.159894  0.722029  0.353562  1
  O  O14  1  0.155523  0.008968  0.100421  1
  O  O15  1  0.720487  0.158179  0.147336  1
  O  O16  1  0.277971  0.840106  0.853562  1
  O  O17  1  0.313741  0.601936  0.070799  1
