# generated using pymatgen
data_Ni(SbO3)2
_symmetry_space_group_name_H-M   'P 1'
_cell_length_a   4.71558160
_cell_length_b   4.71558160
_cell_length_c   9.34758784
_cell_angle_alpha   90.00000000
_cell_angle_beta   90.00000000
_cell_angle_gamma   90.00000000
_symmetry_Int_Tables_number   1
_chemical_formula_structural   Ni(SbO3)2
_chemical_formula_sum   'Ni2 Sb4 O12'
_cell_volume   207.85959837
_cell_formula_units_Z   2
loop_
 _symmetry_equiv_pos_site_id
 _symmetry_equiv_pos_as_xyz
  1  'x, y, z'
loop_
 _atom_site_type_symbol
 _atom_site_label
 _atom_site_symmetry_multiplicity
 _atom_site_fract_x
 _atom_site_fract_y
 _atom_site_fract_z
 _atom_site_occupancy
  Ni  Ni0  1  0.500000  0.500000  0.500000  1
  Ni  Ni1  1  0.000000  0.000000  0.000000  1
  Sb  Sb2  1  0.500000  0.500000  0.167696  1
  Sb  Sb3  1  0.000000  0.000000  0.667697  1
  Sb  Sb4  1  0.500000  0.500000  0.832303  1
  Sb  Sb5  1  0.000000  0.000000  0.332303  1
  O  O6  1  0.190515  0.809485  0.500000  1
  O  O7  1  0.809485  0.190515  0.500000  1
  O  O8  1  0.309485  0.309485  0.000000  1
  O  O9  1  0.690515  0.690515  0.000000  1
  O  O10  1  0.197176  0.802824  0.170934  1
  O  O11  1  0.802824  0.197176  0.170934  1
  O  O12  1  0.302824  0.302824  0.670934  1
  O  O13  1  0.697176  0.697176  0.670934  1
  O  O14  1  0.802824  0.197176  0.829066  1
  O  O15  1  0.197176  0.802824  0.829066  1
  O  O16  1  0.697176  0.697176  0.329066  1
  O  O17  1  0.302824  0.302824  0.329066  1
