# generated using pymatgen
data_MnVH4O2F5
_symmetry_space_group_name_H-M   'P 1'
_cell_length_a   7.56184949
_cell_length_b   7.56184949
_cell_length_c   7.56184949
_cell_angle_alpha   127.88079642
_cell_angle_beta   118.06799637
_cell_angle_gamma   85.15043956
_symmetry_Int_Tables_number   1
_chemical_formula_structural   MnVH4O2F5
_chemical_formula_sum   'Mn2 V2 H8 O4 F10'
_cell_volume   287.89160168
_cell_formula_units_Z   2
loop_
 _symmetry_equiv_pos_site_id
 _symmetry_equiv_pos_as_xyz
  1  'x, y, z'
loop_
 _atom_site_type_symbol
 _atom_site_label
 _atom_site_symmetry_multiplicity
 _atom_site_fract_x
 _atom_site_fract_y
 _atom_site_fract_z
 _atom_site_occupancy
  Mn  Mn0  1  0.500000  0.500000  0.500000  1
  Mn  Mn1  1  0.000000  0.000000  0.500000  1
  V  V2  1  0.500000  0.500000  0.000000  1
  V  V3  1  0.000000  0.500000  0.500000  1
  H  H4  1  0.306648  0.024061  0.014827  1
  H  H5  1  0.193352  0.708180  0.217413  1
  H  H6  1  0.490767  0.975939  0.782587  1
  H  H7  1  0.009233  0.291820  0.985173  1
  H  H8  1  0.693352  0.975939  0.985173  1
  H  H9  1  0.806648  0.291820  0.782587  1
  H  H10  1  0.509233  0.024061  0.217413  1
  H  H11  1  0.990767  0.708180  0.014827  1
  O  O12  1  0.429437  0.126496  0.197058  1
  O  O13  1  0.070563  0.767621  0.197058  1
  O  O14  1  0.570563  0.873504  0.802942  1
  O  O15  1  0.929437  0.232379  0.802942  1
  F  F16  1  0.588337  0.422402  0.759655  1
  F  F17  1  0.911663  0.171318  0.334064  1
  F  F18  1  0.837254  0.577598  0.665936  1
  F  F19  1  0.662746  0.828682  0.240345  1
  F  F20  1  0.411663  0.577598  0.240345  1
  F  F21  1  0.088337  0.828682  0.665936  1
  F  F22  1  0.162746  0.422402  0.334064  1
  F  F23  1  0.337254  0.171318  0.759655  1
  F  F24  1  0.250000  0.571245  0.821245  1
  F  F25  1  0.750000  0.428755  0.178755  1
