# generated using pymatgen
data_CsUNbO6
_symmetry_space_group_name_H-M   'P 1'
_cell_length_a   7.73677456
_cell_length_b   8.81426010
_cell_length_c   10.77440104
_cell_angle_alpha   90.00000000
_cell_angle_beta   104.03457008
_cell_angle_gamma   90.00000000
_symmetry_Int_Tables_number   1
_chemical_formula_structural   CsUNbO6
_chemical_formula_sum   'Cs4 U4 Nb4 O24'
_cell_volume   712.81633347
_cell_formula_units_Z   4
loop_
 _symmetry_equiv_pos_site_id
 _symmetry_equiv_pos_as_xyz
  1  'x, y, z'
loop_
 _atom_site_type_symbol
 _atom_site_label
 _atom_site_symmetry_multiplicity
 _atom_site_fract_x
 _atom_site_fract_y
 _atom_site_fract_z
 _atom_site_occupancy
  Cs  Cs0  1  0.462739  0.771243  0.141364  1
  Cs  Cs1  1  0.537261  0.271243  0.358636  1
  Cs  Cs2  1  0.537261  0.228757  0.858636  1
  Cs  Cs3  1  0.462739  0.728757  0.641364  1
  U  U4  1  0.987439  0.016951  0.678295  1
  U  U5  1  0.012561  0.516951  0.821705  1
  U  U6  1  0.012561  0.983049  0.321705  1
  U  U7  1  0.987439  0.483049  0.178295  1
  Nb  Nb8  1  0.887945  0.849222  0.944252  1
  Nb  Nb9  1  0.112055  0.349222  0.555748  1
  Nb  Nb10  1  0.112055  0.150778  0.055748  1
  Nb  Nb11  1  0.887945  0.650778  0.444252  1
  O  O12  1  0.226829  0.978761  0.730941  1
  O  O13  1  0.773171  0.478761  0.769059  1
  O  O14  1  0.773171  0.021239  0.269059  1
  O  O15  1  0.226829  0.521239  0.230941  1
  O  O16  1  0.251667  0.941495  0.372544  1
  O  O17  1  0.748333  0.441495  0.127456  1
  O  O18  1  0.748333  0.058505  0.627456  1
  O  O19  1  0.251667  0.558505  0.872544  1
  O  O20  1  0.032872  0.941317  0.111389  1
  O  O21  1  0.967128  0.441317  0.388611  1
  O  O22  1  0.967128  0.058683  0.888611  1
  O  O23  1  0.032872  0.558683  0.611389  1
  O  O24  1  0.965782  0.854148  0.505101  1
  O  O25  1  0.034218  0.354148  0.994899  1
  O  O26  1  0.034218  0.145852  0.494899  1
  O  O27  1  0.965782  0.645852  0.005101  1
  O  O28  1  0.653643  0.865106  0.928853  1
  O  O29  1  0.346357  0.365106  0.571147  1
  O  O30  1  0.346357  0.134894  0.071147  1
  O  O31  1  0.653643  0.634894  0.428853  1
  O  O32  1  0.928482  0.787633  0.778489  1
  O  O33  1  0.071518  0.287633  0.721511  1
  O  O34  1  0.071518  0.212367  0.221511  1
  O  O35  1  0.928482  0.712367  0.278489  1
