# generated using pymatgen
data_KU2H5C4O15
_symmetry_space_group_name_H-M   'P 1'
_cell_length_a   5.81569409
_cell_length_b   13.98351946
_cell_length_c   9.35420624
_cell_angle_alpha   90.00000000
_cell_angle_beta   98.00469229
_cell_angle_gamma   90.00000000
_symmetry_Int_Tables_number   1
_chemical_formula_structural   KU2H5C4O15
_chemical_formula_sum   'K2 U4 H10 C8 O30'
_cell_volume   753.30831521
_cell_formula_units_Z   2
loop_
 _symmetry_equiv_pos_site_id
 _symmetry_equiv_pos_as_xyz
  1  'x, y, z'
loop_
 _atom_site_type_symbol
 _atom_site_label
 _atom_site_symmetry_multiplicity
 _atom_site_fract_x
 _atom_site_fract_y
 _atom_site_fract_z
 _atom_site_occupancy
  K  K0  1  0.192812  0.250000  0.094470  1
  K  K1  1  0.807188  0.750000  0.905530  1
  U  U2  1  0.713058  0.406845  0.735530  1
  U  U3  1  0.286942  0.906845  0.264470  1
  U  U4  1  0.286942  0.593155  0.264470  1
  U  U5  1  0.713058  0.093155  0.735530  1
  H  H6  1  0.201402  0.194688  0.430274  1
  H  H7  1  0.750376  0.195587  0.300095  1
  H  H8  1  0.201402  0.305312  0.430274  1
  H  H9  1  0.510581  0.750000  0.409029  1
  H  H10  1  0.249624  0.695587  0.699905  1
  H  H11  1  0.750376  0.304413  0.300095  1
  H  H12  1  0.798598  0.805312  0.569726  1
  H  H13  1  0.489419  0.250000  0.590971  1
  H  H14  1  0.249624  0.804413  0.699905  1
  H  H15  1  0.798598  0.694688  0.569726  1
  C  C16  1  0.012253  0.953389  0.542567  1
  C  C17  1  0.455521  0.450523  0.017631  1
  C  C18  1  0.455521  0.049477  0.017631  1
  C  C19  1  0.987747  0.453389  0.457433  1
  C  C20  1  0.987747  0.046611  0.457433  1
  C  C21  1  0.544479  0.549477  0.982369  1
  C  C22  1  0.012253  0.546611  0.542567  1
  C  C23  1  0.544479  0.950523  0.982369  1
  O  O24  1  0.116548  0.615001  0.489178  1
  O  O25  1  0.336483  0.054214  0.120658  1
  O  O26  1  0.443817  0.058741  0.628134  1
  O  O27  1  0.883452  0.115001  0.510822  1
  O  O28  1  0.024566  0.630435  0.151421  1
  O  O29  1  0.663517  0.554214  0.879342  1
  O  O30  1  0.336483  0.445786  0.120658  1
  O  O31  1  0.556183  0.558741  0.371866  1
  O  O32  1  0.975434  0.369565  0.848579  1
  O  O33  1  0.975434  0.130435  0.848579  1
  O  O34  1  0.116548  0.884999  0.489178  1
  O  O35  1  0.443817  0.441259  0.628134  1
  O  O36  1  0.384798  0.750000  0.323164  1
  O  O37  1  0.075514  0.049505  0.341225  1
  O  O38  1  0.924486  0.950495  0.658775  1
  O  O39  1  0.508923  0.118436  0.940594  1
  O  O40  1  0.615202  0.250000  0.676836  1
  O  O41  1  0.924486  0.549505  0.658775  1
  O  O42  1  0.249414  0.750000  0.765440  1
  O  O43  1  0.883452  0.384999  0.510822  1
  O  O44  1  0.695716  0.750000  0.569379  1
  O  O45  1  0.750586  0.250000  0.234560  1
  O  O46  1  0.024566  0.869565  0.151421  1
  O  O47  1  0.075514  0.450495  0.341225  1
  O  O48  1  0.491077  0.618436  0.059406  1
  O  O49  1  0.556183  0.941259  0.371866  1
  O  O50  1  0.491077  0.881564  0.059406  1
  O  O51  1  0.663517  0.945786  0.879342  1
  O  O52  1  0.508923  0.381564  0.940594  1
  O  O53  1  0.304284  0.250000  0.430621  1
