# generated using pymatgen
data_Ba4Na(RuO4)3
_symmetry_space_group_name_H-M   'P 1'
_cell_length_a   5.87708702
_cell_length_b   5.87708702
_cell_length_c   19.44966781
_cell_angle_alpha   90.00000000
_cell_angle_beta   90.00000000
_cell_angle_gamma   120.00000000
_symmetry_Int_Tables_number   1
_chemical_formula_structural   Ba4Na(RuO4)3
_chemical_formula_sum   'Ba8 Na2 Ru6 O24'
_cell_volume   581.79108581
_cell_formula_units_Z   2
loop_
 _symmetry_equiv_pos_site_id
 _symmetry_equiv_pos_as_xyz
  1  'x, y, z'
loop_
 _atom_site_type_symbol
 _atom_site_label
 _atom_site_symmetry_multiplicity
 _atom_site_fract_x
 _atom_site_fract_y
 _atom_site_fract_z
 _atom_site_occupancy
  Ba  Ba0  1  0.000000  0.000000  0.117320  1
  Ba  Ba1  1  0.000000  0.000000  0.617320  1
  Ba  Ba2  1  0.333333  0.666667  0.372632  1
  Ba  Ba3  1  0.666667  0.333333  0.872632  1
  Ba  Ba4  1  0.666667  0.333333  0.497209  1
  Ba  Ba5  1  0.333333  0.666667  0.997209  1
  Ba  Ba6  1  0.333333  0.666667  0.745803  1
  Ba  Ba7  1  0.666667  0.333333  0.245803  1
  Na  Na8  1  0.333333  0.666667  0.559717  1
  Na  Na9  1  0.666667  0.333333  0.059717  1
  Ru  Ru10  1  0.000000  0.000000  0.299050  1
  Ru  Ru11  1  0.000000  0.000000  0.799050  1
  Ru  Ru12  1  0.000000  0.000000  0.435917  1
  Ru  Ru13  1  0.000000  0.000000  0.935917  1
  Ru  Ru14  1  0.333333  0.666667  0.183321  1
  Ru  Ru15  1  0.666667  0.333333  0.683321  1
  O  O16  1  0.165376  0.330752  0.244507  1
  O  O17  1  0.834624  0.165376  0.744507  1
  O  O18  1  0.330752  0.165376  0.744507  1
  O  O19  1  0.669248  0.834624  0.244507  1
  O  O20  1  0.165376  0.834624  0.244507  1
  O  O21  1  0.834624  0.669248  0.744507  1
  O  O22  1  0.304469  0.152234  0.364313  1
  O  O23  1  0.152234  0.304469  0.864313  1
  O  O24  1  0.152234  0.847766  0.864313  1
  O  O25  1  0.847766  0.152234  0.364313  1
  O  O26  1  0.847766  0.695531  0.364313  1
  O  O27  1  0.695531  0.847766  0.864313  1
  O  O28  1  0.156397  0.312793  0.488448  1
  O  O29  1  0.843603  0.156397  0.988448  1
  O  O30  1  0.312793  0.156397  0.988448  1
  O  O31  1  0.687207  0.843603  0.488448  1
  O  O32  1  0.156397  0.843603  0.488448  1
  O  O33  1  0.843603  0.687207  0.988448  1
  O  O34  1  0.513485  0.486515  0.628403  1
  O  O35  1  0.026971  0.513485  0.128403  1
  O  O36  1  0.486515  0.973029  0.128403  1
  O  O37  1  0.513485  0.026971  0.628403  1
  O  O38  1  0.973029  0.486515  0.628403  1
  O  O39  1  0.486515  0.513485  0.128403  1
