# generated using pymatgen
data_Fe2(SeO4)3
_symmetry_space_group_name_H-M   'P 1'
_cell_length_a   8.70214821
_cell_length_b   9.04765459
_cell_length_c   14.87791258
_cell_angle_alpha   90.00000000
_cell_angle_beta   124.65187045
_cell_angle_gamma   90.00000000
_symmetry_Int_Tables_number   1
_chemical_formula_structural   Fe2(SeO4)3
_chemical_formula_sum   'Fe8 Se12 O48'
_cell_volume   963.61774164
_cell_formula_units_Z   4
loop_
 _symmetry_equiv_pos_site_id
 _symmetry_equiv_pos_as_xyz
  1  'x, y, z'
loop_
 _atom_site_type_symbol
 _atom_site_label
 _atom_site_symmetry_multiplicity
 _atom_site_fract_x
 _atom_site_fract_y
 _atom_site_fract_z
 _atom_site_occupancy
  Fe  Fe0  1  0.867466  0.468801  0.616253  1
  Fe  Fe1  1  0.132534  0.968801  0.883747  1
  Fe  Fe2  1  0.132534  0.531199  0.383747  1
  Fe  Fe3  1  0.867466  0.031199  0.116253  1
  Fe  Fe4  1  0.633963  0.031105  0.385419  1
  Fe  Fe5  1  0.366037  0.531105  0.114581  1
  Fe  Fe6  1  0.366037  0.968895  0.614581  1
  Fe  Fe7  1  0.633963  0.468895  0.885419  1
  Se  Se8  1  0.457062  0.252549  0.493621  1
  Se  Se9  1  0.542938  0.752549  0.006379  1
  Se  Se10  1  0.542938  0.747451  0.506379  1
  Se  Se11  1  0.457062  0.247451  0.993621  1
  Se  Se12  1  0.744534  0.376397  0.348648  1
  Se  Se13  1  0.255466  0.876397  0.151352  1
  Se  Se14  1  0.255466  0.623603  0.651352  1
  Se  Se15  1  0.744534  0.123603  0.848648  1
  Se  Se16  1  0.032120  0.118236  0.643822  1
  Se  Se17  1  0.967880  0.618236  0.856178  1
  Se  Se18  1  0.967880  0.881764  0.356178  1
  Se  Se19  1  0.032120  0.381764  0.143822  1
  O  O20  1  0.494783  0.122374  0.583851  1
  O  O21  1  0.505217  0.622374  0.916149  1
  O  O22  1  0.505217  0.877626  0.416149  1
  O  O23  1  0.494783  0.377626  0.083851  1
  O  O24  1  0.459480  0.186500  0.389028  1
  O  O25  1  0.540520  0.686500  0.110972  1
  O  O26  1  0.540520  0.813500  0.610972  1
  O  O27  1  0.459480  0.313500  0.889028  1
  O  O28  1  0.249196  0.329075  0.444870  1
  O  O29  1  0.750804  0.829075  0.055130  1
  O  O30  1  0.750804  0.670925  0.555130  1
  O  O31  1  0.249196  0.170925  0.944870  1
  O  O32  1  0.622866  0.378430  0.565446  1
  O  O33  1  0.377134  0.878430  0.934554  1
  O  O34  1  0.377134  0.621570  0.434554  1
  O  O35  1  0.622866  0.121570  0.065446  1
  O  O36  1  0.548299  0.476733  0.277644  1
  O  O37  1  0.451701  0.976733  0.222356  1
  O  O38  1  0.451701  0.523267  0.722356  1
  O  O39  1  0.548299  0.023267  0.777644  1
  O  O40  1  0.887623  0.420547  0.312106  1
  O  O41  1  0.112377  0.920547  0.187894  1
  O  O42  1  0.112377  0.579453  0.687894  1
  O  O43  1  0.887623  0.079453  0.812106  1
  O  O44  1  0.851622  0.405957  0.481991  1
  O  O45  1  0.148378  0.905957  0.018009  1
  O  O46  1  0.148378  0.594043  0.518009  1
  O  O47  1  0.851622  0.094043  0.981991  1
  O  O48  1  0.706791  0.194265  0.325526  1
  O  O49  1  0.293209  0.694265  0.174474  1
  O  O50  1  0.293209  0.805735  0.674474  1
  O  O51  1  0.706791  0.305735  0.825526  1
  O  O52  1  0.119716  0.997573  0.745972  1
  O  O53  1  0.880284  0.497573  0.754028  1
  O  O54  1  0.880284  0.002427  0.254028  1
  O  O55  1  0.119716  0.502427  0.245972  1
  O  O56  1  0.810573  0.071940  0.546550  1
  O  O57  1  0.189427  0.571940  0.953450  1
  O  O58  1  0.189427  0.928060  0.453450  1
  O  O59  1  0.810573  0.428060  0.046550  1
  O  O60  1  0.166861  0.113131  0.596394  1
  O  O61  1  0.833139  0.613131  0.903606  1
  O  O62  1  0.833139  0.886869  0.403606  1
  O  O63  1  0.166861  0.386869  0.096394  1
  O  O64  1  0.032133  0.286450  0.689646  1
  O  O65  1  0.967867  0.786450  0.810354  1
  O  O66  1  0.967867  0.713550  0.310354  1
  O  O67  1  0.032133  0.213550  0.189646  1
