# generated using pymatgen
data_DyTaO4
_symmetry_space_group_name_H-M   'P 1'
_cell_length_a   6.56579470
_cell_length_b   6.56579470
_cell_length_c   5.11211277
_cell_angle_alpha   69.33116398
_cell_angle_beta   110.66883602
_cell_angle_gamma   65.13523061
_symmetry_Int_Tables_number   1
_chemical_formula_structural   DyTaO4
_chemical_formula_sum   'Dy2 Ta2 O8'
_cell_volume   150.96656086
_cell_formula_units_Z   2
loop_
 _symmetry_equiv_pos_site_id
 _symmetry_equiv_pos_as_xyz
  1  'x, y, z'
loop_
 _atom_site_type_symbol
 _atom_site_label
 _atom_site_symmetry_multiplicity
 _atom_site_fract_x
 _atom_site_fract_y
 _atom_site_fract_z
 _atom_site_occupancy
  Dy  Dy0  1  0.130438  0.130438  0.750000  1
  Dy  Dy1  1  0.869562  0.869562  0.250000  1
  Ta  Ta2  1  0.603739  0.603739  0.750000  1
  Ta  Ta3  1  0.396261  0.396261  0.250000  1
  O  O4  1  0.286348  0.777257  0.291708  1
  O  O5  1  0.448928  0.131034  0.160788  1
  O  O6  1  0.713652  0.222743  0.708292  1
  O  O7  1  0.868966  0.551072  0.660788  1
  O  O8  1  0.777257  0.286348  0.208292  1
  O  O9  1  0.131034  0.448928  0.339212  1
  O  O10  1  0.551072  0.868966  0.839212  1
  O  O11  1  0.222743  0.713652  0.791708  1
