# generated using pymatgen
data_Ti4MnBi2
_symmetry_space_group_name_H-M   'P 1'
_cell_length_a   7.86181848
_cell_length_b   7.86181848
_cell_length_c   7.86181848
_cell_angle_alpha   95.74430539
_cell_angle_beta   95.74430539
_cell_angle_gamma   143.11307521
_symmetry_Int_Tables_number   1
_chemical_formula_structural   Ti4MnBi2
_chemical_formula_sum   'Ti8 Mn2 Bi4'
_cell_volume   276.68910403
_cell_formula_units_Z   2
loop_
 _symmetry_equiv_pos_site_id
 _symmetry_equiv_pos_as_xyz
  1  'x, y, z'
loop_
 _atom_site_type_symbol
 _atom_site_label
 _atom_site_symmetry_multiplicity
 _atom_site_fract_x
 _atom_site_fract_y
 _atom_site_fract_z
 _atom_site_occupancy
  Ti  Ti0  1  0.419623  0.692290  0.111913  1
  Ti  Ti1  1  0.580377  0.307710  0.888087  1
  Ti  Ti2  1  0.692290  0.580377  0.272667  1
  Ti  Ti3  1  0.807710  0.080377  0.888087  1
  Ti  Ti4  1  0.919623  0.807710  0.727333  1
  Ti  Ti5  1  0.307710  0.419623  0.727333  1
  Ti  Ti6  1  0.192290  0.919623  0.111913  1
  Ti  Ti7  1  0.080377  0.192290  0.272667  1
  Mn  Mn8  1  0.250000  0.250000  0.000000  1
  Mn  Mn9  1  0.750000  0.750000  0.000000  1
  Bi  Bi10  1  0.361400  0.138600  0.500000  1
  Bi  Bi11  1  0.861400  0.361400  0.222799  1
  Bi  Bi12  1  0.638600  0.861400  0.500000  1
  Bi  Bi13  1  0.138600  0.638600  0.777201  1
