# generated using pymatgen
data_RbReSO3
_symmetry_space_group_name_H-M   'P 1'
_cell_length_a   8.40761743
_cell_length_b   7.99187569
_cell_length_c   9.45615304
_cell_angle_alpha   90.00000000
_cell_angle_beta   115.89955260
_cell_angle_gamma   90.00000000
_symmetry_Int_Tables_number   1
_chemical_formula_structural   RbReSO3
_chemical_formula_sum   'Rb4 Re4 S4 O12'
_cell_volume   571.56662866
_cell_formula_units_Z   4
loop_
 _symmetry_equiv_pos_site_id
 _symmetry_equiv_pos_as_xyz
  1  'x, y, z'
loop_
 _atom_site_type_symbol
 _atom_site_label
 _atom_site_symmetry_multiplicity
 _atom_site_fract_x
 _atom_site_fract_y
 _atom_site_fract_z
 _atom_site_occupancy
  Rb  Rb0  1  0.477850  0.632792  0.195218  1
  Rb  Rb1  1  0.977850  0.867208  0.195218  1
  Rb  Rb2  1  0.522150  0.367208  0.804782  1
  Rb  Rb3  1  0.022150  0.132792  0.804782  1
  Re  Re4  1  0.003148  0.626935  0.773675  1
  Re  Re5  1  0.996852  0.373065  0.226325  1
  Re  Re6  1  0.503148  0.873065  0.773675  1
  Re  Re7  1  0.496852  0.126935  0.226325  1
  S  S8  1  0.395653  0.740971  0.552242  1
  S  S9  1  0.604347  0.259029  0.447758  1
  S  S10  1  0.104347  0.240971  0.447758  1
  S  S11  1  0.895653  0.759029  0.552242  1
  O  O12  1  0.184221  0.504615  0.791768  1
  O  O13  1  0.572474  0.726119  0.927541  1
  O  O14  1  0.157569  0.506401  0.216440  1
  O  O15  1  0.342431  0.006401  0.783560  1
  O  O16  1  0.427526  0.273881  0.072459  1
  O  O17  1  0.657569  0.993599  0.216440  1
  O  O18  1  0.927526  0.226119  0.072459  1
  O  O19  1  0.315779  0.004615  0.208232  1
  O  O20  1  0.842431  0.493599  0.783560  1
  O  O21  1  0.815779  0.495385  0.208232  1
  O  O22  1  0.072474  0.773881  0.927541  1
  O  O23  1  0.684221  0.995385  0.791768  1
