# generated using pymatgen
data_BaH2N2O5
_symmetry_space_group_name_H-M   'P 1'
_cell_length_a   7.17410822
_cell_length_b   7.17410822
_cell_length_c   18.17519682
_cell_angle_alpha   90.00000000
_cell_angle_beta   90.00000000
_cell_angle_gamma   120.00000000
_symmetry_Int_Tables_number   1
_chemical_formula_structural   BaH2N2O5
_chemical_formula_sum   'Ba6 H12 N12 O30'
_cell_volume   810.11300017
_cell_formula_units_Z   6
loop_
 _symmetry_equiv_pos_site_id
 _symmetry_equiv_pos_as_xyz
  1  'x, y, z'
loop_
 _atom_site_type_symbol
 _atom_site_label
 _atom_site_symmetry_multiplicity
 _atom_site_fract_x
 _atom_site_fract_y
 _atom_site_fract_z
 _atom_site_occupancy
  Ba  Ba0  1  0.433613  0.854548  0.999408  1
  Ba  Ba1  1  0.579064  0.433613  0.832741  1
  Ba  Ba2  1  0.854548  0.420936  0.166075  1
  Ba  Ba3  1  0.145452  0.579064  0.666075  1
  Ba  Ba4  1  0.420936  0.566387  0.332741  1
  Ba  Ba5  1  0.566387  0.145452  0.499408  1
  H  H6  1  0.167889  0.024791  0.379865  1
  H  H7  1  0.143098  0.167889  0.213199  1
  H  H8  1  0.024791  0.856902  0.546532  1
  H  H9  1  0.975209  0.143098  0.046532  1
  H  H10  1  0.856902  0.832111  0.713199  1
  H  H11  1  0.832111  0.975209  0.879865  1
  H  H12  1  0.097232  0.139161  0.436943  1
  H  H13  1  0.958071  0.097232  0.270277  1
  H  H14  1  0.139161  0.041929  0.603610  1
  H  H15  1  0.860839  0.958071  0.103610  1
  H  H16  1  0.041929  0.902768  0.770277  1
  H  H17  1  0.902768  0.860839  0.936943  1
  N  N18  1  0.245641  0.033391  0.146279  1
  N  N19  1  0.212250  0.245641  0.979613  1
  N  N20  1  0.033391  0.787750  0.312946  1
  N  N21  1  0.966609  0.212250  0.812946  1
  N  N22  1  0.787750  0.754359  0.479613  1
  N  N23  1  0.754359  0.966609  0.646279  1
  N  N24  1  0.566207  0.121532  0.326106  1
  N  N25  1  0.444674  0.566207  0.159439  1
  N  N26  1  0.121532  0.555326  0.492772  1
  N  N27  1  0.878468  0.444674  0.992772  1
  N  N28  1  0.555326  0.433793  0.659439  1
  N  N29  1  0.433793  0.878468  0.826106  1
  O  O30  1  0.436889  0.100799  0.124446  1
  O  O31  1  0.336090  0.436889  0.957779  1
  O  O32  1  0.100799  0.663910  0.291113  1
  O  O33  1  0.899201  0.336090  0.791113  1
  O  O34  1  0.663910  0.563111  0.457779  1
  O  O35  1  0.563111  0.899201  0.624446  1
  O  O36  1  0.103530  0.865241  0.113654  1
  O  O37  1  0.238289  0.103530  0.946988  1
  O  O38  1  0.865241  0.761711  0.280321  1
  O  O39  1  0.134759  0.238289  0.780321  1
  O  O40  1  0.761711  0.896470  0.446988  1
  O  O41  1  0.896470  0.134759  0.613654  1
  O  O42  1  0.593318  0.295596  0.297559  1
  O  O43  1  0.297722  0.593318  0.130892  1
  O  O44  1  0.295596  0.702278  0.464226  1
  O  O45  1  0.704404  0.297722  0.964226  1
  O  O46  1  0.702278  0.406682  0.630892  1
  O  O47  1  0.406682  0.704404  0.797559  1
  O  O48  1  0.612146  0.008392  0.284853  1
  O  O49  1  0.603753  0.612146  0.118187  1
  O  O50  1  0.008392  0.396247  0.451520  1
  O  O51  1  0.991608  0.603753  0.951520  1
  O  O52  1  0.396247  0.387854  0.618187  1
  O  O53  1  0.387854  0.991608  0.784853  1
  O  O54  1  0.226286  0.151596  0.413475  1
  O  O55  1  0.074691  0.226286  0.246809  1
  O  O56  1  0.151596  0.925309  0.580142  1
  O  O57  1  0.848404  0.074691  0.080142  1
  O  O58  1  0.925309  0.773714  0.746809  1
  O  O59  1  0.773714  0.848404  0.913475  1
