# generated using pymatgen
data_SbCSF11
_symmetry_space_group_name_H-M   'P 1'
_cell_length_a   9.36670931
_cell_length_b   9.36670931
_cell_length_c   13.62933725
_cell_angle_alpha   88.73979999
_cell_angle_beta   91.26020001
_cell_angle_gamma   132.77798414
_symmetry_Int_Tables_number   1
_chemical_formula_structural   SbCSF11
_chemical_formula_sum   'Sb4 C4 S4 F44'
_cell_volume   877.43378759
_cell_formula_units_Z   4
loop_
 _symmetry_equiv_pos_site_id
 _symmetry_equiv_pos_as_xyz
  1  'x, y, z'
loop_
 _atom_site_type_symbol
 _atom_site_label
 _atom_site_symmetry_multiplicity
 _atom_site_fract_x
 _atom_site_fract_y
 _atom_site_fract_z
 _atom_site_occupancy
  Sb  Sb0  1  0.785466  0.002962  0.121049  1
  Sb  Sb1  1  0.002962  0.785466  0.378951  1
  Sb  Sb2  1  0.214534  0.997038  0.878951  1
  Sb  Sb3  1  0.997038  0.214534  0.621049  1
  C  C4  1  0.592035  0.288933  0.580858  1
  C  C5  1  0.288933  0.592035  0.919142  1
  C  C6  1  0.407965  0.711067  0.419142  1
  C  C7  1  0.711067  0.407965  0.080858  1
  S  S8  1  0.825005  0.528148  0.649237  1
  S  S9  1  0.174995  0.471852  0.350763  1
  S  S10  1  0.471852  0.174995  0.149237  1
  S  S11  1  0.528148  0.825005  0.850763  1
  F  F12  1  0.351375  0.719015  0.505655  1
  F  F13  1  0.693983  0.536969  0.071279  1
  F  F14  1  0.280985  0.648625  0.005655  1
  F  F15  1  0.463031  0.306017  0.571279  1
  F  F16  1  0.049133  0.771910  0.960753  1
  F  F17  1  0.600314  0.722516  0.820677  1
  F  F18  1  0.408965  0.976073  0.893237  1
  F  F19  1  0.842086  0.669312  0.496964  1
  F  F20  1  0.669312  0.842086  0.003036  1
  F  F21  1  0.162941  0.883331  0.264600  1
  F  F22  1  0.116669  0.837059  0.764600  1
  F  F23  1  0.576267  0.206790  0.249457  1
  F  F24  1  0.863461  0.474885  0.136854  1
  F  F25  1  0.136539  0.525115  0.863146  1
  F  F26  1  0.277484  0.399686  0.320677  1
  F  F27  1  0.525115  0.136539  0.636854  1
  F  F28  1  0.883331  0.162941  0.235400  1
  F  F29  1  0.719015  0.351375  0.994345  1
  F  F30  1  0.330688  0.157914  0.996964  1
  F  F31  1  0.423733  0.793210  0.750543  1
  F  F32  1  0.771812  0.601901  0.303688  1
  F  F33  1  0.398099  0.228188  0.803688  1
  F  F34  1  0.648625  0.280985  0.494345  1
  F  F35  1  0.028811  0.020265  0.869716  1
  F  F36  1  0.976073  0.408965  0.606763  1
  F  F37  1  0.474885  0.863461  0.363146  1
  F  F38  1  0.793210  0.423733  0.749457  1
  F  F39  1  0.722516  0.600314  0.679323  1
  F  F40  1  0.399686  0.277484  0.179323  1
  F  F41  1  0.591035  0.023927  0.106763  1
  F  F42  1  0.536969  0.693983  0.428721  1
  F  F43  1  0.023927  0.591035  0.393237  1
  F  F44  1  0.601901  0.771812  0.196312  1
  F  F45  1  0.837059  0.116669  0.735400  1
  F  F46  1  0.979735  0.971189  0.369716  1
  F  F47  1  0.950867  0.228090  0.039247  1
  F  F48  1  0.020265  0.028811  0.630284  1
  F  F49  1  0.228188  0.398099  0.696312  1
  F  F50  1  0.971189  0.979735  0.130284  1
  F  F51  1  0.206790  0.576267  0.250543  1
  F  F52  1  0.771910  0.049133  0.539247  1
  F  F53  1  0.306017  0.463031  0.928721  1
  F  F54  1  0.228090  0.950867  0.460753  1
  F  F55  1  0.157914  0.330688  0.503036  1
