# generated using pymatgen
data_Y7C3I6O
_symmetry_space_group_name_H-M   'P 1'
_cell_length_a   3.86192532
_cell_length_b   11.52909444
_cell_length_c   22.65131931
_cell_angle_alpha   90.00000000
_cell_angle_beta   90.00000000
_cell_angle_gamma   90.00000000
_symmetry_Int_Tables_number   1
_chemical_formula_structural   Y7C3I6O
_chemical_formula_sum   'Y14 C6 I12 O2'
_cell_volume   1008.53870591
_cell_formula_units_Z   2
loop_
 _symmetry_equiv_pos_site_id
 _symmetry_equiv_pos_as_xyz
  1  'x, y, z'
loop_
 _atom_site_type_symbol
 _atom_site_label
 _atom_site_symmetry_multiplicity
 _atom_site_fract_x
 _atom_site_fract_y
 _atom_site_fract_z
 _atom_site_occupancy
  Y  Y0  1  0.500000  0.637211  0.969478  1
  Y  Y1  1  0.000000  0.701956  0.664831  1
  Y  Y2  1  0.500000  0.516226  0.750000  1
  Y  Y3  1  0.000000  0.437614  0.605008  1
  Y  Y4  1  0.000000  0.298044  0.164831  1
  Y  Y5  1  0.500000  0.483774  0.250000  1
  Y  Y6  1  0.500000  0.362789  0.469478  1
  Y  Y7  1  0.000000  0.437614  0.894992  1
  Y  Y8  1  0.000000  0.562386  0.105008  1
  Y  Y9  1  0.000000  0.701956  0.835169  1
  Y  Y10  1  0.500000  0.637211  0.530522  1
  Y  Y11  1  0.500000  0.362789  0.030522  1
  Y  Y12  1  0.000000  0.298044  0.335169  1
  Y  Y13  1  0.000000  0.562386  0.394992  1
  C  C14  1  0.500000  0.423954  0.136563  1
  C  C15  1  0.500000  0.576046  0.636563  1
  C  C16  1  0.000000  0.500000  0.000000  1
  C  C17  1  0.500000  0.576046  0.863437  1
  C  C18  1  0.000000  0.500000  0.500000  1
  C  C19  1  0.500000  0.423954  0.363437  1
  I  I20  1  0.500000  0.129959  0.250000  1
  I  I21  1  0.000000  0.692901  0.250000  1
  I  I22  1  0.000000  0.142607  0.058078  1
  I  I23  1  0.500000  0.227952  0.908131  1
  I  I24  1  0.500000  0.772048  0.408131  1
  I  I25  1  0.000000  0.857393  0.941922  1
  I  I26  1  0.000000  0.142607  0.441922  1
  I  I27  1  0.500000  0.772048  0.091869  1
  I  I28  1  0.000000  0.857393  0.558078  1
  I  I29  1  0.000000  0.307099  0.750000  1
  I  I30  1  0.500000  0.227952  0.591869  1
  I  I31  1  0.500000  0.870041  0.750000  1
  O  O32  1  0.000000  0.612812  0.750000  1
  O  O33  1  0.000000  0.387188  0.250000  1
