# generated using pymatgen
data_Nd4(GeS4)3
_symmetry_space_group_name_H-M   'P 1'
_cell_length_a   11.56032982
_cell_length_b   11.56032982
_cell_length_c   11.56032982
_cell_angle_alpha   114.81904581
_cell_angle_beta   114.81904581
_cell_angle_gamma   114.81904581
_symmetry_Int_Tables_number   1
_chemical_formula_structural   Nd4(GeS4)3
_chemical_formula_sum   'Nd8 Ge6 S24'
_cell_volume   878.72081242
_cell_formula_units_Z   2
loop_
 _symmetry_equiv_pos_site_id
 _symmetry_equiv_pos_as_xyz
  1  'x, y, z'
loop_
 _atom_site_type_symbol
 _atom_site_label
 _atom_site_symmetry_multiplicity
 _atom_site_fract_x
 _atom_site_fract_y
 _atom_site_fract_z
 _atom_site_occupancy
  Nd  Nd0  1  0.474739  0.712639  0.935902  1
  Nd  Nd1  1  0.974739  0.435902  0.212639  1
  Nd  Nd2  1  0.999147  0.999147  0.999147  1
  Nd  Nd3  1  0.212639  0.974739  0.435902  1
  Nd  Nd4  1  0.712639  0.935902  0.474739  1
  Nd  Nd5  1  0.935902  0.474739  0.712639  1
  Nd  Nd6  1  0.435902  0.212639  0.974739  1
  Nd  Nd7  1  0.499147  0.499147  0.499147  1
  Ge  Ge8  1  0.469380  0.855812  0.644027  1
  Ge  Ge9  1  0.644027  0.469380  0.855812  1
  Ge  Ge10  1  0.355812  0.969380  0.144027  1
  Ge  Ge11  1  0.855812  0.644027  0.469380  1
  Ge  Ge12  1  0.969380  0.144027  0.355812  1
  Ge  Ge13  1  0.144027  0.355812  0.969380  1
  S  S14  1  0.612088  0.586102  0.297369  1
  S  S15  1  0.086431  0.353038  0.631713  1
  S  S16  1  0.872398  0.685942  0.688219  1
  S  S17  1  0.885735  0.281558  0.812711  1
  S  S18  1  0.586431  0.131713  0.853038  1
  S  S19  1  0.112088  0.797369  0.086102  1
  S  S20  1  0.131713  0.853038  0.586431  1
  S  S21  1  0.353038  0.631713  0.086431  1
  S  S22  1  0.281558  0.812711  0.885735  1
  S  S23  1  0.086102  0.112088  0.797369  1
  S  S24  1  0.853038  0.586431  0.131713  1
  S  S25  1  0.631713  0.086431  0.353038  1
  S  S26  1  0.685942  0.688219  0.872398  1
  S  S27  1  0.297369  0.612088  0.586102  1
  S  S28  1  0.185942  0.372398  0.188219  1
  S  S29  1  0.797369  0.086102  0.112088  1
  S  S30  1  0.688219  0.872398  0.685942  1
  S  S31  1  0.586102  0.297369  0.612088  1
  S  S32  1  0.312711  0.781558  0.385735  1
  S  S33  1  0.385735  0.312711  0.781558  1
  S  S34  1  0.781558  0.385735  0.312711  1
  S  S35  1  0.812711  0.885735  0.281558  1
  S  S36  1  0.188219  0.185942  0.372398  1
  S  S37  1  0.372398  0.188219  0.185942  1
