# generated using pymatgen
data_TmFeO3
_symmetry_space_group_name_H-M   'P 1'
_cell_length_a   6.07291030
_cell_length_b   6.07291030
_cell_length_c   11.75054403
_cell_angle_alpha   90.00000000
_cell_angle_beta   90.00000000
_cell_angle_gamma   120.00000000
_symmetry_Int_Tables_number   1
_chemical_formula_structural   TmFeO3
_chemical_formula_sum   'Tm6 Fe6 O18'
_cell_volume   375.30326166
_cell_formula_units_Z   6
loop_
 _symmetry_equiv_pos_site_id
 _symmetry_equiv_pos_as_xyz
  1  'x, y, z'
loop_
 _atom_site_type_symbol
 _atom_site_label
 _atom_site_symmetry_multiplicity
 _atom_site_fract_x
 _atom_site_fract_y
 _atom_site_fract_z
 _atom_site_occupancy
  Tm  Tm0  1  0.666667  0.333333  0.732444  1
  Tm  Tm1  1  0.666667  0.333333  0.232444  1
  Tm  Tm2  1  0.000000  0.000000  0.275825  1
  Tm  Tm3  1  0.333333  0.666667  0.232444  1
  Tm  Tm4  1  0.000000  0.000000  0.775825  1
  Tm  Tm5  1  0.333333  0.666667  0.732444  1
  Fe  Fe6  1  0.333883  0.000000  0.000672  1
  Fe  Fe7  1  0.000000  0.333883  0.000672  1
  Fe  Fe8  1  0.000000  0.666117  0.500672  1
  Fe  Fe9  1  0.666117  0.000000  0.500672  1
  Fe  Fe10  1  0.666117  0.666117  0.000672  1
  Fe  Fe11  1  0.333883  0.333883  0.500672  1
  O  O12  1  0.000000  0.361347  0.836311  1
  O  O13  1  0.305233  0.305233  0.666932  1
  O  O14  1  0.666667  0.333333  0.023121  1
  O  O15  1  0.000000  0.694767  0.666932  1
  O  O16  1  0.666667  0.333333  0.523121  1
  O  O17  1  0.000000  0.000000  0.475198  1
  O  O18  1  0.361347  0.000000  0.836311  1
  O  O19  1  0.333333  0.666667  0.523121  1
  O  O20  1  0.305233  0.000000  0.166932  1
  O  O21  1  0.638653  0.000000  0.336311  1
  O  O22  1  0.638653  0.638653  0.836311  1
  O  O23  1  0.361347  0.361347  0.336311  1
  O  O24  1  0.000000  0.638653  0.336311  1
  O  O25  1  0.000000  0.305233  0.166932  1
  O  O26  1  0.694767  0.000000  0.666932  1
  O  O27  1  0.694767  0.694767  0.166932  1
  O  O28  1  0.000000  0.000000  0.975198  1
  O  O29  1  0.333333  0.666667  0.023121  1
