# generated using pymatgen
data_Rb2Cr2Cd(H2O5)2
_symmetry_space_group_name_H-M   'P 1'
_cell_length_a   6.89846663
_cell_length_b   7.92149305
_cell_length_c   11.61710771
_cell_angle_alpha   72.69012820
_cell_angle_beta   75.43485787
_cell_angle_gamma   68.59283540
_symmetry_Int_Tables_number   1
_chemical_formula_structural   Rb2Cr2Cd(H2O5)2
_chemical_formula_sum   'Rb4 Cr4 Cd2 H8 O20'
_cell_volume   556.92719934
_cell_formula_units_Z   2
loop_
 _symmetry_equiv_pos_site_id
 _symmetry_equiv_pos_as_xyz
  1  'x, y, z'
loop_
 _atom_site_type_symbol
 _atom_site_label
 _atom_site_symmetry_multiplicity
 _atom_site_fract_x
 _atom_site_fract_y
 _atom_site_fract_z
 _atom_site_occupancy
  Rb  Rb0  1  0.199829  0.245784  0.597649  1
  Rb  Rb1  1  0.733886  0.266851  0.079025  1
  Rb  Rb2  1  0.266114  0.733149  0.920975  1
  Rb  Rb3  1  0.800171  0.754216  0.402351  1
  Cr  Cr4  1  0.732512  0.771739  0.086043  1
  Cr  Cr5  1  0.731422  0.229342  0.424005  1
  Cr  Cr6  1  0.267488  0.228261  0.913957  1
  Cr  Cr7  1  0.268578  0.770658  0.575995  1
  Cd  Cd8  1  0.750143  0.970198  0.746810  1
  Cd  Cd9  1  0.249857  0.029802  0.253190  1
  H  H10  1  0.636581  0.310452  0.800819  1
  H  H11  1  0.657755  0.656025  0.712242  1
  H  H12  1  0.311859  0.633211  0.341262  1
  H  H13  1  0.846276  0.570025  0.793692  1
  H  H14  1  0.342245  0.343975  0.287758  1
  H  H15  1  0.153724  0.429975  0.206308  1
  H  H16  1  0.688141  0.366789  0.658738  1
  H  H17  1  0.363419  0.689548  0.199181  1
  O  O18  1  0.748531  0.277277  0.730017  1
  O  O19  1  0.843543  0.355402  0.457592  1
  O  O20  1  0.567609  0.666018  0.080412  1
  O  O21  1  0.891977  0.119342  0.314585  1
  O  O22  1  0.389538  0.082855  0.818869  1
  O  O23  1  0.191881  0.107319  0.052885  1
  O  O24  1  0.432391  0.333982  0.919588  1
  O  O25  1  0.610462  0.917145  0.181131  1
  O  O26  1  0.944982  0.615908  0.139222  1
  O  O27  1  0.719024  0.677331  0.773677  1
  O  O28  1  0.496215  0.637379  0.624874  1
  O  O29  1  0.503785  0.362621  0.375126  1
  O  O30  1  0.055018  0.384092  0.860778  1
  O  O31  1  0.679369  0.069244  0.549444  1
  O  O32  1  0.280976  0.322669  0.226323  1
  O  O33  1  0.156457  0.644598  0.542408  1
  O  O34  1  0.808119  0.892681  0.947115  1
  O  O35  1  0.251469  0.722723  0.269983  1
  O  O36  1  0.320631  0.930756  0.450556  1
  O  O37  1  0.108023  0.880658  0.685415  1
