# generated using pymatgen
data_Cu3BiTe2ClO8
_symmetry_space_group_name_H-M   'P 1'
_cell_length_a   6.44878256
_cell_length_b   10.02407489
_cell_length_c   14.53269374
_cell_angle_alpha   90.00000000
_cell_angle_beta   90.00000000
_cell_angle_gamma   90.00000000
_symmetry_Int_Tables_number   1
_chemical_formula_structural   Cu3BiTe2ClO8
_chemical_formula_sum   'Cu12 Bi4 Te8 Cl4 O32'
_cell_volume   939.43807432
_cell_formula_units_Z   4
loop_
 _symmetry_equiv_pos_site_id
 _symmetry_equiv_pos_as_xyz
  1  'x, y, z'
loop_
 _atom_site_type_symbol
 _atom_site_label
 _atom_site_symmetry_multiplicity
 _atom_site_fract_x
 _atom_site_fract_y
 _atom_site_fract_z
 _atom_site_occupancy
  Cu  Cu0  1  0.194476  0.750000  0.140846  1
  Cu  Cu1  1  0.015341  0.012481  0.259332  1
  Cu  Cu2  1  0.305524  0.750000  0.640846  1
  Cu  Cu3  1  0.984659  0.987519  0.740668  1
  Cu  Cu4  1  0.484659  0.487519  0.759332  1
  Cu  Cu5  1  0.694476  0.250000  0.359154  1
  Cu  Cu6  1  0.015341  0.487519  0.259332  1
  Cu  Cu7  1  0.805524  0.250000  0.859154  1
  Cu  Cu8  1  0.484659  0.012481  0.759332  1
  Cu  Cu9  1  0.515341  0.987519  0.240668  1
  Cu  Cu10  1  0.984659  0.512481  0.740668  1
  Cu  Cu11  1  0.515341  0.512481  0.240668  1
  Bi  Bi12  1  0.765179  0.250000  0.135255  1
  Bi  Bi13  1  0.265179  0.750000  0.364745  1
  Bi  Bi14  1  0.234821  0.750000  0.864745  1
  Bi  Bi15  1  0.734821  0.250000  0.635255  1
  Te  Te16  1  0.741887  0.563237  0.456850  1
  Te  Te17  1  0.258113  0.063237  0.543150  1
  Te  Te18  1  0.241887  0.063237  0.043150  1
  Te  Te19  1  0.241887  0.436763  0.043150  1
  Te  Te20  1  0.758113  0.563237  0.956850  1
  Te  Te21  1  0.758113  0.936763  0.956850  1
  Te  Te22  1  0.258113  0.436763  0.543150  1
  Te  Te23  1  0.741887  0.936763  0.456850  1
  Cl  Cl24  1  0.779925  0.750000  0.177522  1
  Cl  Cl25  1  0.279925  0.250000  0.322478  1
  Cl  Cl26  1  0.720075  0.750000  0.677522  1
  Cl  Cl27  1  0.220075  0.250000  0.822478  1
  O  O28  1  0.007357  0.441622  0.614278  1
  O  O29  1  0.992643  0.558378  0.385722  1
  O  O30  1  0.749949  0.113593  0.262090  1
  O  O31  1  0.549549  0.602415  0.359593  1
  O  O32  1  0.750051  0.386407  0.762090  1
  O  O33  1  0.049549  0.102415  0.140407  1
  O  O34  1  0.178386  0.879267  0.036598  1
  O  O35  1  0.450451  0.102415  0.640407  1
  O  O36  1  0.992643  0.941622  0.385722  1
  O  O37  1  0.492643  0.441622  0.114278  1
  O  O38  1  0.007357  0.058378  0.614278  1
  O  O39  1  0.250051  0.613593  0.737910  1
  O  O40  1  0.321614  0.879267  0.536598  1
  O  O41  1  0.249949  0.613593  0.237910  1
  O  O42  1  0.250051  0.886407  0.737910  1
  O  O43  1  0.321614  0.620733  0.536598  1
  O  O44  1  0.821614  0.120733  0.963402  1
  O  O45  1  0.249949  0.886407  0.237910  1
  O  O46  1  0.178386  0.620733  0.036598  1
  O  O47  1  0.507357  0.558378  0.885722  1
  O  O48  1  0.507357  0.941622  0.885722  1
  O  O49  1  0.821614  0.379267  0.963402  1
  O  O50  1  0.049549  0.397585  0.140407  1
  O  O51  1  0.678386  0.120733  0.463402  1
  O  O52  1  0.950451  0.602415  0.859593  1
  O  O53  1  0.678386  0.379267  0.463402  1
  O  O54  1  0.450451  0.397585  0.640407  1
  O  O55  1  0.749949  0.386407  0.262090  1
  O  O56  1  0.750051  0.113593  0.762090  1
  O  O57  1  0.492643  0.058378  0.114278  1
  O  O58  1  0.549549  0.897585  0.359593  1
  O  O59  1  0.950451  0.897585  0.859593  1
