# generated using pymatgen
data_Ca4Mn3O10
_symmetry_space_group_name_H-M   'P 1'
_cell_length_a   5.34000130
_cell_length_b   5.39131537
_cell_length_c   27.05339373
_cell_angle_alpha   90.00000000
_cell_angle_beta   90.00000000
_cell_angle_gamma   90.00000000
_symmetry_Int_Tables_number   1
_chemical_formula_structural   Ca4Mn3O10
_chemical_formula_sum   'Ca16 Mn12 O40'
_cell_volume   778.85722507
_cell_formula_units_Z   4
loop_
 _symmetry_equiv_pos_site_id
 _symmetry_equiv_pos_as_xyz
  1  'x, y, z'
loop_
 _atom_site_type_symbol
 _atom_site_label
 _atom_site_symmetry_multiplicity
 _atom_site_fract_x
 _atom_site_fract_y
 _atom_site_fract_z
 _atom_site_occupancy
  Ca  Ca0  1  0.006427  0.540795  0.295308  1
  Ca  Ca1  1  0.493573  0.459205  0.795308  1
  Ca  Ca2  1  0.993573  0.040795  0.204692  1
  Ca  Ca3  1  0.506658  0.042610  0.569459  1
  Ca  Ca4  1  0.493342  0.957390  0.430541  1
  Ca  Ca5  1  0.493573  0.040795  0.295308  1
  Ca  Ca6  1  0.506427  0.959205  0.704692  1
  Ca  Ca7  1  0.506427  0.540795  0.204692  1
  Ca  Ca8  1  0.993573  0.459205  0.704692  1
  Ca  Ca9  1  0.493342  0.542610  0.930541  1
  Ca  Ca10  1  0.006658  0.042610  0.930541  1
  Ca  Ca11  1  0.006658  0.457390  0.430541  1
  Ca  Ca12  1  0.993342  0.542610  0.569459  1
  Ca  Ca13  1  0.993342  0.957390  0.069459  1
  Ca  Ca14  1  0.506658  0.457390  0.069459  1
  Ca  Ca15  1  0.006427  0.959205  0.795308  1
  Mn  Mn16  1  0.500159  0.998065  0.859194  1
  Mn  Mn17  1  0.000159  0.501935  0.140806  1
  Mn  Mn18  1  0.999841  0.498065  0.859194  1
  Mn  Mn19  1  0.000159  0.998065  0.640806  1
  Mn  Mn20  1  0.999841  0.001935  0.359194  1
  Mn  Mn21  1  0.000000  0.500000  0.000000  1
  Mn  Mn22  1  0.499841  0.498065  0.640806  1
  Mn  Mn23  1  0.499841  0.001935  0.140806  1
  Mn  Mn24  1  0.500000  0.000000  0.000000  1
  Mn  Mn25  1  0.500159  0.501935  0.359194  1
  Mn  Mn26  1  0.500000  0.500000  0.500000  1
  Mn  Mn27  1  0.000000  0.000000  0.500000  1
  O  O28  1  0.446747  0.491773  0.288811  1
  O  O29  1  0.207028  0.709599  0.369768  1
  O  O30  1  0.708742  0.708141  0.849257  1
  O  O31  1  0.575558  0.519370  0.430001  1
  O  O32  1  0.292972  0.209599  0.369768  1
  O  O33  1  0.292972  0.290401  0.869768  1
  O  O34  1  0.424442  0.480630  0.569999  1
  O  O35  1  0.553253  0.508227  0.711189  1
  O  O36  1  0.794096  0.207532  0.011247  1
  O  O37  1  0.207028  0.790401  0.869768  1
  O  O38  1  0.208742  0.791859  0.150743  1
  O  O39  1  0.294096  0.292468  0.988753  1
  O  O40  1  0.075558  0.980630  0.569999  1
  O  O41  1  0.924442  0.480630  0.930001  1
  O  O42  1  0.705904  0.792468  0.511247  1
  O  O43  1  0.208742  0.708141  0.650743  1
  O  O44  1  0.946747  0.008227  0.711189  1
  O  O45  1  0.946747  0.491773  0.211189  1
  O  O46  1  0.291258  0.291859  0.150743  1
  O  O47  1  0.291258  0.208141  0.650743  1
  O  O48  1  0.294096  0.207532  0.488753  1
  O  O49  1  0.791258  0.208141  0.849257  1
  O  O50  1  0.707028  0.790401  0.630232  1
  O  O51  1  0.075558  0.519370  0.069999  1
  O  O52  1  0.205904  0.707532  0.488753  1
  O  O53  1  0.794096  0.292468  0.511247  1
  O  O54  1  0.708742  0.791859  0.349257  1
  O  O55  1  0.791258  0.291859  0.349257  1
  O  O56  1  0.792972  0.290401  0.630232  1
  O  O57  1  0.705904  0.707532  0.011247  1
  O  O58  1  0.707028  0.709599  0.130232  1
  O  O59  1  0.575558  0.980630  0.930001  1
  O  O60  1  0.792972  0.209599  0.130232  1
  O  O61  1  0.553253  0.991773  0.211189  1
  O  O62  1  0.424442  0.019370  0.069999  1
  O  O63  1  0.053253  0.508227  0.788811  1
  O  O64  1  0.446747  0.008227  0.788811  1
  O  O65  1  0.053253  0.991773  0.288811  1
  O  O66  1  0.924442  0.019370  0.430001  1
  O  O67  1  0.205904  0.792468  0.988753  1
