# generated using pymatgen
data_Ag2Se
_symmetry_space_group_name_H-M   'P 1'
_cell_length_a   4.49748133
_cell_length_b   7.11325505
_cell_length_c   7.67068178
_cell_angle_alpha   90.00000000
_cell_angle_beta   90.00000000
_cell_angle_gamma   90.00000000
_symmetry_Int_Tables_number   1
_chemical_formula_structural   Ag2Se
_chemical_formula_sum   'Ag8 Se4'
_cell_volume   245.39839410
_cell_formula_units_Z   4
loop_
 _symmetry_equiv_pos_site_id
 _symmetry_equiv_pos_as_xyz
  1  'x, y, z'
loop_
 _atom_site_type_symbol
 _atom_site_label
 _atom_site_symmetry_multiplicity
 _atom_site_fract_x
 _atom_site_fract_y
 _atom_site_fract_z
 _atom_site_occupancy
  Ag  Ag0  1  0.022006  0.226464  0.864601  1
  Ag  Ag1  1  0.654542  0.884948  0.952441  1
  Ag  Ag2  1  0.477994  0.773536  0.364601  1
  Ag  Ag3  1  0.154542  0.615052  0.047559  1
  Ag  Ag4  1  0.845458  0.115052  0.452441  1
  Ag  Ag5  1  0.977994  0.726464  0.635399  1
  Ag  Ag6  1  0.345458  0.384948  0.547559  1
  Ag  Ag7  1  0.522006  0.273536  0.135399  1
  Se  Se8  1  0.878799  0.496773  0.345555  1
  Se  Se9  1  0.121201  0.996773  0.154445  1
  Se  Se10  1  0.378799  0.003227  0.654445  1
  Se  Se11  1  0.621201  0.503227  0.845555  1
