# generated using pymatgen
data_AlTeCl7
_symmetry_space_group_name_H-M   'P 1'
_cell_length_a   6.74796556
_cell_length_b   12.91575706
_cell_length_c   14.37480459
_cell_angle_alpha   90.00000000
_cell_angle_beta   105.87703521
_cell_angle_gamma   90.00000000
_symmetry_Int_Tables_number   1
_chemical_formula_structural   AlTeCl7
_chemical_formula_sum   'Al4 Te4 Cl28'
_cell_volume   1205.04285616
_cell_formula_units_Z   4
loop_
 _symmetry_equiv_pos_site_id
 _symmetry_equiv_pos_as_xyz
  1  'x, y, z'
loop_
 _atom_site_type_symbol
 _atom_site_label
 _atom_site_symmetry_multiplicity
 _atom_site_fract_x
 _atom_site_fract_y
 _atom_site_fract_z
 _atom_site_occupancy
  Al  Al0  1  0.127250  0.042778  0.721739  1
  Al  Al1  1  0.872750  0.542778  0.778261  1
  Al  Al2  1  0.872750  0.957222  0.278261  1
  Al  Al3  1  0.127250  0.457222  0.221739  1
  Te  Te4  1  0.411743  0.751875  0.389268  1
  Te  Te5  1  0.411743  0.748125  0.889268  1
  Te  Te6  1  0.588257  0.248125  0.610732  1
  Te  Te7  1  0.588257  0.251875  0.110732  1
  Cl  Cl8  1  0.556716  0.907442  0.265426  1
  Cl  Cl9  1  0.927486  0.102348  0.586106  1
  Cl  Cl10  1  0.608658  0.843945  0.522002  1
  Cl  Cl11  1  0.072514  0.602348  0.913894  1
  Cl  Cl12  1  0.927486  0.397652  0.086106  1
  Cl  Cl13  1  0.290198  0.864552  0.984996  1
  Cl  Cl14  1  0.556716  0.592558  0.765426  1
  Cl  Cl15  1  0.391342  0.156055  0.477998  1
  Cl  Cl16  1  0.318192  0.353496  0.626859  1
  Cl  Cl17  1  0.709802  0.135448  0.015004  1
  Cl  Cl18  1  0.290198  0.635448  0.484996  1
  Cl  Cl19  1  0.072514  0.897652  0.413894  1
  Cl  Cl20  1  0.977855  0.903333  0.160842  1
  Cl  Cl21  1  0.608658  0.656055  0.022002  1
  Cl  Cl22  1  0.872070  0.125484  0.286079  1
  Cl  Cl23  1  0.443284  0.092558  0.734574  1
  Cl  Cl24  1  0.977855  0.596667  0.660842  1
  Cl  Cl25  1  0.022145  0.096667  0.839158  1
  Cl  Cl26  1  0.872070  0.374516  0.786079  1
  Cl  Cl27  1  0.443284  0.407442  0.234574  1
  Cl  Cl28  1  0.709802  0.364552  0.515004  1
  Cl  Cl29  1  0.681808  0.646504  0.373141  1
  Cl  Cl30  1  0.391342  0.343945  0.977998  1
  Cl  Cl31  1  0.318192  0.146504  0.126859  1
  Cl  Cl32  1  0.127930  0.874516  0.713921  1
  Cl  Cl33  1  0.127930  0.625484  0.213921  1
  Cl  Cl34  1  0.022145  0.403333  0.339158  1
  Cl  Cl35  1  0.681808  0.853496  0.873141  1
