# generated using pymatgen
data_Al6Fe
_symmetry_space_group_name_H-M   'P 1'
_cell_length_a   4.91635991
_cell_length_b   4.91635991
_cell_length_c   8.81622642
_cell_angle_alpha   90.00000000
_cell_angle_beta   90.00000000
_cell_angle_gamma   98.16301600
_symmetry_Int_Tables_number   1
_chemical_formula_structural   Al6Fe
_chemical_formula_sum   'Al12 Fe2'
_cell_volume   210.93439248
_cell_formula_units_Z   2
loop_
 _symmetry_equiv_pos_site_id
 _symmetry_equiv_pos_as_xyz
  1  'x, y, z'
loop_
 _atom_site_type_symbol
 _atom_site_label
 _atom_site_symmetry_multiplicity
 _atom_site_fract_x
 _atom_site_fract_y
 _atom_site_fract_z
 _atom_site_occupancy
  Al  Al0  1  0.322598  0.677402  0.500000  1
  Al  Al1  1  0.145905  0.145905  0.097893  1
  Al  Al2  1  0.322598  0.677402  0.000000  1
  Al  Al3  1  0.854095  0.854095  0.902107  1
  Al  Al4  1  0.392175  0.028487  0.750000  1
  Al  Al5  1  0.677402  0.322598  0.000000  1
  Al  Al6  1  0.145905  0.145905  0.402107  1
  Al  Al7  1  0.607825  0.971513  0.250000  1
  Al  Al8  1  0.971513  0.607825  0.250000  1
  Al  Al9  1  0.028487  0.392175  0.750000  1
  Al  Al10  1  0.854095  0.854095  0.597893  1
  Al  Al11  1  0.677402  0.322598  0.500000  1
  Fe  Fe12  1  0.460069  0.460069  0.250000  1
  Fe  Fe13  1  0.539931  0.539931  0.750000  1
