# generated using pymatgen
data_Fe(SbO3)2
_symmetry_space_group_name_H-M   'P 1'
_cell_length_a   4.75334608
_cell_length_b   4.75334608
_cell_length_c   9.48425050
_cell_angle_alpha   90.00000000
_cell_angle_beta   90.00000000
_cell_angle_gamma   90.00000000
_symmetry_Int_Tables_number   1
_chemical_formula_structural   Fe(SbO3)2
_chemical_formula_sum   'Fe2 Sb4 O12'
_cell_volume   214.28999117
_cell_formula_units_Z   2
loop_
 _symmetry_equiv_pos_site_id
 _symmetry_equiv_pos_as_xyz
  1  'x, y, z'
loop_
 _atom_site_type_symbol
 _atom_site_label
 _atom_site_symmetry_multiplicity
 _atom_site_fract_x
 _atom_site_fract_y
 _atom_site_fract_z
 _atom_site_occupancy
  Fe  Fe0  1  0.000000  0.000000  0.000000  1
  Fe  Fe1  1  0.500000  0.500000  0.500000  1
  Sb  Sb2  1  0.000000  0.000000  0.332108  1
  Sb  Sb3  1  0.500000  0.500000  0.832108  1
  Sb  Sb4  1  0.500000  0.500000  0.167892  1
  Sb  Sb5  1  0.000000  0.000000  0.667892  1
  O  O6  1  0.312150  0.312150  0.000000  1
  O  O7  1  0.187850  0.812150  0.500000  1
  O  O8  1  0.812150  0.187850  0.500000  1
  O  O9  1  0.687850  0.687850  0.000000  1
  O  O10  1  0.300798  0.300798  0.326370  1
  O  O11  1  0.199202  0.800798  0.826370  1
  O  O12  1  0.800798  0.199202  0.826370  1
  O  O13  1  0.800798  0.199202  0.173630  1
  O  O14  1  0.199202  0.800798  0.173630  1
  O  O15  1  0.699202  0.699202  0.326370  1
  O  O16  1  0.300798  0.300798  0.673630  1
  O  O17  1  0.699202  0.699202  0.673630  1
