# generated using pymatgen
data_Cs2V4O9
_symmetry_space_group_name_H-M   'P 1'
_cell_length_a   5.85324586
_cell_length_b   5.85324586
_cell_length_c   15.61202517
_cell_angle_alpha   90.00000000
_cell_angle_beta   90.00000000
_cell_angle_gamma   90.00000000
_symmetry_Int_Tables_number   1
_chemical_formula_structural   Cs2V4O9
_chemical_formula_sum   'Cs4 V8 O18'
_cell_volume   534.87558690
_cell_formula_units_Z   2
loop_
 _symmetry_equiv_pos_site_id
 _symmetry_equiv_pos_as_xyz
  1  'x, y, z'
loop_
 _atom_site_type_symbol
 _atom_site_label
 _atom_site_symmetry_multiplicity
 _atom_site_fract_x
 _atom_site_fract_y
 _atom_site_fract_z
 _atom_site_occupancy
  Cs  Cs0  1  0.732620  0.749605  0.500000  1
  Cs  Cs1  1  0.749605  0.267380  0.000000  1
  Cs  Cs2  1  0.267380  0.250395  0.500000  1
  Cs  Cs3  1  0.250395  0.732620  0.000000  1
  V  V4  1  0.288186  0.145342  0.797272  1
  V  V5  1  0.145342  0.711814  0.702728  1
  V  V6  1  0.711814  0.854658  0.797272  1
  V  V7  1  0.288186  0.145342  0.202728  1
  V  V8  1  0.145342  0.711814  0.297272  1
  V  V9  1  0.854658  0.288186  0.297272  1
  V  V10  1  0.854658  0.288186  0.702728  1
  V  V11  1  0.711814  0.854658  0.202728  1
  O  O12  1  0.763194  0.782083  0.898974  1
  O  O13  1  0.782083  0.236806  0.601026  1
  O  O14  1  0.217917  0.763194  0.601026  1
  O  O15  1  0.180086  0.380477  0.282681  1
  O  O16  1  0.619523  0.180086  0.217319  1
  O  O17  1  0.782083  0.236806  0.398974  1
  O  O18  1  0.819914  0.619523  0.717319  1
  O  O19  1  0.236806  0.217917  0.898974  1
  O  O20  1  0.380477  0.819914  0.217319  1
  O  O21  1  0.236806  0.217917  0.101026  1
  O  O22  1  0.380477  0.819914  0.782681  1
  O  O23  1  0.180086  0.380477  0.717319  1
  O  O24  1  0.000000  0.000000  0.750000  1
  O  O25  1  0.619523  0.180086  0.782681  1
  O  O26  1  0.763194  0.782083  0.101026  1
  O  O27  1  0.819914  0.619523  0.282681  1
  O  O28  1  0.217917  0.763194  0.398974  1
  O  O29  1  0.000000  0.000000  0.250000  1
