# generated using pymatgen
data_RbPr6(CI6)2
_symmetry_space_group_name_H-M   'P 1'
_cell_length_a   9.77311966
_cell_length_b   9.80062923
_cell_length_c   10.26374994
_cell_angle_alpha   70.82858836
_cell_angle_beta   71.91440128
_cell_angle_gamma   72.58088696
_symmetry_Int_Tables_number   1
_chemical_formula_structural   RbPr6(CI6)2
_chemical_formula_sum   'Rb1 Pr6 C2 I12'
_cell_volume   861.09148833
_cell_formula_units_Z   1
loop_
 _symmetry_equiv_pos_site_id
 _symmetry_equiv_pos_as_xyz
  1  'x, y, z'
loop_
 _atom_site_type_symbol
 _atom_site_label
 _atom_site_symmetry_multiplicity
 _atom_site_fract_x
 _atom_site_fract_y
 _atom_site_fract_z
 _atom_site_occupancy
  Rb  Rb0  1  0.500000  0.000000  0.000000  1
  Pr  Pr1  1  0.969215  0.228402  0.589637  1
  Pr  Pr2  1  0.030785  0.771598  0.410363  1
  Pr  Pr3  1  0.108473  0.476375  0.192903  1
  Pr  Pr4  1  0.730338  0.590157  0.476085  1
  Pr  Pr5  1  0.269662  0.409843  0.523915  1
  Pr  Pr6  1  0.891527  0.523625  0.807097  1
  C  C7  1  0.024082  0.494365  0.429478  1
  C  C8  1  0.975918  0.505635  0.570522  1
  I  I9  1  0.366264  0.719067  0.429757  1
  I  I10  1  0.633736  0.280933  0.570243  1
  I  I11  1  0.222841  0.412209  0.856597  1
  I  I12  1  0.777159  0.587791  0.143403  1
  I  I13  1  0.159696  0.802024  0.077707  1
  I  I14  1  0.716927  0.928770  0.354244  1
  I  I15  1  0.436076  0.351243  0.219833  1
  I  I16  1  0.929937  0.863389  0.709074  1
  I  I17  1  0.840304  0.197976  0.922293  1
  I  I18  1  0.070063  0.136611  0.290926  1
  I  I19  1  0.563924  0.648757  0.780167  1
  I  I20  1  0.283073  0.071230  0.645756  1
