# generated using pymatgen
data_Na6Se2O9
_symmetry_space_group_name_H-M   'P 1'
_cell_length_a   7.92510299
_cell_length_b   14.93984729
_cell_length_c   16.07983681
_cell_angle_alpha   90.00000000
_cell_angle_beta   90.00000000
_cell_angle_gamma   90.00000000
_symmetry_Int_Tables_number   1
_chemical_formula_structural   Na6Se2O9
_chemical_formula_sum   'Na48 Se16 O72'
_cell_volume   1903.84991946
_cell_formula_units_Z   8
loop_
 _symmetry_equiv_pos_site_id
 _symmetry_equiv_pos_as_xyz
  1  'x, y, z'
loop_
 _atom_site_type_symbol
 _atom_site_label
 _atom_site_symmetry_multiplicity
 _atom_site_fract_x
 _atom_site_fract_y
 _atom_site_fract_z
 _atom_site_occupancy
  Na  Na0  1  0.469740  0.840954  0.728900  1
  Na  Na1  1  0.250000  0.740308  0.878927  1
  Na  Na2  1  0.250000  0.007246  0.635439  1
  Na  Na3  1  0.969740  0.159046  0.271100  1
  Na  Na4  1  0.465426  0.618690  0.737965  1
  Na  Na5  1  0.250000  0.231157  0.886761  1
  Na  Na6  1  0.030260  0.659046  0.228900  1
  Na  Na7  1  0.750000  0.731157  0.613239  1
  Na  Na8  1  0.034574  0.881310  0.237965  1
  Na  Na9  1  0.531771  0.378778  0.481719  1
  Na  Na10  1  0.534574  0.381310  0.262035  1
  Na  Na11  1  0.040584  0.657013  0.021798  1
  Na  Na12  1  0.534574  0.118689  0.762035  1
  Na  Na13  1  0.530260  0.340954  0.771100  1
  Na  Na14  1  0.750000  0.952145  0.862992  1
  Na  Na15  1  0.750000  0.259692  0.121073  1
  Na  Na16  1  0.250000  0.492754  0.135439  1
  Na  Na17  1  0.040584  0.842987  0.521798  1
  Na  Na18  1  0.459416  0.842987  0.521798  1
  Na  Na19  1  0.531771  0.121222  0.981719  1
  Na  Na20  1  0.468229  0.878778  0.018281  1
  Na  Na21  1  0.968229  0.378778  0.481719  1
  Na  Na22  1  0.750000  0.507246  0.864561  1
  Na  Na23  1  0.965426  0.118689  0.762035  1
  Na  Na24  1  0.959416  0.342987  0.978202  1
  Na  Na25  1  0.969740  0.340954  0.771100  1
  Na  Na26  1  0.468229  0.621222  0.518281  1
  Na  Na27  1  0.965426  0.381310  0.262035  1
  Na  Na28  1  0.034574  0.618690  0.737965  1
  Na  Na29  1  0.540584  0.342987  0.978202  1
  Na  Na30  1  0.750000  0.547855  0.362992  1
  Na  Na31  1  0.250000  0.047855  0.137008  1
  Na  Na32  1  0.465426  0.881310  0.237965  1
  Na  Na33  1  0.540584  0.157013  0.478202  1
  Na  Na34  1  0.250000  0.759692  0.378927  1
  Na  Na35  1  0.750000  0.768843  0.113239  1
  Na  Na36  1  0.250000  0.452145  0.637008  1
  Na  Na37  1  0.250000  0.268843  0.386761  1
  Na  Na38  1  0.031771  0.878778  0.018281  1
  Na  Na39  1  0.031771  0.621222  0.518281  1
  Na  Na40  1  0.030260  0.840954  0.728900  1
  Na  Na41  1  0.750000  0.240308  0.621073  1
  Na  Na42  1  0.750000  0.992754  0.364561  1
  Na  Na43  1  0.530260  0.159046  0.271100  1
  Na  Na44  1  0.469740  0.659046  0.228900  1
  Na  Na45  1  0.959416  0.157013  0.478202  1
  Na  Na46  1  0.459416  0.657013  0.021798  1
  Na  Na47  1  0.968229  0.121222  0.981719  1
  Se  Se48  1  0.750000  0.737937  0.873502  1
  Se  Se49  1  0.750000  0.020670  0.132953  1
  Se  Se50  1  0.250000  0.483452  0.882058  1
  Se  Se51  1  0.750000  0.479330  0.632953  1
  Se  Se52  1  0.250000  0.773086  0.128352  1
  Se  Se53  1  0.750000  0.516548  0.117942  1
  Se  Se54  1  0.750000  0.273086  0.371648  1
  Se  Se55  1  0.250000  0.016548  0.382058  1
  Se  Se56  1  0.750000  0.226914  0.871648  1
  Se  Se57  1  0.750000  0.983452  0.617942  1
  Se  Se58  1  0.250000  0.979330  0.867047  1
  Se  Se59  1  0.250000  0.262063  0.126498  1
  Se  Se60  1  0.750000  0.762063  0.373502  1
  Se  Se61  1  0.250000  0.726914  0.628352  1
  Se  Se62  1  0.250000  0.520670  0.367047  1
  Se  Se63  1  0.250000  0.237937  0.626498  1
  O  O64  1  0.750000  0.537647  0.543795  1
  O  O65  1  0.750000  0.962353  0.043795  1
  O  O66  1  0.250000  0.601555  0.628457  1
  O  O67  1  0.250000  0.772989  0.012761  1
  O  O68  1  0.750000  0.352501  0.871265  1
  O  O69  1  0.077066  0.016139  0.321688  1
  O  O70  1  0.077870  0.327553  0.125211  1
  O  O71  1  0.077870  0.172447  0.625211  1
  O  O72  1  0.250000  0.898445  0.128457  1
  O  O73  1  0.750000  0.550078  0.714267  1
  O  O74  1  0.750000  0.272989  0.487239  1
  O  O75  1  0.750000  0.806691  0.956181  1
  O  O76  1  0.750000  0.890480  0.558819  1
  O  O77  1  0.076234  0.914634  0.864720  1
  O  O78  1  0.750000  0.272062  0.256479  1
  O  O79  1  0.250000  0.647499  0.128735  1
  O  O80  1  0.981925  0.273545  0.372147  1
  O  O81  1  0.250000  0.193309  0.043819  1
  O  O82  1  0.577066  0.983861  0.678312  1
  O  O83  1  0.250000  0.306691  0.543819  1
  O  O84  1  0.250000  0.927217  0.444841  1
  O  O85  1  0.577870  0.672447  0.874789  1
  O  O86  1  0.250000  0.572783  0.944841  1
  O  O87  1  0.250000  0.037647  0.956205  1
  O  O88  1  0.750000  0.949922  0.214267  1
  O  O89  1  0.750000  0.609520  0.058819  1
  O  O90  1  0.576234  0.085366  0.135280  1
  O  O91  1  0.250000  0.727011  0.512761  1
  O  O92  1  0.250000  0.449922  0.285733  1
  O  O93  1  0.250000  0.727938  0.743521  1
  O  O94  1  0.922934  0.983861  0.678312  1
  O  O95  1  0.750000  0.227938  0.756479  1
  O  O96  1  0.750000  0.693309  0.456181  1
  O  O97  1  0.250000  0.109520  0.441181  1
  O  O98  1  0.250000  0.462353  0.456205  1
  O  O99  1  0.750000  0.227011  0.987239  1
  O  O100  1  0.250000  0.050078  0.785733  1
  O  O101  1  0.923766  0.085366  0.135280  1
  O  O102  1  0.750000  0.802863  0.787660  1
  O  O103  1  0.750000  0.398445  0.371543  1
  O  O104  1  0.422934  0.016139  0.321688  1
  O  O105  1  0.018075  0.773545  0.127853  1
  O  O106  1  0.250000  0.852501  0.628735  1
  O  O107  1  0.250000  0.302863  0.712340  1
  O  O108  1  0.076234  0.585366  0.364720  1
  O  O109  1  0.250000  0.197137  0.212340  1
  O  O110  1  0.922130  0.827553  0.374789  1
  O  O111  1  0.922934  0.516139  0.178312  1
  O  O112  1  0.750000  0.101555  0.871543  1
  O  O113  1  0.750000  0.147499  0.371265  1
  O  O114  1  0.422934  0.483861  0.821688  1
  O  O115  1  0.250000  0.772062  0.243521  1
  O  O116  1  0.518075  0.226455  0.872147  1
  O  O117  1  0.750000  0.427217  0.055159  1
  O  O118  1  0.077066  0.483861  0.821688  1
  O  O119  1  0.018075  0.726455  0.627853  1
  O  O120  1  0.422130  0.327553  0.125211  1
  O  O121  1  0.518075  0.273545  0.372147  1
  O  O122  1  0.423766  0.585366  0.364720  1
  O  O123  1  0.422130  0.172447  0.625211  1
  O  O124  1  0.922130  0.672447  0.874789  1
  O  O125  1  0.981925  0.226455  0.872147  1
  O  O126  1  0.577870  0.827553  0.374789  1
  O  O127  1  0.423766  0.914634  0.864720  1
  O  O128  1  0.576234  0.414634  0.635280  1
  O  O129  1  0.481926  0.773545  0.127853  1
  O  O130  1  0.750000  0.697137  0.287660  1
  O  O131  1  0.923766  0.414634  0.635280  1
  O  O132  1  0.481926  0.726455  0.627853  1
  O  O133  1  0.577066  0.516139  0.178312  1
  O  O134  1  0.250000  0.390480  0.941181  1
  O  O135  1  0.750000  0.072783  0.555159  1
