# generated using pymatgen
data_TaTeCl9
_symmetry_space_group_name_H-M   'P 1'
_cell_length_a   6.67381819
_cell_length_b   9.69504221
_cell_length_c   11.76862777
_cell_angle_alpha   106.23343006
_cell_angle_beta   105.75776471
_cell_angle_gamma   91.00766841
_symmetry_Int_Tables_number   1
_chemical_formula_structural   TaTeCl9
_chemical_formula_sum   'Ta2 Te2 Cl18'
_cell_volume   700.01814427
_cell_formula_units_Z   2
loop_
 _symmetry_equiv_pos_site_id
 _symmetry_equiv_pos_as_xyz
  1  'x, y, z'
loop_
 _atom_site_type_symbol
 _atom_site_label
 _atom_site_symmetry_multiplicity
 _atom_site_fract_x
 _atom_site_fract_y
 _atom_site_fract_z
 _atom_site_occupancy
  Ta  Ta0  1  0.861758  0.734908  0.289776  1
  Ta  Ta1  1  0.138242  0.265092  0.710224  1
  Te  Te2  1  0.703633  0.663153  0.834737  1
  Te  Te3  1  0.296367  0.336847  0.165263  1
  Cl  Cl4  1  0.112717  0.743291  0.470424  1
  Cl  Cl5  1  0.887283  0.256709  0.529576  1
  Cl  Cl6  1  0.722281  0.496802  0.288080  1
  Cl  Cl7  1  0.277719  0.503198  0.711920  1
  Cl  Cl8  1  0.000196  0.945283  0.274034  1
  Cl  Cl9  1  0.999804  0.054717  0.725966  1
  Cl  Cl10  1  0.089217  0.601084  0.170821  1
  Cl  Cl11  1  0.910783  0.398916  0.829179  1
  Cl  Cl12  1  0.607144  0.692596  0.087218  1
  Cl  Cl13  1  0.392856  0.307404  0.912782  1
  Cl  Cl14  1  0.621942  0.844374  0.383534  1
  Cl  Cl15  1  0.378058  0.155626  0.616466  1
  Cl  Cl16  1  0.032919  0.794233  0.934029  1
  Cl  Cl17  1  0.967081  0.205767  0.065971  1
  Cl  Cl18  1  0.722567  0.634513  0.634594  1
  Cl  Cl19  1  0.277433  0.365487  0.365406  1
  Cl  Cl20  1  0.525929  0.871644  0.840485  1
  Cl  Cl21  1  0.474071  0.128356  0.159515  1
