# generated using pymatgen
data_K4Hf3Te17
_symmetry_space_group_name_H-M   'P 1'
_cell_length_a   10.42084011
_cell_length_b   31.17634547
_cell_length_c   11.97144767
_cell_angle_alpha   90.00000000
_cell_angle_beta   116.14467975
_cell_angle_gamma   90.00000000
_symmetry_Int_Tables_number   1
_chemical_formula_structural   K4Hf3Te17
_chemical_formula_sum   'K16 Hf12 Te68'
_cell_volume   3491.38874088
_cell_formula_units_Z   4
loop_
 _symmetry_equiv_pos_site_id
 _symmetry_equiv_pos_as_xyz
  1  'x, y, z'
loop_
 _atom_site_type_symbol
 _atom_site_label
 _atom_site_symmetry_multiplicity
 _atom_site_fract_x
 _atom_site_fract_y
 _atom_site_fract_z
 _atom_site_occupancy
  K  K0  1  0.737902  0.980806  0.538338  1
  K  K1  1  0.303533  0.722888  0.564938  1
  K  K2  1  0.737902  0.519194  0.038338  1
  K  K3  1  0.228774  0.932763  0.980184  1
  K  K4  1  0.228774  0.567237  0.480184  1
  K  K5  1  0.771226  0.067237  0.019816  1
  K  K6  1  0.759528  0.705389  0.035704  1
  K  K7  1  0.240472  0.294611  0.964296  1
  K  K8  1  0.262098  0.480806  0.961662  1
  K  K9  1  0.696467  0.277112  0.435062  1
  K  K10  1  0.771226  0.432763  0.519816  1
  K  K11  1  0.303533  0.777112  0.064938  1
  K  K12  1  0.240472  0.205389  0.464296  1
  K  K13  1  0.759528  0.794611  0.535704  1
  K  K14  1  0.262098  0.019194  0.461662  1
  K  K15  1  0.696467  0.222888  0.935062  1
  Hf  Hf16  1  0.448848  0.382035  0.665875  1
  Hf  Hf17  1  0.785864  0.118863  0.494735  1
  Hf  Hf18  1  0.882245  0.880756  0.175223  1
  Hf  Hf19  1  0.214136  0.618863  0.005265  1
  Hf  Hf20  1  0.551152  0.617965  0.334125  1
  Hf  Hf21  1  0.551152  0.882035  0.834125  1
  Hf  Hf22  1  0.882245  0.619244  0.675223  1
  Hf  Hf23  1  0.448848  0.117965  0.165875  1
  Hf  Hf24  1  0.785864  0.381137  0.994735  1
  Hf  Hf25  1  0.117755  0.119244  0.824777  1
  Hf  Hf26  1  0.117755  0.380756  0.324777  1
  Hf  Hf27  1  0.214136  0.881137  0.505265  1
  Te  Te28  1  0.310044  0.677855  0.227825  1
  Te  Te29  1  0.689956  0.177855  0.272175  1
  Te  Te30  1  0.698159  0.055925  0.284535  1
  Te  Te31  1  0.200803  0.599959  0.759476  1
  Te  Te32  1  0.131073  0.114046  0.083132  1
  Te  Te33  1  0.200803  0.900041  0.259476  1
  Te  Te34  1  0.601868  0.707675  0.290685  1
  Te  Te35  1  0.698159  0.444075  0.784535  1
  Te  Te36  1  0.003538  0.469755  0.343744  1
  Te  Te37  1  0.992356  0.294089  0.341664  1
  Te  Te38  1  0.937149  0.697240  0.368640  1
  Te  Te39  1  0.601868  0.792325  0.790685  1
  Te  Te40  1  0.983698  0.105850  0.379233  1
  Te  Te41  1  0.403800  0.026747  0.215385  1
  Te  Te42  1  0.868927  0.614046  0.416868  1
  Te  Te43  1  0.627560  0.617816  0.739888  1
  Te  Te44  1  0.627560  0.882184  0.239888  1
  Te  Te45  1  0.689956  0.322145  0.772175  1
  Te  Te46  1  0.383776  0.438913  0.453119  1
  Te  Te47  1  0.977113  0.943167  0.391506  1
  Te  Te48  1  0.301841  0.555925  0.215465  1
  Te  Te49  1  0.616224  0.561087  0.546881  1
  Te  Te50  1  0.016302  0.605850  0.120767  1
  Te  Te51  1  0.403800  0.473253  0.715385  1
  Te  Te52  1  0.626294  0.176351  0.587242  1
  Te  Te53  1  0.373706  0.823649  0.412758  1
  Te  Te54  1  0.013122  0.182716  0.618012  1
  Te  Te55  1  0.476863  0.106196  0.423893  1
  Te  Te56  1  0.596200  0.973253  0.784615  1
  Te  Te57  1  0.799197  0.400041  0.240524  1
  Te  Te58  1  0.986878  0.682716  0.881988  1
  Te  Te59  1  0.398132  0.292325  0.709315  1
  Te  Te60  1  0.016302  0.894150  0.620767  1
  Te  Te61  1  0.377017  0.323318  0.453624  1
  Te  Te62  1  0.301841  0.944075  0.715465  1
  Te  Te63  1  0.372440  0.382184  0.260112  1
  Te  Te64  1  0.022887  0.443167  0.108494  1
  Te  Te65  1  0.983698  0.394150  0.879233  1
  Te  Te66  1  0.977113  0.556833  0.891506  1
  Te  Te67  1  0.986878  0.817284  0.381988  1
  Te  Te68  1  0.062851  0.197240  0.131360  1
  Te  Te69  1  0.622983  0.676682  0.546376  1
  Te  Te70  1  0.622983  0.823318  0.046376  1
  Te  Te71  1  0.937149  0.802760  0.868640  1
  Te  Te72  1  0.523137  0.893804  0.576107  1
  Te  Te73  1  0.523137  0.606196  0.076107  1
  Te  Te74  1  0.131073  0.385954  0.583132  1
  Te  Te75  1  0.996462  0.969755  0.156256  1
  Te  Te76  1  0.373706  0.676351  0.912758  1
  Te  Te77  1  0.992356  0.205911  0.841664  1
  Te  Te78  1  0.007644  0.705911  0.658336  1
  Te  Te79  1  0.003538  0.030245  0.843744  1
  Te  Te80  1  0.996462  0.530245  0.656256  1
  Te  Te81  1  0.476863  0.393804  0.923893  1
  Te  Te82  1  0.013122  0.317284  0.118012  1
  Te  Te83  1  0.868927  0.885954  0.916868  1
  Te  Te84  1  0.596200  0.526747  0.284615  1
  Te  Te85  1  0.062851  0.302760  0.631360  1
  Te  Te86  1  0.372440  0.117816  0.760112  1
  Te  Te87  1  0.310044  0.822145  0.727825  1
  Te  Te88  1  0.799197  0.099959  0.740524  1
  Te  Te89  1  0.626294  0.323649  0.087242  1
  Te  Te90  1  0.022887  0.056833  0.608494  1
  Te  Te91  1  0.616224  0.938913  0.046881  1
  Te  Te92  1  0.383776  0.061087  0.953119  1
  Te  Te93  1  0.007644  0.794089  0.158336  1
  Te  Te94  1  0.398132  0.207675  0.209315  1
  Te  Te95  1  0.377017  0.176682  0.953624  1
