# generated using pymatgen
data_KAgCO3
_symmetry_space_group_name_H-M   'P 1'
_cell_length_a   11.19519133
_cell_length_b   11.19519133
_cell_length_c   11.19519133
_cell_angle_alpha   149.67648951
_cell_angle_beta   148.54306794
_cell_angle_gamma   44.25663553
_symmetry_Int_Tables_number   1
_chemical_formula_structural   KAgCO3
_chemical_formula_sum   'K4 Ag4 C4 O12'
_cell_volume   368.61071460
_cell_formula_units_Z   4
loop_
 _symmetry_equiv_pos_site_id
 _symmetry_equiv_pos_as_xyz
  1  'x, y, z'
loop_
 _atom_site_type_symbol
 _atom_site_label
 _atom_site_symmetry_multiplicity
 _atom_site_fract_x
 _atom_site_fract_y
 _atom_site_fract_z
 _atom_site_occupancy
  K  K0  1  0.430090  0.180090  0.250000  1
  K  K1  1  0.069910  0.319910  0.750000  1
  K  K2  1  0.569910  0.819910  0.750000  1
  K  K3  1  0.930090  0.680090  0.250000  1
  Ag  Ag4  1  0.365353  0.250000  0.615353  1
  Ag  Ag5  1  0.134647  0.750000  0.884647  1
  Ag  Ag6  1  0.634647  0.750000  0.384647  1
  Ag  Ag7  1  0.865353  0.250000  0.115353  1
  C  C8  1  0.122748  0.872748  0.250000  1
  C  C9  1  0.377252  0.627252  0.750000  1
  C  C10  1  0.877252  0.127252  0.750000  1
  C  C11  1  0.622748  0.372748  0.250000  1
  O  O12  1  0.060752  0.810752  0.250000  1
  O  O13  1  0.439248  0.689248  0.750000  1
  O  O14  1  0.939248  0.189248  0.750000  1
  O  O15  1  0.560752  0.310752  0.250000  1
  O  O16  1  0.286576  0.042001  0.523003  1
  O  O17  1  0.213424  0.736428  0.755425  1
  O  O18  1  0.481002  0.457999  0.744575  1
  O  O19  1  0.018998  0.763572  0.976997  1
  O  O20  1  0.713424  0.957999  0.476997  1
  O  O21  1  0.786576  0.263572  0.244575  1
  O  O22  1  0.518998  0.542001  0.255425  1
  O  O23  1  0.981002  0.236428  0.023003  1
