# generated using pymatgen
data_Cs2NaCrF6
_symmetry_space_group_name_H-M   'P 1'
_cell_length_a   10.95877673
_cell_length_b   10.95877673
_cell_length_c   10.95877673
_cell_angle_alpha   33.73296573
_cell_angle_beta   33.73296573
_cell_angle_gamma   33.73296573
_symmetry_Int_Tables_number   1
_chemical_formula_structural   Cs2NaCrF6
_chemical_formula_sum   'Cs4 Na2 Cr2 F12'
_cell_volume   361.61484963
_cell_formula_units_Z   2
loop_
 _symmetry_equiv_pos_site_id
 _symmetry_equiv_pos_as_xyz
  1  'x, y, z'
loop_
 _atom_site_type_symbol
 _atom_site_label
 _atom_site_symmetry_multiplicity
 _atom_site_fract_x
 _atom_site_fract_y
 _atom_site_fract_z
 _atom_site_occupancy
  Cs  Cs0  1  0.282000  0.282000  0.282000  1
  Cs  Cs1  1  0.718000  0.718000  0.718000  1
  Cs  Cs2  1  0.128049  0.128049  0.128049  1
  Cs  Cs3  1  0.871951  0.871951  0.871951  1
  Na  Na4  1  0.596779  0.596779  0.596779  1
  Na  Na5  1  0.403221  0.403221  0.403221  1
  Cr  Cr6  1  0.000000  0.000000  0.000000  1
  Cr  Cr7  1  0.500000  0.500000  0.500000  1
  F  F8  1  0.816921  0.257813  0.816921  1
  F  F9  1  0.257813  0.816921  0.816921  1
  F  F10  1  0.816921  0.816921  0.257813  1
  F  F11  1  0.183079  0.183079  0.742187  1
  F  F12  1  0.183079  0.742187  0.183079  1
  F  F13  1  0.742187  0.183079  0.183079  1
  F  F14  1  0.603885  0.177986  0.603885  1
  F  F15  1  0.177986  0.603885  0.603885  1
  F  F16  1  0.822014  0.396115  0.396115  1
  F  F17  1  0.396115  0.822014  0.396115  1
  F  F18  1  0.396115  0.396115  0.822014  1
  F  F19  1  0.603885  0.603885  0.177986  1
