# generated using pymatgen
data_K3La(PSe4)2
_symmetry_space_group_name_H-M   'P 1'
_cell_length_a   9.67543619
_cell_length_b   18.07729114
_cell_length_c   10.16086893
_cell_angle_alpha   90.00000000
_cell_angle_beta   90.46670608
_cell_angle_gamma   90.00000000
_symmetry_Int_Tables_number   1
_chemical_formula_structural   K3La(PSe4)2
_chemical_formula_sum   'K12 La4 P8 Se32'
_cell_volume   1777.13469939
_cell_formula_units_Z   4
loop_
 _symmetry_equiv_pos_site_id
 _symmetry_equiv_pos_as_xyz
  1  'x, y, z'
loop_
 _atom_site_type_symbol
 _atom_site_label
 _atom_site_symmetry_multiplicity
 _atom_site_fract_x
 _atom_site_fract_y
 _atom_site_fract_z
 _atom_site_occupancy
  K  K0  1  0.120703  0.206691  0.627028  1
  K  K1  1  0.879297  0.706691  0.872972  1
  K  K2  1  0.879297  0.793309  0.372972  1
  K  K3  1  0.120703  0.293309  0.127028  1
  K  K4  1  0.382025  0.714506  0.373958  1
  K  K5  1  0.617975  0.214506  0.126042  1
  K  K6  1  0.617975  0.285494  0.626042  1
  K  K7  1  0.382025  0.785494  0.873958  1
  K  K8  1  0.269653  0.967771  0.486867  1
  K  K9  1  0.730347  0.467771  0.013133  1
  K  K10  1  0.730347  0.032229  0.513133  1
  K  K11  1  0.269653  0.532229  0.986867  1
  La  La12  1  0.225962  0.013585  0.029254  1
  La  La13  1  0.774038  0.513585  0.470746  1
  La  La14  1  0.774038  0.986415  0.970746  1
  La  La15  1  0.225962  0.486415  0.529254  1
  P  P16  1  0.525824  0.901788  0.222749  1
  P  P17  1  0.474176  0.401788  0.277251  1
  P  P18  1  0.474176  0.098212  0.777251  1
  P  P19  1  0.525824  0.598212  0.722749  1
  P  P20  1  0.993408  0.102585  0.245864  1
  P  P21  1  0.006592  0.602585  0.254136  1
  P  P22  1  0.006592  0.897415  0.754136  1
  P  P23  1  0.993408  0.397415  0.745864  1
  Se  Se24  1  0.964859  0.125463  0.029845  1
  Se  Se25  1  0.035141  0.625463  0.470155  1
  Se  Se26  1  0.035141  0.874537  0.970155  1
  Se  Se27  1  0.964859  0.374537  0.529845  1
  Se  Se28  1  0.057227  0.018093  0.747175  1
  Se  Se29  1  0.942773  0.518093  0.752825  1
  Se  Se30  1  0.942773  0.981907  0.252825  1
  Se  Se31  1  0.057227  0.481907  0.247175  1
  Se  Se32  1  0.537870  0.023608  0.178860  1
  Se  Se33  1  0.462130  0.523608  0.321140  1
  Se  Se34  1  0.462130  0.976392  0.821140  1
  Se  Se35  1  0.537870  0.476392  0.678860  1
  Se  Se36  1  0.308865  0.869120  0.172844  1
  Se  Se37  1  0.691135  0.369120  0.327156  1
  Se  Se38  1  0.691135  0.130880  0.827156  1
  Se  Se39  1  0.308865  0.630880  0.672844  1
  Se  Se40  1  0.219107  0.114697  0.278292  1
  Se  Se41  1  0.780893  0.614697  0.221708  1
  Se  Se42  1  0.780893  0.885303  0.721708  1
  Se  Se43  1  0.219107  0.385303  0.778292  1
  Se  Se44  1  0.874297  0.180070  0.366149  1
  Se  Se45  1  0.125703  0.680070  0.133851  1
  Se  Se46  1  0.125703  0.819930  0.633851  1
  Se  Se47  1  0.874297  0.319930  0.866149  1
  Se  Se48  1  0.570619  0.874148  0.429192  1
  Se  Se49  1  0.429381  0.374148  0.070808  1
  Se  Se50  1  0.429381  0.125852  0.570808  1
  Se  Se51  1  0.570619  0.625852  0.929192  1
  Se  Se52  1  0.330328  0.158241  0.909648  1
  Se  Se53  1  0.669672  0.658241  0.590352  1
  Se  Se54  1  0.669672  0.841759  0.090352  1
  Se  Se55  1  0.330328  0.341759  0.409648  1
