# generated using pymatgen
data_Cd(InSe2)2
_symmetry_space_group_name_H-M   'P 1'
_cell_length_a   7.37051257
_cell_length_b   7.37051257
_cell_length_c   7.37051257
_cell_angle_alpha   132.91163031
_cell_angle_beta   132.91163031
_cell_angle_gamma   68.79296119
_symmetry_Int_Tables_number   1
_chemical_formula_structural   Cd(InSe2)2
_chemical_formula_sum   'Cd1 In2 Se4'
_cell_volume   210.87411283
_cell_formula_units_Z   1
loop_
 _symmetry_equiv_pos_site_id
 _symmetry_equiv_pos_as_xyz
  1  'x, y, z'
loop_
 _atom_site_type_symbol
 _atom_site_label
 _atom_site_symmetry_multiplicity
 _atom_site_fract_x
 _atom_site_fract_y
 _atom_site_fract_z
 _atom_site_occupancy
  Cd  Cd0  1  0.500000  0.500000  0.000000  1
  In  In1  1  0.250000  0.750000  0.500000  1
  In  In2  1  0.750000  0.250000  0.500000  1
  Se  Se3  1  0.342307  0.892407  1.000000  1
  Se  Se4  1  0.657693  0.657693  0.550100  1
  Se  Se5  1  0.892407  0.342307  1.000000  1
  Se  Se6  1  0.107593  0.107593  0.449900  1
