# generated using pymatgen
data_SrU(SeO4)2
_symmetry_space_group_name_H-M   'P 1'
_cell_length_a   5.81231554
_cell_length_b   6.88887030
_cell_length_c   11.47307514
_cell_angle_alpha   104.76538182
_cell_angle_beta   94.04440200
_cell_angle_gamma   109.42835871
_symmetry_Int_Tables_number   1
_chemical_formula_structural   SrU(SeO4)2
_chemical_formula_sum   'Sr2 U2 Se4 O16'
_cell_volume   412.80094035
_cell_formula_units_Z   2
loop_
 _symmetry_equiv_pos_site_id
 _symmetry_equiv_pos_as_xyz
  1  'x, y, z'
loop_
 _atom_site_type_symbol
 _atom_site_label
 _atom_site_symmetry_multiplicity
 _atom_site_fract_x
 _atom_site_fract_y
 _atom_site_fract_z
 _atom_site_occupancy
  Sr  Sr0  1  0.769379  0.188718  0.562548  1
  Sr  Sr1  1  0.230621  0.811282  0.437452  1
  U  U2  1  0.005728  0.099453  0.163204  1
  U  U3  1  0.994272  0.900547  0.836796  1
  Se  Se4  1  0.820995  0.313419  0.877671  1
  Se  Se5  1  0.385828  0.350077  0.341689  1
  Se  Se6  1  0.179005  0.686581  0.122329  1
  Se  Se7  1  0.614172  0.649923  0.658311  1
  O  O8  1  0.063468  0.835420  0.029692  1
  O  O9  1  0.961754  0.425753  0.157659  1
  O  O10  1  0.651819  0.754360  0.910952  1
  O  O11  1  0.348181  0.245640  0.089048  1
  O  O12  1  0.492991  0.195207  0.426845  1
  O  O13  1  0.928717  0.227228  0.752736  1
  O  O14  1  0.338639  0.053002  0.757047  1
  O  O15  1  0.231912  0.451515  0.442532  1
  O  O16  1  0.661361  0.946998  0.242953  1
  O  O17  1  0.936532  0.164580  0.970308  1
  O  O18  1  0.507009  0.804793  0.573155  1
  O  O19  1  0.071283  0.772772  0.247264  1
  O  O20  1  0.768088  0.548485  0.557468  1
  O  O21  1  0.901066  0.862736  0.658588  1
  O  O22  1  0.098934  0.137264  0.341412  1
  O  O23  1  0.038246  0.574247  0.842341  1
