# generated using pymatgen
data_Cs8Tl8O
_symmetry_space_group_name_H-M   'P 1'
_cell_length_a   12.14200986
_cell_length_b   12.14200986
_cell_length_c   12.14200986
_cell_angle_alpha   44.45692069
_cell_angle_beta   44.45692069
_cell_angle_gamma   44.45692069
_symmetry_Int_Tables_number   1
_chemical_formula_structural   Cs8Tl8O
_chemical_formula_sum   'Cs8 Tl8 O1'
_cell_volume   798.28946147
_cell_formula_units_Z   1
loop_
 _symmetry_equiv_pos_site_id
 _symmetry_equiv_pos_as_xyz
  1  'x, y, z'
loop_
 _atom_site_type_symbol
 _atom_site_label
 _atom_site_symmetry_multiplicity
 _atom_site_fract_x
 _atom_site_fract_y
 _atom_site_fract_z
 _atom_site_occupancy
  Cs  Cs0  1  0.328567  0.328567  0.328567  1
  Cs  Cs1  1  0.671433  0.671433  0.671433  1
  Cs  Cs2  1  0.538022  0.148029  0.668481  1
  Cs  Cs3  1  0.668481  0.538022  0.148029  1
  Cs  Cs4  1  0.851971  0.331519  0.461978  1
  Cs  Cs5  1  0.148029  0.668481  0.538022  1
  Cs  Cs6  1  0.331519  0.461978  0.851971  1
  Cs  Cs7  1  0.461978  0.851971  0.331519  1
  Tl  Tl8  1  0.880806  0.880806  0.880806  1
  Tl  Tl9  1  0.248148  0.828830  0.041902  1
  Tl  Tl10  1  0.828830  0.041902  0.248148  1
  Tl  Tl11  1  0.041902  0.248148  0.828830  1
  Tl  Tl12  1  0.171170  0.958098  0.751852  1
  Tl  Tl13  1  0.751852  0.171170  0.958098  1
  Tl  Tl14  1  0.119194  0.119194  0.119194  1
  Tl  Tl15  1  0.958098  0.751853  0.171170  1
  O  O16  1  0.500000  0.500000  0.500000  1
