# generated using pymatgen
data_Lu(BRu)4
_symmetry_space_group_name_H-M   'P 1'
_cell_length_a   9.17382208
_cell_length_b   9.17382208
_cell_length_c   9.17382208
_cell_angle_alpha   132.04051171
_cell_angle_beta   132.04051171
_cell_angle_gamma   70.16505057
_symmetry_Int_Tables_number   1
_chemical_formula_structural   Lu(BRu)4
_chemical_formula_sum   'Lu4 B16 Ru16'
_cell_volume   417.42009256
_cell_formula_units_Z   4
loop_
 _symmetry_equiv_pos_site_id
 _symmetry_equiv_pos_as_xyz
  1  'x, y, z'
loop_
 _atom_site_type_symbol
 _atom_site_label
 _atom_site_symmetry_multiplicity
 _atom_site_fract_x
 _atom_site_fract_y
 _atom_site_fract_z
 _atom_site_occupancy
  Lu  Lu0  1  0.000000  0.500000  0.500000  1
  Lu  Lu1  1  0.500000  0.000000  0.500000  1
  Lu  Lu2  1  0.250000  0.250000  0.000000  1
  Lu  Lu3  1  0.750000  0.750000  0.000000  1
  B  B4  1  0.500664  0.693442  0.531825  1
  B  B5  1  0.218840  0.911617  0.968175  1
  B  B6  1  0.031160  0.499336  0.192777  1
  B  B7  1  0.718840  0.750664  0.307223  1
  B  B8  1  0.943442  0.250664  0.031825  1
  B  B9  1  0.661617  0.193442  0.192777  1
  B  B10  1  0.088383  0.056558  0.307223  1
  B  B11  1  0.249336  0.556558  0.968175  1
  B  B12  1  0.306558  0.838383  0.807223  1
  B  B13  1  0.806558  0.999336  0.468175  1
  B  B14  1  0.749336  0.781160  0.692777  1
  B  B15  1  0.443442  0.411617  0.692777  1
  B  B16  1  0.531160  0.338383  0.531825  1
  B  B17  1  0.161617  0.968840  0.468175  1
  B  B18  1  0.000664  0.468840  0.807223  1
  B  B19  1  0.588383  0.281160  0.031825  1
  Ru  Ru20  1  0.037544  0.802748  0.464239  1
  Ru  Ru21  1  0.323305  0.287544  0.734795  1
  Ru  Ru22  1  0.537544  0.073305  0.234795  1
  Ru  Ru23  1  0.212456  0.176695  0.265205  1
  Ru  Ru24  1  0.926695  0.161490  0.464239  1
  Ru  Ru25  1  0.338510  0.573305  0.535761  1
  Ru  Ru26  1  0.697252  0.462456  0.535761  1
  Ru  Ru27  1  0.823305  0.088510  0.035761  1
  Ru  Ru28  1  0.712456  0.447252  0.035761  1
  Ru  Ru29  1  0.552748  0.588510  0.265205  1
  Ru  Ru30  1  0.838510  0.302748  0.765205  1
  Ru  Ru31  1  0.911490  0.947252  0.734795  1
  Ru  Ru32  1  0.197252  0.661490  0.234795  1
  Ru  Ru33  1  0.052748  0.787544  0.964239  1
  Ru  Ru34  1  0.411490  0.676695  0.964239  1
  Ru  Ru35  1  0.426695  0.962456  0.765205  1
