# generated using pymatgen
data_SrCrF4
_symmetry_space_group_name_H-M   'P 1'
_cell_length_a   6.88028180
_cell_length_b   6.88028180
_cell_length_c   6.88028180
_cell_angle_alpha   130.48641597
_cell_angle_beta   130.48641597
_cell_angle_gamma   72.63033711
_symmetry_Int_Tables_number   1
_chemical_formula_structural   SrCrF4
_chemical_formula_sum   'Sr2 Cr2 F8'
_cell_volume   184.09258355
_cell_formula_units_Z   2
loop_
 _symmetry_equiv_pos_site_id
 _symmetry_equiv_pos_as_xyz
  1  'x, y, z'
loop_
 _atom_site_type_symbol
 _atom_site_label
 _atom_site_symmetry_multiplicity
 _atom_site_fract_x
 _atom_site_fract_y
 _atom_site_fract_z
 _atom_site_occupancy
  Sr  Sr0  1  0.750000  0.750000  0.000000  1
  Sr  Sr1  1  0.250000  0.250000  0.000000  1
  Cr  Cr2  1  0.000000  0.500000  0.500000  1
  Cr  Cr3  1  0.500000  1.000000  0.500000  1
  F  F4  1  0.446710  0.946710  0.142064  1
  F  F5  1  0.195354  0.695354  0.142064  1
  F  F6  1  0.553290  0.053290  0.857936  1
  F  F7  1  0.053290  0.195354  0.500000  1
  F  F8  1  0.804646  0.304646  0.857936  1
  F  F9  1  0.304646  0.446710  0.500000  1
  F  F10  1  0.946710  0.804646  0.500000  1
  F  F11  1  0.695354  0.553290  0.500000  1
