# generated using pymatgen
data_Ca3SiH30CSO25
_symmetry_space_group_name_H-M   'P 1'
_cell_length_a   11.07018589
_cell_length_b   11.07018589
_cell_length_c   10.51647162
_cell_angle_alpha   90.00000000
_cell_angle_beta   90.00000000
_cell_angle_gamma   120.00000000
_symmetry_Int_Tables_number   1
_chemical_formula_structural   Ca3SiH30CSO25
_chemical_formula_sum   'Ca6 Si2 H60 C2 S2 O50'
_cell_volume   1116.11903044
_cell_formula_units_Z   2
loop_
 _symmetry_equiv_pos_site_id
 _symmetry_equiv_pos_as_xyz
  1  'x, y, z'
loop_
 _atom_site_type_symbol
 _atom_site_label
 _atom_site_symmetry_multiplicity
 _atom_site_fract_x
 _atom_site_fract_y
 _atom_site_fract_z
 _atom_site_occupancy
  Ca  Ca0  1  0.207162  0.194032  0.761143  1
  Ca  Ca1  1  0.986870  0.792838  0.761143  1
  Ca  Ca2  1  0.805968  0.013130  0.761143  1
  Ca  Ca3  1  0.792838  0.805968  0.261143  1
  Ca  Ca4  1  0.013130  0.207162  0.261143  1
  Ca  Ca5  1  0.194032  0.986870  0.261143  1
  Si  Si6  1  0.000000  0.000000  0.511305  1
  Si  Si7  1  0.000000  0.000000  0.011305  1
  H  H8  1  0.061916  0.361740  0.763847  1
  H  H9  1  0.299824  0.938084  0.763847  1
  H  H10  1  0.638260  0.700176  0.763847  1
  H  H11  1  0.938084  0.638260  0.263847  1
  H  H12  1  0.700176  0.061916  0.263847  1
  H  H13  1  0.361740  0.299824  0.263847  1
  H  H14  1  0.215222  0.489624  0.787924  1
  H  H15  1  0.274402  0.784778  0.787924  1
  H  H16  1  0.510376  0.725598  0.787924  1
  H  H17  1  0.784778  0.510376  0.287924  1
  H  H18  1  0.725598  0.215222  0.287924  1
  H  H19  1  0.489624  0.274402  0.287924  1
  H  H20  1  0.839748  0.305266  0.837219  1
  H  H21  1  0.465518  0.160252  0.837219  1
  H  H22  1  0.694734  0.534482  0.837219  1
  H  H23  1  0.160252  0.694734  0.337219  1
  H  H24  1  0.534482  0.839748  0.337219  1
  H  H25  1  0.305266  0.465518  0.337219  1
  H  H26  1  0.841389  0.305108  0.686938  1
  H  H27  1  0.463719  0.158611  0.686938  1
  H  H28  1  0.694892  0.536281  0.686938  1
  H  H29  1  0.158611  0.694892  0.186938  1
  H  H30  1  0.536281  0.841389  0.186938  1
  H  H31  1  0.305108  0.463719  0.186938  1
  H  H32  1  0.337236  0.421941  0.553726  1
  H  H33  1  0.084706  0.662764  0.553726  1
  H  H34  1  0.578059  0.915294  0.553726  1
  H  H35  1  0.662764  0.578059  0.053726  1
  H  H36  1  0.915294  0.337236  0.053726  1
  H  H37  1  0.421941  0.084706  0.053726  1
  H  H38  1  0.634096  0.075523  0.567019  1
  H  H39  1  0.441427  0.365904  0.567019  1
  H  H40  1  0.924477  0.558573  0.567019  1
  H  H41  1  0.365904  0.924477  0.067019  1
  H  H42  1  0.558573  0.634096  0.067019  1
  H  H43  1  0.075523  0.441427  0.067019  1
  H  H44  1  0.649613  0.099950  0.952109  1
  H  H45  1  0.450337  0.350387  0.952109  1
  H  H46  1  0.900050  0.549663  0.952109  1
  H  H47  1  0.350387  0.900050  0.452109  1
  H  H48  1  0.549663  0.649613  0.452109  1
  H  H49  1  0.099950  0.450337  0.452109  1
  H  H50  1  0.346528  0.407723  0.966674  1
  H  H51  1  0.061195  0.653472  0.966674  1
  H  H52  1  0.592277  0.938805  0.966674  1
  H  H53  1  0.653472  0.592277  0.466674  1
  H  H54  1  0.938805  0.346528  0.466674  1
  H  H55  1  0.407723  0.061195  0.466674  1
  H  H56  1  0.023173  0.216203  0.567034  1
  H  H57  1  0.193030  0.976827  0.567034  1
  H  H58  1  0.783797  0.806970  0.567034  1
  H  H59  1  0.976827  0.783797  0.067034  1
  H  H60  1  0.806970  0.023173  0.067034  1
  H  H61  1  0.216203  0.193030  0.067034  1
  H  H62  1  0.017562  0.213976  0.952911  1
  H  H63  1  0.196414  0.982438  0.952911  1
  H  H64  1  0.786024  0.803586  0.952911  1
  H  H65  1  0.982438  0.786024  0.452911  1
  H  H66  1  0.803586  0.017562  0.452911  1
  H  H67  1  0.213976  0.196414  0.452911  1
  C  C68  1  0.666667  0.333333  0.962615  1
  C  C69  1  0.333333  0.666667  0.462615  1
  S  S70  1  0.666667  0.333333  0.496807  1
  S  S71  1  0.333333  0.666667  0.996807  1
  O  O72  1  0.162169  0.391075  0.762791  1
  O  O73  1  0.228906  0.837831  0.762791  1
  O  O74  1  0.608925  0.771094  0.762791  1
  O  O75  1  0.837831  0.608925  0.262791  1
  O  O76  1  0.771094  0.162169  0.262791  1
  O  O77  1  0.391075  0.228906  0.262791  1
  O  O78  1  0.867916  0.269510  0.761747  1
  O  O79  1  0.401594  0.132084  0.761747  1
  O  O80  1  0.730490  0.598406  0.761747  1
  O  O81  1  0.132084  0.730490  0.261747  1
  O  O82  1  0.598406  0.867916  0.261747  1
  O  O83  1  0.269510  0.401594  0.261747  1
  O  O84  1  0.661683  0.003990  0.579475  1
  O  O85  1  0.342306  0.338317  0.579475  1
  O  O86  1  0.996010  0.657694  0.579475  1
  O  O87  1  0.338317  0.996010  0.079475  1
  O  O88  1  0.657694  0.661683  0.079475  1
  O  O89  1  0.003990  0.342306  0.079475  1
  O  O90  1  0.677459  0.025927  0.943128  1
  O  O91  1  0.348469  0.322541  0.943128  1
  O  O92  1  0.974073  0.651531  0.943128  1
  O  O93  1  0.322541  0.974073  0.443128  1
  O  O94  1  0.651531  0.677459  0.443128  1
  O  O95  1  0.025927  0.348469  0.443128  1
  O  O96  1  0.578541  0.200010  0.960694  1
  O  O97  1  0.621469  0.421459  0.960694  1
  O  O98  1  0.799990  0.378531  0.960694  1
  O  O99  1  0.421459  0.799990  0.460694  1
  O  O100  1  0.378531  0.578541  0.460694  1
  O  O101  1  0.200010  0.621469  0.460694  1
  O  O102  1  0.566849  0.190437  0.545383  1
  O  O103  1  0.623588  0.433151  0.545383  1
  O  O104  1  0.809563  0.376412  0.545383  1
  O  O105  1  0.433151  0.809563  0.045383  1
  O  O106  1  0.376412  0.566849  0.045383  1
  O  O107  1  0.190437  0.623588  0.045383  1
  O  O108  1  0.007892  0.133337  0.615119  1
  O  O109  1  0.125445  0.992108  0.615119  1
  O  O110  1  0.866663  0.874555  0.615119  1
  O  O111  1  0.992108  0.866663  0.115119  1
  O  O112  1  0.874555  0.007892  0.115119  1
  O  O113  1  0.133337  0.125445  0.115119  1
  O  O114  1  0.007911  0.132653  0.906376  1
  O  O115  1  0.124743  0.992089  0.906376  1
  O  O116  1  0.867347  0.875257  0.906376  1
  O  O117  1  0.992089  0.867347  0.406376  1
  O  O118  1  0.875257  0.007911  0.406376  1
  O  O119  1  0.132653  0.124743  0.406376  1
  O  O120  1  0.666667  0.333333  0.355295  1
  O  O121  1  0.333333  0.666667  0.855295  1
