# generated using pymatgen
data_La4Cu6(MoO4)9
_symmetry_space_group_name_H-M   'P 1'
_cell_length_a   12.97229992
_cell_length_b   12.97229992
_cell_length_c   12.97229992
_cell_angle_alpha   109.48411662
_cell_angle_beta   109.48411662
_cell_angle_gamma   109.48411662
_symmetry_Int_Tables_number   1
_chemical_formula_structural   La4Cu6(MoO4)9
_chemical_formula_sum   'La8 Cu12 Mo18 O72'
_cell_volume   1679.66054166
_cell_formula_units_Z   2
loop_
 _symmetry_equiv_pos_site_id
 _symmetry_equiv_pos_as_xyz
  1  'x, y, z'
loop_
 _atom_site_type_symbol
 _atom_site_label
 _atom_site_symmetry_multiplicity
 _atom_site_fract_x
 _atom_site_fract_y
 _atom_site_fract_z
 _atom_site_occupancy
  La  La0  1  0.597287  0.545562  0.052273  1
  La  La1  1  0.545562  0.052273  0.597287  1
  La  La2  1  0.045562  0.097287  0.552273  1
  La  La3  1  0.552273  0.045562  0.097287  1
  La  La4  1  0.097287  0.552273  0.045562  1
  La  La5  1  0.990156  0.990156  0.990156  1
  La  La6  1  0.052273  0.597287  0.545562  1
  La  La7  1  0.490156  0.490156  0.490156  1
  Cu  Cu8  1  0.600651  0.668818  0.358674  1
  Cu  Cu9  1  0.728635  0.935050  0.490771  1
  Cu  Cu10  1  0.858674  0.168818  0.100651  1
  Cu  Cu11  1  0.358674  0.600651  0.668818  1
  Cu  Cu12  1  0.228635  0.990771  0.435050  1
  Cu  Cu13  1  0.935050  0.490771  0.728635  1
  Cu  Cu14  1  0.668818  0.358674  0.600651  1
  Cu  Cu15  1  0.990771  0.435050  0.228635  1
  Cu  Cu16  1  0.435050  0.228635  0.990771  1
  Cu  Cu17  1  0.490771  0.728635  0.935050  1
  Cu  Cu18  1  0.100651  0.858674  0.168818  1
  Cu  Cu19  1  0.168818  0.100651  0.858674  1
  Mo  Mo20  1  0.670956  0.416417  0.303677  1
  Mo  Mo21  1  0.916417  0.170956  0.803677  1
  Mo  Mo22  1  0.243423  0.495712  0.797973  1
  Mo  Mo23  1  0.296941  0.343418  0.089832  1
  Mo  Mo24  1  0.495712  0.797973  0.243423  1
  Mo  Mo25  1  0.343418  0.089832  0.296941  1
  Mo  Mo26  1  0.995712  0.743423  0.297973  1
  Mo  Mo27  1  0.589832  0.843418  0.796941  1
  Mo  Mo28  1  0.089832  0.296941  0.343418  1
  Mo  Mo29  1  0.803677  0.916417  0.170956  1
  Mo  Mo30  1  0.303677  0.670956  0.416417  1
  Mo  Mo31  1  0.797973  0.243423  0.495712  1
  Mo  Mo32  1  0.743423  0.297973  0.995712  1
  Mo  Mo33  1  0.170956  0.803677  0.916417  1
  Mo  Mo34  1  0.416417  0.303677  0.670956  1
  Mo  Mo35  1  0.796941  0.589832  0.843418  1
  Mo  Mo36  1  0.297973  0.995712  0.743423  1
  Mo  Mo37  1  0.843418  0.796941  0.589832  1
  O  O38  1  0.408747  0.570876  0.924321  1
  O  O39  1  0.902438  0.890004  0.753394  1
  O  O40  1  0.253394  0.390004  0.402438  1
  O  O41  1  0.333286  0.864809  0.959696  1
  O  O42  1  0.530109  0.874466  0.158149  1
  O  O43  1  0.402438  0.253394  0.390004  1
  O  O44  1  0.683321  0.217502  0.830926  1
  O  O45  1  0.040234  0.707562  0.173555  1
  O  O46  1  0.673555  0.207562  0.540234  1
  O  O47  1  0.030109  0.658149  0.374466  1
  O  O48  1  0.132612  0.925706  0.924819  1
  O  O49  1  0.908747  0.424321  0.070876  1
  O  O50  1  0.158149  0.530109  0.874466  1
  O  O51  1  0.753394  0.902438  0.890004  1
  O  O52  1  0.833286  0.459696  0.364809  1
  O  O53  1  0.907559  0.528415  0.869558  1
  O  O54  1  0.407559  0.369558  0.028415  1
  O  O55  1  0.756866  0.067809  0.666802  1
  O  O56  1  0.218738  0.428802  0.065691  1
  O  O57  1  0.707562  0.173555  0.040234  1
  O  O58  1  0.166802  0.567809  0.256866  1
  O  O59  1  0.518341  0.675563  0.678731  1
  O  O60  1  0.959696  0.333286  0.864809  1
  O  O61  1  0.428802  0.065691  0.218738  1
  O  O62  1  0.459696  0.364809  0.833286  1
  O  O63  1  0.632612  0.424819  0.425706  1
  O  O64  1  0.869558  0.907559  0.528415  1
  O  O65  1  0.864809  0.959696  0.333286  1
  O  O66  1  0.173555  0.040234  0.707562  1
  O  O67  1  0.925706  0.924819  0.132612  1
  O  O68  1  0.717502  0.183321  0.330926  1
  O  O69  1  0.567809  0.256866  0.166802  1
  O  O70  1  0.540234  0.673555  0.207562  1
  O  O71  1  0.718738  0.565691  0.928802  1
  O  O72  1  0.256866  0.166802  0.567809  1
  O  O73  1  0.757276  0.026576  0.146514  1
  O  O74  1  0.646514  0.526576  0.257276  1
  O  O75  1  0.890004  0.753394  0.902438  1
  O  O76  1  0.330926  0.717502  0.183321  1
  O  O77  1  0.065691  0.218738  0.428802  1
  O  O78  1  0.217502  0.830926  0.683321  1
  O  O79  1  0.424819  0.425706  0.632612  1
  O  O80  1  0.570876  0.924321  0.408747  1
  O  O81  1  0.364809  0.833286  0.459696  1
  O  O82  1  0.526576  0.257276  0.646514  1
  O  O83  1  0.026576  0.146514  0.757276  1
  O  O84  1  0.374466  0.030109  0.658149  1
  O  O85  1  0.028415  0.407559  0.369558  1
  O  O86  1  0.874466  0.158149  0.530109  1
  O  O87  1  0.146514  0.757276  0.026576  1
  O  O88  1  0.425706  0.632612  0.424819  1
  O  O89  1  0.678731  0.518341  0.675563  1
  O  O90  1  0.528415  0.869558  0.907559  1
  O  O91  1  0.830926  0.683321  0.217502  1
  O  O92  1  0.424321  0.070876  0.908747  1
  O  O93  1  0.565691  0.928802  0.718738  1
  O  O94  1  0.207563  0.540234  0.673555  1
  O  O95  1  0.658149  0.374466  0.030109  1
  O  O96  1  0.390004  0.402438  0.253394  1
  O  O97  1  0.924819  0.132612  0.925706  1
  O  O98  1  0.369558  0.028415  0.407559  1
  O  O99  1  0.257276  0.646514  0.526576  1
  O  O100  1  0.070876  0.908747  0.424321  1
  O  O101  1  0.018341  0.178731  0.175563  1
  O  O102  1  0.067809  0.666802  0.756866  1
  O  O103  1  0.675563  0.678731  0.518341  1
  O  O104  1  0.928802  0.718738  0.565691  1
  O  O105  1  0.178731  0.175563  0.018341  1
  O  O106  1  0.666802  0.756866  0.067809  1
  O  O107  1  0.183321  0.330926  0.717502  1
  O  O108  1  0.924321  0.408747  0.570876  1
  O  O109  1  0.175563  0.018341  0.178731  1
