# generated using pymatgen
data_Na2Zr(WO4)3
_symmetry_space_group_name_H-M   'P 1'
_cell_length_a   19.51015413
_cell_length_b   19.51015413
_cell_length_c   19.51015413
_cell_angle_alpha   164.94686334
_cell_angle_beta   164.94686334
_cell_angle_gamma   21.35049056
_symmetry_Int_Tables_number   1
_chemical_formula_structural   Na2Zr(WO4)3
_chemical_formula_sum   'Na4 Zr2 W6 O24'
_cell_volume   500.85166685
_cell_formula_units_Z   2
loop_
 _symmetry_equiv_pos_site_id
 _symmetry_equiv_pos_as_xyz
  1  'x, y, z'
loop_
 _atom_site_type_symbol
 _atom_site_label
 _atom_site_symmetry_multiplicity
 _atom_site_fract_x
 _atom_site_fract_y
 _atom_site_fract_z
 _atom_site_occupancy
  Na  Na0  1  0.014303  0.514303  0.500000  1
  Na  Na1  1  0.823167  0.323167  0.500000  1
  Na  Na2  1  0.073167  0.073167  0.000000  1
  Na  Na3  1  0.264303  0.264303  0.000000  1
  Zr  Zr4  1  0.177735  0.677735  0.500000  1
  Zr  Zr5  1  0.427735  0.427735  0.000000  1
  W  W6  1  0.595422  0.595422  0.000000  1
  W  W7  1  0.345422  0.845422  0.500000  1
  W  W8  1  0.901232  0.901232  0.000000  1
  W  W9  1  0.495364  0.995364  0.500000  1
  W  W10  1  0.651232  0.151232  0.500000  1
  W  W11  1  0.745364  0.745364  0.000000  1
  O  O12  1  0.882397  0.842572  0.435669  1
  O  O13  1  0.619235  0.695938  0.374406  1
  O  O14  1  0.792747  0.302382  0.872296  1
  O  O15  1  0.052382  0.680086  0.009635  1
  O  O16  1  0.445938  0.571533  0.576704  1
  O  O17  1  0.447039  0.579097  0.393066  1
  O  O18  1  0.803972  0.697039  0.367942  1
  O  O19  1  0.994829  0.869235  0.423296  1
  O  O20  1  0.906400  0.523365  0.885199  1
  O  O21  1  0.273365  0.888166  0.116964  1
  O  O22  1  0.430086  0.920451  0.127704  1
  O  O23  1  0.670451  0.042747  0.990365  1
  O  O24  1  0.910806  0.356152  0.904327  1
  O  O25  1  0.106152  0.701825  0.945346  1
  O  O26  1  0.186030  0.053972  0.606934  1
  O  O27  1  0.329097  0.436030  0.632058  1
  O  O28  1  0.771201  0.156400  0.883036  1
  O  O29  1  0.592572  0.656903  0.460175  1
  O  O30  1  0.196728  0.132397  0.539825  1
  O  O31  1  0.638166  0.021201  0.114801  1
  O  O32  1  0.406903  0.446728  0.564331  1
  O  O33  1  0.756479  0.160806  0.054654  1
  O  O34  1  0.451825  0.006479  0.095673  1
  O  O35  1  0.321533  0.244829  0.625594  1
