# generated using pymatgen
data_ZnS
_symmetry_space_group_name_H-M   'P 1'
_cell_length_a   19.01215741
_cell_length_b   19.01215741
_cell_length_c   19.01215741
_cell_angle_alpha   11.64440918
_cell_angle_beta   11.64440918
_cell_angle_gamma   11.64440918
_symmetry_Int_Tables_number   1
_chemical_formula_structural   ZnS
_chemical_formula_sum   'Zn6 S6'
_cell_volume   243.28712173
_cell_formula_units_Z   6
loop_
 _symmetry_equiv_pos_site_id
 _symmetry_equiv_pos_as_xyz
  1  'x, y, z'
loop_
 _atom_site_type_symbol
 _atom_site_label
 _atom_site_symmetry_multiplicity
 _atom_site_fract_x
 _atom_site_fract_y
 _atom_site_fract_z
 _atom_site_occupancy
  Zn  Zn0  1  0.444433  0.444433  0.444433  1
  Zn  Zn1  1  0.833319  0.833319  0.833319  1
  Zn  Zn2  1  0.611062  0.611062  0.611062  1
  Zn  Zn3  1  0.722198  0.722198  0.722198  1
  Zn  Zn4  1  0.999985  0.999985  0.999985  1
  Zn  Zn5  1  0.222193  0.222193  0.222193  1
  S  S6  1  0.402769  0.402769  0.402769  1
  S  S7  1  0.958316  0.958316  0.958316  1
  S  S8  1  0.569440  0.569440  0.569440  1
  S  S9  1  0.791715  0.791715  0.791715  1
  S  S10  1  0.680605  0.680605  0.680605  1
  S  S11  1  0.180569  0.180569  0.180569  1
