# generated using pymatgen
data_CsMn2V2ClO7
_symmetry_space_group_name_H-M   'P 1'
_cell_length_a   5.40999114
_cell_length_b   5.65171796
_cell_length_c   15.19317358
_cell_angle_alpha   90.00000000
_cell_angle_beta   90.00000000
_cell_angle_gamma   90.00000000
_symmetry_Int_Tables_number   1
_chemical_formula_structural   CsMn2V2ClO7
_chemical_formula_sum   'Cs2 Mn4 V4 Cl2 O14'
_cell_volume   464.54258729
_cell_formula_units_Z   2
loop_
 _symmetry_equiv_pos_site_id
 _symmetry_equiv_pos_as_xyz
  1  'x, y, z'
loop_
 _atom_site_type_symbol
 _atom_site_label
 _atom_site_symmetry_multiplicity
 _atom_site_fract_x
 _atom_site_fract_y
 _atom_site_fract_z
 _atom_site_occupancy
  Cs  Cs0  1  0.895577  0.963795  0.750000  1
  Cs  Cs1  1  0.895577  0.036205  0.250000  1
  Mn  Mn2  1  0.926894  0.500000  0.000000  1
  Mn  Mn3  1  0.307533  0.000000  0.500000  1
  Mn  Mn4  1  0.926894  0.500000  0.500000  1
  Mn  Mn5  1  0.307533  0.000000  0.000000  1
  V  V6  1  0.399970  0.517061  0.136256  1
  V  V7  1  0.399970  0.482939  0.863744  1
  V  V8  1  0.399970  0.482939  0.636256  1
  V  V9  1  0.399970  0.517061  0.363744  1
  Cl  Cl10  1  0.787814  0.000000  0.500000  1
  Cl  Cl11  1  0.787814  0.000000  0.000000  1
  O  O12  1  0.708182  0.501863  0.387419  1
  O  O13  1  0.297241  0.799917  0.119614  1
  O  O14  1  0.230394  0.324777  0.068730  1
  O  O15  1  0.708182  0.498137  0.612581  1
  O  O16  1  0.297241  0.200083  0.619614  1
  O  O17  1  0.351185  0.425542  0.250000  1
  O  O18  1  0.230394  0.324777  0.431270  1
  O  O19  1  0.351185  0.574458  0.750000  1
  O  O20  1  0.230394  0.675223  0.931270  1
  O  O21  1  0.297241  0.799917  0.380386  1
  O  O22  1  0.708182  0.498137  0.887419  1
  O  O23  1  0.297241  0.200083  0.880386  1
  O  O24  1  0.708182  0.501863  0.112581  1
  O  O25  1  0.230394  0.675223  0.568730  1
