# generated using pymatgen
data_TlNO3
_symmetry_space_group_name_H-M   'P 1'
_cell_length_a   6.40636742
_cell_length_b   8.18021455
_cell_length_c   12.49699699
_cell_angle_alpha   90.00000000
_cell_angle_beta   90.00000000
_cell_angle_gamma   90.00000000
_symmetry_Int_Tables_number   1
_chemical_formula_structural   TlNO3
_chemical_formula_sum   'Tl8 N8 O24'
_cell_volume   654.91087565
_cell_formula_units_Z   8
loop_
 _symmetry_equiv_pos_site_id
 _symmetry_equiv_pos_as_xyz
  1  'x, y, z'
loop_
 _atom_site_type_symbol
 _atom_site_label
 _atom_site_symmetry_multiplicity
 _atom_site_fract_x
 _atom_site_fract_y
 _atom_site_fract_z
 _atom_site_occupancy
  Tl  Tl0  1  0.293216  0.996182  0.372273  1
  Tl  Tl1  1  0.793216  0.003818  0.127727  1
  Tl  Tl2  1  0.706784  0.496182  0.627727  1
  Tl  Tl3  1  0.206784  0.503818  0.872273  1
  Tl  Tl4  1  0.706784  0.003818  0.627727  1
  Tl  Tl5  1  0.206784  0.996182  0.872273  1
  Tl  Tl6  1  0.293216  0.503818  0.372273  1
  Tl  Tl7  1  0.793216  0.496182  0.127727  1
  N  N8  1  0.666524  0.250000  0.864068  1
  N  N9  1  0.166524  0.750000  0.635932  1
  N  N10  1  0.333476  0.750000  0.135932  1
  N  N11  1  0.833476  0.250000  0.364068  1
  N  N12  1  0.731312  0.750000  0.890607  1
  N  N13  1  0.231312  0.250000  0.609393  1
  N  N14  1  0.268688  0.250000  0.109393  1
  N  N15  1  0.768688  0.750000  0.390607  1
  O  O16  1  0.652559  0.250000  0.323917  1
  O  O17  1  0.152559  0.750000  0.176083  1
  O  O18  1  0.347441  0.750000  0.676083  1
  O  O19  1  0.847441  0.250000  0.823917  1
  O  O20  1  0.863615  0.250000  0.463779  1
  O  O21  1  0.363615  0.750000  0.036221  1
  O  O22  1  0.136385  0.750000  0.536221  1
  O  O23  1  0.636385  0.250000  0.963779  1
  O  O24  1  0.837577  0.884913  0.356543  1
  O  O25  1  0.337577  0.115087  0.143457  1
  O  O26  1  0.162423  0.384913  0.643457  1
  O  O27  1  0.662423  0.615087  0.856543  1
  O  O28  1  0.162423  0.115087  0.643457  1
  O  O29  1  0.662423  0.884913  0.856543  1
  O  O30  1  0.837577  0.615087  0.356543  1
  O  O31  1  0.337577  0.384913  0.143457  1
  O  O32  1  0.623306  0.750000  0.461624  1
  O  O33  1  0.123306  0.250000  0.038376  1
  O  O34  1  0.376694  0.250000  0.538376  1
  O  O35  1  0.876694  0.750000  0.961624  1
  O  O36  1  0.991899  0.250000  0.300654  1
  O  O37  1  0.491899  0.750000  0.199346  1
  O  O38  1  0.008101  0.750000  0.699346  1
  O  O39  1  0.508101  0.250000  0.800654  1
