# generated using pymatgen
data_C2SNCl2F5
_symmetry_space_group_name_H-M   'P 1'
_cell_length_a   5.44688110
_cell_length_b   15.82959882
_cell_length_c   19.45596004
_cell_angle_alpha   90.00000000
_cell_angle_beta   96.41389531
_cell_angle_gamma   90.00000000
_symmetry_Int_Tables_number   1
_chemical_formula_structural   C2SNCl2F5
_chemical_formula_sum   'C16 S8 N8 Cl16 F40'
_cell_volume   1667.03076609
_cell_formula_units_Z   8
loop_
 _symmetry_equiv_pos_site_id
 _symmetry_equiv_pos_as_xyz
  1  'x, y, z'
loop_
 _atom_site_type_symbol
 _atom_site_label
 _atom_site_symmetry_multiplicity
 _atom_site_fract_x
 _atom_site_fract_y
 _atom_site_fract_z
 _atom_site_occupancy
  C  C0  1  0.543975  0.683178  0.397209  1
  C  C1  1  0.071184  0.441234  0.393005  1
  C  C2  1  0.419176  0.220832  0.618113  1
  C  C3  1  0.111641  0.149718  0.864941  1
  C  C4  1  0.888359  0.850282  0.135059  1
  C  C5  1  0.419176  0.279168  0.118113  1
  C  C6  1  0.456025  0.316822  0.602791  1
  C  C7  1  0.543975  0.816822  0.897209  1
  C  C8  1  0.071184  0.058766  0.893005  1
  C  C9  1  0.580824  0.720832  0.881887  1
  C  C10  1  0.888359  0.649718  0.635059  1
  C  C11  1  0.456025  0.183178  0.102791  1
  C  C12  1  0.928816  0.558766  0.606995  1
  C  C13  1  0.580824  0.779168  0.381887  1
  C  C14  1  0.111641  0.350282  0.364941  1
  C  C15  1  0.928816  0.941234  0.106995  1
  S  S16  1  0.729126  0.403257  0.163798  1
  S  S17  1  0.787957  0.229292  0.323078  1
  S  S18  1  0.212043  0.770708  0.676922  1
  S  S19  1  0.212043  0.729292  0.176922  1
  S  S20  1  0.729126  0.096743  0.663798  1
  S  S21  1  0.270874  0.903257  0.336202  1
  S  S22  1  0.270874  0.596743  0.836202  1
  S  S23  1  0.787957  0.270708  0.823078  1
  N  N24  1  0.635494  0.313684  0.153360  1
  N  N25  1  0.108966  0.818039  0.169811  1
  N  N26  1  0.364506  0.813684  0.346640  1
  N  N27  1  0.108966  0.681961  0.669811  1
  N  N28  1  0.635494  0.186316  0.653360  1
  N  N29  1  0.891034  0.318039  0.330189  1
  N  N30  1  0.891034  0.181961  0.830189  1
  N  N31  1  0.364506  0.686316  0.846640  1
  Cl  Cl32  1  0.055266  0.355878  0.791441  1
  Cl  Cl33  1  0.759754  0.174390  0.420247  1
  Cl  Cl34  1  0.764315  0.463571  0.068275  1
  Cl  Cl35  1  0.235685  0.536429  0.931725  1
  Cl  Cl36  1  0.240246  0.674390  0.079753  1
  Cl  Cl37  1  0.764315  0.036429  0.568275  1
  Cl  Cl38  1  0.548655  0.983789  0.305145  1
  Cl  Cl39  1  0.759754  0.325610  0.920247  1
  Cl  Cl40  1  0.451345  0.483789  0.194855  1
  Cl  Cl41  1  0.240246  0.825610  0.579753  1
  Cl  Cl42  1  0.235685  0.963571  0.431725  1
  Cl  Cl43  1  0.055266  0.144122  0.291441  1
  Cl  Cl44  1  0.944734  0.855878  0.708559  1
  Cl  Cl45  1  0.548655  0.516211  0.805145  1
  Cl  Cl46  1  0.451345  0.016211  0.694855  1
  Cl  Cl47  1  0.944734  0.644122  0.208559  1
  F  F48  1  0.993718  0.006109  0.839945  1
  F  F49  1  0.993718  0.493891  0.339945  1
  F  F50  1  0.345593  0.181234  0.556276  1
  F  F51  1  0.715300  0.971516  0.074137  1
  F  F52  1  0.791571  0.698796  0.580356  1
  F  F53  1  0.477093  0.640792  0.337403  1
  F  F54  1  0.006282  0.993891  0.160055  1
  F  F55  1  0.756749  0.649695  0.427740  1
  F  F56  1  0.365518  0.826827  0.939497  1
  F  F57  1  0.756749  0.850305  0.927740  1
  F  F58  1  0.223816  0.214646  0.657569  1
  F  F59  1  0.654407  0.818766  0.443724  1
  F  F60  1  0.477093  0.859208  0.837403  1
  F  F61  1  0.654407  0.681234  0.943724  1
  F  F62  1  0.243251  0.350305  0.572260  1
  F  F63  1  0.284700  0.028484  0.925863  1
  F  F64  1  0.715300  0.528484  0.574137  1
  F  F65  1  0.791571  0.801204  0.080356  1
  F  F66  1  0.634482  0.326827  0.560503  1
  F  F67  1  0.291633  0.144244  0.820252  1
  F  F68  1  0.006282  0.506109  0.660055  1
  F  F69  1  0.101512  0.560295  0.562250  1
  F  F70  1  0.634482  0.173173  0.060503  1
  F  F71  1  0.345593  0.318766  0.056276  1
  F  F72  1  0.522907  0.359208  0.662597  1
  F  F73  1  0.208429  0.301204  0.419644  1
  F  F74  1  0.365518  0.673173  0.439497  1
  F  F75  1  0.284700  0.471516  0.425863  1
  F  F76  1  0.243251  0.149695  0.072260  1
  F  F77  1  0.708367  0.644244  0.679748  1
  F  F78  1  0.898488  0.439705  0.437750  1
  F  F79  1  0.898488  0.060295  0.937750  1
  F  F80  1  0.101512  0.939705  0.062250  1
  F  F81  1  0.776184  0.785354  0.342431  1
  F  F82  1  0.522907  0.140792  0.162597  1
  F  F83  1  0.291633  0.355756  0.320252  1
  F  F84  1  0.776184  0.714646  0.842431  1
  F  F85  1  0.708367  0.855756  0.179748  1
  F  F86  1  0.223816  0.285354  0.157569  1
  F  F87  1  0.208429  0.198796  0.919644  1
