# generated using pymatgen
data_Te2SO7
_symmetry_space_group_name_H-M   'P 1'
_cell_length_a   5.00024667
_cell_length_b   6.94551642
_cell_length_c   8.79615391
_cell_angle_alpha   90.00000000
_cell_angle_beta   90.00000000
_cell_angle_gamma   90.00000000
_symmetry_Int_Tables_number   1
_chemical_formula_structural   Te2SO7
_chemical_formula_sum   'Te4 S2 O14'
_cell_volume   305.48422709
_cell_formula_units_Z   2
loop_
 _symmetry_equiv_pos_site_id
 _symmetry_equiv_pos_as_xyz
  1  'x, y, z'
loop_
 _atom_site_type_symbol
 _atom_site_label
 _atom_site_symmetry_multiplicity
 _atom_site_fract_x
 _atom_site_fract_y
 _atom_site_fract_z
 _atom_site_occupancy
  Te  Te0  1  0.173335  0.820865  0.802993  1
  Te  Te1  1  0.673335  0.179135  0.697007  1
  Te  Te2  1  0.173335  0.820865  0.197007  1
  Te  Te3  1  0.673335  0.179135  0.302993  1
  S  S4  1  0.695268  0.510708  0.000000  1
  S  S5  1  0.195268  0.489292  0.500000  1
  O  O6  1  0.324553  0.058242  0.711154  1
  O  O7  1  0.273143  0.932771  0.000000  1
  O  O8  1  0.324553  0.058242  0.288846  1
  O  O9  1  0.546462  0.557588  0.140421  1
  O  O10  1  0.824553  0.941758  0.788846  1
  O  O11  1  0.546462  0.557588  0.859579  1
  O  O12  1  0.824553  0.941758  0.211154  1
  O  O13  1  0.046462  0.442412  0.640421  1
  O  O14  1  0.046462  0.442412  0.359579  1
  O  O15  1  0.773143  0.067229  0.500000  1
  O  O16  1  0.274564  0.694946  0.500000  1
  O  O17  1  0.953325  0.635281  0.000000  1
  O  O18  1  0.774564  0.305054  0.000000  1
  O  O19  1  0.453325  0.364719  0.500000  1
