# generated using pymatgen
data_Bi3Pt3O11
_symmetry_space_group_name_H-M   'P 1'
_cell_length_a   9.52071152
_cell_length_b   9.52071152
_cell_length_c   9.52071152
_cell_angle_alpha   90.00000000
_cell_angle_beta   90.00000000
_cell_angle_gamma   90.00000000
_symmetry_Int_Tables_number   1
_chemical_formula_structural   Bi3Pt3O11
_chemical_formula_sum   'Bi12 Pt12 O44'
_cell_volume   862.99487849
_cell_formula_units_Z   4
loop_
 _symmetry_equiv_pos_site_id
 _symmetry_equiv_pos_as_xyz
  1  'x, y, z'
loop_
 _atom_site_type_symbol
 _atom_site_label
 _atom_site_symmetry_multiplicity
 _atom_site_fract_x
 _atom_site_fract_y
 _atom_site_fract_z
 _atom_site_occupancy
  Bi  Bi0  1  0.867634  0.132366  0.867634  1
  Bi  Bi1  1  0.132366  0.132366  0.132366  1
  Bi  Bi2  1  0.367634  0.632366  0.632366  1
  Bi  Bi3  1  0.632366  0.367634  0.632366  1
  Bi  Bi4  1  0.867634  0.867634  0.132366  1
  Bi  Bi5  1  0.132366  0.867634  0.867634  1
  Bi  Bi6  1  0.250000  0.750000  0.250000  1
  Bi  Bi7  1  0.632366  0.632366  0.367634  1
  Bi  Bi8  1  0.750000  0.750000  0.750000  1
  Bi  Bi9  1  0.250000  0.250000  0.750000  1
  Bi  Bi10  1  0.750000  0.250000  0.250000  1
  Bi  Bi11  1  0.367634  0.367634  0.367634  1
  Pt  Pt12  1  0.500000  0.157831  0.000000  1
  Pt  Pt13  1  0.000000  0.500000  0.842169  1
  Pt  Pt14  1  0.500000  0.000000  0.657831  1
  Pt  Pt15  1  0.500000  0.000000  0.342169  1
  Pt  Pt16  1  0.157831  0.000000  0.500000  1
  Pt  Pt17  1  0.657831  0.500000  0.000000  1
  Pt  Pt18  1  0.000000  0.500000  0.157831  1
  Pt  Pt19  1  0.842169  0.000000  0.500000  1
  Pt  Pt20  1  0.000000  0.342169  0.500000  1
  Pt  Pt21  1  0.342169  0.500000  0.000000  1
  Pt  Pt22  1  0.000000  0.657831  0.500000  1
  Pt  Pt23  1  0.500000  0.842169  0.000000  1
  O  O24  1  0.897059  0.102941  0.102941  1
  O  O25  1  0.500000  0.855283  0.500000  1
  O  O26  1  0.831385  0.211677  0.494675  1
  O  O27  1  0.602941  0.602941  0.602941  1
  O  O28  1  0.331385  0.711677  0.005325  1
  O  O29  1  0.000000  0.000000  0.644717  1
  O  O30  1  0.897059  0.897059  0.897059  1
  O  O31  1  0.831385  0.788323  0.505325  1
  O  O32  1  0.711677  0.005325  0.331385  1
  O  O33  1  0.397059  0.397059  0.602941  1
  O  O34  1  0.168615  0.788323  0.494675  1
  O  O35  1  0.168615  0.211677  0.505325  1
  O  O36  1  0.602941  0.397059  0.397059  1
  O  O37  1  0.505325  0.168615  0.211677  1
  O  O38  1  0.668615  0.711677  0.994675  1
  O  O39  1  0.288323  0.994675  0.331385  1
  O  O40  1  0.494675  0.168615  0.788323  1
  O  O41  1  0.397059  0.602941  0.397059  1
  O  O42  1  0.855283  0.500000  0.500000  1
  O  O43  1  0.211677  0.505325  0.168615  1
  O  O44  1  0.711677  0.994675  0.668615  1
  O  O45  1  0.005325  0.668615  0.288323  1
  O  O46  1  0.994675  0.331385  0.288323  1
  O  O47  1  0.288323  0.005325  0.668615  1
  O  O48  1  0.788323  0.494675  0.168615  1
  O  O49  1  0.331385  0.288323  0.994675  1
  O  O50  1  0.505325  0.831385  0.788323  1
  O  O51  1  0.788323  0.505325  0.831385  1
  O  O52  1  0.355283  0.000000  0.000000  1
  O  O53  1  0.500000  0.144717  0.500000  1
  O  O54  1  0.102941  0.897059  0.102941  1
  O  O55  1  0.000000  0.644717  0.000000  1
  O  O56  1  0.494675  0.831385  0.211677  1
  O  O57  1  0.211677  0.494675  0.831385  1
  O  O58  1  0.102941  0.102941  0.897059  1
  O  O59  1  0.668615  0.288323  0.005325  1
  O  O60  1  0.500000  0.500000  0.855283  1
  O  O61  1  0.000000  0.000000  0.355283  1
  O  O62  1  0.994675  0.668615  0.711677  1
  O  O63  1  0.144717  0.500000  0.500000  1
  O  O64  1  0.644717  0.000000  0.000000  1
  O  O65  1  0.005325  0.331385  0.711677  1
  O  O66  1  0.500000  0.500000  0.144717  1
  O  O67  1  0.000000  0.355283  0.000000  1
