# generated using pymatgen
data_K3Ti3(PO4)5
_symmetry_space_group_name_H-M   'P 1'
_cell_length_a   6.36779794
_cell_length_b   14.87759434
_cell_length_c   18.34233990
_cell_angle_alpha   90.00000000
_cell_angle_beta   90.00000000
_cell_angle_gamma   90.00000000
_symmetry_Int_Tables_number   1
_chemical_formula_structural   K3Ti3(PO4)5
_chemical_formula_sum   'K12 Ti12 P20 O80'
_cell_volume   1737.70769390
_cell_formula_units_Z   4
loop_
 _symmetry_equiv_pos_site_id
 _symmetry_equiv_pos_as_xyz
  1  'x, y, z'
loop_
 _atom_site_type_symbol
 _atom_site_label
 _atom_site_symmetry_multiplicity
 _atom_site_fract_x
 _atom_site_fract_y
 _atom_site_fract_z
 _atom_site_occupancy
  K  K0  1  0.342697  0.747266  0.178056  1
  K  K1  1  0.621429  0.519989  0.847200  1
  K  K2  1  0.657303  0.247266  0.821944  1
  K  K3  1  0.362173  0.468722  0.145768  1
  K  K4  1  0.637827  0.468722  0.645768  1
  K  K5  1  0.378571  0.519989  0.347200  1
  K  K6  1  0.637827  0.968722  0.854232  1
  K  K7  1  0.621429  0.019989  0.652800  1
  K  K8  1  0.378571  0.019989  0.152800  1
  K  K9  1  0.657303  0.747266  0.678056  1
  K  K10  1  0.362173  0.968722  0.354232  1
  K  K11  1  0.342697  0.247266  0.321944  1
  Ti  Ti12  1  0.753980  0.854996  0.053147  1
  Ti  Ti13  1  0.750402  0.250174  0.148474  1
  Ti  Ti14  1  0.248931  0.116983  0.957538  1
  Ti  Ti15  1  0.246020  0.354996  0.946853  1
  Ti  Ti16  1  0.249598  0.750174  0.851526  1
  Ti  Ti17  1  0.249598  0.250174  0.648474  1
  Ti  Ti18  1  0.751069  0.116983  0.457538  1
  Ti  Ti19  1  0.248931  0.616983  0.542462  1
  Ti  Ti20  1  0.753980  0.354996  0.446853  1
  Ti  Ti21  1  0.751069  0.616983  0.042462  1
  Ti  Ti22  1  0.750402  0.750174  0.351526  1
  Ti  Ti23  1  0.246020  0.854996  0.553147  1
  P  P24  1  0.135854  0.098074  0.779911  1
  P  P25  1  0.253365  0.089255  0.512592  1
  P  P26  1  0.254741  0.884549  0.005752  1
  P  P27  1  0.254741  0.384549  0.494248  1
  P  P28  1  0.866347  0.407847  0.272249  1
  P  P29  1  0.866347  0.907847  0.227751  1
  P  P30  1  0.864146  0.598074  0.220089  1
  P  P31  1  0.747576  0.245215  0.604060  1
  P  P32  1  0.746635  0.089255  0.012592  1
  P  P33  1  0.133653  0.907847  0.727751  1
  P  P34  1  0.745259  0.384549  0.994248  1
  P  P35  1  0.133653  0.407847  0.772249  1
  P  P36  1  0.747576  0.745215  0.895940  1
  P  P37  1  0.745259  0.884549  0.505752  1
  P  P38  1  0.864146  0.098074  0.279911  1
  P  P39  1  0.135854  0.598074  0.720089  1
  P  P40  1  0.252424  0.745215  0.395940  1
  P  P41  1  0.253365  0.589255  0.987408  1
  P  P42  1  0.746635  0.589255  0.487408  1
  P  P43  1  0.252424  0.245215  0.104060  1
  O  O44  1  0.248729  0.676370  0.759733  1
  O  O45  1  0.262324  0.984572  0.986904  1
  O  O46  1  0.053032  0.112453  0.468932  1
  O  O47  1  0.248561  0.079759  0.853464  1
  O  O48  1  0.250747  0.734009  0.570114  1
  O  O49  1  0.248561  0.579759  0.646536  1
  O  O50  1  0.944032  0.861353  0.550131  1
  O  O51  1  0.736835  0.326625  0.064185  1
  O  O52  1  0.049375  0.746840  0.349716  1
  O  O53  1  0.248729  0.176370  0.740267  1
  O  O54  1  0.751271  0.676370  0.259733  1
  O  O55  1  0.946968  0.112453  0.968932  1
  O  O56  1  0.898054  0.401986  0.772849  1
  O  O57  1  0.749911  0.877828  0.158159  1
  O  O58  1  0.562736  0.113182  0.960283  1
  O  O59  1  0.246567  0.362751  0.707118  1
  O  O60  1  0.736593  0.155323  0.562548  1
  O  O61  1  0.736835  0.826625  0.435815  1
  O  O62  1  0.440068  0.860014  0.056772  1
  O  O63  1  0.562777  0.251003  0.658944  1
  O  O64  1  0.900333  0.102533  0.783871  1
  O  O65  1  0.751271  0.176370  0.240267  1
  O  O66  1  0.950625  0.746840  0.849716  1
  O  O67  1  0.753433  0.362751  0.207118  1
  O  O68  1  0.946968  0.612453  0.531068  1
  O  O69  1  0.739095  0.988748  0.031010  1
  O  O70  1  0.751439  0.579759  0.146536  1
  O  O71  1  0.950625  0.246840  0.650284  1
  O  O72  1  0.739095  0.488748  0.468990  1
  O  O73  1  0.101946  0.401986  0.272849  1
  O  O74  1  0.263165  0.826625  0.935815  1
  O  O75  1  0.266411  0.143548  0.584941  1
  O  O76  1  0.256136  0.828880  0.445934  1
  O  O77  1  0.733589  0.643548  0.415059  1
  O  O78  1  0.263407  0.655323  0.437452  1
  O  O79  1  0.440068  0.360014  0.443228  1
  O  O80  1  0.246567  0.862751  0.792882  1
  O  O81  1  0.211165  0.512552  0.769513  1
  O  O82  1  0.055968  0.361353  0.449869  1
  O  O83  1  0.055968  0.861353  0.050131  1
  O  O84  1  0.788835  0.512552  0.269513  1
  O  O85  1  0.437223  0.251003  0.158944  1
  O  O86  1  0.944032  0.361353  0.949869  1
  O  O87  1  0.743864  0.328880  0.554066  1
  O  O88  1  0.562777  0.751003  0.841056  1
  O  O89  1  0.898054  0.901986  0.727151  1
  O  O90  1  0.101946  0.901986  0.227151  1
  O  O91  1  0.250747  0.234009  0.929886  1
  O  O92  1  0.099667  0.102533  0.283871  1
  O  O93  1  0.049375  0.246840  0.150284  1
  O  O94  1  0.437264  0.113182  0.460283  1
  O  O95  1  0.262324  0.484572  0.513096  1
  O  O96  1  0.263407  0.155323  0.062548  1
  O  O97  1  0.250089  0.877828  0.658159  1
  O  O98  1  0.737676  0.484572  0.013096  1
  O  O99  1  0.260905  0.988748  0.531010  1
  O  O100  1  0.250089  0.377828  0.841841  1
  O  O101  1  0.260905  0.488748  0.968990  1
  O  O102  1  0.559932  0.860014  0.556772  1
  O  O103  1  0.266411  0.643548  0.915059  1
  O  O104  1  0.437264  0.613182  0.039717  1
  O  O105  1  0.559932  0.360014  0.943228  1
  O  O106  1  0.562736  0.613182  0.539717  1
  O  O107  1  0.753433  0.862751  0.292882  1
  O  O108  1  0.743864  0.828880  0.945934  1
  O  O109  1  0.099667  0.602533  0.216129  1
  O  O110  1  0.737676  0.984572  0.486904  1
  O  O111  1  0.900333  0.602533  0.716129  1
  O  O112  1  0.749911  0.377828  0.341841  1
  O  O113  1  0.751439  0.079759  0.353464  1
  O  O114  1  0.736593  0.655323  0.937452  1
  O  O115  1  0.437223  0.751003  0.341056  1
  O  O116  1  0.749253  0.734009  0.070114  1
  O  O117  1  0.788835  0.012552  0.230487  1
  O  O118  1  0.263165  0.326625  0.564185  1
  O  O119  1  0.256136  0.328880  0.054066  1
  O  O120  1  0.211165  0.012552  0.730487  1
  O  O121  1  0.053032  0.612453  0.031068  1
  O  O122  1  0.749253  0.234009  0.429886  1
  O  O123  1  0.733589  0.143548  0.084941  1
