# generated using pymatgen
data_NaLi2BO3
_symmetry_space_group_name_H-M   'P 1'
_cell_length_a   4.97813542
_cell_length_b   12.18007555
_cell_length_c   9.69395040
_cell_angle_alpha   90.00000000
_cell_angle_beta   105.74860235
_cell_angle_gamma   90.00000000
_symmetry_Int_Tables_number   1
_chemical_formula_structural   NaLi2BO3
_chemical_formula_sum   'Na8 Li16 B8 O24'
_cell_volume   565.71931801
_cell_formula_units_Z   8
loop_
 _symmetry_equiv_pos_site_id
 _symmetry_equiv_pos_as_xyz
  1  'x, y, z'
loop_
 _atom_site_type_symbol
 _atom_site_label
 _atom_site_symmetry_multiplicity
 _atom_site_fract_x
 _atom_site_fract_y
 _atom_site_fract_z
 _atom_site_occupancy
  Na  Na0  1  0.654723  0.885167  0.396648  1
  Na  Na1  1  0.973601  0.197987  0.175922  1
  Na  Na2  1  0.026399  0.697987  0.324078  1
  Na  Na3  1  0.654723  0.614833  0.896648  1
  Na  Na4  1  0.026399  0.802013  0.824078  1
  Na  Na5  1  0.345277  0.385167  0.103352  1
  Na  Na6  1  0.345277  0.114833  0.603352  1
  Na  Na7  1  0.973601  0.302013  0.675922  1
  Li  Li8  1  0.240588  0.003811  0.979301  1
  Li  Li9  1  0.771780  0.347039  0.355601  1
  Li  Li10  1  0.187573  0.648782  0.059456  1
  Li  Li11  1  0.812427  0.148782  0.440544  1
  Li  Li12  1  0.477211  0.102335  0.202199  1
  Li  Li13  1  0.522789  0.602335  0.297801  1
  Li  Li14  1  0.240588  0.496189  0.479301  1
  Li  Li15  1  0.759412  0.996189  0.020699  1
  Li  Li16  1  0.228220  0.847039  0.144399  1
  Li  Li17  1  0.522789  0.897665  0.797801  1
  Li  Li18  1  0.771780  0.152961  0.855601  1
  Li  Li19  1  0.187573  0.851218  0.559456  1
  Li  Li20  1  0.477211  0.397665  0.702199  1
  Li  Li21  1  0.228220  0.652961  0.644399  1
  Li  Li22  1  0.759412  0.503811  0.520699  1
  Li  Li23  1  0.812427  0.351218  0.940544  1
  B  B24  1  0.640535  0.788521  0.076333  1
  B  B25  1  0.359465  0.288521  0.423667  1
  B  B26  1  0.640535  0.711479  0.576333  1
  B  B27  1  0.047441  0.521835  0.780705  1
  B  B28  1  0.047441  0.978165  0.280705  1
  B  B29  1  0.952559  0.021835  0.719295  1
  B  B30  1  0.359465  0.211479  0.923667  1
  B  B31  1  0.952559  0.478165  0.219295  1
  O  O32  1  0.137954  0.492512  0.659988  1
  O  O33  1  0.828464  0.388142  0.138738  1
  O  O34  1  0.534873  0.766104  0.677799  1
  O  O35  1  0.106423  0.240821  0.947137  1
  O  O36  1  0.521124  0.126725  0.003043  1
  O  O37  1  0.862046  0.992512  0.840012  1
  O  O38  1  0.172607  0.535510  0.192442  1
  O  O39  1  0.862046  0.507488  0.340012  1
  O  O40  1  0.534873  0.733896  0.177799  1
  O  O41  1  0.172607  0.964490  0.692442  1
  O  O42  1  0.465127  0.266104  0.822201  1
  O  O43  1  0.478876  0.873275  0.996957  1
  O  O44  1  0.521124  0.373275  0.503043  1
  O  O45  1  0.893577  0.740821  0.552863  1
  O  O46  1  0.465127  0.233896  0.322201  1
  O  O47  1  0.828464  0.111858  0.638738  1
  O  O48  1  0.137954  0.007488  0.159988  1
  O  O49  1  0.106423  0.259179  0.447137  1
  O  O50  1  0.478876  0.626725  0.496957  1
  O  O51  1  0.171536  0.888142  0.361262  1
  O  O52  1  0.827393  0.035510  0.307558  1
  O  O53  1  0.171536  0.611858  0.861262  1
  O  O54  1  0.893577  0.759179  0.052863  1
  O  O55  1  0.827393  0.464490  0.807558  1
