# generated using pymatgen
data_Rb2Co2O3
_symmetry_space_group_name_H-M   'P 1'
_cell_length_a   6.18182504
_cell_length_b   7.91738756
_cell_length_c   12.03813710
_cell_angle_alpha   90.00000000
_cell_angle_beta   90.00000000
_cell_angle_gamma   90.00000000
_symmetry_Int_Tables_number   1
_chemical_formula_structural   Rb2Co2O3
_chemical_formula_sum   'Rb8 Co8 O12'
_cell_volume   589.19343462
_cell_formula_units_Z   4
loop_
 _symmetry_equiv_pos_site_id
 _symmetry_equiv_pos_as_xyz
  1  'x, y, z'
loop_
 _atom_site_type_symbol
 _atom_site_label
 _atom_site_symmetry_multiplicity
 _atom_site_fract_x
 _atom_site_fract_y
 _atom_site_fract_z
 _atom_site_occupancy
  Rb  Rb0  1  0.250000  0.005392  0.379418  1
  Rb  Rb1  1  0.750000  0.994608  0.620582  1
  Rb  Rb2  1  0.750000  0.505392  0.120582  1
  Rb  Rb3  1  0.250000  0.494608  0.879418  1
  Rb  Rb4  1  0.250000  0.875540  0.058067  1
  Rb  Rb5  1  0.750000  0.124460  0.941933  1
  Rb  Rb6  1  0.750000  0.375540  0.441933  1
  Rb  Rb7  1  0.250000  0.624460  0.558067  1
  Co  Co8  1  0.250000  0.589727  0.264988  1
  Co  Co9  1  0.750000  0.410273  0.735012  1
  Co  Co10  1  0.750000  0.089727  0.235012  1
  Co  Co11  1  0.250000  0.910273  0.764988  1
  Co  Co12  1  0.250000  0.275129  0.151655  1
  Co  Co13  1  0.750000  0.724871  0.848345  1
  Co  Co14  1  0.750000  0.775129  0.348345  1
  Co  Co15  1  0.250000  0.224871  0.651655  1
  O  O16  1  0.250000  0.515236  0.120452  1
  O  O17  1  0.750000  0.484764  0.879548  1
  O  O18  1  0.750000  0.015236  0.379548  1
  O  O19  1  0.250000  0.984764  0.620452  1
  O  O20  1  0.992179  0.160295  0.150421  1
  O  O21  1  0.492179  0.839705  0.849579  1
  O  O22  1  0.007821  0.660295  0.349579  1
  O  O23  1  0.507821  0.339705  0.650421  1
  O  O24  1  0.007821  0.839705  0.849579  1
  O  O25  1  0.507821  0.160295  0.150421  1
  O  O26  1  0.992179  0.339705  0.650421  1
  O  O27  1  0.492179  0.660295  0.349579  1
