# generated using pymatgen
data_Rb2Cr2O7
_symmetry_space_group_name_H-M   'P 1'
_cell_length_a   7.61719801
_cell_length_b   7.81542080
_cell_length_c   8.05204458
_cell_angle_alpha   108.97420504
_cell_angle_beta   90.88108055
_cell_angle_gamma   110.19136362
_symmetry_Int_Tables_number   1
_chemical_formula_structural   Rb2Cr2O7
_chemical_formula_sum   'Rb4 Cr4 O14'
_cell_volume   421.02789573
_cell_formula_units_Z   2
loop_
 _symmetry_equiv_pos_site_id
 _symmetry_equiv_pos_as_xyz
  1  'x, y, z'
loop_
 _atom_site_type_symbol
 _atom_site_label
 _atom_site_symmetry_multiplicity
 _atom_site_fract_x
 _atom_site_fract_y
 _atom_site_fract_z
 _atom_site_occupancy
  Rb  Rb0  1  0.378836  0.992530  0.747633  1
  Rb  Rb1  1  0.621164  0.007470  0.252367  1
  Rb  Rb2  1  0.188305  0.416226  0.252675  1
  Rb  Rb3  1  0.811695  0.583774  0.747325  1
  Cr  Cr4  1  0.298916  0.477072  0.755464  1
  Cr  Cr5  1  0.916131  0.120624  0.776567  1
  Cr  Cr6  1  0.083869  0.879376  0.223433  1
  Cr  Cr7  1  0.701084  0.522928  0.244536  1
  O  O8  1  0.234960  0.848726  0.347621  1
  O  O9  1  0.806148  0.438792  0.360539  1
  O  O10  1  0.176797  0.916929  0.050818  1
  O  O11  1  0.823203  0.083071  0.949182  1
  O  O12  1  0.027680  0.063392  0.334012  1
  O  O13  1  0.598879  0.657733  0.372786  1
  O  O14  1  0.540760  0.340491  0.089951  1
  O  O15  1  0.972320  0.936608  0.665988  1
  O  O16  1  0.193852  0.561208  0.639461  1
  O  O17  1  0.765040  0.151274  0.652379  1
  O  O18  1  0.872566  0.662740  0.140902  1
  O  O19  1  0.459240  0.659509  0.910049  1
  O  O20  1  0.127434  0.337260  0.859098  1
  O  O21  1  0.401121  0.342267  0.627214  1
