# generated using pymatgen
data_CsNiPdF5
_symmetry_space_group_name_H-M   'P 1'
_cell_length_a   7.36433048
_cell_length_b   7.36433048
_cell_length_c   7.36433048
_cell_angle_alpha   126.28755056
_cell_angle_beta   117.97514599
_cell_angle_gamma   86.50700197
_symmetry_Int_Tables_number   1
_chemical_formula_structural   CsNiPdF5
_chemical_formula_sum   'Cs2 Ni2 Pd2 F10'
_cell_volume   270.82252851
_cell_formula_units_Z   2
loop_
 _symmetry_equiv_pos_site_id
 _symmetry_equiv_pos_as_xyz
  1  'x, y, z'
loop_
 _atom_site_type_symbol
 _atom_site_label
 _atom_site_symmetry_multiplicity
 _atom_site_fract_x
 _atom_site_fract_y
 _atom_site_fract_z
 _atom_site_occupancy
  Cs  Cs0  1  0.130931  0.380931  0.250000  1
  Cs  Cs1  1  0.869069  0.619069  0.750000  1
  Ni  Ni2  1  0.000000  0.000000  0.500000  1
  Ni  Ni3  1  0.500000  0.000000  1.000000  1
  Pd  Pd4  1  0.500000  0.000000  0.500000  1
  Pd  Pd5  1  0.500000  0.500000  0.000000  1
  F  F6  1  0.557895  0.346463  0.164333  1
  F  F7  1  0.442105  0.106437  0.288568  1
  F  F8  1  0.817870  0.653537  0.211432  1
  F  F9  1  0.182130  0.893563  0.335667  1
  F  F10  1  0.442105  0.653537  0.835667  1
  F  F11  1  0.557895  0.893563  0.711432  1
  F  F12  1  0.179941  0.929941  0.750000  1
  F  F13  1  0.820059  0.070059  0.250000  1
  F  F14  1  0.817870  0.106437  0.664333  1
  F  F15  1  0.182130  0.346463  0.788568  1
