# generated using pymatgen
data_Ca3(AsO4)2
_symmetry_space_group_name_H-M   'P 1'
_cell_length_a   14.25576995
_cell_length_b   14.25576995
_cell_length_c   14.25576995
_cell_angle_alpha   45.07982014
_cell_angle_beta   45.07982014
_cell_angle_gamma   45.07982014
_symmetry_Int_Tables_number   1
_chemical_formula_structural   Ca3(AsO4)2
_chemical_formula_sum   'Ca21 As14 O56'
_cell_volume   1322.36399400
_cell_formula_units_Z   7
loop_
 _symmetry_equiv_pos_site_id
 _symmetry_equiv_pos_as_xyz
  1  'x, y, z'
loop_
 _atom_site_type_symbol
 _atom_site_label
 _atom_site_symmetry_multiplicity
 _atom_site_fract_x
 _atom_site_fract_y
 _atom_site_fract_z
 _atom_site_occupancy
  Ca  Ca0  1  0.733378  0.733378  0.733378  1
  Ca  Ca1  1  0.802173  0.388593  0.802812  1
  Ca  Ca2  1  0.388593  0.802812  0.802173  1
  Ca  Ca3  1  0.802812  0.802173  0.388593  1
  Ca  Ca4  1  0.681910  0.275242  0.727715  1
  Ca  Ca5  1  0.275242  0.727715  0.681910  1
  Ca  Ca6  1  0.300101  0.302152  0.889779  1
  Ca  Ca7  1  0.727715  0.681910  0.275242  1
  Ca  Ca8  1  0.081108  0.640286  0.679566  1
  Ca  Ca9  1  0.679566  0.081108  0.640286  1
  Ca  Ca10  1  0.889779  0.300101  0.302152  1
  Ca  Ca11  1  0.302152  0.889779  0.300101  1
  Ca  Ca12  1  0.175141  0.199313  0.796574  1
  Ca  Ca13  1  0.640286  0.679566  0.081108  1
  Ca  Ca14  1  0.424334  0.424334  0.424334  1
  Ca  Ca15  1  0.796575  0.175141  0.199313  1
  Ca  Ca16  1  0.199313  0.796575  0.175141  1
  Ca  Ca17  1  0.171790  0.140370  0.582464  1
  Ca  Ca18  1  0.140370  0.582464  0.171790  1
  Ca  Ca19  1  0.582464  0.171790  0.140370  1
  Ca  Ca20  1  0.232492  0.232492  0.232492  1
  As  As21  1  0.999247  0.999247  0.999247  1
  As  As22  1  0.915702  0.417627  0.961604  1
  As  As23  1  0.417627  0.961604  0.915702  1
  As  As24  1  0.961604  0.915702  0.417627  1
  As  As25  1  0.416657  0.461036  0.916836  1
  As  As26  1  0.916836  0.416657  0.461036  1
  As  As27  1  0.461036  0.916836  0.416657  1
  As  As28  1  0.500993  0.500993  0.500993  1
  As  As29  1  0.067903  0.497473  0.535572  1
  As  As30  1  0.535572  0.067903  0.497473  1
  As  As31  1  0.497473  0.535572  0.067903  1
  As  As32  1  0.039674  0.005142  0.555479  1
  As  As33  1  0.005142  0.555479  0.039674  1
  As  As34  1  0.555479  0.039674  0.005142  1
  O  O35  1  0.849534  0.604975  0.874998  1
  O  O36  1  0.604975  0.874998  0.849534  1
  O  O37  1  0.874998  0.849534  0.604975  1
  O  O38  1  0.901382  0.344920  0.916719  1
  O  O39  1  0.344920  0.916719  0.901382  1
  O  O40  1  0.606629  0.597524  0.883048  1
  O  O41  1  0.832520  0.136687  0.993586  1
  O  O42  1  0.597524  0.883048  0.606629  1
  O  O43  1  0.883048  0.606629  0.597524  1
  O  O44  1  0.916719  0.901382  0.344920  1
  O  O45  1  0.136687  0.993586  0.832520  1
  O  O46  1  0.598316  0.405010  0.851243  1
  O  O47  1  0.310992  0.644481  0.873060  1
  O  O48  1  0.627746  0.109752  0.989706  1
  O  O49  1  0.405010  0.851243  0.598316  1
  O  O50  1  0.873060  0.310992  0.644481  1
  O  O51  1  0.851243  0.598316  0.405010  1
  O  O52  1  0.404655  0.412673  0.845581  1
  O  O53  1  0.993586  0.832520  0.136687  1
  O  O54  1  0.109752  0.989706  0.627746  1
  O  O55  1  0.644481  0.873060  0.310992  1
  O  O56  1  0.083202  0.627466  0.853595  1
  O  O57  1  0.568244  0.131595  0.830662  1
  O  O58  1  0.545256  0.545256  0.545256  1
  O  O59  1  0.845581  0.404655  0.412673  1
  O  O60  1  0.412673  0.845581  0.404655  1
  O  O61  1  0.853595  0.083202  0.627466  1
  O  O62  1  0.131595  0.830662  0.568244  1
  O  O63  1  0.989706  0.627746  0.109752  1
  O  O64  1  0.098231  0.354013  0.898202  1
  O  O65  1  0.338657  0.479722  0.627299  1
  O  O66  1  0.370728  0.145325  0.809644  1
  O  O67  1  0.627299  0.338657  0.479722  1
  O  O68  1  0.479722  0.627299  0.338657  1
  O  O69  1  0.627466  0.853595  0.083202  1
  O  O70  1  0.830662  0.568244  0.131595  1
  O  O71  1  0.898202  0.098231  0.354013  1
  O  O72  1  0.145325  0.809644  0.370728  1
  O  O73  1  0.169454  0.474756  0.582126  1
  O  O74  1  0.582126  0.169454  0.474756  1
  O  O75  1  0.354013  0.898202  0.098231  1
  O  O76  1  0.809644  0.370728  0.145325  1
  O  O77  1  0.350379  0.140877  0.569989  1
  O  O78  1  0.065273  0.328911  0.638512  1
  O  O79  1  0.474756  0.582126  0.169454  1
  O  O80  1  0.140877  0.569989  0.350379  1
  O  O81  1  0.638512  0.065273  0.328911  1
  O  O82  1  0.569989  0.350379  0.140877  1
  O  O83  1  0.328911  0.638512  0.065273  1
  O  O84  1  0.104011  0.349548  0.374818  1
  O  O85  1  0.374818  0.104011  0.349548  1
  O  O86  1  0.349548  0.374818  0.104011  1
  O  O87  1  0.099472  0.105394  0.368156  1
  O  O88  1  0.368156  0.099472  0.105394  1
  O  O89  1  0.105394  0.368156  0.099472  1
  O  O90  1  0.044713  0.044713  0.044713  1
