# generated using pymatgen
data_Ca6Si3H2O13
_symmetry_space_group_name_H-M   'P 1'
_cell_length_a   6.89256530
_cell_length_b   7.00606740
_cell_length_c   12.98538550
_cell_angle_alpha   90.79975810
_cell_angle_beta   97.63274759
_cell_angle_gamma   98.05304256
_symmetry_Int_Tables_number   1
_chemical_formula_structural   Ca6Si3H2O13
_chemical_formula_sum   'Ca12 Si6 H4 O26'
_cell_volume   615.03778359
_cell_formula_units_Z   2
loop_
 _symmetry_equiv_pos_site_id
 _symmetry_equiv_pos_as_xyz
  1  'x, y, z'
loop_
 _atom_site_type_symbol
 _atom_site_label
 _atom_site_symmetry_multiplicity
 _atom_site_fract_x
 _atom_site_fract_y
 _atom_site_fract_z
 _atom_site_occupancy
  Ca  Ca0  1  0.683820  0.808258  0.124249  1
  Ca  Ca1  1  0.809872  0.796224  0.511797  1
  Ca  Ca2  1  0.440055  0.966666  0.678654  1
  Ca  Ca3  1  0.107140  0.527813  0.709079  1
  Ca  Ca4  1  0.918728  0.805355  0.898366  1
  Ca  Ca5  1  0.081272  0.194645  0.101634  1
  Ca  Ca6  1  0.190128  0.203776  0.488203  1
  Ca  Ca7  1  0.892860  0.472187  0.290921  1
  Ca  Ca8  1  0.406478  0.523252  0.296712  1
  Ca  Ca9  1  0.559945  0.033334  0.321346  1
  Ca  Ca10  1  0.593522  0.476748  0.703288  1
  Ca  Ca11  1  0.316180  0.191742  0.875751  1
  Si  Si12  1  0.385873  0.711317  0.902003  1
  Si  Si13  1  0.614127  0.288683  0.097997  1
  Si  Si14  1  0.285236  0.701062  0.490900  1
  Si  Si15  1  0.810308  0.284853  0.884356  1
  Si  Si16  1  0.189692  0.715147  0.115644  1
  Si  Si17  1  0.714764  0.298938  0.509100  1
  H  H18  1  0.188329  0.027892  0.277203  1
  H  H19  1  0.066236  0.117674  0.676681  1
  H  H20  1  0.811671  0.972108  0.722797  1
  H  H21  1  0.933764  0.882326  0.323319  1
  O  O22  1  0.743116  0.150882  0.176167  1
  O  O23  1  0.833553  0.485018  0.581984  1
  O  O24  1  0.884986  0.489409  0.830819  1
  O  O25  1  0.358164  0.633197  0.609752  1
  O  O26  1  0.616818  0.185198  0.804701  1
  O  O27  1  0.764577  0.839199  0.698367  1
  O  O28  1  0.641836  0.366803  0.390248  1
  O  O29  1  0.618587  0.488716  0.165599  1
  O  O30  1  0.252483  0.664259  0.999828  1
  O  O31  1  0.383182  0.814802  0.195299  1
  O  O32  1  0.381413  0.511284  0.834401  1
  O  O33  1  0.810228  0.793248  0.314802  1
  O  O34  1  0.166447  0.514982  0.418016  1
  O  O35  1  0.747517  0.335741  0.000172  1
  O  O36  1  0.846861  0.127627  0.489054  1
  O  O37  1  0.235423  0.160801  0.301633  1
  O  O38  1  0.256884  0.849118  0.823833  1
  O  O39  1  0.189772  0.206752  0.685198  1
  O  O40  1  0.521302  0.217839  0.566533  1
  O  O41  1  0.609580  0.806471  0.947415  1
  O  O42  1  0.478698  0.782161  0.433467  1
  O  O43  1  0.014224  0.851025  0.090273  1
  O  O44  1  0.985776  0.148975  0.909727  1
  O  O45  1  0.115014  0.510591  0.169181  1
  O  O46  1  0.153139  0.872373  0.510946  1
  O  O47  1  0.390420  0.193529  0.052585  1
