# generated using pymatgen
data_LaTa3O9
_symmetry_space_group_name_H-M   'P 1'
_cell_length_a   6.62099896
_cell_length_b   7.75428761
_cell_length_c   12.67823496
_cell_angle_alpha   90.00000000
_cell_angle_beta   90.00000000
_cell_angle_gamma   90.00000000
_symmetry_Int_Tables_number   1
_chemical_formula_structural   LaTa3O9
_chemical_formula_sum   'La4 Ta12 O36'
_cell_volume   650.91491180
_cell_formula_units_Z   4
loop_
 _symmetry_equiv_pos_site_id
 _symmetry_equiv_pos_as_xyz
  1  'x, y, z'
loop_
 _atom_site_type_symbol
 _atom_site_label
 _atom_site_symmetry_multiplicity
 _atom_site_fract_x
 _atom_site_fract_y
 _atom_site_fract_z
 _atom_site_occupancy
  La  La0  1  0.050721  0.250000  0.473233  1
  La  La1  1  0.550721  0.250000  0.026767  1
  La  La2  1  0.949279  0.750000  0.526767  1
  La  La3  1  0.449279  0.750000  0.973233  1
  Ta  Ta4  1  0.783291  0.502065  0.284538  1
  Ta  Ta5  1  0.283291  0.997935  0.215462  1
  Ta  Ta6  1  0.216709  0.002065  0.715462  1
  Ta  Ta7  1  0.716709  0.497935  0.784538  1
  Ta  Ta8  1  0.216709  0.497935  0.715462  1
  Ta  Ta9  1  0.716709  0.002065  0.784538  1
  Ta  Ta10  1  0.783291  0.997935  0.284538  1
  Ta  Ta11  1  0.283291  0.502065  0.215462  1
  Ta  Ta12  1  0.000000  0.500000  0.000000  1
  Ta  Ta13  1  0.500000  0.000000  0.500000  1
  Ta  Ta14  1  0.000000  0.000000  0.000000  1
  Ta  Ta15  1  0.500000  0.500000  0.500000  1
  O  O16  1  0.206517  0.750000  0.701570  1
  O  O17  1  0.706517  0.750000  0.798430  1
  O  O18  1  0.793483  0.250000  0.298430  1
  O  O19  1  0.293483  0.250000  0.201570  1
  O  O20  1  0.809828  0.750000  0.318054  1
  O  O21  1  0.309828  0.750000  0.181946  1
  O  O22  1  0.190172  0.250000  0.681946  1
  O  O23  1  0.690172  0.250000  0.818054  1
  O  O24  1  0.562887  0.750000  0.519609  1
  O  O25  1  0.062887  0.750000  0.980391  1
  O  O26  1  0.437113  0.250000  0.480391  1
  O  O27  1  0.937113  0.250000  0.019609  1
  O  O28  1  0.091317  0.479522  0.333079  1
  O  O29  1  0.591317  0.020478  0.166921  1
  O  O30  1  0.908683  0.979522  0.666921  1
  O  O31  1  0.408683  0.520478  0.833079  1
  O  O32  1  0.285868  0.473126  0.041831  1
  O  O33  1  0.785868  0.026874  0.458169  1
  O  O34  1  0.714132  0.973126  0.958169  1
  O  O35  1  0.214132  0.526874  0.541831  1
  O  O36  1  0.714132  0.526874  0.958169  1
  O  O37  1  0.214132  0.973126  0.541831  1
  O  O38  1  0.285868  0.026874  0.041831  1
  O  O39  1  0.785868  0.473126  0.458169  1
  O  O40  1  0.026326  0.468683  0.843719  1
  O  O41  1  0.526326  0.031317  0.656281  1
  O  O42  1  0.973674  0.968683  0.156281  1
  O  O43  1  0.473674  0.531317  0.343719  1
  O  O44  1  0.973674  0.531317  0.156281  1
  O  O45  1  0.473674  0.968683  0.343719  1
  O  O46  1  0.026326  0.031317  0.843719  1
  O  O47  1  0.526326  0.468683  0.656281  1
  O  O48  1  0.591317  0.479522  0.166921  1
  O  O49  1  0.091317  0.020478  0.333079  1
  O  O50  1  0.408683  0.979522  0.833079  1
  O  O51  1  0.908683  0.520478  0.666921  1
