# generated using pymatgen
data_CuSeO3
_symmetry_space_group_name_H-M   'P 1'
_cell_length_a   4.81313673
_cell_length_b   8.92620797
_cell_length_c   10.73572026
_cell_angle_alpha   113.52618470
_cell_angle_beta   91.18854810
_cell_angle_gamma   90.25826275
_symmetry_Int_Tables_number   1
_chemical_formula_structural   CuSeO3
_chemical_formula_sum   'Cu6 Se6 O18'
_cell_volume   422.76800376
_cell_formula_units_Z   6
loop_
 _symmetry_equiv_pos_site_id
 _symmetry_equiv_pos_as_xyz
  1  'x, y, z'
loop_
 _atom_site_type_symbol
 _atom_site_label
 _atom_site_symmetry_multiplicity
 _atom_site_fract_x
 _atom_site_fract_y
 _atom_site_fract_z
 _atom_site_occupancy
  Cu  Cu0  1  0.468836  0.992021  0.743465  1
  Cu  Cu1  1  0.030654  0.646070  0.665016  1
  Cu  Cu2  1  0.000000  0.000000  0.000000  1
  Cu  Cu3  1  0.531164  0.007979  0.256535  1
  Cu  Cu4  1  0.000000  0.000000  0.500000  1
  Cu  Cu5  1  0.969346  0.353930  0.334984  1
  Se  Se6  1  0.578243  0.696820  0.878783  1
  Se  Se7  1  0.547762  0.726532  0.478795  1
  Se  Se8  1  0.421757  0.303180  0.121217  1
  Se  Se9  1  0.982185  0.246026  0.829313  1
  Se  Se10  1  0.452238  0.273468  0.521205  1
  Se  Se11  1  0.017815  0.753974  0.170687  1
  O  O12  1  0.123179  0.074442  0.853104  1
  O  O13  1  0.700559  0.923303  0.578310  1
  O  O14  1  0.723133  0.557180  0.732226  1
  O  O15  1  0.367303  0.788088  0.170096  1
  O  O16  1  0.937521  0.803737  0.339040  1
  O  O17  1  0.310454  0.776820  0.617043  1
  O  O18  1  0.632697  0.211912  0.829904  1
  O  O19  1  0.227697  0.691446  0.838859  1
  O  O20  1  0.299441  0.076697  0.421690  1
  O  O21  1  0.690939  0.883970  0.875607  1
  O  O22  1  0.791777  0.600706  0.500291  1
  O  O23  1  0.208223  0.399294  0.499709  1
  O  O24  1  0.772303  0.308554  0.161141  1
  O  O25  1  0.309061  0.116030  0.124393  1
  O  O26  1  0.689546  0.223180  0.382957  1
  O  O27  1  0.876821  0.925558  0.146896  1
  O  O28  1  0.276867  0.442820  0.267774  1
  O  O29  1  0.062479  0.196263  0.660960  1
