# generated using pymatgen
data_Cs3As11
_symmetry_space_group_name_H-M   'P 1'
_cell_length_a   10.38556148
_cell_length_b   10.38556148
_cell_length_c   19.91164085
_cell_angle_alpha   86.68791722
_cell_angle_beta   93.31208278
_cell_angle_gamma   81.50507664
_symmetry_Int_Tables_number   1
_chemical_formula_structural   Cs3As11
_chemical_formula_sum   'Cs12 As44'
_cell_volume   2115.76988975
_cell_formula_units_Z   4
loop_
 _symmetry_equiv_pos_site_id
 _symmetry_equiv_pos_as_xyz
  1  'x, y, z'
loop_
 _atom_site_type_symbol
 _atom_site_label
 _atom_site_symmetry_multiplicity
 _atom_site_fract_x
 _atom_site_fract_y
 _atom_site_fract_z
 _atom_site_occupancy
  Cs  Cs0  1  0.289179  0.202992  0.890596  1
  Cs  Cs1  1  0.529596  0.304868  0.128792  1
  Cs  Cs2  1  0.470404  0.695132  0.871208  1
  Cs  Cs3  1  0.975063  0.744612  0.879588  1
  Cs  Cs4  1  0.744612  0.975063  0.620412  1
  Cs  Cs5  1  0.710821  0.797008  0.109404  1
  Cs  Cs6  1  0.304868  0.529596  0.371208  1
  Cs  Cs7  1  0.797008  0.710821  0.390596  1
  Cs  Cs8  1  0.695132  0.470404  0.628792  1
  Cs  Cs9  1  0.255388  0.024937  0.379588  1
  Cs  Cs10  1  0.202992  0.289179  0.609404  1
  Cs  Cs11  1  0.024937  0.255388  0.120412  1
  As  As12  1  0.975726  0.285314  0.755211  1
  As  As13  1  0.285314  0.975726  0.744789  1
  As  As14  1  0.094099  0.930087  0.681063  1
  As  As15  1  0.397147  0.663785  0.054076  1
  As  As16  1  0.166077  0.557867  0.186344  1
  As  As17  1  0.989998  0.637109  0.602696  1
  As  As18  1  0.748340  0.475687  0.993748  1
  As  As19  1  0.881885  0.271146  0.480419  1
  As  As20  1  0.930087  0.094099  0.818937  1
  As  As21  1  0.024274  0.714686  0.244789  1
  As  As22  1  0.850975  0.052546  0.440545  1
  As  As23  1  0.251660  0.524313  0.006252  1
  As  As24  1  0.607787  0.067798  0.430282  1
  As  As25  1  0.905901  0.069913  0.318937  1
  As  As26  1  0.947454  0.149025  0.940545  1
  As  As27  1  0.442133  0.833923  0.686344  1
  As  As28  1  0.650495  0.375577  0.321004  1
  As  As29  1  0.728854  0.118115  0.980419  1
  As  As30  1  0.663785  0.397147  0.445924  1
  As  As31  1  0.375577  0.650495  0.178996  1
  As  As32  1  0.392213  0.932202  0.569718  1
  As  As33  1  0.349505  0.624423  0.678996  1
  As  As34  1  0.052546  0.850975  0.059455  1
  As  As35  1  0.475687  0.748340  0.506252  1
  As  As36  1  0.010002  0.362891  0.397304  1
  As  As37  1  0.624423  0.349505  0.821004  1
  As  As38  1  0.114009  0.689808  0.701441  1
  As  As39  1  0.602853  0.336215  0.945924  1
  As  As40  1  0.362891  0.010002  0.102696  1
  As  As41  1  0.714686  0.024274  0.255211  1
  As  As42  1  0.637109  0.989998  0.897304  1
  As  As43  1  0.149025  0.947454  0.559455  1
  As  As44  1  0.069913  0.905901  0.181063  1
  As  As45  1  0.067798  0.607787  0.069718  1
  As  As46  1  0.689808  0.114009  0.798559  1
  As  As47  1  0.932202  0.392213  0.930282  1
  As  As48  1  0.310192  0.885991  0.201441  1
  As  As49  1  0.118115  0.728854  0.519581  1
  As  As50  1  0.271146  0.881885  0.019581  1
  As  As51  1  0.833923  0.442133  0.813656  1
  As  As52  1  0.336215  0.602853  0.554076  1
  As  As53  1  0.885991  0.310192  0.298559  1
  As  As54  1  0.557867  0.166077  0.313656  1
  As  As55  1  0.524313  0.251660  0.493748  1
