# generated using pymatgen
data_La7Os4C9
_symmetry_space_group_name_H-M   'P 1'
_cell_length_a   6.60015144
_cell_length_b   6.60015144
_cell_length_c   12.00084512
_cell_angle_alpha   71.06936585
_cell_angle_beta   108.93063415
_cell_angle_gamma   131.42880290
_symmetry_Int_Tables_number   1
_chemical_formula_structural   La7Os4C9
_chemical_formula_sum   'La7 Os4 C9'
_cell_volume   366.30227799
_cell_formula_units_Z   1
loop_
 _symmetry_equiv_pos_site_id
 _symmetry_equiv_pos_as_xyz
  1  'x, y, z'
loop_
 _atom_site_type_symbol
 _atom_site_label
 _atom_site_symmetry_multiplicity
 _atom_site_fract_x
 _atom_site_fract_y
 _atom_site_fract_z
 _atom_site_occupancy
  La  La0  1  0.373485  0.626515  0.157106  1
  La  La1  1  0.146934  0.853066  0.320779  1
  La  La2  1  0.853066  0.146934  0.679221  1
  La  La3  1  0.137025  0.862975  0.617433  1
  La  La4  1  0.862975  0.137025  0.382567  1
  La  La5  1  0.000000  0.000000  0.000000  1
  La  La6  1  0.626515  0.373485  0.842894  1
  Os  Os7  1  0.357638  0.642362  0.858771  1
  Os  Os8  1  0.566153  0.433847  0.428789  1
  Os  Os9  1  0.433847  0.566153  0.571211  1
  Os  Os10  1  0.642362  0.357638  0.141229  1
  C  C11  1  0.384565  0.615435  0.709340  1
  C  C12  1  0.922023  0.077977  0.179773  1
  C  C13  1  0.392026  0.607974  0.387472  1
  C  C14  1  0.196033  0.803967  0.855445  1
  C  C15  1  0.803967  0.196033  0.144555  1
  C  C16  1  0.500000  0.500000  0.000000  1
  C  C17  1  0.077977  0.922023  0.820227  1
  C  C18  1  0.615435  0.384565  0.290660  1
  C  C19  1  0.607974  0.392026  0.612528  1
