# generated using pymatgen
data_Li3Mo2P5O18
_symmetry_space_group_name_H-M   'P 1'
_cell_length_a   6.64260058
_cell_length_b   9.56500173
_cell_length_c   10.66950206
_cell_angle_alpha   96.59671309
_cell_angle_beta   92.49590397
_cell_angle_gamma   92.45094541
_symmetry_Int_Tables_number   1
_chemical_formula_structural   Li3Mo2P5O18
_chemical_formula_sum   'Li6 Mo4 P10 O36'
_cell_volume   671.99595407
_cell_formula_units_Z   2
loop_
 _symmetry_equiv_pos_site_id
 _symmetry_equiv_pos_as_xyz
  1  'x, y, z'
loop_
 _atom_site_type_symbol
 _atom_site_label
 _atom_site_symmetry_multiplicity
 _atom_site_fract_x
 _atom_site_fract_y
 _atom_site_fract_z
 _atom_site_occupancy
  Li  Li0  1  0.980088  0.067771  0.863341  1
  Li  Li1  1  0.126719  0.194756  0.667619  1
  Li  Li2  1  0.546314  0.248904  0.593071  1
  Li  Li3  1  0.453686  0.751096  0.406929  1
  Li  Li4  1  0.873281  0.805244  0.332381  1
  Li  Li5  1  0.019912  0.932229  0.136659  1
  Mo  Mo6  1  0.670148  0.231700  0.047299  1
  Mo  Mo7  1  0.228929  0.355854  0.407098  1
  Mo  Mo8  1  0.771071  0.644146  0.592902  1
  Mo  Mo9  1  0.329852  0.768300  0.952701  1
  P  P10  1  0.484148  0.037987  0.793280  1
  P  P11  1  0.223496  0.015846  0.399466  1
  P  P12  1  0.165481  0.278929  0.097648  1
  P  P13  1  0.827650  0.416592  0.821463  1
  P  P14  1  0.724153  0.408345  0.355768  1
  P  P15  1  0.275847  0.591655  0.644232  1
  P  P16  1  0.172350  0.583408  0.178537  1
  P  P17  1  0.834519  0.721071  0.902352  1
  P  P18  1  0.776504  0.984154  0.600534  1
  P  P19  1  0.515852  0.962013  0.206720  1
  O  O20  1  0.963110  0.016699  0.687688  1
  O  O21  1  0.660456  0.080513  0.896920  1
  O  O22  1  0.411719  0.057277  0.312187  1
  O  O23  1  0.714020  0.101687  0.528791  1
  O  O24  1  0.669469  0.063028  0.151572  1
  O  O25  1  0.395386  0.162739  0.742481  1
  O  O26  1  0.217478  0.163277  0.483602  1
  O  O27  1  0.986510  0.182992  0.037149  1
  O  O28  1  0.995117  0.318603  0.801142  1
  O  O29  1  0.199731  0.253158  0.236152  1
  O  O30  1  0.356011  0.253692  0.027787  1
  O  O31  1  0.673411  0.369546  0.917172  1
  O  O32  1  0.922007  0.352809  0.408819  1
  O  O33  1  0.539875  0.343491  0.418573  1
  O  O34  1  0.698890  0.373183  0.211210  1
  O  O35  1  0.266003  0.429641  0.598644  1
  O  O36  1  0.723820  0.456429  0.697945  1
  O  O37  1  0.086581  0.433611  0.099064  1
  O  O38  1  0.913419  0.566389  0.900936  1
  O  O39  1  0.276180  0.543571  0.302055  1
  O  O40  1  0.733997  0.570359  0.401356  1
  O  O41  1  0.301110  0.626817  0.788790  1
  O  O42  1  0.460125  0.656509  0.581427  1
  O  O43  1  0.077993  0.647191  0.591181  1
  O  O44  1  0.326589  0.630454  0.082828  1
  O  O45  1  0.643989  0.746308  0.972213  1
  O  O46  1  0.800269  0.746842  0.763848  1
  O  O47  1  0.004883  0.681397  0.198858  1
  O  O48  1  0.013490  0.817008  0.962851  1
  O  O49  1  0.782522  0.836723  0.516398  1
  O  O50  1  0.604614  0.837261  0.257519  1
  O  O51  1  0.330531  0.936972  0.848428  1
  O  O52  1  0.285980  0.898313  0.471209  1
  O  O53  1  0.588281  0.942723  0.687813  1
  O  O54  1  0.339544  0.919487  0.103080  1
  O  O55  1  0.036890  0.983301  0.312312  1
