# generated using pymatgen
data_SrLuCuSe3
_symmetry_space_group_name_H-M   'P 1'
_cell_length_a   7.07137206
_cell_length_b   7.07137206
_cell_length_c   10.44620234
_cell_angle_alpha   90.00000000
_cell_angle_beta   90.00000000
_cell_angle_gamma   146.63921622
_symmetry_Int_Tables_number   1
_chemical_formula_structural   SrLuCuSe3
_chemical_formula_sum   'Sr2 Lu2 Cu2 Se6'
_cell_volume   287.24785502
_cell_formula_units_Z   2
loop_
 _symmetry_equiv_pos_site_id
 _symmetry_equiv_pos_as_xyz
  1  'x, y, z'
loop_
 _atom_site_type_symbol
 _atom_site_label
 _atom_site_symmetry_multiplicity
 _atom_site_fract_x
 _atom_site_fract_y
 _atom_site_fract_z
 _atom_site_occupancy
  Sr  Sr0  1  0.751295  0.248705  0.250000  1
  Sr  Sr1  1  0.248705  0.751295  0.750000  1
  Lu  Lu2  1  0.000000  0.000000  0.000000  1
  Lu  Lu3  1  0.000000  0.000000  0.500000  1
  Cu  Cu4  1  0.529238  0.470762  0.750000  1
  Cu  Cu5  1  0.470762  0.529238  0.250000  1
  Se  Se6  1  0.362206  0.637794  0.438470  1
  Se  Se7  1  0.922585  0.077415  0.750000  1
  Se  Se8  1  0.637794  0.362206  0.938470  1
  Se  Se9  1  0.362206  0.637794  0.061530  1
  Se  Se10  1  0.077415  0.922585  0.250000  1
  Se  Se11  1  0.637794  0.362206  0.561530  1
