# generated using pymatgen
data_BaIrO3
_symmetry_space_group_name_H-M   'P 1'
_cell_length_a   5.87314357
_cell_length_b   5.87314357
_cell_length_c   15.21714970
_cell_angle_alpha   78.69447131
_cell_angle_beta   101.30552869
_cell_angle_gamma   120.56325123
_symmetry_Int_Tables_number   1
_chemical_formula_structural   BaIrO3
_chemical_formula_sum   'Ba6 Ir6 O18'
_cell_volume   440.30715316
_cell_formula_units_Z   6
loop_
 _symmetry_equiv_pos_site_id
 _symmetry_equiv_pos_as_xyz
  1  'x, y, z'
loop_
 _atom_site_type_symbol
 _atom_site_label
 _atom_site_symmetry_multiplicity
 _atom_site_fract_x
 _atom_site_fract_y
 _atom_site_fract_z
 _atom_site_occupancy
  Ba  Ba0  1  0.220008  0.779992  0.749514  1
  Ba  Ba1  1  0.779992  0.220008  0.250486  1
  Ba  Ba2  1  0.628773  0.371227  0.925649  1
  Ba  Ba3  1  0.371227  0.628773  0.074351  1
  Ba  Ba4  1  0.849451  0.150549  0.577648  1
  Ba  Ba5  1  0.150549  0.849451  0.422352  1
  Ir  Ir6  1  0.912848  0.087152  0.823702  1
  Ir  Ir7  1  0.087152  0.912848  0.176298  1
  Ir  Ir8  1  0.000000  0.000000  0.000000  1
  Ir  Ir9  1  0.529651  0.470349  0.675076  1
  Ir  Ir10  1  0.470349  0.529651  0.324924  1
  Ir  Ir11  1  0.500000  0.500000  0.500000  1
  O  O12  1  0.704451  0.295549  0.772003  1
  O  O13  1  0.295549  0.704451  0.227997  1
  O  O14  1  0.688929  0.810946  0.736369  1
  O  O15  1  0.810946  0.688929  0.263631  1
  O  O16  1  0.311071  0.189054  0.263631  1
  O  O17  1  0.189054  0.311071  0.736369  1
  O  O18  1  0.104170  0.895830  0.899244  1
  O  O19  1  0.895830  0.104170  0.100756  1
  O  O20  1  0.646287  0.881685  0.917465  1
  O  O21  1  0.881685  0.646287  0.082535  1
  O  O22  1  0.353713  0.118315  0.082535  1
  O  O23  1  0.118315  0.353713  0.917465  1
  O  O24  1  0.365911  0.172329  0.594936  1
  O  O25  1  0.172329  0.365911  0.405064  1
  O  O26  1  0.634089  0.827671  0.405064  1
  O  O27  1  0.827671  0.634089  0.594936  1
  O  O28  1  0.355633  0.644367  0.574300  1
  O  O29  1  0.644367  0.355633  0.425700  1
