# generated using pymatgen
data_K13Na2W7N19
_symmetry_space_group_name_H-M   'P 1'
_cell_length_a   6.80307104
_cell_length_b   12.62373164
_cell_length_c   19.45111043
_cell_angle_alpha   90.59144157
_cell_angle_beta   93.97527110
_cell_angle_gamma   99.81106521
_symmetry_Int_Tables_number   1
_chemical_formula_structural   K13Na2W7N19
_chemical_formula_sum   'K26 Na4 W14 N38'
_cell_volume   1641.65699586
_cell_formula_units_Z   2
loop_
 _symmetry_equiv_pos_site_id
 _symmetry_equiv_pos_as_xyz
  1  'x, y, z'
loop_
 _atom_site_type_symbol
 _atom_site_label
 _atom_site_symmetry_multiplicity
 _atom_site_fract_x
 _atom_site_fract_y
 _atom_site_fract_z
 _atom_site_occupancy
  K  K0  1  0.924188  0.027600  0.390273  1
  K  K1  1  0.875174  0.909599  0.896907  1
  K  K2  1  0.092084  0.330132  0.205328  1
  K  K3  1  0.972539  0.346631  0.016176  1
  K  K4  1  0.124826  0.090401  0.103093  1
  K  K5  1  0.606184  0.898153  0.529982  1
  K  K6  1  0.253290  0.741186  0.616625  1
  K  K7  1  0.720413  0.082844  0.000669  1
  K  K8  1  0.746710  0.258814  0.383375  1
  K  K9  1  0.766559  0.765052  0.278936  1
  K  K10  1  0.075812  0.972400  0.609727  1
  K  K11  1  0.723566  0.016068  0.198260  1
  K  K12  1  0.907916  0.669868  0.794672  1
  K  K13  1  0.583772  0.467583  0.281223  1
  K  K14  1  0.156405  0.828915  0.171420  1
  K  K15  1  0.843595  0.171085  0.828580  1
  K  K16  1  0.381206  0.865110  0.350339  1
  K  K17  1  0.027461  0.653369  0.983824  1
  K  K18  1  0.276434  0.983932  0.801740  1
  K  K19  1  0.618794  0.134890  0.649661  1
  K  K20  1  0.393816  0.101847  0.470018  1
  K  K21  1  0.416228  0.532417  0.718777  1
  K  K22  1  0.233441  0.234948  0.721064  1
  K  K23  1  0.491349  0.377960  0.559499  1
  K  K24  1  0.508651  0.622040  0.440501  1
  K  K25  1  0.279587  0.917156  0.999331  1
  Na  Na26  1  0.606451  0.365481  0.850246  1
  Na  Na27  1  0.393549  0.634519  0.149754  1
  Na  Na28  1  0.000000  0.500000  0.500000  1
  Na  Na29  1  0.500000  0.500000  0.000000  1
  W  W30  1  0.751320  0.654395  0.607754  1
  W  W31  1  0.414819  0.739011  0.874475  1
  W  W32  1  0.679166  0.786540  0.055176  1
  W  W33  1  0.860389  0.546939  0.138619  1
  W  W34  1  0.248680  0.345605  0.392246  1
  W  W35  1  0.138799  0.594013  0.304913  1
  W  W36  1  0.139611  0.453061  0.861381  1
  W  W37  1  0.333935  0.119718  0.278153  1
  W  W38  1  0.585181  0.260989  0.125525  1
  W  W39  1  0.320834  0.213460  0.944824  1
  W  W40  1  0.666065  0.880282  0.721847  1
  W  W41  1  0.008864  0.235242  0.548941  1
  W  W42  1  0.861201  0.405987  0.695087  1
  W  W43  1  0.991136  0.764758  0.451059  1
  N  N44  1  0.137755  0.005349  0.253332  1
  N  N45  1  0.912141  0.882718  0.056875  1
  N  N46  1  0.376638  0.652686  0.274319  1
  N  N47  1  0.808130  0.124535  0.520169  1
  N  N48  1  0.507066  0.396501  0.418526  1
  N  N49  1  0.425181  0.200392  0.196634  1
  N  N50  1  0.915541  0.470384  0.901342  1
  N  N51  1  0.543120  0.070216  0.322480  1
  N  N52  1  0.492934  0.603499  0.581474  1
  N  N53  1  0.849299  0.549689  0.666949  1
  N  N54  1  0.494808  0.163890  0.889843  1
  N  N55  1  0.067421  0.403181  0.768506  1
  N  N56  1  0.776648  0.818552  0.414289  1
  N  N57  1  0.084459  0.529616  0.098658  1
  N  N58  1  0.565178  0.770110  0.960316  1
  N  N59  1  0.456880  0.929784  0.677520  1
  N  N60  1  0.801317  0.197306  0.121972  1
  N  N61  1  0.862245  0.994651  0.746668  1
  N  N62  1  0.198683  0.802694  0.878028  1
  N  N63  1  0.223352  0.181448  0.585711  1
  N  N64  1  0.574819  0.799608  0.803365  1
  N  N65  1  0.225376  0.214613  0.342314  1
  N  N66  1  0.191870  0.875465  0.479831  1
  N  N67  1  0.505192  0.836110  0.110157  1
  N  N68  1  0.097684  0.327511  0.472224  1
  N  N69  1  0.434822  0.229890  0.039684  1
  N  N70  1  0.932579  0.596819  0.231494  1
  N  N71  1  0.275791  0.356003  0.912395  1
  N  N72  1  0.081008  0.679653  0.377924  1
  N  N73  1  0.678475  0.413537  0.139709  1
  N  N74  1  0.724209  0.643997  0.087605  1
  N  N75  1  0.623362  0.347314  0.725681  1
  N  N76  1  0.087859  0.117282  0.943125  1
  N  N77  1  0.321525  0.586463  0.860291  1
  N  N78  1  0.774624  0.785387  0.657686  1
  N  N79  1  0.902316  0.672489  0.527776  1
  N  N80  1  0.150701  0.450311  0.333051  1
  N  N81  1  0.918992  0.320347  0.622076  1
