# generated using pymatgen
data_Ba12Cl5F19
_symmetry_space_group_name_H-M   'P 1'
_cell_length_a   14.29165186
_cell_length_b   14.29165186
_cell_length_c   4.32907967
_cell_angle_alpha   90.00000000
_cell_angle_beta   90.00000000
_cell_angle_gamma   120.00000000
_symmetry_Int_Tables_number   1
_chemical_formula_structural   Ba12Cl5F19
_chemical_formula_sum   'Ba12 Cl5 F19'
_cell_volume   765.75716098
_cell_formula_units_Z   1
loop_
 _symmetry_equiv_pos_site_id
 _symmetry_equiv_pos_as_xyz
  1  'x, y, z'
loop_
 _atom_site_type_symbol
 _atom_site_label
 _atom_site_symmetry_multiplicity
 _atom_site_fract_x
 _atom_site_fract_y
 _atom_site_fract_z
 _atom_site_occupancy
  Ba  Ba0  1  0.177686  0.000000  0.000000  1
  Ba  Ba1  1  0.832904  0.307947  0.500000  1
  Ba  Ba2  1  0.000000  0.625860  0.000000  1
  Ba  Ba3  1  0.475043  0.167096  0.500000  1
  Ba  Ba4  1  0.822314  0.822314  0.000000  1
  Ba  Ba5  1  0.307947  0.832904  0.500000  1
  Ba  Ba6  1  0.167096  0.475043  0.500000  1
  Ba  Ba7  1  0.692053  0.524957  0.500000  1
  Ba  Ba8  1  0.000000  0.177686  0.000000  1
  Ba  Ba9  1  0.524957  0.692053  0.500000  1
  Ba  Ba10  1  0.625860  0.000000  0.000000  1
  Ba  Ba11  1  0.374140  0.374140  0.000000  1
  Cl  Cl12  1  0.000000  0.811666  0.500000  1
  Cl  Cl13  1  0.188334  0.188334  0.500000  1
  Cl  Cl14  1  0.811666  0.000000  0.500000  1
  Cl  Cl15  1  0.666667  0.333333  0.000000  1
  Cl  Cl16  1  0.333333  0.666667  0.000000  1
  F  F17  1  0.182712  0.375572  0.000000  1
  F  F18  1  0.511437  0.874297  0.500000  1
  F  F19  1  0.807140  0.624428  0.000000  1
  F  F20  1  0.439003  0.000000  0.000000  1
  F  F21  1  0.000000  0.279450  0.500000  1
  F  F22  1  0.560997  0.560997  0.000000  1
  F  F23  1  0.817288  0.192860  0.000000  1
  F  F24  1  0.362860  0.488563  0.500000  1
  F  F25  1  0.720550  0.720550  0.500000  1
  F  F26  1  0.000000  0.439003  0.000000  1
  F  F27  1  0.874297  0.511437  0.500000  1
  F  F28  1  0.375572  0.182712  0.000000  1
  F  F29  1  0.192860  0.817288  0.000000  1
  F  F30  1  0.624428  0.807140  0.000000  1
  F  F31  1  0.637140  0.125703  0.500000  1
  F  F32  1  0.279450  0.000000  0.500000  1
  F  F33  1  0.488563  0.362860  0.500000  1
  F  F34  1  0.125703  0.637140  0.500000  1
  F  F35  1  0.000000  0.000000  0.000000  1
