# generated using pymatgen
data_TePdI2
_symmetry_space_group_name_H-M   'P 1'
_cell_length_a   4.43912613
_cell_length_b   7.25226816
_cell_length_c   9.28707004
_cell_angle_alpha   68.31694716
_cell_angle_beta   80.75704468
_cell_angle_gamma   82.76227548
_symmetry_Int_Tables_number   1
_chemical_formula_structural   TePdI2
_chemical_formula_sum   'Te2 Pd2 I4'
_cell_volume   273.49768307
_cell_formula_units_Z   2
loop_
 _symmetry_equiv_pos_site_id
 _symmetry_equiv_pos_as_xyz
  1  'x, y, z'
loop_
 _atom_site_type_symbol
 _atom_site_label
 _atom_site_symmetry_multiplicity
 _atom_site_fract_x
 _atom_site_fract_y
 _atom_site_fract_z
 _atom_site_occupancy
  Te  Te0  1  0.162024  0.504863  0.149786  1
  Te  Te1  1  0.837976  0.495137  0.850214  1
  Pd  Pd2  1  0.263965  0.251496  0.004006  1
  Pd  Pd3  1  0.736035  0.748504  0.995994  1
  I  I4  1  0.356666  0.033332  0.811511  1
  I  I5  1  0.199363  0.705518  0.572035  1
  I  I6  1  0.643334  0.966668  0.188489  1
  I  I7  1  0.800637  0.294482  0.427965  1
