# generated using pymatgen
data_MnTlCl3
_symmetry_space_group_name_H-M   'P 1'
_cell_length_a   3.86639381
_cell_length_b   9.18479306
_cell_length_c   14.80879218
_cell_angle_alpha   90.00000000
_cell_angle_beta   90.00000000
_cell_angle_gamma   90.00000000
_symmetry_Int_Tables_number   1
_chemical_formula_structural   MnTlCl3
_chemical_formula_sum   'Mn4 Tl4 Cl12'
_cell_volume   525.89022823
_cell_formula_units_Z   4
loop_
 _symmetry_equiv_pos_site_id
 _symmetry_equiv_pos_as_xyz
  1  'x, y, z'
loop_
 _atom_site_type_symbol
 _atom_site_label
 _atom_site_symmetry_multiplicity
 _atom_site_fract_x
 _atom_site_fract_y
 _atom_site_fract_z
 _atom_site_occupancy
  Mn  Mn0  1  0.750000  0.837676  0.053784  1
  Mn  Mn1  1  0.250000  0.162324  0.946216  1
  Mn  Mn2  1  0.250000  0.662324  0.553784  1
  Mn  Mn3  1  0.750000  0.337676  0.446216  1
  Tl  Tl4  1  0.750000  0.558604  0.823194  1
  Tl  Tl5  1  0.250000  0.441396  0.176806  1
  Tl  Tl6  1  0.250000  0.941396  0.323194  1
  Tl  Tl7  1  0.750000  0.058604  0.676806  1
  Cl  Cl8  1  0.250000  0.274920  0.797208  1
  Cl  Cl9  1  0.750000  0.817581  0.494610  1
  Cl  Cl10  1  0.750000  0.483021  0.597408  1
  Cl  Cl11  1  0.750000  0.983021  0.902592  1
  Cl  Cl12  1  0.750000  0.317581  0.005390  1
  Cl  Cl13  1  0.250000  0.016979  0.097408  1
  Cl  Cl14  1  0.750000  0.225080  0.297208  1
  Cl  Cl15  1  0.250000  0.516979  0.402592  1
  Cl  Cl16  1  0.250000  0.182419  0.505390  1
  Cl  Cl17  1  0.250000  0.774920  0.702792  1
  Cl  Cl18  1  0.250000  0.682419  0.994610  1
  Cl  Cl19  1  0.750000  0.725080  0.202792  1
