# generated using pymatgen
data_SrLi(BS2)3
_symmetry_space_group_name_H-M   'P 1'
_cell_length_a   8.73321628
_cell_length_b   8.73321628
_cell_length_c   8.07059025
_cell_angle_alpha   66.73283475
_cell_angle_beta   113.26716525
_cell_angle_gamma   119.64627419
_symmetry_Int_Tables_number   1
_chemical_formula_structural   SrLi(BS2)3
_chemical_formula_sum   'Sr2 Li2 B6 S12'
_cell_volume   475.84416889
_cell_formula_units_Z   2
loop_
 _symmetry_equiv_pos_site_id
 _symmetry_equiv_pos_as_xyz
  1  'x, y, z'
loop_
 _atom_site_type_symbol
 _atom_site_label
 _atom_site_symmetry_multiplicity
 _atom_site_fract_x
 _atom_site_fract_y
 _atom_site_fract_z
 _atom_site_occupancy
  Sr  Sr0  1  0.859854  0.378785  0.974662  1
  Sr  Sr1  1  0.621215  0.140146  0.474662  1
  Li  Li2  1  0.509773  0.705960  0.937618  1
  Li  Li3  1  0.294040  0.490227  0.437618  1
  B  B4  1  0.987654  0.029451  0.939054  1
  B  B5  1  0.239534  0.838681  0.043286  1
  B  B6  1  0.161319  0.760466  0.543286  1
  B  B7  1  0.395625  0.244764  0.027403  1
  B  B8  1  0.970549  0.012346  0.439054  1
  B  B9  1  0.755236  0.604375  0.527403  1
  S  S10  1  0.563286  0.405000  0.590804  1
  S  S11  1  0.007399  0.816650  0.988042  1
  S  S12  1  0.363277  0.735529  0.579092  1
  S  S13  1  0.443587  0.048464  0.071599  1
  S  S14  1  0.977893  0.233929  0.395398  1
  S  S15  1  0.951536  0.556413  0.571599  1
  S  S16  1  0.595000  0.436714  0.090804  1
  S  S17  1  0.264471  0.636723  0.079092  1
  S  S18  1  0.173088  0.253898  0.934532  1
  S  S19  1  0.746102  0.826912  0.434532  1
  S  S20  1  0.183350  0.992601  0.488042  1
  S  S21  1  0.766071  0.022107  0.895398  1
