# generated using pymatgen
data_Gd2B(OF)3
_symmetry_space_group_name_H-M   'P 1'
_cell_length_a   8.39107832
_cell_length_b   6.25208812
_cell_length_c   16.74037990
_cell_angle_alpha   90.00000000
_cell_angle_beta   93.40001871
_cell_angle_gamma   90.00000000
_symmetry_Int_Tables_number   1
_chemical_formula_structural   Gd2B(OF)3
_chemical_formula_sum   'Gd16 B8 O24 F24'
_cell_volume   876.68395738
_cell_formula_units_Z   8
loop_
 _symmetry_equiv_pos_site_id
 _symmetry_equiv_pos_as_xyz
  1  'x, y, z'
loop_
 _atom_site_type_symbol
 _atom_site_label
 _atom_site_symmetry_multiplicity
 _atom_site_fract_x
 _atom_site_fract_y
 _atom_site_fract_z
 _atom_site_occupancy
  Gd  Gd0  1  0.319804  0.147196  0.190120  1
  Gd  Gd1  1  0.058237  0.139579  0.674186  1
  Gd  Gd2  1  0.666798  0.868755  0.569308  1
  Gd  Gd3  1  0.166798  0.631245  0.569308  1
  Gd  Gd4  1  0.833202  0.368755  0.430692  1
  Gd  Gd5  1  0.300475  0.144485  0.944861  1
  Gd  Gd6  1  0.680196  0.852804  0.809880  1
  Gd  Gd7  1  0.558237  0.360421  0.674186  1
  Gd  Gd8  1  0.441763  0.639579  0.325814  1
  Gd  Gd9  1  0.333202  0.131245  0.430692  1
  Gd  Gd10  1  0.800475  0.355515  0.944861  1
  Gd  Gd11  1  0.699525  0.855515  0.055139  1
  Gd  Gd12  1  0.819804  0.352804  0.190120  1
  Gd  Gd13  1  0.941763  0.860421  0.325814  1
  Gd  Gd14  1  0.199525  0.644485  0.055139  1
  Gd  Gd15  1  0.180196  0.647196  0.809880  1
  B  B16  1  0.040545  0.158536  0.053141  1
  B  B17  1  0.401212  0.847973  0.672087  1
  B  B18  1  0.598788  0.152027  0.327913  1
  B  B19  1  0.540545  0.341464  0.053141  1
  B  B20  1  0.901212  0.652027  0.672087  1
  B  B21  1  0.459455  0.658536  0.946859  1
  B  B22  1  0.098788  0.347973  0.327913  1
  B  B23  1  0.959455  0.841464  0.946859  1
  O  O24  1  0.437058  0.694292  0.614985  1
  O  O25  1  0.062942  0.194292  0.385015  1
  O  O26  1  0.614672  0.648130  0.923062  1
  O  O27  1  0.244987  0.856551  0.694799  1
  O  O28  1  0.255013  0.356551  0.305201  1
  O  O29  1  0.937058  0.805708  0.614985  1
  O  O30  1  0.928837  0.695989  0.008039  1
  O  O31  1  0.562942  0.305708  0.385015  1
  O  O32  1  0.571163  0.195989  0.991961  1
  O  O33  1  0.478425  0.012538  0.303550  1
  O  O34  1  0.428837  0.804011  0.008039  1
  O  O35  1  0.755013  0.143449  0.305201  1
  O  O36  1  0.021575  0.512538  0.696450  1
  O  O37  1  0.978425  0.487462  0.303550  1
  O  O38  1  0.744987  0.643449  0.694799  1
  O  O39  1  0.114672  0.851870  0.923062  1
  O  O40  1  0.336732  0.520546  0.923123  1
  O  O41  1  0.663268  0.479454  0.076877  1
  O  O42  1  0.163268  0.020546  0.076877  1
  O  O43  1  0.385328  0.351870  0.076938  1
  O  O44  1  0.836732  0.979454  0.923123  1
  O  O45  1  0.071163  0.304011  0.991961  1
  O  O46  1  0.885328  0.148130  0.076938  1
  O  O47  1  0.521575  0.987462  0.696450  1
  F  F48  1  0.509891  0.174251  0.548657  1
  F  F49  1  0.094677  0.429111  0.150280  1
  F  F50  1  0.784848  0.172225  0.646628  1
  F  F51  1  0.405323  0.929111  0.849720  1
  F  F52  1  0.678801  0.228626  0.811868  1
  F  F53  1  0.178801  0.271374  0.811868  1
  F  F54  1  0.821199  0.728626  0.188132  1
  F  F55  1  0.541835  0.429381  0.229046  1
  F  F56  1  0.703524  0.523791  0.532892  1
  F  F57  1  0.594677  0.070889  0.150280  1
  F  F58  1  0.215152  0.827775  0.353372  1
  F  F59  1  0.905323  0.570889  0.849720  1
  F  F60  1  0.715152  0.672225  0.353372  1
  F  F61  1  0.458165  0.570619  0.770954  1
  F  F62  1  0.296476  0.476209  0.467108  1
  F  F63  1  0.284848  0.327775  0.646628  1
  F  F64  1  0.203524  0.976209  0.532892  1
  F  F65  1  0.796476  0.023791  0.467108  1
  F  F66  1  0.958165  0.929381  0.770954  1
  F  F67  1  0.009891  0.325749  0.548657  1
  F  F68  1  0.490109  0.825749  0.451343  1
  F  F69  1  0.041835  0.070619  0.229046  1
  F  F70  1  0.321199  0.771374  0.188132  1
  F  F71  1  0.990109  0.674251  0.451343  1
