# generated using pymatgen
data_Na2Gd2MgSi4(O6F)2
_symmetry_space_group_name_H-M   'P 1'
_cell_length_a   5.22693482
_cell_length_b   7.59545869
_cell_length_c   14.49932689
_cell_angle_alpha   90.00000000
_cell_angle_beta   90.16352898
_cell_angle_gamma   90.00000000
_symmetry_Int_Tables_number   1
_chemical_formula_structural   Na2Gd2MgSi4(O6F)2
_chemical_formula_sum   'Na4 Gd4 Mg2 Si8 O24 F4'
_cell_volume   575.63496098
_cell_formula_units_Z   2
loop_
 _symmetry_equiv_pos_site_id
 _symmetry_equiv_pos_as_xyz
  1  'x, y, z'
loop_
 _atom_site_type_symbol
 _atom_site_label
 _atom_site_symmetry_multiplicity
 _atom_site_fract_x
 _atom_site_fract_y
 _atom_site_fract_z
 _atom_site_occupancy
  Na  Na0  1  0.497297  0.542264  0.789474  1
  Na  Na1  1  0.502703  0.457736  0.210526  1
  Na  Na2  1  0.497297  0.957736  0.289474  1
  Na  Na3  1  0.502703  0.042264  0.710526  1
  Gd  Gd4  1  0.484449  0.771747  0.042499  1
  Gd  Gd5  1  0.484449  0.728253  0.542499  1
  Gd  Gd6  1  0.515551  0.228253  0.957501  1
  Gd  Gd7  1  0.515551  0.271747  0.457501  1
  Mg  Mg8  1  0.000000  0.500000  0.000000  1
  Mg  Mg9  1  0.000000  0.000000  0.500000  1
  Si  Si10  1  0.976679  0.740253  0.685539  1
  Si  Si11  1  0.023321  0.240253  0.814461  1
  Si  Si12  1  0.037338  0.371446  0.614803  1
  Si  Si13  1  0.962662  0.628554  0.385197  1
  Si  Si14  1  0.037338  0.128554  0.114803  1
  Si  Si15  1  0.962662  0.871446  0.885197  1
  Si  Si16  1  0.023321  0.259747  0.314461  1
  Si  Si17  1  0.976679  0.759747  0.185539  1
  O  O18  1  0.139322  0.739512  0.946309  1
  O  O19  1  0.861513  0.541174  0.653452  1
  O  O20  1  0.860678  0.260488  0.053691  1
  O  O21  1  0.711892  0.942385  0.941303  1
  O  O22  1  0.139322  0.760488  0.446309  1
  O  O23  1  0.856005  0.771804  0.789949  1
  O  O24  1  0.711892  0.557615  0.441303  1
  O  O25  1  0.833066  0.872883  0.614090  1
  O  O26  1  0.138487  0.458826  0.346548  1
  O  O27  1  0.288108  0.057615  0.058697  1
  O  O28  1  0.166934  0.127117  0.385910  1
  O  O29  1  0.833066  0.627117  0.114090  1
  O  O30  1  0.861513  0.958826  0.153452  1
  O  O31  1  0.138487  0.041174  0.846548  1
  O  O32  1  0.856005  0.728196  0.289949  1
  O  O33  1  0.285793  0.742876  0.685349  1
  O  O34  1  0.166934  0.372883  0.885910  1
  O  O35  1  0.288108  0.442385  0.558697  1
  O  O36  1  0.143995  0.271804  0.710051  1
  O  O37  1  0.714207  0.242876  0.814651  1
  O  O38  1  0.285793  0.757124  0.185349  1
  O  O39  1  0.143995  0.228196  0.210051  1
  O  O40  1  0.714207  0.257124  0.314651  1
  O  O41  1  0.860678  0.239512  0.553691  1
  F  F42  1  0.336843  0.461173  0.061284  1
  F  F43  1  0.663157  0.538827  0.938716  1
  F  F44  1  0.663157  0.961173  0.438716  1
  F  F45  1  0.336843  0.038827  0.561284  1
