# generated using pymatgen
data_ReNCl4
_symmetry_space_group_name_H-M   'P 1'
_cell_length_a   6.55376026
_cell_length_b   6.55376026
_cell_length_c   6.55376026
_cell_angle_alpha   95.63047640
_cell_angle_beta   95.63047640
_cell_angle_gamma   143.49216165
_symmetry_Int_Tables_number   1
_chemical_formula_structural   ReNCl4
_chemical_formula_sum   'Re1 N1 Cl4'
_cell_volume   159.04344456
_cell_formula_units_Z   1
loop_
 _symmetry_equiv_pos_site_id
 _symmetry_equiv_pos_as_xyz
  1  'x, y, z'
loop_
 _atom_site_type_symbol
 _atom_site_label
 _atom_site_symmetry_multiplicity
 _atom_site_fract_x
 _atom_site_fract_y
 _atom_site_fract_z
 _atom_site_occupancy
  Re  Re0  1  0.985579  0.985579  0.000000  1
  N  N1  1  0.573818  0.573818  0.000000  1
  Cl  Cl2  1  0.139114  0.821419  0.817781  1
  Cl  Cl3  1  0.321333  0.139114  0.317695  1
  Cl  Cl4  1  0.821419  0.003637  0.682305  1
  Cl  Cl5  1  0.003637  0.321333  0.182219  1
