# generated using pymatgen
data_Mg2As2O7
_symmetry_space_group_name_H-M   'P 1'
_cell_length_a   5.46197946
_cell_length_b   5.46197946
_cell_length_c   4.84531121
_cell_angle_alpha   82.00590474
_cell_angle_beta   97.99409526
_cell_angle_gamma   74.63882152
_symmetry_Int_Tables_number   1
_chemical_formula_structural   Mg2As2O7
_chemical_formula_sum   'Mg2 As2 O7'
_cell_volume   135.67025738
_cell_formula_units_Z   1
loop_
 _symmetry_equiv_pos_site_id
 _symmetry_equiv_pos_as_xyz
  1  'x, y, z'
loop_
 _atom_site_type_symbol
 _atom_site_label
 _atom_site_symmetry_multiplicity
 _atom_site_fract_x
 _atom_site_fract_y
 _atom_site_fract_z
 _atom_site_occupancy
  Mg  Mg0  1  0.689274  0.689274  0.500000  1
  Mg  Mg1  1  0.310726  0.310726  0.500000  1
  As  As2  1  0.236115  0.763885  0.899206  1
  As  As3  1  0.763885  0.236115  0.100794  1
  O  O4  1  0.398569  0.930569  0.706931  1
  O  O5  1  0.930569  0.398569  0.293069  1
  O  O6  1  0.601431  0.069431  0.293069  1
  O  O7  1  0.069431  0.601431  0.706931  1
  O  O8  1  0.000000  0.000000  0.000000  1
  O  O9  1  0.405240  0.594760  0.225843  1
  O  O10  1  0.594760  0.405240  0.774157  1
