# generated using pymatgen
data_BeCl2
_symmetry_space_group_name_H-M   'P 1'
_cell_length_a   12.02563757
_cell_length_b   12.02563757
_cell_length_c   12.02563757
_cell_angle_alpha   124.67680350
_cell_angle_beta   124.67680350
_cell_angle_gamma   82.07404374
_symmetry_Int_Tables_number   1
_chemical_formula_structural   BeCl2
_chemical_formula_sum   'Be16 Cl32'
_cell_volume   1130.89202071
_cell_formula_units_Z   16
loop_
 _symmetry_equiv_pos_site_id
 _symmetry_equiv_pos_as_xyz
  1  'x, y, z'
loop_
 _atom_site_type_symbol
 _atom_site_label
 _atom_site_symmetry_multiplicity
 _atom_site_fract_x
 _atom_site_fract_y
 _atom_site_fract_z
 _atom_site_occupancy
  Be  Be0  1  0.311106  0.512750  0.951419  1
  Be  Be1  1  0.561331  0.359687  0.048581  1
  Be  Be2  1  0.487250  0.438669  0.798356  1
  Be  Be3  1  0.262750  0.811331  0.701644  1
  Be  Be4  1  0.762750  0.061106  0.451419  1
  Be  Be5  1  0.938894  0.390313  0.701644  1
  Be  Be6  1  0.688669  0.237250  0.298356  1
  Be  Be7  1  0.061331  0.012750  0.201644  1
  Be  Be8  1  0.438894  0.737250  0.548581  1
  Be  Be9  1  0.609687  0.311331  0.548581  1
  Be  Be10  1  0.640313  0.688894  0.201644  1
  Be  Be11  1  0.811106  0.859687  0.798356  1
  Be  Be12  1  0.109687  0.561106  0.298356  1
  Be  Be13  1  0.188669  0.890313  0.451419  1
  Be  Be14  1  0.140313  0.938669  0.951419  1
  Be  Be15  1  0.987250  0.188894  0.048581  1
  Cl  Cl16  1  0.458733  0.375000  0.583733  1
  Cl  Cl17  1  0.291267  0.875000  0.916267  1
  Cl  Cl18  1  0.130813  0.130813  0.000000  1
  Cl  Cl19  1  0.542870  0.297522  0.341072  1
  Cl  Cl20  1  0.451798  0.706450  0.158928  1
  Cl  Cl21  1  0.119187  0.619187  0.500000  1
  Cl  Cl22  1  0.956450  0.201798  0.658928  1
  Cl  Cl23  1  0.042870  0.701798  0.245348  1
  Cl  Cl24  1  0.125000  0.541267  0.916267  1
  Cl  Cl25  1  0.380813  0.880813  0.500000  1
  Cl  Cl26  1  0.293550  0.452478  0.745348  1
  Cl  Cl27  1  0.207130  0.952478  0.158928  1
  Cl  Cl28  1  0.958733  0.375000  0.083733  1
  Cl  Cl29  1  0.369187  0.369187  0.000000  1
  Cl  Cl30  1  0.125000  0.041267  0.416267  1
  Cl  Cl31  1  0.298202  0.543550  0.341072  1
  Cl  Cl32  1  0.619187  0.119187  0.500000  1
  Cl  Cl33  1  0.047522  0.206450  0.254652  1
  Cl  Cl34  1  0.202478  0.957130  0.658928  1
  Cl  Cl35  1  0.707130  0.548202  0.254652  1
  Cl  Cl36  1  0.798202  0.457130  0.754652  1
  Cl  Cl37  1  0.625000  0.208733  0.083733  1
  Cl  Cl38  1  0.791267  0.875000  0.416267  1
  Cl  Cl39  1  0.951798  0.792870  0.745348  1
  Cl  Cl40  1  0.456450  0.797522  0.754652  1
  Cl  Cl41  1  0.547522  0.292870  0.841072  1
  Cl  Cl42  1  0.869187  0.869187  0.000000  1
  Cl  Cl43  1  0.793550  0.048202  0.841072  1
  Cl  Cl44  1  0.702478  0.043550  0.245348  1
  Cl  Cl45  1  0.630813  0.630813  0.000000  1
  Cl  Cl46  1  0.625000  0.708733  0.583733  1
  Cl  Cl47  1  0.880813  0.380813  0.500000  1
