# generated using pymatgen
data_Hf3Sc4O12
_symmetry_space_group_name_H-M   'P 1'
_cell_length_a   6.17782303
_cell_length_b   6.19325128
_cell_length_c   18.15184045
_cell_angle_alpha   96.70503418
_cell_angle_beta   96.81762560
_cell_angle_gamma   99.64895468
_symmetry_Int_Tables_number   1
_chemical_formula_structural   Hf3Sc4O12
_chemical_formula_sum   'Hf9 Sc12 O36'
_cell_volume   673.18047912
_cell_formula_units_Z   3
loop_
 _symmetry_equiv_pos_site_id
 _symmetry_equiv_pos_as_xyz
  1  'x, y, z'
loop_
 _atom_site_type_symbol
 _atom_site_label
 _atom_site_symmetry_multiplicity
 _atom_site_fract_x
 _atom_site_fract_y
 _atom_site_fract_z
 _atom_site_occupancy
  Hf  Hf0  1  0.334834  0.336763  0.331584  1
  Hf  Hf1  1  0.669192  0.670241  0.665096  1
  Hf  Hf2  1  0.507485  0.038261  0.897128  1
  Hf  Hf3  1  0.063139  0.888361  0.203019  1
  Hf  Hf4  1  0.394257  0.220647  0.537892  1
  Hf  Hf5  1  0.492607  0.971725  0.102187  1
  Hf  Hf6  1  0.825112  0.299141  0.435505  1
  Hf  Hf7  1  0.251093  0.562054  0.955683  1
  Hf  Hf8  1  0.158723  0.629265  0.769148  1
  Sc  Sc9  1  0.834181  0.370186  0.227046  1
  Sc  Sc10  1  0.735589  0.442364  0.045645  1
  Sc  Sc11  1  0.165644  0.700582  0.559338  1
  Sc  Sc12  1  0.270103  0.448509  0.131441  1
  Sc  Sc13  1  0.065156  0.773316  0.380357  1
  Sc  Sc14  1  0.994161  0.997868  0.999174  1
  Sc  Sc15  1  0.603266  0.786396  0.464059  1
  Sc  Sc16  1  0.400516  0.106238  0.714363  1
  Sc  Sc17  1  0.933253  0.110444  0.797454  1
  Sc  Sc18  1  0.606622  0.892847  0.288221  1
  Sc  Sc19  1  0.941540  0.226560  0.621752  1
  Sc  Sc20  1  0.727282  0.556049  0.868979  1
  O  O21  1  0.698843  0.092535  0.025590  1
  O  O22  1  0.163737  0.310335  0.225237  1
  O  O23  1  0.051751  0.423478  0.367359  1
  O  O24  1  0.559009  0.317919  0.140260  1
  O  O25  1  0.496413  0.640854  0.558520  1
  O  O26  1  0.388248  0.756684  0.703278  1
  O  O27  1  0.116812  0.339438  0.021260  1
  O  O28  1  0.962152  0.571950  0.140763  1
  O  O29  1  0.886710  0.646592  0.474028  1
  O  O30  1  0.821938  0.977801  0.891956  1
  O  O31  1  0.855936  0.697758  0.272532  1
  O  O32  1  0.451129  0.672478  0.352668  1
  O  O33  1  0.294616  0.903283  0.474503  1
  O  O34  1  0.225752  0.982403  0.811289  1
  O  O35  1  0.486477  0.647369  0.058516  1
  O  O36  1  0.190428  0.028170  0.606259  1
  O  O37  1  0.782002  0.006601  0.685478  1
  O  O38  1  0.624311  0.226210  0.810067  1
  O  O39  1  0.374040  0.779941  0.192491  1
  O  O40  1  0.219225  0.994112  0.312035  1
  O  O41  1  0.821550  0.976436  0.394810  1
  O  O42  1  0.499069  0.360711  0.940399  1
  O  O43  1  0.771090  0.010569  0.186891  1
  O  O44  1  0.704698  0.115393  0.526528  1
  O  O45  1  0.551072  0.328541  0.646785  1
  O  O46  1  0.156096  0.307678  0.727847  1
  O  O47  1  0.167217  0.007273  0.106892  1
  O  O48  1  0.102575  0.341248  0.522040  1
  O  O49  1  0.041659  0.437721  0.858076  1
  O  O50  1  0.904834  0.647096  0.976882  1
  O  O51  1  0.634647  0.246867  0.307430  1
  O  O52  1  0.493479  0.333363  0.439273  1
  O  O53  1  0.430037  0.681281  0.860597  1
  O  O54  1  0.968967  0.579738  0.640997  1
  O  O55  1  0.834629  0.674366  0.772785  1
  O  O56  1  0.295099  0.907987  0.972610  1
