# generated using pymatgen
data_Dy2Hf2(MoO4)7
_symmetry_space_group_name_H-M   'P 1'
_cell_length_a   11.68564782
_cell_length_b   11.68564782
_cell_length_c   14.04043769
_cell_angle_alpha   69.56274510
_cell_angle_beta   110.43725490
_cell_angle_gamma   129.53528894
_symmetry_Int_Tables_number   1
_chemical_formula_structural   Dy2Hf2(MoO4)7
_chemical_formula_sum   'Dy4 Hf4 Mo14 O56'
_cell_volume   1364.06495064
_cell_formula_units_Z   2
loop_
 _symmetry_equiv_pos_site_id
 _symmetry_equiv_pos_as_xyz
  1  'x, y, z'
loop_
 _atom_site_type_symbol
 _atom_site_label
 _atom_site_symmetry_multiplicity
 _atom_site_fract_x
 _atom_site_fract_y
 _atom_site_fract_z
 _atom_site_occupancy
  Dy  Dy0  1  0.352173  0.624350  0.063964  1
  Dy  Dy1  1  0.647827  0.375650  0.936036  1
  Dy  Dy2  1  0.375650  0.647827  0.563964  1
  Dy  Dy3  1  0.624350  0.352173  0.436036  1
  Hf  Hf4  1  0.917821  0.151851  0.812029  1
  Hf  Hf5  1  0.151851  0.917821  0.687971  1
  Hf  Hf6  1  0.082179  0.848149  0.187971  1
  Hf  Hf7  1  0.848149  0.082179  0.312029  1
  Mo  Mo8  1  0.274566  0.956010  0.976550  1
  Mo  Mo9  1  0.043990  0.725434  0.476550  1
  Mo  Mo10  1  0.567259  0.688380  0.353429  1
  Mo  Mo11  1  0.513573  0.001166  0.670790  1
  Mo  Mo12  1  0.794215  0.794215  0.750000  1
  Mo  Mo13  1  0.001166  0.513573  0.829210  1
  Mo  Mo14  1  0.486427  0.998834  0.329210  1
  Mo  Mo15  1  0.725434  0.043990  0.023450  1
  Mo  Mo16  1  0.205785  0.205785  0.250000  1
  Mo  Mo17  1  0.311620  0.432741  0.853429  1
  Mo  Mo18  1  0.998834  0.486427  0.170790  1
  Mo  Mo19  1  0.432741  0.311620  0.646571  1
  Mo  Mo20  1  0.956010  0.274566  0.523450  1
  Mo  Mo21  1  0.688380  0.567259  0.146571  1
  O  O22  1  0.301183  0.508551  0.719250  1
  O  O23  1  0.468547  0.426033  0.897136  1
  O  O24  1  0.573967  0.531453  0.397136  1
  O  O25  1  0.631922  0.754857  0.655954  1
  O  O26  1  0.940827  0.856625  0.684595  1
  O  O27  1  0.491449  0.698817  0.219250  1
  O  O28  1  0.754857  0.631922  0.844046  1
  O  O29  1  0.626699  0.014985  0.284662  1
  O  O30  1  0.869752  0.105994  0.955143  1
  O  O31  1  0.053036  0.802173  0.339852  1
  O  O32  1  0.059173  0.143375  0.315405  1
  O  O33  1  0.081406  0.694292  0.741594  1
  O  O34  1  0.373301  0.985015  0.715338  1
  O  O35  1  0.985015  0.373301  0.784662  1
  O  O36  1  0.856625  0.940827  0.815405  1
  O  O37  1  0.105994  0.869752  0.544857  1
  O  O38  1  0.567554  0.858009  0.005849  1
  O  O39  1  0.237504  0.138881  0.626683  1
  O  O40  1  0.802173  0.053036  0.160148  1
  O  O41  1  0.130248  0.894006  0.044857  1
  O  O42  1  0.166786  0.671077  0.527362  1
  O  O43  1  0.458034  0.884405  0.452400  1
  O  O44  1  0.368078  0.245143  0.344046  1
  O  O45  1  0.448048  0.666136  0.420495  1
  O  O46  1  0.444865  0.820246  0.661675  1
  O  O47  1  0.508551  0.301183  0.780750  1
  O  O48  1  0.426033  0.468547  0.602864  1
  O  O49  1  0.143375  0.059173  0.184595  1
  O  O50  1  0.894006  0.130248  0.455143  1
  O  O51  1  0.671077  0.166786  0.972638  1
  O  O52  1  0.432446  0.141991  0.994151  1
  O  O53  1  0.555135  0.179754  0.338325  1
  O  O54  1  0.861119  0.762496  0.126683  1
  O  O55  1  0.551952  0.333864  0.579505  1
  O  O56  1  0.328923  0.833214  0.027362  1
  O  O57  1  0.884405  0.458034  0.047600  1
  O  O58  1  0.820246  0.444865  0.838325  1
  O  O59  1  0.541966  0.115595  0.547600  1
  O  O60  1  0.141991  0.432446  0.505849  1
  O  O61  1  0.014985  0.626699  0.215338  1
  O  O62  1  0.305708  0.918594  0.241594  1
  O  O63  1  0.694292  0.081406  0.758406  1
  O  O64  1  0.197827  0.946964  0.839852  1
  O  O65  1  0.918594  0.305708  0.258406  1
  O  O66  1  0.858009  0.567554  0.494151  1
  O  O67  1  0.531453  0.573967  0.102864  1
  O  O68  1  0.115595  0.541966  0.952400  1
  O  O69  1  0.666136  0.448048  0.079505  1
  O  O70  1  0.179754  0.555135  0.161675  1
  O  O71  1  0.138881  0.237504  0.873317  1
  O  O72  1  0.762496  0.861119  0.373317  1
  O  O73  1  0.333864  0.551952  0.920495  1
  O  O74  1  0.946964  0.197827  0.660148  1
  O  O75  1  0.245143  0.368078  0.155954  1
  O  O76  1  0.833214  0.328923  0.472638  1
  O  O77  1  0.698817  0.491449  0.280750  1
