# generated using pymatgen
data_Li17Sn4
_symmetry_space_group_name_H-M   'P 1'
_cell_length_a   13.90427738
_cell_length_b   13.90427738
_cell_length_c   13.90427738
_cell_angle_alpha   60.00000000
_cell_angle_beta   60.00000000
_cell_angle_gamma   60.00000000
_symmetry_Int_Tables_number   1
_chemical_formula_structural   Li17Sn4
_chemical_formula_sum   'Li85 Sn20'
_cell_volume   1900.77307542
_cell_formula_units_Z   5
loop_
 _symmetry_equiv_pos_site_id
 _symmetry_equiv_pos_as_xyz
  1  'x, y, z'
loop_
 _atom_site_type_symbol
 _atom_site_label
 _atom_site_symmetry_multiplicity
 _atom_site_fract_x
 _atom_site_fract_y
 _atom_site_fract_z
 _atom_site_occupancy
  Li  Li0  1  0.076182  0.076182  0.423818  1
  Li  Li1  1  0.057550  0.761922  0.418607  1
  Li  Li2  1  0.423818  0.423818  0.076182  1
  Li  Li3  1  0.828763  0.171237  0.828763  1
  Li  Li4  1  0.319140  0.007278  0.007278  1
  Li  Li5  1  0.555938  0.332187  0.555938  1
  Li  Li6  1  0.776613  0.074462  0.074462  1
  Li  Li7  1  0.319140  0.666303  0.007278  1
  Li  Li8  1  0.827265  0.827265  0.518206  1
  Li  Li9  1  0.173316  0.518705  0.518705  1
  Li  Li10  1  0.265594  0.265594  0.920003  1
  Li  Li11  1  0.417190  0.748430  0.417190  1
  Li  Li12  1  0.920003  0.548810  0.265594  1
  Li  Li13  1  0.518206  0.827265  0.827265  1
  Li  Li14  1  0.666303  0.007278  0.319140  1
  Li  Li15  1  0.171237  0.171237  0.828763  1
  Li  Li16  1  0.173316  0.789273  0.518705  1
  Li  Li17  1  0.789273  0.518705  0.173316  1
  Li  Li18  1  0.789273  0.173316  0.518705  1
  Li  Li19  1  0.090281  0.303240  0.303240  1
  Li  Li20  1  0.748430  0.417190  0.417190  1
  Li  Li21  1  0.828763  0.171237  0.171237  1
  Li  Li22  1  0.518705  0.173316  0.518705  1
  Li  Li23  1  0.423818  0.076182  0.423818  1
  Li  Li24  1  0.007278  0.666303  0.319140  1
  Li  Li25  1  0.827265  0.827265  0.827265  1
  Li  Li26  1  0.418607  0.761922  0.761922  1
  Li  Li27  1  0.681977  0.681977  0.681977  1
  Li  Li28  1  0.007278  0.007278  0.666303  1
  Li  Li29  1  0.761922  0.761922  0.418607  1
  Li  Li30  1  0.761922  0.057550  0.418607  1
  Li  Li31  1  0.074462  0.074462  0.776613  1
  Li  Li32  1  0.681977  0.954068  0.681977  1
  Li  Li33  1  0.548810  0.265594  0.265594  1
  Li  Li34  1  0.303240  0.303240  0.303240  1
  Li  Li35  1  0.827265  0.518206  0.827265  1
  Li  Li36  1  0.828763  0.828763  0.171237  1
  Li  Li37  1  0.007278  0.666303  0.007278  1
  Li  Li38  1  0.423818  0.076182  0.076182  1
  Li  Li39  1  0.076182  0.423818  0.423818  1
  Li  Li40  1  0.074462  0.776613  0.074462  1
  Li  Li41  1  0.555938  0.555938  0.332187  1
  Li  Li42  1  0.265594  0.548810  0.920003  1
  Li  Li43  1  0.761922  0.057550  0.761922  1
  Li  Li44  1  0.417190  0.417190  0.417190  1
  Li  Li45  1  0.761922  0.418607  0.057550  1
  Li  Li46  1  0.920003  0.265594  0.265594  1
  Li  Li47  1  0.666303  0.319140  0.007278  1
  Li  Li48  1  0.518705  0.518705  0.173316  1
  Li  Li49  1  0.332187  0.555938  0.555938  1
  Li  Li50  1  0.518705  0.789273  0.173316  1
  Li  Li51  1  0.303240  0.090281  0.303240  1
  Li  Li52  1  0.555938  0.555938  0.555938  1
  Li  Li53  1  0.417190  0.417190  0.748430  1
  Li  Li54  1  0.057550  0.761922  0.761922  1
  Li  Li55  1  0.319140  0.007278  0.666303  1
  Li  Li56  1  0.920003  0.265594  0.548810  1
  Li  Li57  1  0.007278  0.319140  0.666303  1
  Li  Li58  1  0.548810  0.265594  0.920003  1
  Li  Li59  1  0.518705  0.173316  0.789273  1
  Li  Li60  1  0.265594  0.265594  0.548810  1
  Li  Li61  1  0.518705  0.789273  0.518705  1
  Li  Li62  1  0.265594  0.920003  0.265594  1
  Li  Li63  1  0.057550  0.418607  0.761922  1
  Li  Li64  1  0.789273  0.518705  0.518705  1
  Li  Li65  1  0.076182  0.423818  0.076182  1
  Li  Li66  1  0.074462  0.074462  0.074462  1
  Li  Li67  1  0.761922  0.761922  0.057550  1
  Li  Li68  1  0.954068  0.681977  0.681977  1
  Li  Li69  1  0.265594  0.920003  0.548810  1
  Li  Li70  1  0.265594  0.548810  0.265594  1
  Li  Li71  1  0.171237  0.828763  0.828763  1
  Li  Li72  1  0.007278  0.007278  0.319140  1
  Li  Li73  1  0.418607  0.057550  0.761922  1
  Li  Li74  1  0.303240  0.303240  0.090281  1
  Li  Li75  1  0.000000  0.000000  0.000000  1
  Li  Li76  1  0.518705  0.518705  0.789273  1
  Li  Li77  1  0.007278  0.319140  0.007278  1
  Li  Li78  1  0.173316  0.518705  0.789273  1
  Li  Li79  1  0.171237  0.828763  0.171237  1
  Li  Li80  1  0.681977  0.681977  0.954068  1
  Li  Li81  1  0.548810  0.920003  0.265594  1
  Li  Li82  1  0.666303  0.007278  0.007278  1
  Li  Li83  1  0.761922  0.418607  0.761922  1
  Li  Li84  1  0.418607  0.761922  0.057550  1
  Sn  Sn85  1  0.160119  0.519642  0.160119  1
  Sn  Sn86  1  0.320820  0.320820  0.679180  1
  Sn  Sn87  1  0.519642  0.160119  0.160119  1
  Sn  Sn88  1  0.916343  0.916343  0.250972  1
  Sn  Sn89  1  0.929774  0.570226  0.929774  1
  Sn  Sn90  1  0.570226  0.929774  0.929774  1
  Sn  Sn91  1  0.679180  0.320820  0.679180  1
  Sn  Sn92  1  0.320820  0.679180  0.679180  1
  Sn  Sn93  1  0.929774  0.570226  0.570226  1
  Sn  Sn94  1  0.679180  0.679180  0.320820  1
  Sn  Sn95  1  0.250972  0.916343  0.916343  1
  Sn  Sn96  1  0.916343  0.250972  0.916343  1
  Sn  Sn97  1  0.160119  0.160119  0.519642  1
  Sn  Sn98  1  0.679180  0.320820  0.320820  1
  Sn  Sn99  1  0.320820  0.679180  0.320820  1
  Sn  Sn100  1  0.160119  0.160119  0.160119  1
  Sn  Sn101  1  0.916343  0.916343  0.916343  1
  Sn  Sn102  1  0.570226  0.929774  0.570226  1
  Sn  Sn103  1  0.570226  0.570226  0.929774  1
  Sn  Sn104  1  0.929774  0.929774  0.570226  1
