# generated using pymatgen
data_CdSnP2
_symmetry_space_group_name_H-M   'P 1'
_cell_length_a   7.23044659
_cell_length_b   7.23044659
_cell_length_c   7.23044659
_cell_angle_alpha   131.09998085
_cell_angle_beta   131.09998085
_cell_angle_gamma   71.65427854
_symmetry_Int_Tables_number   1
_chemical_formula_structural   CdSnP2
_chemical_formula_sum   'Cd2 Sn2 P4'
_cell_volume   210.01533538
_cell_formula_units_Z   2
loop_
 _symmetry_equiv_pos_site_id
 _symmetry_equiv_pos_as_xyz
  1  'x, y, z'
loop_
 _atom_site_type_symbol
 _atom_site_label
 _atom_site_symmetry_multiplicity
 _atom_site_fract_x
 _atom_site_fract_y
 _atom_site_fract_z
 _atom_site_occupancy
  Cd  Cd0  1  0.000000  0.000000  0.000000  1
  Cd  Cd1  1  0.750000  0.250000  0.500000  1
  Sn  Sn2  1  0.250000  0.750000  0.500000  1
  Sn  Sn3  1  0.500000  0.500000  0.000000  1
  P  P4  1  0.617958  0.625000  0.492958  1
  P  P5  1  0.375000  0.867958  0.992958  1
  P  P6  1  0.132042  0.125000  0.507042  1
  P  P7  1  0.875000  0.382042  0.007042  1
