# generated using pymatgen
data_NbTe4Ir
_symmetry_space_group_name_H-M   'P 1'
_cell_length_a   3.82461391
_cell_length_b   12.72824702
_cell_length_c   13.61996951
_cell_angle_alpha   90.00000000
_cell_angle_beta   90.00000000
_cell_angle_gamma   90.00000000
_symmetry_Int_Tables_number   1
_chemical_formula_structural   NbTe4Ir
_chemical_formula_sum   'Nb4 Te16 Ir4'
_cell_volume   663.02870454
_cell_formula_units_Z   4
loop_
 _symmetry_equiv_pos_site_id
 _symmetry_equiv_pos_as_xyz
  1  'x, y, z'
loop_
 _atom_site_type_symbol
 _atom_site_label
 _atom_site_symmetry_multiplicity
 _atom_site_fract_x
 _atom_site_fract_y
 _atom_site_fract_z
 _atom_site_occupancy
  Nb  Nb0  1  0.000000  0.055953  0.004560  1
  Nb  Nb1  1  0.500000  0.944047  0.504560  1
  Nb  Nb2  1  0.000000  0.270144  0.491846  1
  Nb  Nb3  1  0.500000  0.729856  0.991846  1
  Te  Te4  1  0.000000  0.065595  0.394930  1
  Te  Te5  1  0.500000  0.934405  0.894930  1
  Te  Te6  1  0.000000  0.194815  0.857479  1
  Te  Te7  1  0.500000  0.805185  0.357479  1
  Te  Te8  1  0.000000  0.346755  0.092930  1
  Te  Te9  1  0.500000  0.653245  0.592930  1
  Te  Te10  1  0.000000  0.413367  0.634932  1
  Te  Te11  1  0.500000  0.586633  0.134932  1
  Te  Te12  1  0.000000  0.563384  0.398943  1
  Te  Te13  1  0.500000  0.436616  0.898943  1
  Te  Te14  1  0.000000  0.676369  0.851236  1
  Te  Te15  1  0.500000  0.323631  0.351236  1
  Te  Te16  1  0.000000  0.850886  0.103891  1
  Te  Te17  1  0.500000  0.149114  0.603891  1
  Te  Te18  1  0.000000  0.889907  0.644933  1
  Te  Te19  1  0.500000  0.110093  0.144933  1
  Ir  Ir20  1  0.000000  0.535647  0.000120  1
  Ir  Ir21  1  0.500000  0.464353  0.500120  1
  Ir  Ir22  1  0.000000  0.752216  0.492400  1
  Ir  Ir23  1  0.500000  0.247784  0.992400  1
