# generated using pymatgen
data_GdScS3
_symmetry_space_group_name_H-M   'P 1'
_cell_length_a   6.42993802
_cell_length_b   7.07327506
_cell_length_c   9.55325612
_cell_angle_alpha   90.00000000
_cell_angle_beta   90.00000000
_cell_angle_gamma   90.00000000
_symmetry_Int_Tables_number   1
_chemical_formula_structural   GdScS3
_chemical_formula_sum   'Gd4 Sc4 S12'
_cell_volume   434.48896892
_cell_formula_units_Z   4
loop_
 _symmetry_equiv_pos_site_id
 _symmetry_equiv_pos_as_xyz
  1  'x, y, z'
loop_
 _atom_site_type_symbol
 _atom_site_label
 _atom_site_symmetry_multiplicity
 _atom_site_fract_x
 _atom_site_fract_y
 _atom_site_fract_z
 _atom_site_occupancy
  Gd  Gd0  1  0.039757  0.100490  0.250000  1
  Gd  Gd1  1  0.960243  0.899510  0.750000  1
  Gd  Gd2  1  0.460243  0.600490  0.250000  1
  Gd  Gd3  1  0.539757  0.399510  0.750000  1
  Sc  Sc4  1  0.500000  0.000000  0.500000  1
  Sc  Sc5  1  0.000000  0.500000  0.000000  1
  Sc  Sc6  1  0.000000  0.500000  0.500000  1
  Sc  Sc7  1  0.500000  0.000000  0.000000  1
  S  S8  1  0.323338  0.314826  0.431385  1
  S  S9  1  0.676662  0.685174  0.931385  1
  S  S10  1  0.323338  0.314826  0.068615  1
  S  S11  1  0.823338  0.185174  0.568615  1
  S  S12  1  0.176662  0.814826  0.431385  1
  S  S13  1  0.139655  0.544962  0.750000  1
  S  S14  1  0.860345  0.455038  0.250000  1
  S  S15  1  0.639655  0.955038  0.250000  1
  S  S16  1  0.823338  0.185174  0.931385  1
  S  S17  1  0.360345  0.044962  0.750000  1
  S  S18  1  0.676662  0.685174  0.568615  1
  S  S19  1  0.176662  0.814826  0.068615  1
