# generated using pymatgen
data_KSrNb2O6F
_symmetry_space_group_name_H-M   'P 1'
_cell_length_a   12.19858034
_cell_length_b   12.19858034
_cell_length_c   12.19858034
_cell_angle_alpha   161.53701662
_cell_angle_beta   142.78643196
_cell_angle_gamma   41.84818611
_symmetry_Int_Tables_number   1
_chemical_formula_structural   KSrNb2O6F
_chemical_formula_sum   'K2 Sr2 Nb4 O12 F2'
_cell_volume   347.14960641
_cell_formula_units_Z   2
loop_
 _symmetry_equiv_pos_site_id
 _symmetry_equiv_pos_as_xyz
  1  'x, y, z'
loop_
 _atom_site_type_symbol
 _atom_site_label
 _atom_site_symmetry_multiplicity
 _atom_site_fract_x
 _atom_site_fract_y
 _atom_site_fract_z
 _atom_site_occupancy
  K  K0  1  0.235805  0.735805  0.500000  1
  K  K1  1  0.764195  0.264195  0.500000  1
  Sr  Sr2  1  0.500000  0.500000  0.000000  1
  Sr  Sr3  1  0.000000  0.500000  0.500000  1
  Nb  Nb4  1  0.354915  0.107643  0.247272  1
  Nb  Nb5  1  0.860371  0.107643  0.752728  1
  Nb  Nb6  1  0.645085  0.892357  0.752728  1
  Nb  Nb7  1  0.139629  0.892357  0.247272  1
  O  O8  1  0.041044  0.814020  0.227024  1
  O  O9  1  0.080096  0.080096  0.000000  1
  O  O10  1  0.666429  0.414762  0.251668  1
  O  O11  1  0.413004  0.185980  0.227024  1
  O  O12  1  0.836906  0.585238  0.251668  1
  O  O13  1  0.958956  0.185980  0.772976  1
  O  O14  1  0.919904  0.919904  0.000000  1
  O  O15  1  0.408994  0.908994  0.500000  1
  O  O16  1  0.586996  0.814020  0.772976  1
  O  O17  1  0.163094  0.414762  0.748332  1
  O  O18  1  0.333571  0.585238  0.748332  1
  O  O19  1  0.591006  0.091006  0.500000  1
  F  F20  1  0.267123  0.000000  0.267123  1
  F  F21  1  0.732877  0.000000  0.732877  1
