# generated using pymatgen
data_NaSbCO2F3
_symmetry_space_group_name_H-M   'P 1'
_cell_length_a   9.33602664
_cell_length_b   9.33602664
_cell_length_c   8.52205224
_cell_angle_alpha   83.66704068
_cell_angle_beta   96.33295932
_cell_angle_gamma   139.72053129
_symmetry_Int_Tables_number   1
_chemical_formula_structural   NaSbCO2F3
_chemical_formula_sum   'Na4 Sb4 C4 O8 F12'
_cell_volume   476.90247639
_cell_formula_units_Z   4
loop_
 _symmetry_equiv_pos_site_id
 _symmetry_equiv_pos_as_xyz
  1  'x, y, z'
loop_
 _atom_site_type_symbol
 _atom_site_label
 _atom_site_symmetry_multiplicity
 _atom_site_fract_x
 _atom_site_fract_y
 _atom_site_fract_z
 _atom_site_occupancy
  Na  Na0  1  0.509272  0.721235  0.568626  1
  Na  Na1  1  0.696639  0.066805  0.217887  1
  Na  Na2  1  0.278765  0.490728  0.068626  1
  Na  Na3  1  0.933195  0.303361  0.717887  1
  Sb  Sb4  1  0.122466  0.124671  0.496307  1
  Sb  Sb5  1  0.082348  0.660872  0.289817  1
  Sb  Sb6  1  0.339128  0.917652  0.789817  1
  Sb  Sb7  1  0.875329  0.877534  0.996307  1
  C  C8  1  0.645229  0.497567  0.424259  1
  C  C9  1  0.711631  0.437424  0.869900  1
  C  C10  1  0.502433  0.354771  0.924259  1
  C  C11  1  0.562576  0.288369  0.369900  1
  O  O12  1  0.315978  0.157866  0.896282  1
  O  O13  1  0.698349  0.321063  0.296555  1
  O  O14  1  0.678937  0.301651  0.796555  1
  O  O15  1  0.842134  0.684022  0.396282  1
  O  O16  1  0.898673  0.632342  0.901403  1
  O  O17  1  0.367658  0.101327  0.401403  1
  O  O18  1  0.507438  0.465275  0.493676  1
  O  O19  1  0.534725  0.492562  0.993676  1
  F  F20  1  0.568768  0.973460  0.695048  1
  F  F21  1  0.166049  0.222191  0.270580  1
  F  F22  1  0.174836  0.355225  0.583598  1
  F  F23  1  0.217592  0.620334  0.844343  1
  F  F24  1  0.026540  0.431232  0.195048  1
  F  F25  1  0.644775  0.825164  0.083598  1
  F  F26  1  0.823738  0.998107  0.435603  1
  F  F27  1  0.043950  0.562718  0.514617  1
  F  F28  1  0.379666  0.782408  0.344343  1
  F  F29  1  0.437282  0.956050  0.014617  1
  F  F30  1  0.001893  0.176262  0.935603  1
  F  F31  1  0.777809  0.833951  0.770580  1
