# generated using pymatgen
data_KNaSO4
_symmetry_space_group_name_H-M   'P 1'
_cell_length_a   5.69608433
_cell_length_b   5.69608433
_cell_length_c   7.28458968
_cell_angle_alpha   90.00000000
_cell_angle_beta   90.00000000
_cell_angle_gamma   120.00000000
_symmetry_Int_Tables_number   1
_chemical_formula_structural   KNaSO4
_chemical_formula_sum   'K2 Na2 S2 O8'
_cell_volume   204.68619192
_cell_formula_units_Z   2
loop_
 _symmetry_equiv_pos_site_id
 _symmetry_equiv_pos_as_xyz
  1  'x, y, z'
loop_
 _atom_site_type_symbol
 _atom_site_label
 _atom_site_symmetry_multiplicity
 _atom_site_fract_x
 _atom_site_fract_y
 _atom_site_fract_z
 _atom_site_occupancy
  K  K0  1  0.333333  0.666667  0.327775  1
  K  K1  1  0.000000  0.000000  0.002927  1
  Na  Na2  1  0.000000  0.000000  0.502916  1
  Na  Na3  1  0.666667  0.333333  0.702898  1
  S  S4  1  0.333333  0.666667  0.771222  1
  S  S5  1  0.666667  0.333333  0.232727  1
  O  O6  1  0.190682  0.809318  0.698746  1
  O  O7  1  0.809058  0.190942  0.304626  1
  O  O8  1  0.333333  0.666667  0.972911  1
  O  O9  1  0.809058  0.618117  0.304626  1
  O  O10  1  0.190682  0.381364  0.698746  1
  O  O11  1  0.666667  0.333333  0.029508  1
  O  O12  1  0.381883  0.190942  0.304626  1
  O  O13  1  0.618636  0.809318  0.698746  1
