# generated using pymatgen
data_Ca3Ge(ClO2)2
_symmetry_space_group_name_H-M   'P 1'
_cell_length_a   5.76546439
_cell_length_b   10.44754603
_cell_length_c   11.78676990
_cell_angle_alpha   90.00000000
_cell_angle_beta   90.00000000
_cell_angle_gamma   90.00000000
_symmetry_Int_Tables_number   1
_chemical_formula_structural   Ca3Ge(ClO2)2
_chemical_formula_sum   'Ca12 Ge4 Cl8 O16'
_cell_volume   709.97554979
_cell_formula_units_Z   4
loop_
 _symmetry_equiv_pos_site_id
 _symmetry_equiv_pos_as_xyz
  1  'x, y, z'
loop_
 _atom_site_type_symbol
 _atom_site_label
 _atom_site_symmetry_multiplicity
 _atom_site_fract_x
 _atom_site_fract_y
 _atom_site_fract_z
 _atom_site_occupancy
  Ca  Ca0  1  0.882756  0.580295  0.336681  1
  Ca  Ca1  1  0.898025  0.250000  0.959669  1
  Ca  Ca2  1  0.117244  0.419705  0.663319  1
  Ca  Ca3  1  0.101975  0.750000  0.040331  1
  Ca  Ca4  1  0.382756  0.419705  0.163319  1
  Ca  Ca5  1  0.601975  0.250000  0.459669  1
  Ca  Ca6  1  0.382756  0.080295  0.163319  1
  Ca  Ca7  1  0.882756  0.919705  0.336681  1
  Ca  Ca8  1  0.617244  0.919705  0.836681  1
  Ca  Ca9  1  0.617244  0.580295  0.836681  1
  Ca  Ca10  1  0.398025  0.750000  0.540331  1
  Ca  Ca11  1  0.117244  0.080295  0.663319  1
  Ge  Ge12  1  0.821783  0.250000  0.221401  1
  Ge  Ge13  1  0.178217  0.750000  0.778599  1
  Ge  Ge14  1  0.678217  0.250000  0.721401  1
  Ge  Ge15  1  0.321783  0.750000  0.278599  1
  Cl  Cl16  1  0.251525  0.432551  0.929911  1
  Cl  Cl17  1  0.748475  0.932551  0.070089  1
  Cl  Cl18  1  0.748475  0.567449  0.070089  1
  Cl  Cl19  1  0.751525  0.567449  0.570089  1
  Cl  Cl20  1  0.248475  0.432551  0.429911  1
  Cl  Cl21  1  0.251525  0.067449  0.929911  1
  Cl  Cl22  1  0.751525  0.932551  0.570089  1
  Cl  Cl23  1  0.248475  0.067449  0.429911  1
  O  O24  1  0.721516  0.382530  0.303271  1
  O  O25  1  0.778484  0.117470  0.803271  1
  O  O26  1  0.372484  0.750000  0.897787  1
  O  O27  1  0.221516  0.882530  0.196729  1
  O  O28  1  0.394130  0.250000  0.664526  1
  O  O29  1  0.894130  0.750000  0.835474  1
  O  O30  1  0.605870  0.750000  0.335474  1
  O  O31  1  0.127516  0.750000  0.397787  1
  O  O32  1  0.221516  0.617470  0.196729  1
  O  O33  1  0.278484  0.617470  0.696729  1
  O  O34  1  0.721516  0.117470  0.303271  1
  O  O35  1  0.278484  0.882530  0.696729  1
  O  O36  1  0.627516  0.250000  0.102213  1
  O  O37  1  0.105870  0.250000  0.164526  1
  O  O38  1  0.778484  0.382530  0.803271  1
  O  O39  1  0.872484  0.250000  0.602213  1
