# generated using pymatgen
data_Y5GaCo5
_symmetry_space_group_name_H-M   'P 1'
_cell_length_a   5.48166228
_cell_length_b   5.48166228
_cell_length_c   20.60779338
_cell_angle_alpha   90.00000000
_cell_angle_beta   90.00000000
_cell_angle_gamma   136.49661280
_symmetry_Int_Tables_number   1
_chemical_formula_structural   Y5GaCo5
_chemical_formula_sum   'Y10 Ga2 Co10'
_cell_volume   426.28033691
_cell_formula_units_Z   2
loop_
 _symmetry_equiv_pos_site_id
 _symmetry_equiv_pos_as_xyz
  1  'x, y, z'
loop_
 _atom_site_type_symbol
 _atom_site_label
 _atom_site_symmetry_multiplicity
 _atom_site_fract_x
 _atom_site_fract_y
 _atom_site_fract_z
 _atom_site_occupancy
  Y  Y0  1  0.286934  0.713066  0.250000  1
  Y  Y1  1  0.290168  0.709832  0.065677  1
  Y  Y2  1  0.999874  0.000126  0.843227  1
  Y  Y3  1  0.713066  0.286934  0.750000  1
  Y  Y4  1  0.709832  0.290168  0.565677  1
  Y  Y5  1  0.000126  0.999874  0.343227  1
  Y  Y6  1  0.999874  0.000126  0.656773  1
  Y  Y7  1  0.709832  0.290168  0.934323  1
  Y  Y8  1  0.000126  0.999874  0.156773  1
  Y  Y9  1  0.290168  0.709832  0.434323  1
  Ga  Ga10  1  0.000000  0.000000  0.500000  1
  Ga  Ga11  1  0.000000  0.000000  0.000000  1
  Co  Co12  1  0.298501  0.701499  0.653941  1
  Co  Co13  1  0.580440  0.419560  0.441562  1
  Co  Co14  1  0.412425  0.587575  0.750000  1
  Co  Co15  1  0.419560  0.580440  0.941562  1
  Co  Co16  1  0.587575  0.412425  0.250000  1
  Co  Co17  1  0.419560  0.580440  0.558438  1
  Co  Co18  1  0.701499  0.298501  0.346059  1
  Co  Co19  1  0.701499  0.298501  0.153941  1
  Co  Co20  1  0.580440  0.419560  0.058438  1
  Co  Co21  1  0.298501  0.701499  0.846059  1
