# generated using pymatgen
data_K2ZnN12
_symmetry_space_group_name_H-M   'P 1'
_cell_length_a   11.37821318
_cell_length_b   11.82166185
_cell_length_c   14.53361658
_cell_angle_alpha   90.00000000
_cell_angle_beta   90.00000000
_cell_angle_gamma   90.00000000
_symmetry_Int_Tables_number   1
_chemical_formula_structural   K2ZnN12
_chemical_formula_sum   'K16 Zn8 N96'
_cell_volume   1954.90788136
_cell_formula_units_Z   8
loop_
 _symmetry_equiv_pos_site_id
 _symmetry_equiv_pos_as_xyz
  1  'x, y, z'
loop_
 _atom_site_type_symbol
 _atom_site_label
 _atom_site_symmetry_multiplicity
 _atom_site_fract_x
 _atom_site_fract_y
 _atom_site_fract_z
 _atom_site_occupancy
  K  K0  1  0.757710  0.917410  0.605771  1
  K  K1  1  0.798387  0.750708  0.843462  1
  K  K2  1  0.201613  0.249292  0.156538  1
  K  K3  1  0.798387  0.250708  0.656538  1
  K  K4  1  0.201613  0.749292  0.343462  1
  K  K5  1  0.742290  0.917410  0.105771  1
  K  K6  1  0.701613  0.250708  0.156538  1
  K  K7  1  0.257710  0.082590  0.894229  1
  K  K8  1  0.701613  0.750708  0.343462  1
  K  K9  1  0.242290  0.582590  0.105771  1
  K  K10  1  0.757710  0.417410  0.894229  1
  K  K11  1  0.257710  0.582590  0.605771  1
  K  K12  1  0.242290  0.082590  0.394229  1
  K  K13  1  0.298387  0.749292  0.843462  1
  K  K14  1  0.742290  0.417410  0.394229  1
  K  K15  1  0.298387  0.249292  0.656538  1
  Zn  Zn16  1  0.752125  0.074830  0.886163  1
  Zn  Zn17  1  0.247875  0.425170  0.386163  1
  Zn  Zn18  1  0.747875  0.574830  0.113837  1
  Zn  Zn19  1  0.252125  0.425170  0.886163  1
  Zn  Zn20  1  0.252125  0.925170  0.613837  1
  Zn  Zn21  1  0.752125  0.574830  0.613837  1
  Zn  Zn22  1  0.247875  0.925170  0.113837  1
  Zn  Zn23  1  0.747875  0.074830  0.386163  1
  N  N24  1  0.459756  0.986581  0.709127  1
  N  N25  1  0.437892  0.010779  0.292533  1
  N  N26  1  0.660371  0.705111  0.667314  1
  N  N27  1  0.046878  0.215633  0.319811  1
  N  N28  1  0.339090  0.566742  0.420413  1
  N  N29  1  0.561113  0.633869  0.990059  1
  N  N30  1  0.046113  0.911560  0.415119  1
  N  N31  1  0.944534  0.924468  0.416863  1
  N  N32  1  0.333096  0.370921  0.002724  1
  N  N33  1  0.055052  0.791899  0.672896  1
  N  N34  1  0.660910  0.433258  0.579587  1
  N  N35  1  0.555052  0.708101  0.672896  1
  N  N36  1  0.444948  0.791899  0.172896  1
  N  N37  1  0.166904  0.370921  0.502724  1
  N  N38  1  0.938887  0.133869  0.009941  1
  N  N39  1  0.055466  0.075532  0.583137  1
  N  N40  1  0.555466  0.424468  0.583137  1
  N  N41  1  0.438887  0.366131  0.009941  1
  N  N42  1  0.055052  0.291899  0.827104  1
  N  N43  1  0.046113  0.411560  0.084881  1
  N  N44  1  0.833096  0.129079  0.002724  1
  N  N45  1  0.453122  0.715633  0.680189  1
  N  N46  1  0.959787  0.359930  0.520620  1
  N  N47  1  0.839090  0.933258  0.420413  1
  N  N48  1  0.853987  0.013486  0.784965  1
  N  N49  1  0.444534  0.575532  0.416863  1
  N  N50  1  0.040213  0.140070  0.020620  1
  N  N51  1  0.953122  0.784367  0.680189  1
  N  N52  1  0.040244  0.986581  0.209127  1
  N  N53  1  0.666904  0.629079  0.997276  1
  N  N54  1  0.646013  0.013486  0.284965  1
  N  N55  1  0.444948  0.291899  0.327104  1
  N  N56  1  0.160371  0.294889  0.832686  1
  N  N57  1  0.353987  0.986514  0.715035  1
  N  N58  1  0.546878  0.784367  0.180189  1
  N  N59  1  0.937892  0.989221  0.207467  1
  N  N60  1  0.660910  0.933258  0.920413  1
  N  N61  1  0.453122  0.215633  0.819811  1
  N  N62  1  0.339629  0.294889  0.332686  1
  N  N63  1  0.839629  0.205111  0.332686  1
  N  N64  1  0.540244  0.013419  0.290873  1
  N  N65  1  0.046878  0.715633  0.180189  1
  N  N66  1  0.959756  0.513419  0.709127  1
  N  N67  1  0.546113  0.088440  0.084881  1
  N  N68  1  0.437892  0.510779  0.207467  1
  N  N69  1  0.561113  0.133869  0.509941  1
  N  N70  1  0.353987  0.486514  0.784965  1
  N  N71  1  0.055466  0.575532  0.916863  1
  N  N72  1  0.540213  0.859930  0.479380  1
  N  N73  1  0.040244  0.486581  0.290873  1
  N  N74  1  0.959787  0.859930  0.979380  1
  N  N75  1  0.953887  0.088440  0.584881  1
  N  N76  1  0.666904  0.129079  0.502724  1
  N  N77  1  0.453887  0.411560  0.584881  1
  N  N78  1  0.833096  0.629079  0.497276  1
  N  N79  1  0.333096  0.870921  0.497276  1
  N  N80  1  0.944948  0.208101  0.327104  1
  N  N81  1  0.453887  0.911560  0.915119  1
  N  N82  1  0.062108  0.010779  0.792533  1
  N  N83  1  0.562108  0.489221  0.792533  1
  N  N84  1  0.160910  0.066742  0.579587  1
  N  N85  1  0.166904  0.870921  0.997276  1
  N  N86  1  0.061113  0.366131  0.509941  1
  N  N87  1  0.540213  0.359930  0.020620  1
  N  N88  1  0.160910  0.566742  0.920413  1
  N  N89  1  0.839629  0.705111  0.167314  1
  N  N90  1  0.937892  0.489221  0.292533  1
  N  N91  1  0.853987  0.513486  0.715035  1
  N  N92  1  0.562108  0.989221  0.707467  1
  N  N93  1  0.339090  0.066742  0.079587  1
  N  N94  1  0.953122  0.284367  0.819811  1
  N  N95  1  0.459787  0.640070  0.979380  1
  N  N96  1  0.160371  0.794889  0.667314  1
  N  N97  1  0.459787  0.140070  0.520620  1
  N  N98  1  0.953887  0.588440  0.915119  1
  N  N99  1  0.040213  0.640070  0.479380  1
  N  N100  1  0.061113  0.866131  0.990059  1
  N  N101  1  0.660371  0.205111  0.832686  1
  N  N102  1  0.546878  0.284367  0.319811  1
  N  N103  1  0.944534  0.424468  0.083137  1
  N  N104  1  0.146013  0.986514  0.215035  1
  N  N105  1  0.555466  0.924468  0.916863  1
  N  N106  1  0.062108  0.510779  0.707467  1
  N  N107  1  0.459756  0.486581  0.790873  1
  N  N108  1  0.444534  0.075532  0.083137  1
  N  N109  1  0.839090  0.433258  0.079587  1
  N  N110  1  0.339629  0.794889  0.167314  1
  N  N111  1  0.944948  0.708101  0.172896  1
  N  N112  1  0.146013  0.486514  0.284965  1
  N  N113  1  0.959756  0.013419  0.790873  1
  N  N114  1  0.540244  0.513419  0.209127  1
  N  N115  1  0.438887  0.866131  0.490059  1
  N  N116  1  0.646013  0.513486  0.215035  1
  N  N117  1  0.555052  0.208101  0.827104  1
  N  N118  1  0.546113  0.588440  0.415119  1
  N  N119  1  0.938887  0.633869  0.490059  1
