# generated using pymatgen
data_Ta2NiSe7
_symmetry_space_group_name_H-M   'P 1'
_cell_length_a   7.54910127
_cell_length_b   7.54910127
_cell_length_c   18.64952313
_cell_angle_alpha   72.72596952
_cell_angle_beta   107.27403048
_cell_angle_gamma   153.07518859
_symmetry_Int_Tables_number   1
_chemical_formula_structural   Ta2NiSe7
_chemical_formula_sum   'Ta4 Ni2 Se14'
_cell_volume   458.28308699
_cell_formula_units_Z   2
loop_
 _symmetry_equiv_pos_site_id
 _symmetry_equiv_pos_as_xyz
  1  'x, y, z'
loop_
 _atom_site_type_symbol
 _atom_site_label
 _atom_site_symmetry_multiplicity
 _atom_site_fract_x
 _atom_site_fract_y
 _atom_site_fract_z
 _atom_site_occupancy
  Ta  Ta0  1  0.847285  0.152715  0.599978  1
  Ta  Ta1  1  0.152715  0.847285  0.400022  1
  Ta  Ta2  1  0.772040  0.227960  0.909481  1
  Ta  Ta3  1  0.227960  0.772040  0.090519  1
  Ni  Ni4  1  0.310212  0.689788  0.790895  1
  Ni  Ni5  1  0.689788  0.310212  0.209105  1
  Se  Se6  1  0.640799  0.359201  0.988147  1
  Se  Se7  1  0.359201  0.640799  0.011853  1
  Se  Se8  1  0.429129  0.570871  0.704273  1
  Se  Se9  1  0.570871  0.429129  0.295727  1
  Se  Se10  1  0.912475  0.087525  0.860489  1
  Se  Se11  1  0.087525  0.912475  0.139511  1
  Se  Se12  1  0.161013  0.838987  0.827153  1
  Se  Se13  1  0.838987  0.161013  0.172847  1
  Se  Se14  1  0.472369  0.527631  0.579897  1
  Se  Se15  1  0.527631  0.472369  0.420103  1
  Se  Se16  1  0.205021  0.794979  0.555768  1
  Se  Se17  1  0.794979  0.205021  0.444232  1
  Se  Se18  1  0.744517  0.255483  0.700927  1
  Se  Se19  1  0.255483  0.744517  0.299073  1
