# generated using pymatgen
data_Ba4Al2O7
_symmetry_space_group_name_H-M   'P 1'
_cell_length_a   8.23831781
_cell_length_b   8.23831781
_cell_length_c   27.58331120
_cell_angle_alpha   90.00000000
_cell_angle_beta   90.00000000
_cell_angle_gamma   92.28803317
_symmetry_Int_Tables_number   1
_chemical_formula_structural   Ba4Al2O7
_chemical_formula_sum   'Ba32 Al16 O56'
_cell_volume   1870.58352649
_cell_formula_units_Z   8
loop_
 _symmetry_equiv_pos_site_id
 _symmetry_equiv_pos_as_xyz
  1  'x, y, z'
loop_
 _atom_site_type_symbol
 _atom_site_label
 _atom_site_symmetry_multiplicity
 _atom_site_fract_x
 _atom_site_fract_y
 _atom_site_fract_z
 _atom_site_occupancy
  Ba  Ba0  1  0.029068  0.532944  0.911491  1
  Ba  Ba1  1  0.200526  0.200526  0.000000  1
  Ba  Ba2  1  0.494181  0.505818  0.396255  1
  Ba  Ba3  1  0.998657  0.001343  0.430665  1
  Ba  Ba4  1  0.255625  0.744375  0.667657  1
  Ba  Ba5  1  0.994182  0.005818  0.103745  1
  Ba  Ba6  1  0.469585  0.030415  0.250000  1
  Ba  Ba7  1  0.470932  0.967056  0.411491  1
  Ba  Ba8  1  0.030415  0.469585  0.750000  1
  Ba  Ba9  1  0.969585  0.530415  0.250000  1
  Ba  Ba10  1  0.700526  0.700526  0.500000  1
  Ba  Ba11  1  0.001343  0.998657  0.569335  1
  Ba  Ba12  1  0.526202  0.473798  0.749398  1
  Ba  Ba13  1  0.755625  0.244375  0.832343  1
  Ba  Ba14  1  0.967056  0.470932  0.588509  1
  Ba  Ba15  1  0.473798  0.526202  0.250602  1
  Ba  Ba16  1  0.973798  0.026202  0.249398  1
  Ba  Ba17  1  0.005819  0.994182  0.896255  1
  Ba  Ba18  1  0.026202  0.973798  0.750602  1
  Ba  Ba19  1  0.744375  0.255625  0.332343  1
  Ba  Ba20  1  0.244375  0.755625  0.167657  1
  Ba  Ba21  1  0.032944  0.529068  0.411491  1
  Ba  Ba22  1  0.501343  0.498657  0.930665  1
  Ba  Ba23  1  0.467056  0.970932  0.911491  1
  Ba  Ba24  1  0.970932  0.467056  0.088509  1
  Ba  Ba25  1  0.299474  0.299474  0.500000  1
  Ba  Ba26  1  0.498657  0.501343  0.069335  1
  Ba  Ba27  1  0.532944  0.029068  0.088509  1
  Ba  Ba28  1  0.529068  0.032944  0.588509  1
  Ba  Ba29  1  0.530415  0.969585  0.750000  1
  Ba  Ba30  1  0.799474  0.799474  1.000000  1
  Ba  Ba31  1  0.505818  0.494181  0.603745  1
  Al  Al32  1  0.305544  0.694456  0.825551  1
  Al  Al33  1  0.233813  0.233137  0.658680  1
  Al  Al34  1  0.766187  0.766863  0.341320  1
  Al  Al35  1  0.733813  0.733137  0.841320  1
  Al  Al36  1  0.737091  0.262909  0.991468  1
  Al  Al37  1  0.266863  0.266187  0.841320  1
  Al  Al38  1  0.194456  0.805544  0.325551  1
  Al  Al39  1  0.766863  0.766187  0.658680  1
  Al  Al40  1  0.805544  0.194456  0.674449  1
  Al  Al41  1  0.262909  0.737091  0.008532  1
  Al  Al42  1  0.237091  0.762909  0.508532  1
  Al  Al43  1  0.762909  0.237091  0.491468  1
  Al  Al44  1  0.694456  0.305544  0.174449  1
  Al  Al45  1  0.233137  0.233813  0.341320  1
  Al  Al46  1  0.733137  0.733813  0.158680  1
  Al  Al47  1  0.266187  0.266863  0.158680  1
  O  O48  1  0.751810  0.248190  0.233572  1
  O  O49  1  0.215818  0.784182  0.875980  1
  O  O50  1  0.748089  0.251911  0.926112  1
  O  O51  1  0.729701  0.519293  0.168992  1
  O  O52  1  0.726608  0.026276  0.508974  1
  O  O53  1  0.183461  0.445972  0.181719  1
  O  O54  1  0.748190  0.251810  0.733572  1
  O  O55  1  0.773392  0.473724  0.008974  1
  O  O56  1  0.758433  0.733360  0.594087  1
  O  O57  1  0.526276  0.226608  0.008974  1
  O  O58  1  0.695917  0.577951  0.316592  1
  O  O59  1  0.127498  0.872502  0.981186  1
  O  O60  1  0.980707  0.770299  0.331008  1
  O  O61  1  0.284182  0.715818  0.375980  1
  O  O62  1  0.248089  0.751911  0.573888  1
  O  O63  1  0.733360  0.758433  0.405913  1
  O  O64  1  0.770299  0.980707  0.668992  1
  O  O65  1  0.816539  0.554028  0.818281  1
  O  O66  1  0.519293  0.729701  0.831008  1
  O  O67  1  0.784182  0.215818  0.124020  1
  O  O68  1  0.480707  0.270299  0.168992  1
  O  O69  1  0.251911  0.748089  0.073888  1
  O  O70  1  0.445972  0.183461  0.818281  1
  O  O71  1  0.945972  0.683461  0.681719  1
  O  O72  1  0.922049  0.804083  0.183408  1
  O  O73  1  0.077951  0.195917  0.816592  1
  O  O74  1  0.258433  0.233360  0.905913  1
  O  O75  1  0.195917  0.077951  0.183408  1
  O  O76  1  0.554028  0.816539  0.181719  1
  O  O77  1  0.019293  0.229701  0.668992  1
  O  O78  1  0.054028  0.316539  0.318281  1
  O  O79  1  0.473724  0.773392  0.991026  1
  O  O80  1  0.273392  0.973724  0.491026  1
  O  O81  1  0.241567  0.266640  0.405913  1
  O  O82  1  0.627498  0.372502  0.518814  1
  O  O83  1  0.872502  0.127498  0.018814  1
  O  O84  1  0.248190  0.751810  0.766428  1
  O  O85  1  0.766640  0.741567  0.905913  1
  O  O86  1  0.233360  0.258433  0.094087  1
  O  O87  1  0.226608  0.526276  0.991026  1
  O  O88  1  0.973724  0.273392  0.508974  1
  O  O89  1  0.741567  0.766640  0.094087  1
  O  O90  1  0.229701  0.019293  0.331008  1
  O  O91  1  0.804083  0.922049  0.816592  1
  O  O92  1  0.251810  0.748190  0.266428  1
  O  O93  1  0.316539  0.054028  0.681719  1
  O  O94  1  0.266640  0.241567  0.594087  1
  O  O95  1  0.751911  0.248089  0.426112  1
  O  O96  1  0.372502  0.627498  0.481186  1
  O  O97  1  0.304083  0.422049  0.683408  1
  O  O98  1  0.422049  0.304083  0.316592  1
  O  O99  1  0.715818  0.284182  0.624020  1
  O  O100  1  0.683461  0.945972  0.318281  1
  O  O101  1  0.026276  0.726608  0.491026  1
  O  O102  1  0.577951  0.695917  0.683408  1
  O  O103  1  0.270299  0.480707  0.831008  1
