# generated using pymatgen
data_BaZnAs2O7
_symmetry_space_group_name_H-M   'P 1'
_cell_length_a   5.74581761
_cell_length_b   8.69105636
_cell_length_c   14.74737312
_cell_angle_alpha   90.00000000
_cell_angle_beta   112.77502198
_cell_angle_gamma   90.00000000
_symmetry_Int_Tables_number   1
_chemical_formula_structural   BaZnAs2O7
_chemical_formula_sum   'Ba4 Zn4 As8 O28'
_cell_volume   679.02390656
_cell_formula_units_Z   4
loop_
 _symmetry_equiv_pos_site_id
 _symmetry_equiv_pos_as_xyz
  1  'x, y, z'
loop_
 _atom_site_type_symbol
 _atom_site_label
 _atom_site_symmetry_multiplicity
 _atom_site_fract_x
 _atom_site_fract_y
 _atom_site_fract_z
 _atom_site_occupancy
  Ba  Ba0  1  0.500222  0.345893  0.714938  1
  Ba  Ba1  1  0.499778  0.845893  0.785062  1
  Ba  Ba2  1  0.499778  0.654107  0.285062  1
  Ba  Ba3  1  0.500222  0.154107  0.214938  1
  Zn  Zn4  1  0.780975  0.850796  0.112167  1
  Zn  Zn5  1  0.219025  0.350796  0.387833  1
  Zn  Zn6  1  0.780975  0.649204  0.612167  1
  Zn  Zn7  1  0.219025  0.149204  0.887833  1
  As  As8  1  0.093361  0.966696  0.342122  1
  As  As9  1  0.840921  0.314704  0.513436  1
  As  As10  1  0.906639  0.466696  0.157878  1
  As  As11  1  0.093361  0.533304  0.842122  1
  As  As12  1  0.159079  0.814704  0.986564  1
  As  As13  1  0.840921  0.185296  0.013436  1
  As  As14  1  0.906639  0.033304  0.657878  1
  As  As15  1  0.159079  0.685296  0.486564  1
  O  O16  1  0.174720  0.612633  0.962788  1
  O  O17  1  0.178355  0.379457  0.236367  1
  O  O18  1  0.825280  0.112633  0.537212  1
  O  O19  1  0.590825  0.164365  0.903141  1
  O  O20  1  0.660335  0.439719  0.191549  1
  O  O21  1  0.136680  0.151438  0.015643  1
  O  O22  1  0.196054  0.590622  0.390713  1
  O  O23  1  0.821645  0.879457  0.263633  1
  O  O24  1  0.409175  0.664365  0.596859  1
  O  O25  1  0.863320  0.651438  0.484357  1
  O  O26  1  0.803946  0.409378  0.609287  1
  O  O27  1  0.339665  0.560281  0.808451  1
  O  O28  1  0.409175  0.835635  0.096859  1
  O  O29  1  0.174720  0.887367  0.462788  1
  O  O30  1  0.825280  0.387367  0.037212  1
  O  O31  1  0.983365  0.654165  0.148886  1
  O  O32  1  0.983365  0.845835  0.648886  1
  O  O33  1  0.821645  0.620543  0.763633  1
  O  O34  1  0.016635  0.154165  0.351114  1
  O  O35  1  0.660335  0.060281  0.691549  1
  O  O36  1  0.016635  0.345835  0.851114  1
  O  O37  1  0.339665  0.939719  0.308451  1
  O  O38  1  0.196054  0.909378  0.890713  1
  O  O39  1  0.803946  0.090622  0.109287  1
  O  O40  1  0.136680  0.348562  0.515643  1
  O  O41  1  0.178355  0.120543  0.736367  1
  O  O42  1  0.590825  0.335635  0.403141  1
  O  O43  1  0.863320  0.848562  0.984357  1
