# generated using pymatgen
data_Th2Ru6C5
_symmetry_space_group_name_H-M   'P 1'
_cell_length_a   9.14905917
_cell_length_b   9.14905917
_cell_length_c   4.20164573
_cell_angle_alpha   90.00000000
_cell_angle_beta   90.00000000
_cell_angle_gamma   90.00000000
_symmetry_Int_Tables_number   1
_chemical_formula_structural   Th2Ru6C5
_chemical_formula_sum   'Th4 Ru12 C10'
_cell_volume   351.69994782
_cell_formula_units_Z   2
loop_
 _symmetry_equiv_pos_site_id
 _symmetry_equiv_pos_as_xyz
  1  'x, y, z'
loop_
 _atom_site_type_symbol
 _atom_site_label
 _atom_site_symmetry_multiplicity
 _atom_site_fract_x
 _atom_site_fract_y
 _atom_site_fract_z
 _atom_site_occupancy
  Th  Th0  1  0.326390  0.826390  0.500000  1
  Th  Th1  1  0.826390  0.673610  0.500000  1
  Th  Th2  1  0.173610  0.326390  0.500000  1
  Th  Th3  1  0.673610  0.173610  0.500000  1
  Ru  Ru4  1  0.711584  0.428681  0.000000  1
  Ru  Ru5  1  0.428681  0.288416  0.000000  1
  Ru  Ru6  1  0.500000  0.000000  0.000000  1
  Ru  Ru7  1  0.000000  0.500000  0.000000  1
  Ru  Ru8  1  0.000000  0.000000  0.500000  1
  Ru  Ru9  1  0.500000  0.500000  0.500000  1
  Ru  Ru10  1  0.788416  0.928681  0.000000  1
  Ru  Ru11  1  0.928681  0.211584  0.000000  1
  Ru  Ru12  1  0.071319  0.788416  0.000000  1
  Ru  Ru13  1  0.211584  0.071319  0.000000  1
  Ru  Ru14  1  0.571319  0.711584  0.000000  1
  Ru  Ru15  1  0.288416  0.571319  0.000000  1
  C  C16  1  0.500000  0.500000  0.000000  1
  C  C17  1  0.000000  0.000000  0.000000  1
  C  C18  1  0.874143  0.374143  0.670688  1
  C  C19  1  0.125857  0.625857  0.670688  1
  C  C20  1  0.874143  0.374143  0.329312  1
  C  C21  1  0.374143  0.125857  0.329312  1
  C  C22  1  0.625857  0.874143  0.329312  1
  C  C23  1  0.125857  0.625857  0.329312  1
  C  C24  1  0.625857  0.874143  0.670688  1
  C  C25  1  0.374143  0.125857  0.670688  1
