# generated using pymatgen
data_KNi(PO3)3
_symmetry_space_group_name_H-M   'P 1'
_cell_length_a   6.35072667
_cell_length_b   6.35072667
_cell_length_c   6.35072667
_cell_angle_alpha   107.10754878
_cell_angle_beta   107.10754878
_cell_angle_gamma   107.10754878
_symmetry_Int_Tables_number   1
_chemical_formula_structural   KNi(PO3)3
_chemical_formula_sum   'K1 Ni1 P3 O9'
_cell_volume   212.68341557
_cell_formula_units_Z   1
loop_
 _symmetry_equiv_pos_site_id
 _symmetry_equiv_pos_as_xyz
  1  'x, y, z'
loop_
 _atom_site_type_symbol
 _atom_site_label
 _atom_site_symmetry_multiplicity
 _atom_site_fract_x
 _atom_site_fract_y
 _atom_site_fract_z
 _atom_site_occupancy
  K  K0  1  0.493473  0.493473  0.493473  1
  Ni  Ni1  1  0.001327  0.001327  0.001327  1
  P  P2  1  0.479136  0.897705  0.031642  1
  P  P3  1  0.031642  0.479136  0.897705  1
  P  P4  1  0.897705  0.031642  0.479136  1
  O  O5  1  0.067955  0.098507  0.365126  1
  O  O6  1  0.098507  0.365126  0.067955  1
  O  O7  1  0.622392  0.870806  0.275886  1
  O  O8  1  0.638734  0.941379  0.901733  1
  O  O9  1  0.901733  0.638734  0.941379  1
  O  O10  1  0.275886  0.622392  0.870806  1
  O  O11  1  0.941379  0.901733  0.638734  1
  O  O12  1  0.365126  0.067955  0.098507  1
  O  O13  1  0.870806  0.275886  0.622392  1
