# generated using pymatgen
data_Bi(BO2)3
_symmetry_space_group_name_H-M   'P 1'
_cell_length_a   4.32477129
_cell_length_b   4.50488334
_cell_length_c   18.61563082
_cell_angle_alpha   90.00000000
_cell_angle_beta   90.00000000
_cell_angle_gamma   90.00000000
_symmetry_Int_Tables_number   1
_chemical_formula_structural   Bi(BO2)3
_chemical_formula_sum   'Bi4 B12 O24'
_cell_volume   362.68070535
_cell_formula_units_Z   4
loop_
 _symmetry_equiv_pos_site_id
 _symmetry_equiv_pos_as_xyz
  1  'x, y, z'
loop_
 _atom_site_type_symbol
 _atom_site_label
 _atom_site_symmetry_multiplicity
 _atom_site_fract_x
 _atom_site_fract_y
 _atom_site_fract_z
 _atom_site_occupancy
  Bi  Bi0  1  0.302468  0.156717  0.337571  1
  Bi  Bi1  1  0.802468  0.843283  0.662429  1
  Bi  Bi2  1  0.802468  0.156717  0.162429  1
  Bi  Bi3  1  0.302468  0.843283  0.837571  1
  B  B4  1  0.355826  0.327891  0.572348  1
  B  B5  1  0.384249  0.824909  0.498498  1
  B  B6  1  0.331410  0.364075  0.712797  1
  B  B7  1  0.855826  0.672109  0.427652  1
  B  B8  1  0.331410  0.635925  0.212797  1
  B  B9  1  0.855826  0.327891  0.927652  1
  B  B10  1  0.831410  0.635925  0.287203  1
  B  B11  1  0.355826  0.672109  0.072348  1
  B  B12  1  0.831410  0.364075  0.787203  1
  B  B13  1  0.884249  0.824909  0.001502  1
  B  B14  1  0.884249  0.175091  0.501502  1
  B  B15  1  0.384249  0.175091  0.998498  1
  O  O16  1  0.029857  0.872931  0.481672  1
  O  O17  1  0.430358  0.637775  0.560188  1
  O  O18  1  0.529857  0.872931  0.018328  1
  O  O19  1  0.463884  0.756422  0.145798  1
  O  O20  1  0.529857  0.127069  0.518328  1
  O  O21  1  0.835808  0.688747  0.788409  1
  O  O22  1  0.430358  0.362225  0.060188  1
  O  O23  1  0.526562  0.738108  0.432239  1
  O  O24  1  0.463884  0.243578  0.645798  1
  O  O25  1  0.029857  0.127069  0.981672  1
  O  O26  1  0.513676  0.748041  0.275411  1
  O  O27  1  0.026562  0.738108  0.067761  1
  O  O28  1  0.835808  0.311253  0.288409  1
  O  O29  1  0.013676  0.748041  0.224589  1
  O  O30  1  0.526562  0.261892  0.932239  1
  O  O31  1  0.930358  0.362225  0.439812  1
  O  O32  1  0.026562  0.261892  0.567761  1
  O  O33  1  0.013676  0.251959  0.724589  1
  O  O34  1  0.930358  0.637775  0.939812  1
  O  O35  1  0.513676  0.251959  0.775411  1
  O  O36  1  0.335808  0.688747  0.711591  1
  O  O37  1  0.963884  0.243578  0.854202  1
  O  O38  1  0.335808  0.311253  0.211591  1
  O  O39  1  0.963884  0.756422  0.354202  1
