# generated using pymatgen
data_Cs5Si3AgO9
_symmetry_space_group_name_H-M   'P 1'
_cell_length_a   9.89331453
_cell_length_b   6.62041916
_cell_length_c   11.79701706
_cell_angle_alpha   90.00000000
_cell_angle_beta   93.81898661
_cell_angle_gamma   90.00000000
_symmetry_Int_Tables_number   1
_chemical_formula_structural   Cs5Si3AgO9
_chemical_formula_sum   'Cs10 Si6 Ag2 O18'
_cell_volume   770.96394218
_cell_formula_units_Z   2
loop_
 _symmetry_equiv_pos_site_id
 _symmetry_equiv_pos_as_xyz
  1  'x, y, z'
loop_
 _atom_site_type_symbol
 _atom_site_label
 _atom_site_symmetry_multiplicity
 _atom_site_fract_x
 _atom_site_fract_y
 _atom_site_fract_z
 _atom_site_occupancy
  Cs  Cs0  1  0.339199  0.250000  0.936613  1
  Cs  Cs1  1  0.951975  0.750000  0.381434  1
  Cs  Cs2  1  0.222698  0.250000  0.314227  1
  Cs  Cs3  1  0.048025  0.250000  0.618566  1
  Cs  Cs4  1  0.725833  0.250000  0.858058  1
  Cs  Cs5  1  0.461172  0.250000  0.601768  1
  Cs  Cs6  1  0.660801  0.750000  0.063387  1
  Cs  Cs7  1  0.538828  0.750000  0.398232  1
  Cs  Cs8  1  0.274167  0.750000  0.141942  1
  Cs  Cs9  1  0.777302  0.750000  0.685773  1
  Si  Si10  1  0.869849  0.250000  0.200647  1
  Si  Si11  1  0.130151  0.750000  0.799353  1
  Si  Si12  1  0.557263  0.250000  0.209538  1
  Si  Si13  1  0.253680  0.750000  0.564847  1
  Si  Si14  1  0.746320  0.250000  0.435153  1
  Si  Si15  1  0.442737  0.750000  0.790462  1
  Ag  Ag16  1  0.000000  0.000000  0.000000  1
  Ag  Ag17  1  0.000000  0.500000  0.000000  1
  O  O18  1  0.756992  0.456646  0.507922  1
  O  O19  1  0.052972  0.957696  0.835133  1
  O  O20  1  0.947028  0.457696  0.164867  1
  O  O21  1  0.476173  0.455799  0.175093  1
  O  O22  1  0.243008  0.956646  0.492078  1
  O  O23  1  0.476173  0.044201  0.175093  1
  O  O24  1  0.709283  0.250000  0.147407  1
  O  O25  1  0.129100  0.750000  0.658598  1
  O  O26  1  0.398766  0.750000  0.649761  1
  O  O27  1  0.947028  0.042304  0.164867  1
  O  O28  1  0.601234  0.250000  0.350239  1
  O  O29  1  0.052972  0.542304  0.835133  1
  O  O30  1  0.290717  0.750000  0.852593  1
  O  O31  1  0.243008  0.543354  0.492078  1
  O  O32  1  0.523827  0.544201  0.824907  1
  O  O33  1  0.756992  0.043354  0.507922  1
  O  O34  1  0.523827  0.955799  0.824907  1
  O  O35  1  0.870900  0.250000  0.341402  1
