# generated using pymatgen
data_In3Au7
_symmetry_space_group_name_H-M   'P 1'
_cell_length_a   12.50937962
_cell_length_b   12.50937962
_cell_length_c   8.74973271
_cell_angle_alpha   90.00000000
_cell_angle_beta   90.00000000
_cell_angle_gamma   120.00000000
_symmetry_Int_Tables_number   1
_chemical_formula_structural   In3Au7
_chemical_formula_sum   'In18 Au42'
_cell_volume   1185.76045435
_cell_formula_units_Z   6
loop_
 _symmetry_equiv_pos_site_id
 _symmetry_equiv_pos_as_xyz
  1  'x, y, z'
loop_
 _atom_site_type_symbol
 _atom_site_label
 _atom_site_symmetry_multiplicity
 _atom_site_fract_x
 _atom_site_fract_y
 _atom_site_fract_z
 _atom_site_occupancy
  In  In0  1  0.690750  0.165810  0.460898  1
  In  In1  1  0.524940  0.690750  0.539102  1
  In  In2  1  0.141041  0.643101  0.041236  1
  In  In3  1  0.497940  0.141041  0.958764  1
  In  In4  1  0.834190  0.524940  0.460898  1
  In  In5  1  0.833552  0.812949  0.751340  1
  In  In6  1  0.020603  0.833552  0.248660  1
  In  In7  1  0.356899  0.497940  0.041236  1
  In  In8  1  0.812949  0.979397  0.248660  1
  In  In9  1  0.643101  0.502060  0.958764  1
  In  In10  1  0.166448  0.187051  0.248660  1
  In  In11  1  0.187051  0.020603  0.751340  1
  In  In12  1  0.165810  0.475060  0.539102  1
  In  In13  1  0.309250  0.834190  0.539102  1
  In  In14  1  0.858959  0.356899  0.958764  1
  In  In15  1  0.979397  0.166448  0.751340  1
  In  In16  1  0.502060  0.858959  0.041236  1
  In  In17  1  0.475060  0.309250  0.460898  1
  Au  Au18  1  0.223000  0.229839  0.573972  1
  Au  Au19  1  0.993161  0.223000  0.426028  1
  Au  Au20  1  0.355286  0.441628  0.365783  1
  Au  Au21  1  0.229839  0.006839  0.426028  1
  Au  Au22  1  0.529483  0.887755  0.704500  1
  Au  Au23  1  0.794051  0.757131  0.084558  1
  Au  Au24  1  0.893165  0.578337  0.125756  1
  Au  Au25  1  0.333333  0.666667  0.324847  1
  Au  Au26  1  0.333333  0.666667  0.833881  1
  Au  Au27  1  0.913658  0.355286  0.634217  1
  Au  Au28  1  0.862649  0.560775  0.791081  1
  Au  Au29  1  0.441628  0.086342  0.634217  1
  Au  Au30  1  0.301874  0.862649  0.208919  1
  Au  Au31  1  0.421663  0.314828  0.125756  1
  Au  Au32  1  0.106835  0.421663  0.874244  1
  Au  Au33  1  0.777000  0.770161  0.426028  1
  Au  Au34  1  0.685172  0.106835  0.125756  1
  Au  Au35  1  0.963080  0.205949  0.084558  1
  Au  Au36  1  0.137351  0.439225  0.208919  1
  Au  Au37  1  0.086342  0.644714  0.365783  1
  Au  Au38  1  0.558372  0.913658  0.365783  1
  Au  Au39  1  0.641728  0.529483  0.295500  1
  Au  Au40  1  0.698126  0.137351  0.791081  1
  Au  Au41  1  0.112245  0.641728  0.704500  1
  Au  Au42  1  0.036920  0.794051  0.915442  1
  Au  Au43  1  0.666667  0.333333  0.166119  1
  Au  Au44  1  0.757131  0.963080  0.915442  1
  Au  Au45  1  0.006839  0.777000  0.573972  1
  Au  Au46  1  0.770161  0.993161  0.573972  1
  Au  Au47  1  0.666667  0.333333  0.675153  1
  Au  Au48  1  0.470517  0.112245  0.295500  1
  Au  Au49  1  0.000000  0.000000  0.000000  1
  Au  Au50  1  0.314828  0.893165  0.874244  1
  Au  Au51  1  0.578337  0.685172  0.874244  1
  Au  Au52  1  0.887755  0.358272  0.295500  1
  Au  Au53  1  0.644714  0.558372  0.634217  1
  Au  Au54  1  0.358272  0.470517  0.704500  1
  Au  Au55  1  0.439225  0.301874  0.791081  1
  Au  Au56  1  0.560775  0.698126  0.208919  1
  Au  Au57  1  0.205949  0.242869  0.915442  1
  Au  Au58  1  0.242869  0.036920  0.084558  1
  Au  Au59  1  0.000000  0.000000  0.500000  1
