# generated using pymatgen
data_Er3CuSiS7
_symmetry_space_group_name_H-M   'P 1'
_cell_length_a   9.80957933
_cell_length_b   9.80957933
_cell_length_c   5.69736703
_cell_angle_alpha   90.00000000
_cell_angle_beta   90.00000000
_cell_angle_gamma   120.00000000
_symmetry_Int_Tables_number   1
_chemical_formula_structural   Er3CuSiS7
_chemical_formula_sum   'Er6 Cu2 Si2 S14'
_cell_volume   474.79441016
_cell_formula_units_Z   2
loop_
 _symmetry_equiv_pos_site_id
 _symmetry_equiv_pos_as_xyz
  1  'x, y, z'
loop_
 _atom_site_type_symbol
 _atom_site_label
 _atom_site_symmetry_multiplicity
 _atom_site_fract_x
 _atom_site_fract_y
 _atom_site_fract_z
 _atom_site_occupancy
  Er  Er0  1  0.132584  0.357726  0.744548  1
  Er  Er1  1  0.774858  0.132584  0.244548  1
  Er  Er2  1  0.867416  0.642274  0.244548  1
  Er  Er3  1  0.357726  0.225142  0.244548  1
  Er  Er4  1  0.225142  0.867416  0.744548  1
  Er  Er5  1  0.642274  0.774858  0.744548  1
  Cu  Cu6  1  0.000000  0.000000  0.193950  1
  Cu  Cu7  1  0.000000  0.000000  0.693950  1
  Si  Si8  1  0.666667  0.333333  0.832390  1
  Si  Si9  1  0.333333  0.666667  0.332390  1
  S  S10  1  0.419180  0.523623  0.483505  1
  S  S11  1  0.260161  0.161804  0.711703  1
  S  S12  1  0.476377  0.895558  0.483505  1
  S  S13  1  0.104442  0.580820  0.483505  1
  S  S14  1  0.580820  0.476377  0.983505  1
  S  S15  1  0.739839  0.838196  0.211702  1
  S  S16  1  0.901642  0.739839  0.711703  1
  S  S17  1  0.523623  0.104442  0.983505  1
  S  S18  1  0.838196  0.098358  0.711703  1
  S  S19  1  0.161804  0.901642  0.211702  1
  S  S20  1  0.098358  0.260161  0.211702  1
  S  S21  1  0.895558  0.419180  0.983505  1
  S  S22  1  0.666667  0.333333  0.460969  1
  S  S23  1  0.333333  0.666667  0.960969  1
