# generated using pymatgen
data_KFePO4
_symmetry_space_group_name_H-M   'P 1'
_cell_length_a   9.87956684
_cell_length_b   8.84079355
_cell_length_c   11.15101734
_cell_angle_alpha   90.00000000
_cell_angle_beta   116.93408728
_cell_angle_gamma   90.00000000
_symmetry_Int_Tables_number   1
_chemical_formula_structural   KFePO4
_chemical_formula_sum   'K8 Fe8 P8 O32'
_cell_volume   868.31785207
_cell_formula_units_Z   8
loop_
 _symmetry_equiv_pos_site_id
 _symmetry_equiv_pos_as_xyz
  1  'x, y, z'
loop_
 _atom_site_type_symbol
 _atom_site_label
 _atom_site_symmetry_multiplicity
 _atom_site_fract_x
 _atom_site_fract_y
 _atom_site_fract_z
 _atom_site_occupancy
  K  K0  1  0.532772  0.996571  0.341090  1
  K  K1  1  0.937445  0.474263  0.169289  1
  K  K2  1  0.467228  0.003429  0.658910  1
  K  K3  1  0.467228  0.496571  0.158910  1
  K  K4  1  0.532772  0.503429  0.841090  1
  K  K5  1  0.062555  0.525737  0.830711  1
  K  K6  1  0.937445  0.025737  0.669289  1
  K  K7  1  0.062555  0.974263  0.330711  1
  Fe  Fe8  1  0.653032  0.124238  0.058553  1
  Fe  Fe9  1  0.346968  0.624238  0.441447  1
  Fe  Fe10  1  0.848381  0.652022  0.455508  1
  Fe  Fe11  1  0.653032  0.375762  0.558553  1
  Fe  Fe12  1  0.848381  0.847978  0.955508  1
  Fe  Fe13  1  0.151619  0.152022  0.044492  1
  Fe  Fe14  1  0.151619  0.347978  0.544492  1
  Fe  Fe15  1  0.346968  0.875762  0.941447  1
  P  P16  1  0.305908  0.192952  0.852712  1
  P  P17  1  0.694092  0.692952  0.647288  1
  P  P18  1  0.197356  0.717000  0.629130  1
  P  P19  1  0.802644  0.217000  0.870870  1
  P  P20  1  0.305908  0.307048  0.352712  1
  P  P21  1  0.197356  0.783000  0.129130  1
  P  P22  1  0.694092  0.807048  0.147288  1
  P  P23  1  0.802644  0.283000  0.370870  1
  O  O24  1  0.310327  0.792383  0.762766  1
  O  O25  1  0.781486  0.577556  0.596540  1
  O  O26  1  0.458382  0.391400  0.384738  1
  O  O27  1  0.541618  0.608600  0.615262  1
  O  O28  1  0.669257  0.844023  0.574957  1
  O  O29  1  0.330743  0.344023  0.925043  1
  O  O30  1  0.211982  0.957941  0.148607  1
  O  O31  1  0.031570  0.765286  0.593370  1
  O  O32  1  0.541618  0.891400  0.115262  1
  O  O33  1  0.788018  0.042059  0.851393  1
  O  O34  1  0.211982  0.542059  0.648607  1
  O  O35  1  0.788691  0.703172  0.802326  1
  O  O36  1  0.968430  0.265286  0.906630  1
  O  O37  1  0.330743  0.155977  0.425043  1
  O  O38  1  0.211309  0.203172  0.697674  1
  O  O39  1  0.218514  0.077556  0.903460  1
  O  O40  1  0.218514  0.422444  0.403460  1
  O  O41  1  0.689673  0.207617  0.237234  1
  O  O42  1  0.031570  0.734714  0.093370  1
  O  O43  1  0.237560  0.731754  0.015607  1
  O  O44  1  0.788018  0.457941  0.351393  1
  O  O45  1  0.458382  0.108600  0.884738  1
  O  O46  1  0.689673  0.292383  0.737234  1
  O  O47  1  0.669257  0.655977  0.074957  1
  O  O48  1  0.762440  0.268246  0.984393  1
  O  O49  1  0.211309  0.296828  0.197674  1
  O  O50  1  0.762440  0.231754  0.484393  1
  O  O51  1  0.788691  0.796828  0.302326  1
  O  O52  1  0.781486  0.922444  0.096540  1
  O  O53  1  0.310327  0.707617  0.262766  1
  O  O54  1  0.968430  0.234714  0.406630  1
  O  O55  1  0.237560  0.768246  0.515607  1
