# generated using pymatgen
data_Tb(PRu)2
_symmetry_space_group_name_H-M   'P 1'
_cell_length_a   5.59965899
_cell_length_b   5.59965899
_cell_length_c   5.59965899
_cell_angle_alpha   137.47982484
_cell_angle_beta   137.47982484
_cell_angle_gamma   61.70061224
_symmetry_Int_Tables_number   1
_chemical_formula_structural   Tb(PRu)2
_chemical_formula_sum   'Tb1 P2 Ru2'
_cell_volume   79.27765020
_cell_formula_units_Z   1
loop_
 _symmetry_equiv_pos_site_id
 _symmetry_equiv_pos_as_xyz
  1  'x, y, z'
loop_
 _atom_site_type_symbol
 _atom_site_label
 _atom_site_symmetry_multiplicity
 _atom_site_fract_x
 _atom_site_fract_y
 _atom_site_fract_z
 _atom_site_occupancy
  Tb  Tb0  1  0.000000  0.000000  0.000000  1
  P  P1  1  0.374698  0.374698  0.000000  1
  P  P2  1  0.625302  0.625302  0.000000  1
  Ru  Ru3  1  0.250000  0.750000  0.500000  1
  Ru  Ru4  1  0.750000  0.250000  0.500000  1
