# generated using pymatgen
data_S4IN3Cl2
_symmetry_space_group_name_H-M   'P 1'
_cell_length_a   6.46279838
_cell_length_b   9.25542632
_cell_length_c   18.21867344
_cell_angle_alpha   90.00000000
_cell_angle_beta   92.95896761
_cell_angle_gamma   90.00000000
_symmetry_Int_Tables_number   1
_chemical_formula_structural   S4IN3Cl2
_chemical_formula_sum   'S16 I4 N12 Cl8'
_cell_volume   1088.31441462
_cell_formula_units_Z   4
loop_
 _symmetry_equiv_pos_site_id
 _symmetry_equiv_pos_as_xyz
  1  'x, y, z'
loop_
 _atom_site_type_symbol
 _atom_site_label
 _atom_site_symmetry_multiplicity
 _atom_site_fract_x
 _atom_site_fract_y
 _atom_site_fract_z
 _atom_site_occupancy
  S  S0  1  0.782874  0.256472  0.760216  1
  S  S1  1  0.991568  0.396884  0.894430  1
  S  S2  1  0.534623  0.156975  0.813785  1
  S  S3  1  0.217126  0.743528  0.239784  1
  S  S4  1  0.008432  0.603116  0.105570  1
  S  S5  1  0.217126  0.756472  0.739784  1
  S  S6  1  0.349929  0.756997  0.531301  1
  S  S7  1  0.008432  0.896884  0.605570  1
  S  S8  1  0.650071  0.243003  0.468699  1
  S  S9  1  0.465377  0.656975  0.686215  1
  S  S10  1  0.991568  0.103116  0.394430  1
  S  S11  1  0.534623  0.343025  0.313785  1
  S  S12  1  0.349929  0.743003  0.031301  1
  S  S13  1  0.782874  0.243528  0.260216  1
  S  S14  1  0.465377  0.843025  0.186215  1
  S  S15  1  0.650071  0.256997  0.968699  1
  I  I16  1  0.776286  0.709853  0.372205  1
  I  I17  1  0.223714  0.290147  0.627795  1
  I  I18  1  0.223714  0.209853  0.127795  1
  I  I19  1  0.776286  0.790147  0.872205  1
  N  N20  1  0.147741  0.850679  0.540538  1
  N  N21  1  0.543985  0.310035  0.398347  1
  N  N22  1  0.456015  0.810035  0.101653  1
  N  N23  1  0.852259  0.350679  0.959462  1
  N  N24  1  0.928723  0.342858  0.815956  1
  N  N25  1  0.456015  0.689965  0.601653  1
  N  N26  1  0.071277  0.842858  0.684044  1
  N  N27  1  0.852259  0.149321  0.459462  1
  N  N28  1  0.543985  0.189965  0.898347  1
  N  N29  1  0.147741  0.649321  0.040538  1
  N  N30  1  0.071277  0.657142  0.184044  1
  N  N31  1  0.928723  0.157142  0.315956  1
  Cl  Cl32  1  0.510196  0.088840  0.652792  1
  Cl  Cl33  1  0.489804  0.911160  0.347208  1
  Cl  Cl34  1  0.489804  0.588840  0.847208  1
  Cl  Cl35  1  0.510196  0.411160  0.152792  1
  Cl  Cl36  1  0.953008  0.481782  0.607678  1
  Cl  Cl37  1  0.046992  0.518218  0.392322  1
  Cl  Cl38  1  0.953008  0.018218  0.107678  1
  Cl  Cl39  1  0.046992  0.981782  0.892322  1
