# generated using pymatgen
data_Rb2AgC3(SN)3
_symmetry_space_group_name_H-M   'P 1'
_cell_length_a   7.97564301
_cell_length_b   16.35561462
_cell_length_c   9.51346702
_cell_angle_alpha   90.00000000
_cell_angle_beta   107.79124984
_cell_angle_gamma   90.00000000
_symmetry_Int_Tables_number   1
_chemical_formula_structural   Rb2AgC3(SN)3
_chemical_formula_sum   'Rb8 Ag4 C12 S12 N12'
_cell_volume   1181.64944122
_cell_formula_units_Z   4
loop_
 _symmetry_equiv_pos_site_id
 _symmetry_equiv_pos_as_xyz
  1  'x, y, z'
loop_
 _atom_site_type_symbol
 _atom_site_label
 _atom_site_symmetry_multiplicity
 _atom_site_fract_x
 _atom_site_fract_y
 _atom_site_fract_z
 _atom_site_occupancy
  Rb  Rb0  1  0.177528  0.992420  0.358694  1
  Rb  Rb1  1  0.540263  0.843692  0.190040  1
  Rb  Rb2  1  0.959737  0.343692  0.809960  1
  Rb  Rb3  1  0.040263  0.656308  0.190040  1
  Rb  Rb4  1  0.822472  0.007580  0.641306  1
  Rb  Rb5  1  0.459737  0.156308  0.809960  1
  Rb  Rb6  1  0.677528  0.507580  0.358694  1
  Rb  Rb7  1  0.322472  0.492420  0.641306  1
  Ag  Ag8  1  0.271212  0.758917  0.754589  1
  Ag  Ag9  1  0.771212  0.741083  0.754589  1
  Ag  Ag10  1  0.728788  0.241083  0.245411  1
  Ag  Ag11  1  0.228788  0.258917  0.245411  1
  C  C12  1  0.005796  0.847682  0.054248  1
  C  C13  1  0.118967  0.451910  0.254008  1
  C  C14  1  0.927288  0.812915  0.484126  1
  C  C15  1  0.618967  0.048090  0.254008  1
  C  C16  1  0.572712  0.312915  0.515874  1
  C  C17  1  0.494204  0.347682  0.945752  1
  C  C18  1  0.072712  0.187085  0.515874  1
  C  C19  1  0.381033  0.951910  0.745992  1
  C  C20  1  0.505796  0.652318  0.054248  1
  C  C21  1  0.881033  0.548090  0.745992  1
  C  C22  1  0.994204  0.152318  0.945752  1
  C  C23  1  0.427288  0.687085  0.484126  1
  S  S24  1  0.541998  0.222240  0.436411  1
  S  S25  1  0.736191  0.091943  0.159869  1
  S  S26  1  0.809877  0.860588  0.933638  1
  S  S27  1  0.458002  0.777760  0.563589  1
  S  S28  1  0.309877  0.639412  0.933638  1
  S  S29  1  0.958002  0.722240  0.563589  1
  S  S30  1  0.763809  0.591943  0.840131  1
  S  S31  1  0.263809  0.908057  0.840131  1
  S  S32  1  0.236191  0.408057  0.159869  1
  S  S33  1  0.690123  0.360588  0.066362  1
  S  S34  1  0.041998  0.277760  0.436411  1
  S  S35  1  0.190123  0.139412  0.066362  1
  N  N36  1  0.354320  0.339489  0.855911  1
  N  N37  1  0.964305  0.514354  0.679051  1
  N  N38  1  0.645680  0.660511  0.144089  1
  N  N39  1  0.145680  0.839489  0.144089  1
  N  N40  1  0.904074  0.877605  0.424944  1
  N  N41  1  0.464305  0.985646  0.679051  1
  N  N42  1  0.535695  0.014354  0.320949  1
  N  N43  1  0.404074  0.622395  0.424944  1
  N  N44  1  0.854320  0.160511  0.855911  1
  N  N45  1  0.595926  0.377605  0.575056  1
  N  N46  1  0.035695  0.485646  0.320949  1
  N  N47  1  0.095926  0.122395  0.575056  1
