# generated using pymatgen
data_K4V5CuClO15
_symmetry_space_group_name_H-M   'P 1'
_cell_length_a   8.97799465
_cell_length_b   8.97799465
_cell_length_c   5.66323722
_cell_angle_alpha   90.00000000
_cell_angle_beta   90.00000000
_cell_angle_gamma   90.00000000
_symmetry_Int_Tables_number   1
_chemical_formula_structural   K4V5CuClO15
_chemical_formula_sum   'K4 V5 Cu1 Cl1 O15'
_cell_volume   456.48176985
_cell_formula_units_Z   1
loop_
 _symmetry_equiv_pos_site_id
 _symmetry_equiv_pos_as_xyz
  1  'x, y, z'
loop_
 _atom_site_type_symbol
 _atom_site_label
 _atom_site_symmetry_multiplicity
 _atom_site_fract_x
 _atom_site_fract_y
 _atom_site_fract_z
 _atom_site_occupancy
  K  K0  1  0.154228  0.687264  0.425057  1
  K  K1  1  0.687264  0.845772  0.425057  1
  K  K2  1  0.312736  0.154228  0.425057  1
  K  K3  1  0.845772  0.312736  0.425057  1
  V  V4  1  0.861847  0.630301  0.896613  1
  V  V5  1  0.369699  0.861847  0.896613  1
  V  V6  1  0.630301  0.138153  0.896613  1
  V  V7  1  0.500000  0.500000  0.860433  1
  V  V8  1  0.138153  0.369699  0.896613  1
  Cu  Cu9  1  0.000000  0.000000  0.844469  1
  Cl  Cl10  1  0.000000  0.000000  0.295962  1
  O  O11  1  0.906968  0.804469  0.798047  1
  O  O12  1  0.000000  0.500000  0.777826  1
  O  O13  1  0.500000  0.000000  0.777826  1
  O  O14  1  0.416261  0.685674  0.770881  1
  O  O15  1  0.620402  0.141180  0.190708  1
  O  O16  1  0.314326  0.416261  0.770881  1
  O  O17  1  0.141180  0.379598  0.190708  1
  O  O18  1  0.195531  0.906968  0.798047  1
  O  O19  1  0.093032  0.195531  0.798047  1
  O  O20  1  0.685674  0.583739  0.770881  1
  O  O21  1  0.858820  0.620402  0.190708  1
  O  O22  1  0.583739  0.314326  0.770881  1
  O  O23  1  0.500000  0.500000  0.146469  1
  O  O24  1  0.379598  0.858820  0.190708  1
  O  O25  1  0.804469  0.093032  0.798047  1
