# generated using pymatgen
data_Pr3SiSe2N3
_symmetry_space_group_name_H-M   'P 1'
_cell_length_a   11.59070479
_cell_length_b   11.59070479
_cell_length_c   11.59070479
_cell_angle_alpha   111.30250812
_cell_angle_beta   111.30250812
_cell_angle_gamma   111.30250812
_symmetry_Int_Tables_number   1
_chemical_formula_structural   Pr3SiSe2N3
_chemical_formula_sum   'Pr18 Si6 Se12 N18'
_cell_volume   1110.01887672
_cell_formula_units_Z   6
loop_
 _symmetry_equiv_pos_site_id
 _symmetry_equiv_pos_as_xyz
  1  'x, y, z'
loop_
 _atom_site_type_symbol
 _atom_site_label
 _atom_site_symmetry_multiplicity
 _atom_site_fract_x
 _atom_site_fract_y
 _atom_site_fract_z
 _atom_site_occupancy
  Pr  Pr0  1  0.031563  0.870426  0.750786  1
  Pr  Pr1  1  0.285549  0.657071  0.602310  1
  Pr  Pr2  1  0.968437  0.129574  0.249214  1
  Pr  Pr3  1  0.397690  0.714451  0.342929  1
  Pr  Pr4  1  0.443135  0.169105  0.958166  1
  Pr  Pr5  1  0.714451  0.342929  0.397690  1
  Pr  Pr6  1  0.750786  0.031563  0.870426  1
  Pr  Pr7  1  0.249214  0.968437  0.129574  1
  Pr  Pr8  1  0.041834  0.556865  0.830895  1
  Pr  Pr9  1  0.657071  0.602310  0.285549  1
  Pr  Pr10  1  0.958166  0.443135  0.169105  1
  Pr  Pr11  1  0.870426  0.750786  0.031563  1
  Pr  Pr12  1  0.169105  0.958166  0.443135  1
  Pr  Pr13  1  0.342929  0.397690  0.714451  1
  Pr  Pr14  1  0.556865  0.830895  0.041834  1
  Pr  Pr15  1  0.129574  0.249214  0.968437  1
  Pr  Pr16  1  0.830895  0.041834  0.556865  1
  Pr  Pr17  1  0.602310  0.285549  0.657071  1
  Si  Si18  1  0.609268  0.710461  0.788782  1
  Si  Si19  1  0.211218  0.390732  0.289539  1
  Si  Si20  1  0.788782  0.609268  0.710461  1
  Si  Si21  1  0.289539  0.211218  0.390732  1
  Si  Si22  1  0.710461  0.788782  0.609268  1
  Si  Si23  1  0.390732  0.289539  0.211218  1
  Se  Se24  1  0.122730  0.707262  0.165330  1
  Se  Se25  1  0.707262  0.165330  0.122730  1
  Se  Se26  1  0.559246  0.025725  0.353033  1
  Se  Se27  1  0.025725  0.353033  0.559246  1
  Se  Se28  1  0.646967  0.440754  0.974275  1
  Se  Se29  1  0.974275  0.646967  0.440754  1
  Se  Se30  1  0.834670  0.877270  0.292738  1
  Se  Se31  1  0.292738  0.834670  0.877270  1
  Se  Se32  1  0.877270  0.292738  0.834670  1
  Se  Se33  1  0.353033  0.559246  0.025725  1
  Se  Se34  1  0.440754  0.974275  0.646967  1
  Se  Se35  1  0.165330  0.122730  0.707262  1
  N  N36  1  0.210905  0.551188  0.353305  1
  N  N37  1  0.022233  0.250529  0.121778  1
  N  N38  1  0.584432  0.761645  0.661983  1
  N  N39  1  0.977767  0.749471  0.878222  1
  N  N40  1  0.749471  0.878222  0.977767  1
  N  N41  1  0.415568  0.238355  0.338017  1
  N  N42  1  0.878222  0.977767  0.749471  1
  N  N43  1  0.121778  0.022233  0.250529  1
  N  N44  1  0.661983  0.584432  0.761645  1
  N  N45  1  0.250529  0.121778  0.022233  1
  N  N46  1  0.338017  0.415568  0.238355  1
  N  N47  1  0.646695  0.789095  0.448812  1
  N  N48  1  0.353305  0.210905  0.551188  1
  N  N49  1  0.238355  0.338017  0.415568  1
  N  N50  1  0.789095  0.448812  0.646695  1
  N  N51  1  0.761645  0.661983  0.584432  1
  N  N52  1  0.448812  0.646695  0.789095  1
  N  N53  1  0.551188  0.353305  0.210905  1
