# generated using pymatgen
data_CsPH3O3F
_symmetry_space_group_name_H-M   'P 1'
_cell_length_a   5.75090724
_cell_length_b   4.96940828
_cell_length_c   18.65610028
_cell_angle_alpha   90.00000000
_cell_angle_beta   92.93598956
_cell_angle_gamma   90.00000000
_symmetry_Int_Tables_number   1
_chemical_formula_structural   CsPH3O3F
_chemical_formula_sum   'Cs4 P4 H12 O12 F4'
_cell_volume   532.46549781
_cell_formula_units_Z   4
loop_
 _symmetry_equiv_pos_site_id
 _symmetry_equiv_pos_as_xyz
  1  'x, y, z'
loop_
 _atom_site_type_symbol
 _atom_site_label
 _atom_site_symmetry_multiplicity
 _atom_site_fract_x
 _atom_site_fract_y
 _atom_site_fract_z
 _atom_site_occupancy
  Cs  Cs0  1  0.278365  0.660441  0.084758  1
  Cs  Cs1  1  0.721635  0.339559  0.915242  1
  Cs  Cs2  1  0.721635  0.160441  0.415242  1
  Cs  Cs3  1  0.278365  0.839559  0.584758  1
  P  P4  1  0.800442  0.211962  0.175305  1
  P  P5  1  0.199558  0.788038  0.824695  1
  P  P6  1  0.800442  0.288038  0.675305  1
  P  P7  1  0.199558  0.711962  0.324695  1
  H  H8  1  0.176713  0.074321  0.255809  1
  H  H9  1  0.256253  0.472638  0.441406  1
  H  H10  1  0.176713  0.425679  0.755809  1
  H  H11  1  0.743747  0.972638  0.058594  1
  H  H12  1  0.682107  0.054900  0.224931  1
  H  H13  1  0.823287  0.925679  0.744191  1
  H  H14  1  0.682107  0.445100  0.724931  1
  H  H15  1  0.317893  0.945100  0.775069  1
  H  H16  1  0.743747  0.527362  0.558594  1
  H  H17  1  0.256253  0.027362  0.941406  1
  H  H18  1  0.317893  0.554900  0.275069  1
  H  H19  1  0.823287  0.574321  0.244191  1
  O  O20  1  0.940308  0.651335  0.316493  1
  O  O21  1  0.315658  0.832237  0.899423  1
  O  O22  1  0.940308  0.848665  0.816493  1
  O  O23  1  0.741770  0.514046  0.195880  1
  O  O24  1  0.059692  0.348665  0.683507  1
  O  O25  1  0.684342  0.332237  0.600577  1
  O  O26  1  0.059692  0.151335  0.183507  1
  O  O27  1  0.258230  0.014046  0.304120  1
  O  O28  1  0.258230  0.485954  0.804120  1
  O  O29  1  0.741770  0.985954  0.695880  1
  O  O30  1  0.315658  0.667763  0.399423  1
  O  O31  1  0.684342  0.167763  0.100577  1
  F  F32  1  0.778792  0.684852  0.521282  1
  F  F33  1  0.221208  0.184852  0.978718  1
  F  F34  1  0.221208  0.315148  0.478718  1
  F  F35  1  0.778792  0.815148  0.021282  1
