# generated using pymatgen
data_Cs4Sc6CCl13
_symmetry_space_group_name_H-M   'P 1'
_cell_length_a   12.17821004
_cell_length_b   12.17821004
_cell_length_c   12.17821004
_cell_angle_alpha   100.75655224
_cell_angle_beta   100.75655224
_cell_angle_gamma   128.80907398
_symmetry_Int_Tables_number   1
_chemical_formula_structural   Cs4Sc6CCl13
_chemical_formula_sum   'Cs8 Sc12 C2 Cl26'
_cell_volume   1269.29706111
_cell_formula_units_Z   2
loop_
 _symmetry_equiv_pos_site_id
 _symmetry_equiv_pos_as_xyz
  1  'x, y, z'
loop_
 _atom_site_type_symbol
 _atom_site_label
 _atom_site_symmetry_multiplicity
 _atom_site_fract_x
 _atom_site_fract_y
 _atom_site_fract_z
 _atom_site_occupancy
  Cs  Cs0  1  0.154858  0.154858  0.309717  1
  Cs  Cs1  1  0.154858  0.845142  0.000000  1
  Cs  Cs2  1  0.845142  0.845142  0.690283  1
  Cs  Cs3  1  0.095142  0.904858  0.500000  1
  Cs  Cs4  1  0.404858  0.595142  0.500000  1
  Cs  Cs5  1  0.845142  0.154858  0.000000  1
  Cs  Cs6  1  0.404858  0.904858  0.809717  1
  Cs  Cs7  1  0.095142  0.595142  0.190283  1
  Sc  Sc8  1  0.353702  0.498244  0.855459  1
  Sc  Sc9  1  0.748244  0.103702  0.355459  1
  Sc  Sc10  1  0.748244  0.392785  0.644541  1
  Sc  Sc11  1  0.286260  0.286260  0.000000  1
  Sc  Sc12  1  0.642785  0.498244  0.144541  1
  Sc  Sc13  1  0.963740  0.463740  0.500000  1
  Sc  Sc14  1  0.536260  0.036260  0.500000  1
  Sc  Sc15  1  0.501756  0.646298  0.144541  1
  Sc  Sc16  1  0.713740  0.713740  0.000000  1
  Sc  Sc17  1  0.501756  0.357215  0.855459  1
  Sc  Sc18  1  0.896298  0.251756  0.644541  1
  Sc  Sc19  1  0.607215  0.251756  0.355459  1
  C  C20  1  0.500000  0.500000  0.000000  1
  C  C21  1  0.750000  0.250000  0.500000  1
  Cl  Cl22  1  0.579499  0.746033  0.833466  1
  Cl  Cl23  1  0.335210  0.664790  0.000000  1
  Cl  Cl24  1  0.664790  0.335210  0.000000  1
  Cl  Cl25  1  0.418968  0.252548  0.166420  1
  Cl  Cl26  1  0.670501  0.003967  0.666534  1
  Cl  Cl27  1  0.253967  0.087433  0.833466  1
  Cl  Cl28  1  0.747452  0.913872  0.166420  1
  Cl  Cl29  1  0.747452  0.581032  0.833580  1
  Cl  Cl30  1  0.502548  0.836128  0.333580  1
  Cl  Cl31  1  0.585210  0.085210  0.170420  1
  Cl  Cl32  1  0.086128  0.252548  0.833580  1
  Cl  Cl33  1  0.831032  0.497452  0.333580  1
  Cl  Cl34  1  0.337433  0.003967  0.333466  1
  Cl  Cl35  1  0.664790  0.664790  0.329580  1
  Cl  Cl36  1  0.914790  0.085210  0.500000  1
  Cl  Cl37  1  0.253967  0.420501  0.166534  1
  Cl  Cl38  1  0.250000  0.750000  0.500000  1
  Cl  Cl39  1  0.996033  0.329499  0.333466  1
  Cl  Cl40  1  0.163872  0.497452  0.666420  1
  Cl  Cl41  1  0.335210  0.335210  0.670420  1
  Cl  Cl42  1  0.914790  0.414790  0.829580  1
  Cl  Cl43  1  0.912567  0.746033  0.166534  1
  Cl  Cl44  1  0.585210  0.414790  0.500000  1
  Cl  Cl45  1  0.502548  0.168968  0.666420  1
  Cl  Cl46  1  0.996033  0.662567  0.666534  1
  Cl  Cl47  1  0.000000  0.000000  0.000000  1
