# generated using pymatgen
data_Cs7O
_symmetry_space_group_name_H-M   'P 1'
_cell_length_a   16.52753638
_cell_length_b   16.52753638
_cell_length_c   9.31130644
_cell_angle_alpha   90.00000000
_cell_angle_beta   90.00000000
_cell_angle_gamma   120.00000000
_symmetry_Int_Tables_number   1
_chemical_formula_structural   Cs7O
_chemical_formula_sum   'Cs21 O3'
_cell_volume   2202.71086913
_cell_formula_units_Z   3
loop_
 _symmetry_equiv_pos_site_id
 _symmetry_equiv_pos_as_xyz
  1  'x, y, z'
loop_
 _atom_site_type_symbol
 _atom_site_label
 _atom_site_symmetry_multiplicity
 _atom_site_fract_x
 _atom_site_fract_y
 _atom_site_fract_z
 _atom_site_occupancy
  Cs  Cs0  1  0.443013  0.221506  0.500000  1
  Cs  Cs1  1  0.479410  0.520590  0.780530  1
  Cs  Cs2  1  0.778494  0.221506  0.500000  1
  Cs  Cs3  1  0.479410  0.520590  0.219470  1
  Cs  Cs4  1  0.882662  0.765324  0.000000  1
  Cs  Cs5  1  0.116032  0.232064  0.500000  1
  Cs  Cs6  1  0.479410  0.958819  0.780530  1
  Cs  Cs7  1  0.564310  0.782155  0.000000  1
  Cs  Cs8  1  0.479410  0.958819  0.219470  1
  Cs  Cs9  1  0.217845  0.435690  0.000000  1
  Cs  Cs10  1  0.333333  0.666667  0.795583  1
  Cs  Cs11  1  0.778494  0.556987  0.500000  1
  Cs  Cs12  1  0.666667  0.333333  0.000000  1
  Cs  Cs13  1  0.767936  0.883968  0.500000  1
  Cs  Cs14  1  0.882662  0.117338  0.000000  1
  Cs  Cs15  1  0.234676  0.117338  0.000000  1
  Cs  Cs16  1  0.333333  0.666667  0.204417  1
  Cs  Cs17  1  0.041181  0.520590  0.780530  1
  Cs  Cs18  1  0.116032  0.883968  0.500000  1
  Cs  Cs19  1  0.217845  0.782155  0.000000  1
  Cs  Cs20  1  0.041181  0.520590  0.219470  1
  O  O21  1  0.414032  0.585968  0.000000  1
  O  O22  1  0.171936  0.585968  0.000000  1
  O  O23  1  0.414032  0.828064  0.000000  1
