# generated using pymatgen
data_ZnS
_symmetry_space_group_name_H-M   'P 1'
_cell_length_a   3.85324301
_cell_length_b   3.85324301
_cell_length_c   88.13558535
_cell_angle_alpha   90.00000000
_cell_angle_beta   90.00000000
_cell_angle_gamma   120.00000000
_symmetry_Int_Tables_number   1
_chemical_formula_structural   ZnS
_chemical_formula_sum   'Zn28 S28'
_cell_volume   1133.27347616
_cell_formula_units_Z   28
loop_
 _symmetry_equiv_pos_site_id
 _symmetry_equiv_pos_as_xyz
  1  'x, y, z'
loop_
 _atom_site_type_symbol
 _atom_site_label
 _atom_site_symmetry_multiplicity
 _atom_site_fract_x
 _atom_site_fract_y
 _atom_site_fract_z
 _atom_site_occupancy
  Zn  Zn0  1  0.000000  0.000000  0.071431  1
  Zn  Zn1  1  0.333333  0.666667  0.928577  1
  Zn  Zn2  1  0.333333  0.666667  0.321431  1
  Zn  Zn3  1  0.333333  0.666667  0.214291  1
  Zn  Zn4  1  0.666667  0.333333  0.142861  1
  Zn  Zn5  1  0.666667  0.333333  0.357144  1
  Zn  Zn6  1  0.000000  0.000000  0.392861  1
  Zn  Zn7  1  0.666667  0.333333  0.464291  1
  Zn  Zn8  1  0.333333  0.666667  0.642861  1
  Zn  Zn9  1  0.666667  0.333333  0.571431  1
  Zn  Zn10  1  0.666667  0.333333  0.785715  1
  Zn  Zn11  1  0.333333  0.666667  0.535714  1
  Zn  Zn12  1  0.000000  0.000000  0.964288  1
  Zn  Zn13  1  0.666667  0.333333  0.892858  1
  Zn  Zn14  1  0.000000  0.000000  0.285715  1
  Zn  Zn15  1  0.000000  0.000000  0.607143  1
  Zn  Zn16  1  0.666667  0.333333  0.678573  1
  Zn  Zn17  1  0.000000  0.000000  0.714291  1
  Zn  Zn18  1  0.000000  0.000000  0.821470  1
  Zn  Zn19  1  0.333333  0.666667  0.107143  1
  Zn  Zn20  1  0.666667  0.333333  0.035715  1
  Zn  Zn21  1  0.000000  0.000000  0.178573  1
  Zn  Zn22  1  0.333333  0.666667  0.000007  1
  Zn  Zn23  1  0.000000  0.000000  0.500003  1
  Zn  Zn24  1  0.333333  0.666667  0.857143  1
  Zn  Zn25  1  0.333333  0.666667  0.428573  1
  Zn  Zn26  1  0.666667  0.333333  0.250003  1
  Zn  Zn27  1  0.333333  0.666667  0.750003  1
  S  S28  1  0.000000  0.000000  0.205356  1
  S  S29  1  0.333333  0.666667  0.348209  1
  S  S30  1  0.666667  0.333333  0.812505  1
  S  S31  1  0.666667  0.333333  0.705357  1
  S  S32  1  0.333333  0.666667  0.455356  1
  S  S33  1  0.000000  0.000000  0.633926  1
  S  S34  1  0.333333  0.666667  0.026784  1
  S  S35  1  0.000000  0.000000  0.848221  1
  S  S36  1  0.000000  0.000000  0.419639  1
  S  S37  1  0.000000  0.000000  0.526786  1
  S  S38  1  0.000000  0.000000  0.098208  1
  S  S39  1  0.333333  0.666667  0.133927  1
  S  S40  1  0.000000  0.000000  0.312497  1
  S  S41  1  0.666667  0.333333  0.169640  1
  S  S42  1  0.333333  0.666667  0.669639  1
  S  S43  1  0.333333  0.666667  0.776785  1
  S  S44  1  0.666667  0.333333  0.598208  1
  S  S45  1  0.333333  0.666667  0.883912  1
  S  S46  1  0.333333  0.666667  0.241069  1
  S  S47  1  0.333333  0.666667  0.955341  1
  S  S48  1  0.000000  0.000000  0.991084  1
  S  S49  1  0.666667  0.333333  0.919654  1
  S  S50  1  0.000000  0.000000  0.741069  1
  S  S51  1  0.666667  0.333333  0.383927  1
  S  S52  1  0.666667  0.333333  0.276786  1
  S  S53  1  0.666667  0.333333  0.062497  1
  S  S54  1  0.666667  0.333333  0.491069  1
  S  S55  1  0.333333  0.666667  0.562497  1
