# generated using pymatgen
data_SnHg7(P2Br3)2
_symmetry_space_group_name_H-M   'P 1'
_cell_length_a   12.80616617
_cell_length_b   12.80616617
_cell_length_c   12.80616617
_cell_angle_alpha   90.00000000
_cell_angle_beta   90.00000000
_cell_angle_gamma   90.00000000
_symmetry_Int_Tables_number   1
_chemical_formula_structural   SnHg7(P2Br3)2
_chemical_formula_sum   'Sn4 Hg28 P16 Br24'
_cell_volume   2100.18425614
_cell_formula_units_Z   4
loop_
 _symmetry_equiv_pos_site_id
 _symmetry_equiv_pos_as_xyz
  1  'x, y, z'
loop_
 _atom_site_type_symbol
 _atom_site_label
 _atom_site_symmetry_multiplicity
 _atom_site_fract_x
 _atom_site_fract_y
 _atom_site_fract_z
 _atom_site_occupancy
  Sn  Sn0  1  0.240025  0.259975  0.740025  1
  Sn  Sn1  1  0.759975  0.759975  0.759975  1
  Sn  Sn2  1  0.259975  0.740025  0.240025  1
  Sn  Sn3  1  0.740025  0.240025  0.259975  1
  Hg  Hg4  1  0.178140  0.899324  0.577444  1
  Hg  Hg5  1  0.751051  0.928929  0.003079  1
  Hg  Hg6  1  0.038077  0.038077  0.038077  1
  Hg  Hg7  1  0.748949  0.071071  0.503079  1
  Hg  Hg8  1  0.248949  0.428929  0.496921  1
  Hg  Hg9  1  0.100676  0.077444  0.321860  1
  Hg  Hg10  1  0.251051  0.571071  0.996921  1
  Hg  Hg11  1  0.496921  0.248949  0.428929  1
  Hg  Hg12  1  0.428929  0.496921  0.248949  1
  Hg  Hg13  1  0.538077  0.461923  0.961923  1
  Hg  Hg14  1  0.928929  0.003079  0.751051  1
  Hg  Hg15  1  0.071071  0.503079  0.748949  1
  Hg  Hg16  1  0.922556  0.821860  0.399324  1
  Hg  Hg17  1  0.821860  0.399324  0.922556  1
  Hg  Hg18  1  0.503079  0.748949  0.071071  1
  Hg  Hg19  1  0.899324  0.577444  0.178140  1
  Hg  Hg20  1  0.678140  0.600676  0.422556  1
  Hg  Hg21  1  0.571071  0.996921  0.251051  1
  Hg  Hg22  1  0.321860  0.100676  0.077444  1
  Hg  Hg23  1  0.600676  0.422556  0.678140  1
  Hg  Hg24  1  0.577444  0.178140  0.899324  1
  Hg  Hg25  1  0.961923  0.538077  0.461923  1
  Hg  Hg26  1  0.996921  0.251051  0.571071  1
  Hg  Hg27  1  0.077444  0.321860  0.100676  1
  Hg  Hg28  1  0.461923  0.961923  0.538077  1
  Hg  Hg29  1  0.003079  0.751051  0.928929  1
  Hg  Hg30  1  0.399324  0.922556  0.821860  1
  Hg  Hg31  1  0.422556  0.678140  0.600676  1
  P  P32  1  0.647295  0.352705  0.852705  1
  P  P33  1  0.852705  0.647295  0.352705  1
  P  P34  1  0.428769  0.571231  0.071231  1
  P  P35  1  0.071231  0.428769  0.571231  1
  P  P36  1  0.530897  0.530897  0.530897  1
  P  P37  1  0.147295  0.147295  0.147295  1
  P  P38  1  0.928769  0.928769  0.928769  1
  P  P39  1  0.969103  0.469103  0.030897  1
  P  P40  1  0.030897  0.969103  0.469103  1
  P  P41  1  0.431459  0.431459  0.431459  1
  P  P42  1  0.568541  0.931459  0.068541  1
  P  P43  1  0.352705  0.852705  0.647295  1
  P  P44  1  0.571231  0.071231  0.428769  1
  P  P45  1  0.469103  0.030897  0.969103  1
  P  P46  1  0.931459  0.068541  0.568541  1
  P  P47  1  0.068541  0.568541  0.931459  1
  Br  Br48  1  0.308785  0.942664  0.294879  1
  Br  Br49  1  0.815433  0.977810  0.259814  1
  Br  Br50  1  0.705121  0.808785  0.557336  1
  Br  Br51  1  0.759814  0.684567  0.022190  1
  Br  Br52  1  0.442664  0.205121  0.691215  1
  Br  Br53  1  0.740186  0.315433  0.522190  1
  Br  Br54  1  0.808785  0.557336  0.705121  1
  Br  Br55  1  0.522190  0.740186  0.315433  1
  Br  Br56  1  0.205121  0.691215  0.442664  1
  Br  Br57  1  0.240186  0.184567  0.477810  1
  Br  Br58  1  0.022190  0.759814  0.684567  1
  Br  Br59  1  0.794879  0.191215  0.057336  1
  Br  Br60  1  0.057336  0.794879  0.191215  1
  Br  Br61  1  0.977810  0.259814  0.815433  1
  Br  Br62  1  0.557336  0.705121  0.808785  1
  Br  Br63  1  0.184567  0.477810  0.240186  1
  Br  Br64  1  0.294879  0.308785  0.942664  1
  Br  Br65  1  0.942664  0.294879  0.308785  1
  Br  Br66  1  0.691215  0.442664  0.205121  1
  Br  Br67  1  0.315433  0.522190  0.740186  1
  Br  Br68  1  0.259814  0.815433  0.977810  1
  Br  Br69  1  0.684567  0.022190  0.759814  1
  Br  Br70  1  0.477810  0.240186  0.184567  1
  Br  Br71  1  0.191215  0.057336  0.794879  1
