# generated using pymatgen
data_LiMgIn(MoO4)3
_symmetry_space_group_name_H-M   'P 1'
_cell_length_a   7.10047016
_cell_length_b   8.61707832
_cell_length_c   9.93130953
_cell_angle_alpha   96.51202427
_cell_angle_beta   106.47013351
_cell_angle_gamma   101.75329935
_symmetry_Int_Tables_number   1
_chemical_formula_structural   LiMgIn(MoO4)3
_chemical_formula_sum   'Li2 Mg2 In2 Mo6 O24'
_cell_volume   560.93864089
_cell_formula_units_Z   2
loop_
 _symmetry_equiv_pos_site_id
 _symmetry_equiv_pos_as_xyz
  1  'x, y, z'
loop_
 _atom_site_type_symbol
 _atom_site_label
 _atom_site_symmetry_multiplicity
 _atom_site_fract_x
 _atom_site_fract_y
 _atom_site_fract_z
 _atom_site_occupancy
  Li  Li0  1  0.462162  0.894698  0.202712  1
  Li  Li1  1  0.537838  0.105302  0.797288  1
  Mg  Mg2  1  0.040787  0.696925  0.992350  1
  Mg  Mg3  1  0.959213  0.303075  0.007650  1
  In  In4  1  0.746837  0.698116  0.404683  1
  In  In5  1  0.253163  0.301884  0.595317  1
  Mo  Mo6  1  0.517411  0.298378  0.119769  1
  Mo  Mo7  1  0.994582  0.007144  0.748579  1
  Mo  Mo8  1  0.198479  0.602292  0.334469  1
  Mo  Mo9  1  0.005418  0.992856  0.251421  1
  Mo  Mo10  1  0.482589  0.701622  0.880231  1
  Mo  Mo11  1  0.801521  0.397708  0.665531  1
  O  O12  1  0.162618  0.096599  0.425721  1
  O  O13  1  0.837382  0.903401  0.574279  1
  O  O14  1  0.942238  0.475431  0.851708  1
  O  O15  1  0.556771  0.266887  0.645196  1
  O  O16  1  0.261584  0.304197  0.034587  1
  O  O17  1  0.139141  0.862180  0.181657  1
  O  O18  1  0.510848  0.128619  0.203466  1
  O  O19  1  0.232388  0.125548  0.737068  1
  O  O20  1  0.352219  0.723977  0.012072  1
  O  O21  1  0.952596  0.134869  0.140883  1
  O  O22  1  0.649677  0.479715  0.254811  1
  O  O23  1  0.860859  0.137820  0.818343  1
  O  O24  1  0.047404  0.865131  0.859117  1
  O  O25  1  0.057762  0.524569  0.148292  1
  O  O26  1  0.060325  0.704485  0.425287  1
  O  O27  1  0.752655  0.562234  0.580012  1
  O  O28  1  0.489152  0.871381  0.796534  1
  O  O29  1  0.443229  0.733113  0.354804  1
  O  O30  1  0.738416  0.695803  0.965413  1
  O  O31  1  0.647781  0.276023  0.987928  1
  O  O32  1  0.767612  0.874452  0.262932  1
  O  O33  1  0.350323  0.520285  0.745189  1
  O  O34  1  0.939675  0.295515  0.574713  1
  O  O35  1  0.247345  0.437766  0.419988  1
