# generated using pymatgen
data_Al2VCl8
_symmetry_space_group_name_H-M   'P 1'
_cell_length_a   9.76887000
_cell_length_b   9.76887000
_cell_length_c   11.69810515
_cell_angle_alpha   55.48054456
_cell_angle_beta   124.51945544
_cell_angle_gamma   130.67964950
_symmetry_Int_Tables_number   1
_chemical_formula_structural   Al2VCl8
_chemical_formula_sum   'Al4 V2 Cl16'
_cell_volume   661.86150749
_cell_formula_units_Z   2
loop_
 _symmetry_equiv_pos_site_id
 _symmetry_equiv_pos_as_xyz
  1  'x, y, z'
loop_
 _atom_site_type_symbol
 _atom_site_label
 _atom_site_symmetry_multiplicity
 _atom_site_fract_x
 _atom_site_fract_y
 _atom_site_fract_z
 _atom_site_occupancy
  Al  Al0  1  0.326871  0.158377  0.530261  1
  Al  Al1  1  0.158377  0.326871  0.969739  1
  Al  Al2  1  0.673129  0.841623  0.469739  1
  Al  Al3  1  0.841623  0.673129  0.030261  1
  V  V4  1  0.002102  0.002102  0.250000  1
  V  V5  1  0.997898  0.997898  0.750000  1
  Cl  Cl6  1  0.615924  0.307626  0.550757  1
  Cl  Cl7  1  0.384076  0.692374  0.449243  1
  Cl  Cl8  1  0.875632  0.170647  0.988384  1
  Cl  Cl9  1  0.281216  0.157390  0.177517  1
  Cl  Cl10  1  0.124368  0.829353  0.011616  1
  Cl  Cl11  1  0.157389  0.281216  0.322483  1
  Cl  Cl12  1  0.692374  0.384076  0.050757  1
  Cl  Cl13  1  0.718784  0.842611  0.822483  1
  Cl  Cl14  1  0.143096  0.304586  0.786285  1
  Cl  Cl15  1  0.829353  0.124368  0.488384  1
  Cl  Cl16  1  0.856904  0.695414  0.213715  1
  Cl  Cl17  1  0.842611  0.718784  0.677517  1
  Cl  Cl18  1  0.170647  0.875632  0.511616  1
  Cl  Cl19  1  0.304586  0.143096  0.713715  1
  Cl  Cl20  1  0.307626  0.615924  0.949243  1
  Cl  Cl21  1  0.695414  0.856904  0.286285  1
