# generated using pymatgen
data_Ga(MoSe2)4
_symmetry_space_group_name_H-M   'P 1'
_cell_length_a   7.23971444
_cell_length_b   7.23971444
_cell_length_c   7.23971444
_cell_angle_alpha   60.81956197
_cell_angle_beta   60.81956197
_cell_angle_gamma   60.81956197
_symmetry_Int_Tables_number   1
_chemical_formula_structural   Ga(MoSe2)4
_chemical_formula_sum   'Ga1 Mo4 Se8'
_cell_volume   273.27699476
_cell_formula_units_Z   1
loop_
 _symmetry_equiv_pos_site_id
 _symmetry_equiv_pos_as_xyz
  1  'x, y, z'
loop_
 _atom_site_type_symbol
 _atom_site_label
 _atom_site_symmetry_multiplicity
 _atom_site_fract_x
 _atom_site_fract_y
 _atom_site_fract_z
 _atom_site_occupancy
  Ga  Ga0  1  0.999511  0.999511  0.999511  1
  Mo  Mo1  1  0.195591  0.600745  0.600745  1
  Mo  Mo2  1  0.600745  0.600745  0.195591  1
  Mo  Mo3  1  0.594254  0.594254  0.594254  1
  Mo  Mo4  1  0.600745  0.195591  0.600745  1
  Se  Se5  1  0.859676  0.409943  0.859676  1
  Se  Se6  1  0.359753  0.359753  0.906855  1
  Se  Se7  1  0.859676  0.859676  0.409943  1
  Se  Se8  1  0.409943  0.859676  0.859676  1
  Se  Se9  1  0.364414  0.364414  0.364414  1
  Se  Se10  1  0.860484  0.860484  0.860484  1
  Se  Se11  1  0.906855  0.359753  0.359753  1
  Se  Se12  1  0.359753  0.906855  0.359753  1
