# generated using pymatgen
data_Hg3(NO4)2
_symmetry_space_group_name_H-M   'P 1'
_cell_length_a   7.14804439
_cell_length_b   13.91189580
_cell_length_c   16.02579550
_cell_angle_alpha   90.00000000
_cell_angle_beta   90.00000000
_cell_angle_gamma   90.00000000
_symmetry_Int_Tables_number   1
_chemical_formula_structural   Hg3(NO4)2
_chemical_formula_sum   'Hg24 N16 O64'
_cell_volume   1593.65075764
_cell_formula_units_Z   8
loop_
 _symmetry_equiv_pos_site_id
 _symmetry_equiv_pos_as_xyz
  1  'x, y, z'
loop_
 _atom_site_type_symbol
 _atom_site_label
 _atom_site_symmetry_multiplicity
 _atom_site_fract_x
 _atom_site_fract_y
 _atom_site_fract_z
 _atom_site_occupancy
  Hg  Hg0  1  0.106813  0.934459  0.104883  1
  Hg  Hg1  1  0.343483  0.749602  0.995135  1
  Hg  Hg2  1  0.343483  0.750398  0.495135  1
  Hg  Hg3  1  0.364298  0.430282  0.748149  1
  Hg  Hg4  1  0.156517  0.249602  0.995135  1
  Hg  Hg5  1  0.393187  0.065541  0.604883  1
  Hg  Hg6  1  0.393187  0.434459  0.104883  1
  Hg  Hg7  1  0.656517  0.249602  0.504865  1
  Hg  Hg8  1  0.606813  0.934459  0.395117  1
  Hg  Hg9  1  0.864298  0.430282  0.751851  1
  Hg  Hg10  1  0.893187  0.065541  0.895117  1
  Hg  Hg11  1  0.635702  0.569718  0.251851  1
  Hg  Hg12  1  0.864298  0.069718  0.251851  1
  Hg  Hg13  1  0.635702  0.930282  0.751851  1
  Hg  Hg14  1  0.135702  0.569718  0.248149  1
  Hg  Hg15  1  0.843483  0.749602  0.504865  1
  Hg  Hg16  1  0.893187  0.434459  0.395117  1
  Hg  Hg17  1  0.135702  0.930282  0.748149  1
  Hg  Hg18  1  0.656517  0.250398  0.004865  1
  Hg  Hg19  1  0.606813  0.565541  0.895117  1
  Hg  Hg20  1  0.364298  0.069718  0.248149  1
  Hg  Hg21  1  0.156517  0.250398  0.495135  1
  Hg  Hg22  1  0.106813  0.565541  0.604883  1
  Hg  Hg23  1  0.843483  0.750398  0.004865  1
  N  N24  1  0.266056  0.708380  0.770707  1
  N  N25  1  0.891389  0.039768  0.576545  1
  N  N26  1  0.891389  0.460232  0.076545  1
  N  N27  1  0.391389  0.039768  0.923455  1
  N  N28  1  0.766056  0.791620  0.229293  1
  N  N29  1  0.233944  0.291620  0.270707  1
  N  N30  1  0.108611  0.539768  0.923455  1
  N  N31  1  0.766056  0.708380  0.729293  1
  N  N32  1  0.608611  0.960232  0.076545  1
  N  N33  1  0.233944  0.208380  0.770707  1
  N  N34  1  0.266056  0.791620  0.270707  1
  N  N35  1  0.733944  0.208380  0.729293  1
  N  N36  1  0.608611  0.539768  0.576545  1
  N  N37  1  0.108611  0.960232  0.423455  1
  N  N38  1  0.733944  0.291620  0.229293  1
  N  N39  1  0.391389  0.460232  0.423455  1
  O  O40  1  0.797025  0.228443  0.800999  1
  O  O41  1  0.297025  0.271557  0.199001  1
  O  O42  1  0.894226  0.957845  0.610775  1
  O  O43  1  0.595465  0.825901  0.487466  1
  O  O44  1  0.605774  0.457845  0.610775  1
  O  O45  1  0.516600  0.398434  0.407045  1
  O  O46  1  0.394226  0.542155  0.389225  1
  O  O47  1  0.702975  0.728443  0.800999  1
  O  O48  1  0.105774  0.457845  0.889225  1
  O  O49  1  0.760543  0.060656  0.525439  1
  O  O50  1  0.317134  0.623882  0.788667  1
  O  O51  1  0.817134  0.876118  0.211333  1
  O  O52  1  0.702975  0.771557  0.300999  1
  O  O53  1  0.682866  0.123882  0.711333  1
  O  O54  1  0.095465  0.674099  0.512534  1
  O  O55  1  0.722862  0.225156  0.174533  1
  O  O56  1  0.388873  0.560022  0.178652  1
  O  O57  1  0.894226  0.542155  0.110775  1
  O  O58  1  0.016600  0.101566  0.592955  1
  O  O59  1  0.888873  0.939978  0.821348  1
  O  O60  1  0.516600  0.101566  0.907045  1
  O  O61  1  0.222862  0.274844  0.825467  1
  O  O62  1  0.111127  0.439978  0.678652  1
  O  O63  1  0.388873  0.939978  0.678652  1
  O  O64  1  0.983400  0.898434  0.407045  1
  O  O65  1  0.797025  0.271557  0.300999  1
  O  O66  1  0.983400  0.601566  0.907045  1
  O  O67  1  0.595465  0.674099  0.987466  1
  O  O68  1  0.202975  0.728443  0.699001  1
  O  O69  1  0.739457  0.560656  0.525439  1
  O  O70  1  0.605774  0.042155  0.110775  1
  O  O71  1  0.777138  0.725156  0.174533  1
  O  O72  1  0.105774  0.042155  0.389225  1
  O  O73  1  0.888873  0.560022  0.321348  1
  O  O74  1  0.016600  0.398434  0.092955  1
  O  O75  1  0.611127  0.439978  0.821348  1
  O  O76  1  0.297025  0.228443  0.699001  1
  O  O77  1  0.404535  0.325901  0.012534  1
  O  O78  1  0.404535  0.174099  0.512534  1
  O  O79  1  0.317134  0.876118  0.288667  1
  O  O80  1  0.777138  0.774844  0.674533  1
  O  O81  1  0.904535  0.174099  0.987466  1
  O  O82  1  0.182866  0.376118  0.288667  1
  O  O83  1  0.202975  0.771557  0.199001  1
  O  O84  1  0.394226  0.957845  0.889225  1
  O  O85  1  0.483400  0.601566  0.592955  1
  O  O86  1  0.239457  0.939344  0.474561  1
  O  O87  1  0.095465  0.825901  0.012534  1
  O  O88  1  0.904535  0.325901  0.487466  1
  O  O89  1  0.260543  0.439344  0.474561  1
  O  O90  1  0.739457  0.939344  0.025439  1
  O  O91  1  0.817134  0.623882  0.711333  1
  O  O92  1  0.722862  0.274844  0.674533  1
  O  O93  1  0.222862  0.225156  0.325467  1
  O  O94  1  0.760543  0.439344  0.025439  1
  O  O95  1  0.260543  0.060656  0.974561  1
  O  O96  1  0.611127  0.060022  0.321348  1
  O  O97  1  0.277138  0.774844  0.825467  1
  O  O98  1  0.239457  0.560656  0.974561  1
  O  O99  1  0.182866  0.123882  0.788667  1
  O  O100  1  0.483400  0.898434  0.092955  1
  O  O101  1  0.277138  0.725156  0.325467  1
  O  O102  1  0.682866  0.376118  0.211333  1
  O  O103  1  0.111127  0.060022  0.178652  1
