# generated using pymatgen
data_Mn13Al4Si2(SbO14)2
_symmetry_space_group_name_H-M   'P 1'
_cell_length_a   11.96960767
_cell_length_b   11.96960767
_cell_length_c   9.20199757
_cell_angle_alpha   87.46637932
_cell_angle_beta   92.53362068
_cell_angle_gamma   27.33252508
_symmetry_Int_Tables_number   1
_chemical_formula_structural   Mn13Al4Si2(SbO14)2
_chemical_formula_sum   'Mn13 Al4 Si2 Sb2 O28'
_cell_volume   594.65130024
_cell_formula_units_Z   1
loop_
 _symmetry_equiv_pos_site_id
 _symmetry_equiv_pos_as_xyz
  1  'x, y, z'
loop_
 _atom_site_type_symbol
 _atom_site_label
 _atom_site_symmetry_multiplicity
 _atom_site_fract_x
 _atom_site_fract_y
 _atom_site_fract_z
 _atom_site_occupancy
  Mn  Mn0  1  0.930044  0.363072  0.356043  1
  Mn  Mn1  1  0.652397  0.206932  0.650982  1
  Mn  Mn2  1  0.363072  0.930044  0.643957  1
  Mn  Mn3  1  0.069956  0.636928  0.643957  1
  Mn  Mn4  1  0.347603  0.793068  0.349018  1
  Mn  Mn5  1  0.286861  0.286861  0.000000  1
  Mn  Mn6  1  0.206932  0.652397  0.349018  1
  Mn  Mn7  1  0.000000  0.000000  0.000000  1
  Mn  Mn8  1  0.427319  0.427319  0.000000  1
  Mn  Mn9  1  0.793068  0.347603  0.650982  1
  Mn  Mn10  1  0.636928  0.069956  0.356043  1
  Mn  Mn11  1  0.572681  0.572681  0.000000  1
  Mn  Mn12  1  0.713139  0.713139  0.000000  1
  Al  Al13  1  0.048046  0.521691  0.318642  1
  Al  Al14  1  0.521691  0.048046  0.681358  1
  Al  Al15  1  0.951954  0.478309  0.681358  1
  Al  Al16  1  0.478309  0.951954  0.318642  1
  Si  Si17  1  0.235523  0.764477  0.689435  1
  Si  Si18  1  0.764477  0.235523  0.310565  1
  Sb  Sb19  1  0.858929  0.858929  0.000000  1
  Sb  Sb20  1  0.141071  0.141071  0.000000  1
  O  O21  1  0.675720  0.020179  0.599323  1
  O  O22  1  0.193195  0.355243  0.647189  1
  O  O23  1  0.941824  0.058176  0.649152  1
  O  O24  1  0.313912  0.686088  0.871793  1
  O  O25  1  0.806805  0.644757  0.352811  1
  O  O26  1  0.324280  0.979821  0.400677  1
  O  O27  1  0.018634  0.396186  0.881657  1
  O  O28  1  0.981366  0.603814  0.118343  1
  O  O29  1  0.686088  0.313912  0.128207  1
  O  O30  1  0.115817  0.728432  0.114853  1
  O  O31  1  0.285833  0.596957  0.620577  1
  O  O32  1  0.020179  0.675720  0.400677  1
  O  O33  1  0.396186  0.018634  0.118343  1
  O  O34  1  0.728432  0.115817  0.885147  1
  O  O35  1  0.596957  0.285833  0.379423  1
  O  O36  1  0.058176  0.941824  0.350848  1
  O  O37  1  0.271568  0.884183  0.114853  1
  O  O38  1  0.884183  0.271568  0.885147  1
  O  O39  1  0.603814  0.981366  0.881657  1
  O  O40  1  0.117361  0.591879  0.879780  1
  O  O41  1  0.882639  0.408121  0.120220  1
  O  O42  1  0.403043  0.714167  0.620577  1
  O  O43  1  0.408121  0.882639  0.879780  1
  O  O44  1  0.644757  0.806805  0.647189  1
  O  O45  1  0.714167  0.403043  0.379423  1
  O  O46  1  0.591879  0.117361  0.120220  1
  O  O47  1  0.979821  0.324280  0.599323  1
  O  O48  1  0.355243  0.193195  0.352811  1
