# generated using pymatgen
data_NaW6NCl18
_symmetry_space_group_name_H-M   'P 1'
_cell_length_a   9.20240147
_cell_length_b   9.20240147
_cell_length_c   18.31123272
_cell_angle_alpha   90.00000000
_cell_angle_beta   90.00000000
_cell_angle_gamma   120.00000000
_symmetry_Int_Tables_number   1
_chemical_formula_structural   NaW6NCl18
_chemical_formula_sum   'Na2 W12 N2 Cl36'
_cell_volume   1342.92131283
_cell_formula_units_Z   2
loop_
 _symmetry_equiv_pos_site_id
 _symmetry_equiv_pos_as_xyz
  1  'x, y, z'
loop_
 _atom_site_type_symbol
 _atom_site_label
 _atom_site_symmetry_multiplicity
 _atom_site_fract_x
 _atom_site_fract_y
 _atom_site_fract_z
 _atom_site_occupancy
  Na  Na0  1  0.000000  0.000000  0.500000  1
  Na  Na1  1  0.000000  0.000000  0.000000  1
  W  W2  1  0.182449  0.487224  0.834653  1
  W  W3  1  0.695225  0.182449  0.334653  1
  W  W4  1  0.304775  0.817551  0.665347  1
  W  W5  1  0.512776  0.695225  0.834653  1
  W  W6  1  0.817551  0.512776  0.334653  1
  W  W7  1  0.487224  0.304775  0.165347  1
  W  W8  1  0.512776  0.695225  0.665347  1
  W  W9  1  0.817551  0.512776  0.165347  1
  W  W10  1  0.487224  0.304775  0.334653  1
  W  W11  1  0.182449  0.487224  0.665347  1
  W  W12  1  0.304775  0.817551  0.834653  1
  W  W13  1  0.695225  0.182449  0.165347  1
  N  N14  1  0.333333  0.666667  0.750000  1
  N  N15  1  0.666667  0.333333  0.250000  1
  Cl  Cl16  1  0.763157  0.734219  0.602735  1
  Cl  Cl17  1  0.519831  0.950963  0.250000  1
  Cl  Cl18  1  0.950963  0.431132  0.750000  1
  Cl  Cl19  1  0.028938  0.763157  0.397265  1
  Cl  Cl20  1  0.971062  0.236843  0.897265  1
  Cl  Cl21  1  0.763157  0.734219  0.897265  1
  Cl  Cl22  1  0.431132  0.480169  0.250000  1
  Cl  Cl23  1  0.367740  0.482168  0.925808  1
  Cl  Cl24  1  0.482168  0.114428  0.425808  1
  Cl  Cl25  1  0.885572  0.367740  0.425808  1
  Cl  Cl26  1  0.568868  0.519831  0.750000  1
  Cl  Cl27  1  0.194964  0.286008  0.750000  1
  Cl  Cl28  1  0.265781  0.028938  0.897265  1
  Cl  Cl29  1  0.028938  0.763157  0.102735  1
  Cl  Cl30  1  0.236843  0.265781  0.102735  1
  Cl  Cl31  1  0.632260  0.517832  0.425808  1
  Cl  Cl32  1  0.114428  0.632260  0.925808  1
  Cl  Cl33  1  0.734219  0.971062  0.102735  1
  Cl  Cl34  1  0.734219  0.971062  0.397265  1
  Cl  Cl35  1  0.805036  0.713992  0.250000  1
  Cl  Cl36  1  0.971062  0.236843  0.602735  1
  Cl  Cl37  1  0.517832  0.885572  0.574192  1
  Cl  Cl38  1  0.236843  0.265781  0.397265  1
  Cl  Cl39  1  0.480169  0.049037  0.750000  1
  Cl  Cl40  1  0.265781  0.028938  0.602735  1
  Cl  Cl41  1  0.114428  0.632260  0.574192  1
  Cl  Cl42  1  0.482168  0.114428  0.074192  1
  Cl  Cl43  1  0.908956  0.194964  0.250000  1
  Cl  Cl44  1  0.632260  0.517832  0.074192  1
  Cl  Cl45  1  0.367740  0.482168  0.574192  1
  Cl  Cl46  1  0.091044  0.805036  0.750000  1
  Cl  Cl47  1  0.049037  0.568868  0.250000  1
  Cl  Cl48  1  0.286008  0.091044  0.250000  1
  Cl  Cl49  1  0.885572  0.367740  0.074192  1
  Cl  Cl50  1  0.517832  0.885572  0.925808  1
  Cl  Cl51  1  0.713992  0.908956  0.750000  1
