# generated using pymatgen
data_Ba3Si6N4O9
_symmetry_space_group_name_H-M   'P 1'
_cell_length_a   7.32366988
_cell_length_b   7.32366988
_cell_length_c   6.88519900
_cell_angle_alpha   90.00000000
_cell_angle_beta   90.00000000
_cell_angle_gamma   120.00000000
_symmetry_Int_Tables_number   1
_chemical_formula_structural   Ba3Si6N4O9
_chemical_formula_sum   'Ba3 Si6 N4 O9'
_cell_volume   319.81928569
_cell_formula_units_Z   1
loop_
 _symmetry_equiv_pos_site_id
 _symmetry_equiv_pos_as_xyz
  1  'x, y, z'
loop_
 _atom_site_type_symbol
 _atom_site_label
 _atom_site_symmetry_multiplicity
 _atom_site_fract_x
 _atom_site_fract_y
 _atom_site_fract_z
 _atom_site_occupancy
  Ba  Ba0  1  0.666667  0.333333  0.686389  1
  Ba  Ba1  1  0.333333  0.666667  0.560231  1
  Ba  Ba2  1  0.000000  0.000000  0.747775  1
  Si  Si3  1  0.784258  0.741155  0.255719  1
  Si  Si4  1  0.373037  0.453386  0.044699  1
  Si  Si5  1  0.546614  0.919650  0.044699  1
  Si  Si6  1  0.080350  0.626963  0.044699  1
  Si  Si7  1  0.956898  0.215742  0.255719  1
  Si  Si8  1  0.258845  0.043102  0.255719  1
  N  N9  1  0.333333  0.666667  0.093977  1
  N  N10  1  0.202600  0.241223  0.191652  1
  N  N11  1  0.758777  0.961376  0.191652  1
  N  N12  1  0.038624  0.797400  0.191652  1
  O  O13  1  0.624968  0.548659  0.104878  1
  O  O14  1  0.923692  0.375032  0.104878  1
  O  O15  1  0.343021  0.386986  0.818041  1
  O  O16  1  0.613014  0.956034  0.818041  1
  O  O17  1  0.957184  0.274261  0.481510  1
  O  O18  1  0.043966  0.656979  0.818041  1
  O  O19  1  0.725739  0.682922  0.481510  1
  O  O20  1  0.317078  0.042816  0.481510  1
  O  O21  1  0.451341  0.076308  0.104878  1
