# generated using pymatgen
data_TmMnO3
_symmetry_space_group_name_H-M   'P 1'
_cell_length_a   5.27079252
_cell_length_b   5.81241857
_cell_length_c   7.45387128
_cell_angle_alpha   90.00000000
_cell_angle_beta   90.00000000
_cell_angle_gamma   90.00000000
_symmetry_Int_Tables_number   1
_chemical_formula_structural   TmMnO3
_chemical_formula_sum   'Tm4 Mn4 O12'
_cell_volume   228.35719053
_cell_formula_units_Z   4
loop_
 _symmetry_equiv_pos_site_id
 _symmetry_equiv_pos_as_xyz
  1  'x, y, z'
loop_
 _atom_site_type_symbol
 _atom_site_label
 _atom_site_symmetry_multiplicity
 _atom_site_fract_x
 _atom_site_fract_y
 _atom_site_fract_z
 _atom_site_occupancy
  Tm  Tm0  1  0.479915  0.416309  0.750000  1
  Tm  Tm1  1  0.520085  0.583691  0.250000  1
  Tm  Tm2  1  0.020085  0.916309  0.750000  1
  Tm  Tm3  1  0.979915  0.083691  0.250000  1
  Mn  Mn4  1  0.500000  0.000000  0.500000  1
  Mn  Mn5  1  0.500000  0.000000  0.000000  1
  Mn  Mn6  1  0.000000  0.500000  0.500000  1
  Mn  Mn7  1  0.000000  0.500000  0.000000  1
  O  O8  1  0.697636  0.326971  0.440004  1
  O  O9  1  0.873729  0.546763  0.750000  1
  O  O10  1  0.802364  0.826971  0.059996  1
  O  O11  1  0.126271  0.453237  0.250000  1
  O  O12  1  0.197636  0.173029  0.559996  1
  O  O13  1  0.626271  0.046763  0.750000  1
  O  O14  1  0.697636  0.326971  0.059996  1
  O  O15  1  0.302364  0.673029  0.559996  1
  O  O16  1  0.373729  0.953237  0.250000  1
  O  O17  1  0.802364  0.826971  0.440004  1
  O  O18  1  0.197636  0.173029  0.940004  1
  O  O19  1  0.302364  0.673029  0.940004  1
