# generated using pymatgen
data_Sr2Cu(IO)2
_symmetry_space_group_name_H-M   'P 1'
_cell_length_a   10.73303777
_cell_length_b   10.73303777
_cell_length_c   10.73303777
_cell_angle_alpha   158.19943042
_cell_angle_beta   158.19943042
_cell_angle_gamma   31.02257888
_symmetry_Int_Tables_number   1
_chemical_formula_structural   Sr2Cu(IO)2
_chemical_formula_sum   'Sr2 Cu1 I2 O2'
_cell_volume   170.41165163
_cell_formula_units_Z   1
loop_
 _symmetry_equiv_pos_site_id
 _symmetry_equiv_pos_as_xyz
  1  'x, y, z'
loop_
 _atom_site_type_symbol
 _atom_site_label
 _atom_site_symmetry_multiplicity
 _atom_site_fract_x
 _atom_site_fract_y
 _atom_site_fract_z
 _atom_site_occupancy
  Sr  Sr0  1  0.418732  0.418732  0.000000  1
  Sr  Sr1  1  0.581268  0.581268  0.000000  1
  Cu  Cu2  1  0.000000  0.000000  0.000000  1
  I  I3  1  0.166542  0.166542  0.000000  1
  I  I4  1  0.833458  0.833458  0.000000  1
  O  O5  1  0.000000  0.500000  0.500000  1
  O  O6  1  0.500000  0.000000  0.500000  1
