# generated using pymatgen
data_Ca3Cu2(BrO2)2
_symmetry_space_group_name_H-M   'P 1'
_cell_length_a   12.26960182
_cell_length_b   12.26960182
_cell_length_c   12.26960182
_cell_angle_alpha   161.80740438
_cell_angle_beta   161.80740438
_cell_angle_gamma   25.83867092
_symmetry_Int_Tables_number   1
_chemical_formula_structural   Ca3Cu2(BrO2)2
_chemical_formula_sum   'Ca3 Cu2 Br2 O4'
_cell_volume   179.98995442
_cell_formula_units_Z   1
loop_
 _symmetry_equiv_pos_site_id
 _symmetry_equiv_pos_as_xyz
  1  'x, y, z'
loop_
 _atom_site_type_symbol
 _atom_site_label
 _atom_site_symmetry_multiplicity
 _atom_site_fract_x
 _atom_site_fract_y
 _atom_site_fract_z
 _atom_site_occupancy
  Ca  Ca0  1  0.867426  0.867426  0.000000  1
  Ca  Ca1  1  0.132574  0.132574  0.000000  1
  Ca  Ca2  1  0.000000  0.000000  0.000000  1
  Cu  Cu3  1  0.565763  0.565763  0.000000  1
  Cu  Cu4  1  0.434237  0.434237  0.000000  1
  Br  Br5  1  0.692119  0.692119  0.000000  1
  Br  Br6  1  0.307881  0.307881  0.000000  1
  O  O7  1  0.567844  0.067844  0.500000  1
  O  O8  1  0.432156  0.932156  0.500000  1
  O  O9  1  0.067844  0.567844  0.500000  1
  O  O10  1  0.932156  0.432156  0.500000  1
