# generated using pymatgen
data_La4Os6O19
_symmetry_space_group_name_H-M   'P 1'
_cell_length_a   7.92386074
_cell_length_b   7.92386074
_cell_length_c   7.92386074
_cell_angle_alpha   109.47122063
_cell_angle_beta   109.47122063
_cell_angle_gamma   109.47122063
_symmetry_Int_Tables_number   1
_chemical_formula_structural   La4Os6O19
_chemical_formula_sum   'La4 Os6 O19'
_cell_volume   382.99103821
_cell_formula_units_Z   1
loop_
 _symmetry_equiv_pos_site_id
 _symmetry_equiv_pos_as_xyz
  1  'x, y, z'
loop_
 _atom_site_type_symbol
 _atom_site_label
 _atom_site_symmetry_multiplicity
 _atom_site_fract_x
 _atom_site_fract_y
 _atom_site_fract_z
 _atom_site_occupancy
  La  La0  1  0.314362  0.314362  0.314362  1
  La  La1  1  1.000000  0.685638  0.000000  1
  La  La2  1  1.000000  1.000000  0.685638  1
  La  La3  1  0.685638  1.000000  0.000000  1
  Os  Os4  1  0.500000  0.362806  0.862806  1
  Os  Os5  1  0.637194  0.137194  0.500000  1
  Os  Os6  1  0.137194  0.500000  0.637194  1
  Os  Os7  1  0.362806  0.862806  0.500000  1
  Os  Os8  1  0.862806  0.500000  0.362806  1
  Os  Os9  1  0.500000  0.637194  0.137194  1
  O  O10  1  1.000000  0.324020  0.324020  1
  O  O11  1  0.675980  0.675980  0.000000  1
  O  O12  1  0.675980  1.000000  0.675980  1
  O  O13  1  0.324020  0.324020  0.000000  1
  O  O14  1  0.324020  1.000000  0.324020  1
  O  O15  1  1.000000  0.675980  0.675980  1
  O  O16  1  0.000000  0.000000  0.000000  1
  O  O17  1  0.272147  0.332082  0.627264  1
  O  O18  1  0.644883  0.372736  0.704819  1
  O  O19  1  0.940065  0.295181  0.667918  1
  O  O20  1  0.355117  0.059935  0.727853  1
  O  O21  1  0.372736  0.704819  0.644883  1
  O  O22  1  0.667918  0.940065  0.295181  1
  O  O23  1  0.059935  0.727853  0.355117  1
  O  O24  1  0.627264  0.272147  0.332082  1
  O  O25  1  0.332082  0.627264  0.272147  1
  O  O26  1  0.704819  0.644883  0.372736  1
  O  O27  1  0.295181  0.667918  0.940065  1
  O  O28  1  0.727853  0.355117  0.059935  1
