# generated using pymatgen
data_SrDy2O4
_symmetry_space_group_name_H-M   'P 1'
_cell_length_a   3.43427930
_cell_length_b   10.15742108
_cell_length_c   12.00685702
_cell_angle_alpha   90.00000000
_cell_angle_beta   90.00000000
_cell_angle_gamma   90.00000000
_symmetry_Int_Tables_number   1
_chemical_formula_structural   SrDy2O4
_chemical_formula_sum   'Sr4 Dy8 O16'
_cell_volume   418.84024779
_cell_formula_units_Z   4
loop_
 _symmetry_equiv_pos_site_id
 _symmetry_equiv_pos_as_xyz
  1  'x, y, z'
loop_
 _atom_site_type_symbol
 _atom_site_label
 _atom_site_symmetry_multiplicity
 _atom_site_fract_x
 _atom_site_fract_y
 _atom_site_fract_z
 _atom_site_occupancy
  Sr  Sr0  1  0.750000  0.252446  0.851301  1
  Sr  Sr1  1  0.250000  0.247554  0.351301  1
  Sr  Sr2  1  0.750000  0.752446  0.648699  1
  Sr  Sr3  1  0.250000  0.747554  0.148699  1
  Dy  Dy4  1  0.250000  0.576339  0.888906  1
  Dy  Dy5  1  0.750000  0.422163  0.611983  1
  Dy  Dy6  1  0.250000  0.577837  0.388017  1
  Dy  Dy7  1  0.750000  0.423661  0.111094  1
  Dy  Dy8  1  0.250000  0.076339  0.611094  1
  Dy  Dy9  1  0.250000  0.077837  0.111983  1
  Dy  Dy10  1  0.750000  0.922163  0.888017  1
  Dy  Dy11  1  0.750000  0.923661  0.388906  1
  O  O12  1  0.250000  0.374395  0.980346  1
  O  O13  1  0.250000  0.986271  0.283716  1
  O  O14  1  0.250000  0.573826  0.577542  1
  O  O15  1  0.750000  0.926174  0.077542  1
  O  O16  1  0.750000  0.212177  0.174823  1
  O  O17  1  0.750000  0.125605  0.480346  1
  O  O18  1  0.250000  0.287823  0.674823  1
  O  O19  1  0.250000  0.486271  0.216284  1
  O  O20  1  0.250000  0.073826  0.922458  1
  O  O21  1  0.750000  0.712177  0.325177  1
  O  O22  1  0.750000  0.013729  0.716284  1
  O  O23  1  0.750000  0.426174  0.422458  1
  O  O24  1  0.750000  0.625605  0.019654  1
  O  O25  1  0.750000  0.513729  0.783716  1
  O  O26  1  0.250000  0.874395  0.519654  1
  O  O27  1  0.250000  0.787823  0.825177  1
