# generated using pymatgen
data_Li3CaMnN3
_symmetry_space_group_name_H-M   'P 1'
_cell_length_a   7.04066407
_cell_length_b   7.04066407
_cell_length_c   7.04066407
_cell_angle_alpha   48.22715605
_cell_angle_beta   48.22715605
_cell_angle_gamma   48.22715605
_symmetry_Int_Tables_number   1
_chemical_formula_structural   Li3CaMnN3
_chemical_formula_sum   'Li6 Ca2 Mn2 N6'
_cell_volume   177.93117801
_cell_formula_units_Z   2
loop_
 _symmetry_equiv_pos_site_id
 _symmetry_equiv_pos_as_xyz
  1  'x, y, z'
loop_
 _atom_site_type_symbol
 _atom_site_label
 _atom_site_symmetry_multiplicity
 _atom_site_fract_x
 _atom_site_fract_y
 _atom_site_fract_z
 _atom_site_occupancy
  Li  Li0  1  0.521280  0.760028  0.105326  1
  Li  Li1  1  0.105326  0.521280  0.760028  1
  Li  Li2  1  0.239972  0.894674  0.478720  1
  Li  Li3  1  0.478720  0.239972  0.894674  1
  Li  Li4  1  0.894674  0.478720  0.239972  1
  Li  Li5  1  0.760028  0.105326  0.521280  1
  Ca  Ca6  1  0.662598  0.662598  0.662598  1
  Ca  Ca7  1  0.337402  0.337402  0.337402  1
  Mn  Mn8  1  0.065035  0.065035  0.065035  1
  Mn  Mn9  1  0.934965  0.934965  0.934965  1
  N  N10  1  0.784022  0.383180  0.091752  1
  N  N11  1  0.383180  0.091752  0.784022  1
  N  N12  1  0.215978  0.616820  0.908248  1
  N  N13  1  0.908248  0.215978  0.616820  1
  N  N14  1  0.616820  0.908248  0.215978  1
  N  N15  1  0.091752  0.784022  0.383180  1
