# generated using pymatgen
data_K3(MoO3)10
_symmetry_space_group_name_H-M   'P 1'
_cell_length_a   10.25319951
_cell_length_b   10.25319951
_cell_length_c   10.23248439
_cell_angle_alpha   63.16429018
_cell_angle_beta   116.83570982
_cell_angle_gamma   135.91113272
_symmetry_Int_Tables_number   1
_chemical_formula_structural   K3(MoO3)10
_chemical_formula_sum   'K3 Mo10 O30'
_cell_volume   653.68840397
_cell_formula_units_Z   1
loop_
 _symmetry_equiv_pos_site_id
 _symmetry_equiv_pos_as_xyz
  1  'x, y, z'
loop_
 _atom_site_type_symbol
 _atom_site_label
 _atom_site_symmetry_multiplicity
 _atom_site_fract_x
 _atom_site_fract_y
 _atom_site_fract_z
 _atom_site_occupancy
  K  K0  1  0.500000  0.500000  0.500000  1
  K  K1  1  0.184005  0.815995  0.727555  1
  K  K2  1  0.815995  0.184005  0.272445  1
  Mo  Mo3  1  0.776547  0.223453  0.827850  1
  Mo  Mo4  1  0.223453  0.776547  0.172150  1
  Mo  Mo5  1  0.333479  0.177165  0.958770  1
  Mo  Mo6  1  0.177165  0.333479  0.041230  1
  Mo  Mo7  1  0.666521  0.822835  0.041230  1
  Mo  Mo8  1  0.822835  0.666521  0.958770  1
  Mo  Mo9  1  0.611076  0.889710  0.655069  1
  Mo  Mo10  1  0.889710  0.611076  0.344931  1
  Mo  Mo11  1  0.388924  0.110290  0.344931  1
  Mo  Mo12  1  0.110290  0.388924  0.655069  1
  O  O13  1  0.500000  0.000000  0.500000  1
  O  O14  1  0.000000  0.500000  0.500000  1
  O  O15  1  0.753822  0.246178  0.973123  1
  O  O16  1  0.246178  0.753822  0.026877  1
  O  O17  1  0.683511  0.316489  0.666822  1
  O  O18  1  0.316489  0.683511  0.333178  1
  O  O19  1  0.578429  0.421571  0.985279  1
  O  O20  1  0.421571  0.578429  0.014721  1
  O  O21  1  0.087803  0.912197  0.994113  1
  O  O22  1  0.912197  0.087803  0.005887  1
  O  O23  1  0.844276  0.155724  0.688172  1
  O  O24  1  0.155724  0.844276  0.311828  1
  O  O25  1  0.358073  0.641927  0.669780  1
  O  O26  1  0.641927  0.358073  0.330220  1
  O  O27  1  0.350852  0.155019  0.811148  1
  O  O28  1  0.155019  0.350852  0.188852  1
  O  O29  1  0.649148  0.844981  0.188852  1
  O  O30  1  0.844981  0.649148  0.811148  1
  O  O31  1  0.572736  0.942323  0.839350  1
  O  O32  1  0.942323  0.572736  0.160650  1
  O  O33  1  0.427264  0.057677  0.160650  1
  O  O34  1  0.057677  0.427264  0.839350  1
  O  O35  1  0.688249  0.871273  0.550626  1
  O  O36  1  0.871273  0.688249  0.449374  1
  O  O37  1  0.311751  0.128727  0.449374  1
  O  O38  1  0.128727  0.311751  0.550626  1
  O  O39  1  0.714104  0.794091  0.854253  1
  O  O40  1  0.794091  0.714104  0.145747  1
  O  O41  1  0.285896  0.205909  0.145747  1
  O  O42  1  0.205909  0.285896  0.854253  1
