# generated using pymatgen
data_NaTiP2O7
_symmetry_space_group_name_H-M   'P 1'
_cell_length_a   8.81078007
_cell_length_b   5.31362276
_cell_length_c   13.50745813
_cell_angle_alpha   90.00000000
_cell_angle_beta   116.92938808
_cell_angle_gamma   90.00000000
_symmetry_Int_Tables_number   1
_chemical_formula_structural   NaTiP2O7
_chemical_formula_sum   'Na4 Ti4 P8 O28'
_cell_volume   563.80885272
_cell_formula_units_Z   4
loop_
 _symmetry_equiv_pos_site_id
 _symmetry_equiv_pos_as_xyz
  1  'x, y, z'
loop_
 _atom_site_type_symbol
 _atom_site_label
 _atom_site_symmetry_multiplicity
 _atom_site_fract_x
 _atom_site_fract_y
 _atom_site_fract_z
 _atom_site_occupancy
  Na  Na0  1  0.446388  0.770386  0.810203  1
  Na  Na1  1  0.446388  0.729614  0.310203  1
  Na  Na2  1  0.553612  0.229614  0.189797  1
  Na  Na3  1  0.553612  0.270386  0.689797  1
  Ti  Ti4  1  0.737260  0.264329  0.471289  1
  Ti  Ti5  1  0.262740  0.764329  0.028711  1
  Ti  Ti6  1  0.262740  0.735671  0.528711  1
  Ti  Ti7  1  0.737260  0.235671  0.971289  1
  P  P8  1  0.316517  0.221680  0.384709  1
  P  P9  1  0.683483  0.778320  0.615291  1
  P  P10  1  0.683483  0.721680  0.115291  1
  P  P11  1  0.832890  0.755344  0.854744  1
  P  P12  1  0.832890  0.744656  0.354744  1
  P  P13  1  0.167110  0.244656  0.145256  1
  P  P14  1  0.167110  0.255344  0.645256  1
  P  P15  1  0.316517  0.278320  0.884709  1
  O  O16  1  0.705318  0.903475  0.036516  1
  O  O17  1  0.294682  0.403475  0.463484  1
  O  O18  1  0.692922  0.056075  0.588497  1
  O  O19  1  0.705318  0.596525  0.536516  1
  O  O20  1  0.981491  0.243966  0.558222  1
  O  O21  1  0.748402  0.487498  0.346854  1
  O  O22  1  0.161043  0.281302  0.262910  1
  O  O23  1  0.307078  0.556075  0.911503  1
  O  O24  1  0.251598  0.987498  0.153146  1
  O  O25  1  0.294682  0.096525  0.963484  1
  O  O26  1  0.981491  0.256034  0.058222  1
  O  O27  1  0.725906  0.540021  0.865683  1
  O  O28  1  0.748402  0.012502  0.846854  1
  O  O29  1  0.692922  0.443925  0.088497  1
  O  O30  1  0.521052  0.726122  0.629181  1
  O  O31  1  0.478948  0.273878  0.370819  1
  O  O32  1  0.478948  0.226122  0.870819  1
  O  O33  1  0.307078  0.943925  0.411503  1
  O  O34  1  0.725906  0.959979  0.365683  1
  O  O35  1  0.521052  0.773878  0.129181  1
  O  O36  1  0.018509  0.743966  0.941778  1
  O  O37  1  0.274094  0.040021  0.634317  1
  O  O38  1  0.161043  0.218698  0.762910  1
  O  O39  1  0.838957  0.781302  0.237090  1
  O  O40  1  0.274094  0.459979  0.134317  1
  O  O41  1  0.251598  0.512502  0.653146  1
  O  O42  1  0.018509  0.756034  0.441778  1
  O  O43  1  0.838957  0.718698  0.737090  1
