# generated using pymatgen
data_Sr2NdGaCu2O7
_symmetry_space_group_name_H-M   'P 1'
_cell_length_a   12.28242099
_cell_length_b   12.28242099
_cell_length_c   12.28242099
_cell_angle_alpha   154.27060896
_cell_angle_beta   153.69684636
_cell_angle_gamma   37.12539524
_symmetry_Int_Tables_number   1
_chemical_formula_structural   Sr2NdGaCu2O7
_chemical_formula_sum   'Sr4 Nd2 Ga2 Cu4 O14'
_cell_volume   355.93084795
_cell_formula_units_Z   2
loop_
 _symmetry_equiv_pos_site_id
 _symmetry_equiv_pos_as_xyz
  1  'x, y, z'
loop_
 _atom_site_type_symbol
 _atom_site_label
 _atom_site_symmetry_multiplicity
 _atom_site_fract_x
 _atom_site_fract_y
 _atom_site_fract_z
 _atom_site_occupancy
  Sr  Sr0  1  0.171702  0.652212  0.518677  1
  Sr  Sr1  1  0.828298  0.346975  0.480510  1
  Sr  Sr2  1  0.633535  0.152212  0.480510  1
  Sr  Sr3  1  0.366465  0.846975  0.518677  1
  Nd  Nd4  1  0.000000  0.500809  0.500809  1
  Nd  Nd5  1  0.500000  0.000809  0.500809  1
  Ga  Ga6  1  0.179180  0.217468  0.896648  1
  Ga  Ga7  1  0.820820  0.717468  0.038288  1
  Cu  Cu8  1  0.073898  0.076829  0.000318  1
  Cu  Cu9  1  0.926102  0.926420  0.002931  1
  Cu  Cu10  1  0.576511  0.576829  0.002931  1
  Cu  Cu11  1  0.423489  0.426420  0.000318  1
  O  O12  1  0.869948  0.369006  0.738953  1
  O  O13  1  0.130052  0.869006  0.499058  1
  O  O14  1  0.817185  0.318881  0.000873  1
  O  O15  1  0.182815  0.183688  0.501696  1
  O  O16  1  0.818008  0.818881  0.501696  1
  O  O17  1  0.181992  0.683688  0.000873  1
  O  O18  1  0.313560  0.815926  0.998806  1
  O  O19  1  0.686440  0.685246  0.502366  1
  O  O20  1  0.317120  0.315926  0.502366  1
  O  O21  1  0.682880  0.185246  0.998806  1
  O  O22  1  0.630631  0.711180  0.986899  1
  O  O23  1  0.369369  0.356268  0.080549  1
  O  O24  1  0.224281  0.211180  0.080549  1
  O  O25  1  0.775719  0.856268  0.986899  1
