# generated using pymatgen
data_Tb2TiO5
_symmetry_space_group_name_H-M   'P 1'
_cell_length_a   7.27676675
_cell_length_b   7.38028731
_cell_length_c   18.25830925
_cell_angle_alpha   87.91525661
_cell_angle_beta   88.12314102
_cell_angle_gamma   62.50305133
_symmetry_Int_Tables_number   1
_chemical_formula_structural   Tb2TiO5
_chemical_formula_sum   'Tb16 Ti8 O40'
_cell_volume   869.07114624
_cell_formula_units_Z   8
loop_
 _symmetry_equiv_pos_site_id
 _symmetry_equiv_pos_as_xyz
  1  'x, y, z'
loop_
 _atom_site_type_symbol
 _atom_site_label
 _atom_site_symmetry_multiplicity
 _atom_site_fract_x
 _atom_site_fract_y
 _atom_site_fract_z
 _atom_site_occupancy
  Tb  Tb0  1  0.022791  0.449593  0.996062  1
  Tb  Tb1  1  0.498675  0.976815  0.012657  1
  Tb  Tb2  1  0.298014  0.293231  0.175653  1
  Tb  Tb3  1  0.665102  0.160859  0.330406  1
  Tb  Tb4  1  0.995531  0.500560  0.479154  1
  Tb  Tb5  1  0.537026  0.448757  0.000640  1
  Tb  Tb6  1  0.196633  0.705059  0.324086  1
  Tb  Tb7  1  0.489600  0.514044  0.490209  1
  Tb  Tb8  1  0.813006  0.800533  0.177829  1
  Tb  Tb9  1  0.025251  0.964299  0.497009  1
  Tb  Tb10  1  0.341114  0.855957  0.662512  1
  Tb  Tb11  1  0.650410  0.170332  0.835605  1
  Tb  Tb12  1  0.844415  0.335585  0.663719  1
  Tb  Tb13  1  0.150621  0.162948  0.825802  1
  Tb  Tb14  1  0.667847  0.637352  0.836632  1
  Tb  Tb15  1  0.175431  0.653442  0.814605  1
  Ti  Ti16  1  0.953187  0.993949  0.990549  1
  Ti  Ti17  1  0.338519  0.768105  0.136929  1
  Ti  Ti18  1  0.558629  0.955318  0.515646  1
  Ti  Ti19  1  0.824987  0.347774  0.179805  1
  Ti  Ti20  1  0.661629  0.667792  0.339446  1
  Ti  Ti21  1  0.163930  0.173027  0.349054  1
  Ti  Ti22  1  0.311007  0.330994  0.657853  1
  Ti  Ti23  1  0.863634  0.818819  0.665564  1
  O  O24  1  0.250425  0.829045  0.042888  1
  O  O25  1  0.703343  0.568220  0.239831  1
  O  O26  1  0.463520  0.945315  0.142386  1
  O  O27  1  0.065285  0.185502  0.228451  1
  O  O28  1  0.872552  0.834262  0.049863  1
  O  O29  1  0.322110  0.298902  0.302836  1
  O  O30  1  0.934636  0.426376  0.364309  1
  O  O31  1  0.963907  0.478385  0.128065  1
  O  O32  1  0.086119  0.395871  0.591142  1
  O  O33  1  0.690706  0.166094  0.202722  1
  O  O34  1  0.331997  0.328023  0.054374  1
  O  O35  1  0.813781  0.816192  0.306454  1
  O  O36  1  0.549683  0.525373  0.119797  1
  O  O37  1  0.175863  0.651375  0.449288  1
  O  O38  1  0.833482  0.800235  0.545978  1
  O  O39  1  0.529611  0.491003  0.363884  1
  O  O40  1  0.167576  0.697811  0.199526  1
  O  O41  1  0.947900  0.018978  0.621421  1
  O  O42  1  0.813964  0.324864  0.785987  1
  O  O43  1  0.627591  0.145836  0.465590  1
  O  O44  1  0.020367  0.944661  0.890109  1
  O  O45  1  0.390125  0.881556  0.323733  1
  O  O46  1  0.884635  0.245011  0.032303  1
  O  O47  1  0.998520  0.023336  0.370529  1
  O  O48  1  0.353208  0.828560  0.539510  1
  O  O49  1  0.220988  0.159959  0.449478  1
  O  O50  1  0.511048  0.414280  0.612462  1
  O  O51  1  0.464587  0.494557  0.880633  1
  O  O52  1  0.168496  0.171454  0.701436  1
  O  O53  1  0.666120  0.667241  0.959948  1
  O  O54  1  0.358371  0.832823  0.786200  1
  O  O55  1  0.007053  0.503937  0.868606  1
  O  O56  1  0.140161  0.643480  0.686608  1
  O  O57  1  0.658207  0.699902  0.448613  1
  O  O58  1  0.702964  0.674568  0.675210  1
  O  O59  1  0.804395  0.892514  0.763592  1
  O  O60  1  0.257295  0.145858  0.936885  1
  O  O61  1  0.488939  0.059118  0.610734  1
  O  O62  1  0.667840  0.128364  0.955860  1
  O  O63  1  0.378979  0.309344  0.762004  1
