# generated using pymatgen
data_NaSm(PS3)2
_symmetry_space_group_name_H-M   'P 1'
_cell_length_a   11.17418718
_cell_length_b   7.40384519
_cell_length_c   11.75623435
_cell_angle_alpha   90.00000000
_cell_angle_beta   111.22984069
_cell_angle_gamma   90.00000000
_symmetry_Int_Tables_number   1
_chemical_formula_structural   NaSm(PS3)2
_chemical_formula_sum   'Na4 Sm4 P8 S24'
_cell_volume   906.60994181
_cell_formula_units_Z   4
loop_
 _symmetry_equiv_pos_site_id
 _symmetry_equiv_pos_as_xyz
  1  'x, y, z'
loop_
 _atom_site_type_symbol
 _atom_site_label
 _atom_site_symmetry_multiplicity
 _atom_site_fract_x
 _atom_site_fract_y
 _atom_site_fract_z
 _atom_site_occupancy
  Na  Na0  1  0.121029  0.109294  0.360004  1
  Na  Na1  1  0.621029  0.390706  0.360004  1
  Na  Na2  1  0.378971  0.609294  0.639996  1
  Na  Na3  1  0.878971  0.890706  0.639996  1
  Sm  Sm4  1  0.091002  0.389826  0.847409  1
  Sm  Sm5  1  0.591002  0.110174  0.847409  1
  Sm  Sm6  1  0.408998  0.889826  0.152591  1
  Sm  Sm7  1  0.908998  0.610174  0.152591  1
  P  P8  1  0.250563  0.615493  0.306137  1
  P  P9  1  0.749437  0.384507  0.693863  1
  P  P10  1  0.249437  0.115493  0.693863  1
  P  P11  1  0.750563  0.884507  0.306137  1
  P  P12  1  0.749788  0.602946  0.824599  1
  P  P13  1  0.750212  0.102946  0.175401  1
  P  P14  1  0.249788  0.897054  0.824599  1
  P  P15  1  0.250212  0.397054  0.175401  1
  S  S16  1  0.435448  0.813916  0.907805  1
  S  S17  1  0.838272  0.491733  0.589243  1
  S  S18  1  0.133467  0.704055  0.718835  1
  S  S19  1  0.866533  0.295945  0.281165  1
  S  S20  1  0.645148  0.686399  0.193531  1
  S  S21  1  0.935448  0.686084  0.907805  1
  S  S22  1  0.145148  0.813601  0.193531  1
  S  S23  1  0.313181  0.520744  0.050853  1
  S  S24  1  0.186819  0.020744  0.949147  1
  S  S25  1  0.633467  0.795945  0.718835  1
  S  S26  1  0.161728  0.508267  0.410757  1
  S  S27  1  0.354852  0.313601  0.806469  1
  S  S28  1  0.064552  0.313916  0.092195  1
  S  S29  1  0.434886  0.700611  0.378250  1
  S  S30  1  0.934886  0.799389  0.378250  1
  S  S31  1  0.854852  0.186399  0.806469  1
  S  S32  1  0.366533  0.204055  0.281165  1
  S  S33  1  0.065114  0.200611  0.621750  1
  S  S34  1  0.686819  0.479256  0.949147  1
  S  S35  1  0.565114  0.299389  0.621750  1
  S  S36  1  0.564552  0.186084  0.092195  1
  S  S37  1  0.813181  0.979256  0.050853  1
  S  S38  1  0.661728  0.991733  0.410757  1
  S  S39  1  0.338272  0.008267  0.589243  1
