# generated using pymatgen
data_K2Mo2H8O15
_symmetry_space_group_name_H-M   'P 1'
_cell_length_a   6.43289050
_cell_length_b   9.88203637
_cell_length_c   11.42819172
_cell_angle_alpha   77.59562979
_cell_angle_beta   79.81770082
_cell_angle_gamma   73.59413196
_symmetry_Int_Tables_number   1
_chemical_formula_structural   K2Mo2H8O15
_chemical_formula_sum   'K4 Mo4 H16 O30'
_cell_volume   675.39580963
_cell_formula_units_Z   2
loop_
 _symmetry_equiv_pos_site_id
 _symmetry_equiv_pos_as_xyz
  1  'x, y, z'
loop_
 _atom_site_type_symbol
 _atom_site_label
 _atom_site_symmetry_multiplicity
 _atom_site_fract_x
 _atom_site_fract_y
 _atom_site_fract_z
 _atom_site_occupancy
  K  K0  1  0.219837  0.622287  0.365742  1
  K  K1  1  0.250161  0.734061  0.006270  1
  K  K2  1  0.780163  0.377713  0.634258  1
  K  K3  1  0.749839  0.265939  0.993730  1
  Mo  Mo4  1  0.808439  0.893590  0.790660  1
  Mo  Mo5  1  0.850868  0.470285  0.229864  1
  Mo  Mo6  1  0.191561  0.106410  0.209340  1
  Mo  Mo7  1  0.149132  0.529715  0.770136  1
  H  H8  1  0.678080  0.113121  0.558812  1
  H  H9  1  0.494990  0.685677  0.727897  1
  H  H10  1  0.155884  0.121830  0.522608  1
  H  H11  1  0.572180  0.301890  0.402664  1
  H  H12  1  0.844116  0.878170  0.477392  1
  H  H13  1  0.712519  0.771122  0.068357  1
  H  H14  1  0.321920  0.886879  0.441188  1
  H  H15  1  0.572515  0.811177  0.432123  1
  H  H16  1  0.287481  0.228878  0.931643  1
  H  H17  1  0.427485  0.188823  0.567877  1
  H  H18  1  0.505010  0.314323  0.272103  1
  H  H19  1  0.427820  0.698110  0.597336  1
  H  H20  1  0.706369  0.933380  0.056566  1
  H  H21  1  0.156132  0.075070  0.664644  1
  H  H22  1  0.843868  0.924930  0.335356  1
  H  H23  1  0.293631  0.066620  0.943434  1
  O  O24  1  0.662317  0.522432  0.098216  1
  O  O25  1  0.575303  0.207678  0.542593  1
  O  O26  1  0.055628  0.620191  0.609354  1
  O  O27  1  0.175075  0.151865  0.595766  1
  O  O28  1  0.200707  0.474248  0.609106  1
  O  O29  1  0.824925  0.848135  0.404234  1
  O  O30  1  0.484836  0.936910  0.824281  1
  O  O31  1  0.451843  0.631732  0.676895  1
  O  O32  1  0.837067  0.927788  0.633507  1
  O  O33  1  0.794284  0.084712  0.825443  1
  O  O34  1  0.205716  0.915288  0.174557  1
  O  O35  1  0.337683  0.477568  0.901784  1
  O  O36  1  0.063482  0.549159  0.166759  1
  O  O37  1  0.515164  0.063090  0.175719  1
  O  O38  1  0.032568  0.716643  0.822288  1
  O  O39  1  0.772872  0.849649  0.017049  1
  O  O40  1  0.548157  0.368268  0.323105  1
  O  O41  1  0.020258  0.993131  0.820598  1
  O  O42  1  0.599990  0.635397  0.173334  1
  O  O43  1  0.979742  0.006869  0.179402  1
  O  O44  1  0.424697  0.792322  0.457407  1
  O  O45  1  0.967432  0.283357  0.177712  1
  O  O46  1  0.944372  0.379809  0.390646  1
  O  O47  1  0.400010  0.364603  0.826666  1
  O  O48  1  0.162933  0.072212  0.366493  1
  O  O49  1  0.582565  0.781172  0.830443  1
  O  O50  1  0.936518  0.450841  0.833241  1
  O  O51  1  0.799293  0.525752  0.390894  1
  O  O52  1  0.417435  0.218828  0.169557  1
  O  O53  1  0.227128  0.150351  0.982951  1
