# generated using pymatgen
data_SnO2
_symmetry_space_group_name_H-M   'P 1'
_cell_length_a   4.80642087
_cell_length_b   5.82370917
_cell_length_c   16.10126713
_cell_angle_alpha   90.00000000
_cell_angle_beta   90.00000000
_cell_angle_gamma   90.00000000
_symmetry_Int_Tables_number   1
_chemical_formula_structural   SnO2
_chemical_formula_sum   'Sn12 O24'
_cell_volume   450.69374494
_cell_formula_units_Z   12
loop_
 _symmetry_equiv_pos_site_id
 _symmetry_equiv_pos_as_xyz
  1  'x, y, z'
loop_
 _atom_site_type_symbol
 _atom_site_label
 _atom_site_symmetry_multiplicity
 _atom_site_fract_x
 _atom_site_fract_y
 _atom_site_fract_z
 _atom_site_occupancy
  Sn  Sn0  1  0.996976  0.343664  0.416044  1
  Sn  Sn1  1  0.503024  0.156336  0.916044  1
  Sn  Sn2  1  0.003024  0.343664  0.083956  1
  Sn  Sn3  1  0.000000  0.020772  0.250000  1
  Sn  Sn4  1  0.996976  0.656336  0.916044  1
  Sn  Sn5  1  0.496976  0.843664  0.083956  1
  Sn  Sn6  1  0.496976  0.156336  0.583956  1
  Sn  Sn7  1  0.500000  0.479228  0.750000  1
  Sn  Sn8  1  0.503024  0.843664  0.416044  1
  Sn  Sn9  1  0.500000  0.520772  0.250000  1
  Sn  Sn10  1  0.003024  0.656336  0.583956  1
  Sn  Sn11  1  0.000000  0.979228  0.750000  1
  O  O12  1  0.210856  0.934119  0.862199  1
  O  O13  1  0.272886  0.205174  0.694730  1
  O  O14  1  0.789144  0.934119  0.637801  1
  O  O15  1  0.706251  0.123828  0.470511  1
  O  O16  1  0.227114  0.294826  0.194730  1
  O  O17  1  0.289144  0.434119  0.862199  1
  O  O18  1  0.710856  0.565881  0.137801  1
  O  O19  1  0.793749  0.376172  0.970511  1
  O  O20  1  0.706251  0.876172  0.970511  1
  O  O21  1  0.206251  0.623828  0.029489  1
  O  O22  1  0.289144  0.565881  0.362199  1
  O  O23  1  0.710856  0.434119  0.637801  1
  O  O24  1  0.293749  0.123828  0.029489  1
  O  O25  1  0.293749  0.876172  0.529489  1
  O  O26  1  0.772886  0.705174  0.805270  1
  O  O27  1  0.210856  0.065881  0.362199  1
  O  O28  1  0.789144  0.065881  0.137801  1
  O  O29  1  0.272886  0.794826  0.194730  1
  O  O30  1  0.727114  0.205174  0.805270  1
  O  O31  1  0.772886  0.294826  0.305270  1
  O  O32  1  0.727114  0.794826  0.305270  1
  O  O33  1  0.206251  0.376172  0.529489  1
  O  O34  1  0.793749  0.623828  0.470511  1
  O  O35  1  0.227114  0.705174  0.694730  1
