# generated using pymatgen
data_CuPO4
_symmetry_space_group_name_H-M   'P 1'
_cell_length_a   4.64591328
_cell_length_b   4.64591328
_cell_length_c   4.64591328
_cell_angle_alpha   108.61763641
_cell_angle_beta   108.61763641
_cell_angle_gamma   111.19221818
_symmetry_Int_Tables_number   1
_chemical_formula_structural   CuPO4
_chemical_formula_sum   'Cu1 P1 O4'
_cell_volume   77.14298483
_cell_formula_units_Z   1
loop_
 _symmetry_equiv_pos_site_id
 _symmetry_equiv_pos_as_xyz
  1  'x, y, z'
loop_
 _atom_site_type_symbol
 _atom_site_label
 _atom_site_symmetry_multiplicity
 _atom_site_fract_x
 _atom_site_fract_y
 _atom_site_fract_z
 _atom_site_occupancy
  Cu  Cu0  1  0.000000  0.000000  0.000000  1
  P  P1  1  0.750000  0.250000  0.500000  1
  O  O2  1  0.393283  0.948484  0.164352  1
  O  O3  1  0.771069  0.606717  0.555201  1
  O  O4  1  0.784132  0.228931  0.835648  1
  O  O5  1  0.051516  0.215868  0.444799  1
