# generated using pymatgen
data_AsSeS2N2ClF6
_symmetry_space_group_name_H-M   'P 1'
_cell_length_a   9.54553560
_cell_length_b   19.99068716
_cell_length_c   12.49592662
_cell_angle_alpha   90.00000000
_cell_angle_beta   122.39679556
_cell_angle_gamma   90.00000000
_symmetry_Int_Tables_number   1
_chemical_formula_structural   AsSeS2N2ClF6
_chemical_formula_sum   'As8 Se8 S16 N16 Cl8 F48'
_cell_volume   2013.36751860
_cell_formula_units_Z   8
loop_
 _symmetry_equiv_pos_site_id
 _symmetry_equiv_pos_as_xyz
  1  'x, y, z'
loop_
 _atom_site_type_symbol
 _atom_site_label
 _atom_site_symmetry_multiplicity
 _atom_site_fract_x
 _atom_site_fract_y
 _atom_site_fract_z
 _atom_site_occupancy
  As  As0  1  0.499709  0.965033  0.752083  1
  As  As1  1  0.029546  0.207710  0.599722  1
  As  As2  1  0.970454  0.707710  0.900278  1
  As  As3  1  0.499709  0.534967  0.252083  1
  As  As4  1  0.500291  0.034967  0.247917  1
  As  As5  1  0.029546  0.292290  0.099722  1
  As  As6  1  0.500291  0.465033  0.747917  1
  As  As7  1  0.970454  0.792290  0.400278  1
  Se  Se8  1  0.392919  0.278306  0.530854  1
  Se  Se9  1  0.141395  0.484762  0.323865  1
  Se  Se10  1  0.858605  0.984762  0.176135  1
  Se  Se11  1  0.392919  0.221694  0.030854  1
  Se  Se12  1  0.858605  0.515238  0.676135  1
  Se  Se13  1  0.607081  0.778306  0.969146  1
  Se  Se14  1  0.607081  0.721694  0.469146  1
  Se  Se15  1  0.141395  0.015238  0.823865  1
  S  S16  1  0.437798  0.649559  0.899079  1
  S  S17  1  0.916258  0.492670  0.112737  1
  S  S18  1  0.067781  0.103137  0.245930  1
  S  S19  1  0.388671  0.735769  0.256699  1
  S  S20  1  0.388671  0.764231  0.756699  1
  S  S21  1  0.611329  0.235769  0.243301  1
  S  S22  1  0.932219  0.896863  0.754070  1
  S  S23  1  0.083742  0.507330  0.887263  1
  S  S24  1  0.932219  0.603137  0.254070  1
  S  S25  1  0.916258  0.007330  0.612737  1
  S  S26  1  0.083742  0.992670  0.387263  1
  S  S27  1  0.067781  0.396863  0.745930  1
  S  S28  1  0.611329  0.264231  0.743301  1
  S  S29  1  0.562202  0.350441  0.100921  1
  S  S30  1  0.437798  0.850441  0.399079  1
  S  S31  1  0.562202  0.149559  0.600921  1
  N  N32  1  0.587475  0.805736  0.504140  1
  N  N33  1  0.341461  0.809888  0.272498  1
  N  N34  1  0.097777  0.934595  0.857369  1
  N  N35  1  0.097777  0.565405  0.357369  1
  N  N36  1  0.412525  0.305736  0.995860  1
  N  N37  1  0.587475  0.694264  0.004140  1
  N  N38  1  0.902223  0.434595  0.642631  1
  N  N39  1  0.902223  0.065405  0.142631  1
  N  N40  1  0.845781  0.938094  0.627897  1
  N  N41  1  0.658539  0.309888  0.227502  1
  N  N42  1  0.154219  0.061906  0.372103  1
  N  N43  1  0.154219  0.438094  0.872103  1
  N  N44  1  0.412525  0.194264  0.495860  1
  N  N45  1  0.658539  0.190112  0.727502  1
  N  N46  1  0.341461  0.690112  0.772498  1
  N  N47  1  0.845781  0.561906  0.127897  1
  Cl  Cl48  1  0.962520  0.586574  0.597636  1
  Cl  Cl49  1  0.477741  0.660306  0.541253  1
  Cl  Cl50  1  0.962520  0.913426  0.097636  1
  Cl  Cl51  1  0.477741  0.839694  0.041253  1
  Cl  Cl52  1  0.522259  0.339694  0.458747  1
  Cl  Cl53  1  0.522259  0.160306  0.958747  1
  Cl  Cl54  1  0.037480  0.086574  0.902364  1
  Cl  Cl55  1  0.037480  0.413426  0.402364  1
  F  F56  1  0.445779  0.014070  0.092087  1
  F  F57  1  0.761676  0.767612  0.341894  1
  F  F58  1  0.690490  0.502283  0.283942  1
  F  F59  1  0.593024  0.615799  0.308034  1
  F  F60  1  0.402052  0.456323  0.195564  1
  F  F61  1  0.823255  0.317923  0.042551  1
  F  F62  1  0.238324  0.232388  0.658106  1
  F  F63  1  0.057254  0.231712  0.746553  1
  F  F64  1  0.402052  0.043677  0.695564  1
  F  F65  1  0.007507  0.182836  0.455717  1
  F  F66  1  0.992493  0.682836  0.044283  1
  F  F67  1  0.942746  0.768288  0.253447  1
  F  F68  1  0.554181  0.442349  0.902662  1
  F  F69  1  0.308299  0.568671  0.221315  1
  F  F70  1  0.445819  0.942349  0.597338  1
  F  F71  1  0.958999  0.289269  0.539014  1
  F  F72  1  0.176745  0.817923  0.457449  1
  F  F73  1  0.992493  0.817164  0.544283  1
  F  F74  1  0.690490  0.997717  0.783942  1
  F  F75  1  0.007507  0.317164  0.955717  1
  F  F76  1  0.406976  0.115799  0.191966  1
  F  F77  1  0.898241  0.874753  0.337690  1
  F  F78  1  0.041001  0.789269  0.960986  1
  F  F79  1  0.823255  0.182077  0.542551  1
  F  F80  1  0.101759  0.125247  0.662310  1
  F  F81  1  0.445779  0.485930  0.592087  1
  F  F82  1  0.309510  0.002283  0.216058  1
  F  F83  1  0.238324  0.267612  0.158106  1
  F  F84  1  0.308299  0.931329  0.721315  1
  F  F85  1  0.445819  0.557651  0.097338  1
  F  F86  1  0.942746  0.731712  0.753447  1
  F  F87  1  0.691701  0.431329  0.778685  1
  F  F88  1  0.761676  0.732388  0.841894  1
  F  F89  1  0.898241  0.625247  0.837690  1
  F  F90  1  0.958999  0.210731  0.039014  1
  F  F91  1  0.554221  0.514070  0.407913  1
  F  F92  1  0.041001  0.710731  0.460986  1
  F  F93  1  0.593024  0.884201  0.808034  1
  F  F94  1  0.691701  0.068671  0.278685  1
  F  F95  1  0.309510  0.497717  0.716058  1
  F  F96  1  0.597948  0.956323  0.304436  1
  F  F97  1  0.101759  0.374753  0.162310  1
  F  F98  1  0.597948  0.543677  0.804436  1
  F  F99  1  0.057254  0.268288  0.246553  1
  F  F100  1  0.406976  0.384201  0.691966  1
  F  F101  1  0.554221  0.985930  0.907913  1
  F  F102  1  0.554181  0.057651  0.402662  1
  F  F103  1  0.176745  0.682077  0.957449  1
