# generated using pymatgen
data_PrCoSb3
_symmetry_space_group_name_H-M   'P 1'
_cell_length_a   6.21240539
_cell_length_b   12.17022653
_cell_length_c   12.85542867
_cell_angle_alpha   90.00000000
_cell_angle_beta   90.00000000
_cell_angle_gamma   90.00000000
_symmetry_Int_Tables_number   1
_chemical_formula_structural   PrCoSb3
_chemical_formula_sum   'Pr8 Co8 Sb24'
_cell_volume   971.95243656
_cell_formula_units_Z   8
loop_
 _symmetry_equiv_pos_site_id
 _symmetry_equiv_pos_as_xyz
  1  'x, y, z'
loop_
 _atom_site_type_symbol
 _atom_site_label
 _atom_site_symmetry_multiplicity
 _atom_site_fract_x
 _atom_site_fract_y
 _atom_site_fract_z
 _atom_site_occupancy
  Pr  Pr0  1  0.224202  0.250000  0.302813  1
  Pr  Pr1  1  0.250000  0.500000  0.700659  1
  Pr  Pr2  1  0.750000  0.000000  0.299341  1
  Pr  Pr3  1  0.775798  0.750000  0.697187  1
  Pr  Pr4  1  0.724202  0.250000  0.697187  1
  Pr  Pr5  1  0.250000  0.000000  0.700659  1
  Pr  Pr6  1  0.275798  0.750000  0.302813  1
  Pr  Pr7  1  0.750000  0.500000  0.299341  1
  Co  Co8  1  0.037935  0.636032  0.097157  1
  Co  Co9  1  0.537935  0.636032  0.902843  1
  Co  Co10  1  0.537935  0.863968  0.902843  1
  Co  Co11  1  0.037935  0.863968  0.097157  1
  Co  Co12  1  0.462065  0.363968  0.097157  1
  Co  Co13  1  0.462065  0.136032  0.097157  1
  Co  Co14  1  0.962065  0.136032  0.902843  1
  Co  Co15  1  0.962065  0.363968  0.902843  1
  Sb  Sb16  1  0.884540  0.750000  0.945024  1
  Sb  Sb17  1  0.750000  0.500000  0.782719  1
  Sb  Sb18  1  0.615460  0.250000  0.945024  1
  Sb  Sb19  1  0.250000  0.000000  0.972414  1
  Sb  Sb20  1  0.250000  0.000000  0.217281  1
  Sb  Sb21  1  0.486678  0.124230  0.497536  1
  Sb  Sb22  1  0.513322  0.624230  0.502464  1
  Sb  Sb23  1  0.231510  0.250000  0.788227  1
  Sb  Sb24  1  0.750000  0.500000  0.027586  1
  Sb  Sb25  1  0.013322  0.624230  0.497536  1
  Sb  Sb26  1  0.013322  0.875770  0.497536  1
  Sb  Sb27  1  0.115460  0.250000  0.054976  1
  Sb  Sb28  1  0.768490  0.750000  0.211773  1
  Sb  Sb29  1  0.513322  0.875770  0.502464  1
  Sb  Sb30  1  0.750000  0.000000  0.782719  1
  Sb  Sb31  1  0.250000  0.500000  0.972414  1
  Sb  Sb32  1  0.486678  0.375770  0.497536  1
  Sb  Sb33  1  0.986678  0.375770  0.502464  1
  Sb  Sb34  1  0.268490  0.750000  0.788227  1
  Sb  Sb35  1  0.731510  0.250000  0.211773  1
  Sb  Sb36  1  0.250000  0.500000  0.217281  1
  Sb  Sb37  1  0.750000  0.000000  0.027586  1
  Sb  Sb38  1  0.986678  0.124230  0.502464  1
  Sb  Sb39  1  0.384540  0.750000  0.054976  1
