# generated using pymatgen
data_Rb2Cd3H6S3O16
_symmetry_space_group_name_H-M   'P 1'
_cell_length_a   10.34343797
_cell_length_b   10.34343797
_cell_length_c   10.37668252
_cell_angle_alpha   90.00000000
_cell_angle_beta   90.00000000
_cell_angle_gamma   132.57765093
_symmetry_Int_Tables_number   1
_chemical_formula_structural   Rb2Cd3H6S3O16
_chemical_formula_sum   'Rb4 Cd6 H12 S6 O32'
_cell_volume   817.48382900
_cell_formula_units_Z   2
loop_
 _symmetry_equiv_pos_site_id
 _symmetry_equiv_pos_as_xyz
  1  'x, y, z'
loop_
 _atom_site_type_symbol
 _atom_site_label
 _atom_site_symmetry_multiplicity
 _atom_site_fract_x
 _atom_site_fract_y
 _atom_site_fract_z
 _atom_site_occupancy
  Rb  Rb0  1  0.768732  0.143576  0.219500  1
  Rb  Rb1  1  0.231267  0.856424  0.719500  1
  Rb  Rb2  1  0.856424  0.231267  0.719500  1
  Rb  Rb3  1  0.143576  0.768733  0.219500  1
  Cd  Cd4  1  0.557670  0.372245  0.162240  1
  Cd  Cd5  1  0.442330  0.627755  0.662240  1
  Cd  Cd6  1  0.627755  0.442330  0.662240  1
  Cd  Cd7  1  0.372245  0.557670  0.162240  1
  Cd  Cd8  1  0.182471  0.182471  0.451255  1
  Cd  Cd9  1  0.817529  0.817529  0.951255  1
  H  H10  1  0.547864  0.547864  0.467601  1
  H  H11  1  0.452136  0.452136  0.967601  1
  H  H12  1  0.427349  0.427349  0.332788  1
  H  H13  1  0.572651  0.572651  0.832788  1
  H  H14  1  0.431779  0.079251  0.000536  1
  H  H15  1  0.568221  0.920749  0.500536  1
  H  H16  1  0.920749  0.568221  0.500536  1
  H  H17  1  0.079251  0.431779  0.000536  1
  H  H18  1  0.290853  0.096173  0.997090  1
  H  H19  1  0.709147  0.903827  0.497090  1
  H  H20  1  0.903827  0.709147  0.497090  1
  H  H21  1  0.096173  0.290853  0.997090  1
  S  S22  1  0.879194  0.521971  0.941772  1
  S  S23  1  0.120806  0.478029  0.441772  1
  S  S24  1  0.478029  0.120806  0.441772  1
  S  S25  1  0.521971  0.879194  0.941772  1
  S  S26  1  0.195139  0.195139  0.783770  1
  S  S27  1  0.804861  0.804861  0.283770  1
  O  O28  1  0.800509  0.438464  0.071211  1
  O  O29  1  0.199491  0.561536  0.571211  1
  O  O30  1  0.561536  0.199491  0.571211  1
  O  O31  1  0.438464  0.800509  0.071211  1
  O  O32  1  0.954261  0.707194  0.943890  1
  O  O33  1  0.045739  0.292806  0.443890  1
  O  O34  1  0.292806  0.045739  0.443890  1
  O  O35  1  0.707194  0.954261  0.943890  1
  O  O36  1  0.744580  0.417385  0.839144  1
  O  O37  1  0.255420  0.582615  0.339144  1
  O  O38  1  0.582615  0.255420  0.339144  1
  O  O39  1  0.417385  0.744580  0.839144  1
  O  O40  1  0.025479  0.529129  0.917059  1
  O  O41  1  0.974521  0.470871  0.417059  1
  O  O42  1  0.470871  0.974521  0.417059  1
  O  O43  1  0.529129  0.025479  0.917059  1
  O  O44  1  0.091656  0.091656  0.666654  1
  O  O45  1  0.908344  0.908344  0.166654  1
  O  O46  1  0.092040  0.092040  0.903237  1
  O  O47  1  0.907960  0.907960  0.403237  1
  O  O48  1  0.362357  0.232906  0.788664  1
  O  O49  1  0.637643  0.767094  0.288664  1
  O  O50  1  0.767094  0.637643  0.288664  1
  O  O51  1  0.232906  0.362357  0.788664  1
  O  O52  1  0.461713  0.461713  0.531569  1
  O  O53  1  0.538287  0.538287  0.031569  1
  O  O54  1  0.341063  0.341063  0.268859  1
  O  O55  1  0.658937  0.658937  0.768859  1
  O  O56  1  0.366539  0.098730  0.055910  1
  O  O57  1  0.633461  0.901270  0.555910  1
  O  O58  1  0.901270  0.633461  0.555910  1
  O  O59  1  0.098730  0.366539  0.055910  1
