# generated using pymatgen
data_Na2InNiF7
_symmetry_space_group_name_H-M   'P 1'
_cell_length_a   7.42913350
_cell_length_b   7.59947627
_cell_length_c   10.42856330
_cell_angle_alpha   90.00000000
_cell_angle_beta   90.00000000
_cell_angle_gamma   90.00000000
_symmetry_Int_Tables_number   1
_chemical_formula_structural   Na2InNiF7
_chemical_formula_sum   'Na8 In4 Ni4 F28'
_cell_volume   588.77086008
_cell_formula_units_Z   4
loop_
 _symmetry_equiv_pos_site_id
 _symmetry_equiv_pos_as_xyz
  1  'x, y, z'
loop_
 _atom_site_type_symbol
 _atom_site_label
 _atom_site_symmetry_multiplicity
 _atom_site_fract_x
 _atom_site_fract_y
 _atom_site_fract_z
 _atom_site_occupancy
  Na  Na0  1  0.000000  0.500000  0.000000  1
  Na  Na1  1  0.500000  0.500000  0.000000  1
  Na  Na2  1  0.000000  0.000000  0.500000  1
  Na  Na3  1  0.500000  0.000000  0.500000  1
  Na  Na4  1  0.250000  0.247223  0.768763  1
  Na  Na5  1  0.250000  0.252777  0.268763  1
  Na  Na6  1  0.750000  0.747223  0.731237  1
  Na  Na7  1  0.750000  0.752777  0.231237  1
  In  In8  1  0.250000  0.772442  0.768018  1
  In  In9  1  0.750000  0.227558  0.231982  1
  In  In10  1  0.750000  0.272442  0.731982  1
  In  In11  1  0.250000  0.727558  0.268018  1
  Ni  Ni12  1  0.500000  0.500000  0.500000  1
  Ni  Ni13  1  0.500000  0.000000  0.000000  1
  Ni  Ni14  1  0.000000  0.500000  0.500000  1
  Ni  Ni15  1  0.000000  0.000000  0.000000  1
  F  F16  1  0.494791  0.303230  0.631257  1
  F  F17  1  0.994791  0.696770  0.368743  1
  F  F18  1  0.505209  0.803230  0.868743  1
  F  F19  1  0.005209  0.196770  0.131257  1
  F  F20  1  0.505209  0.696770  0.368743  1
  F  F21  1  0.005209  0.303230  0.631257  1
  F  F22  1  0.494791  0.196770  0.131257  1
  F  F23  1  0.994791  0.803230  0.868743  1
  F  F24  1  0.448406  0.692299  0.628759  1
  F  F25  1  0.948406  0.307701  0.371241  1
  F  F26  1  0.551594  0.192299  0.871241  1
  F  F27  1  0.051594  0.807701  0.128759  1
  F  F28  1  0.551594  0.307701  0.371241  1
  F  F29  1  0.051594  0.692299  0.628759  1
  F  F30  1  0.448406  0.807701  0.128759  1
  F  F31  1  0.948406  0.192299  0.871241  1
  F  F32  1  0.250000  0.017185  0.930589  1
  F  F33  1  0.750000  0.982815  0.069411  1
  F  F34  1  0.750000  0.517185  0.569411  1
  F  F35  1  0.250000  0.482815  0.430589  1
  F  F36  1  0.250000  0.997159  0.653215  1
  F  F37  1  0.750000  0.002841  0.346785  1
  F  F38  1  0.750000  0.497159  0.846785  1
  F  F39  1  0.250000  0.502841  0.153215  1
  F  F40  1  0.250000  0.524534  0.859888  1
  F  F41  1  0.750000  0.475466  0.140112  1
  F  F42  1  0.750000  0.024534  0.640112  1
  F  F43  1  0.250000  0.975466  0.359888  1
