# generated using pymatgen
data_Ba2AlCu2F11
_symmetry_space_group_name_H-M   'P 1'
_cell_length_a   7.41391814
_cell_length_b   7.41391814
_cell_length_c   14.37655327
_cell_angle_alpha   90.00000000
_cell_angle_beta   90.00000000
_cell_angle_gamma   120.00000000
_symmetry_Int_Tables_number   1
_chemical_formula_structural   Ba2AlCu2F11
_chemical_formula_sum   'Ba6 Al3 Cu6 F33'
_cell_volume   684.35427137
_cell_formula_units_Z   3
loop_
 _symmetry_equiv_pos_site_id
 _symmetry_equiv_pos_as_xyz
  1  'x, y, z'
loop_
 _atom_site_type_symbol
 _atom_site_label
 _atom_site_symmetry_multiplicity
 _atom_site_fract_x
 _atom_site_fract_y
 _atom_site_fract_z
 _atom_site_occupancy
  Ba  Ba0  1  0.536472  0.187904  0.666603  1
  Ba  Ba1  1  0.172726  0.494914  0.800552  1
  Ba  Ba2  1  0.651432  0.463528  0.999936  1
  Ba  Ba3  1  0.505086  0.677811  0.467218  1
  Ba  Ba4  1  0.322189  0.827274  0.133885  1
  Ba  Ba5  1  0.812096  0.348568  0.333269  1
  Al  Al6  1  0.168066  0.007681  0.871903  1
  Al  Al7  1  0.839616  0.831934  0.205236  1
  Al  Al8  1  0.992319  0.160384  0.538569  1
  Cu  Cu9  1  0.646539  0.995233  0.890479  1
  Cu  Cu10  1  0.792032  0.768780  0.722223  1
  Cu  Cu11  1  0.231220  0.023252  0.388890  1
  Cu  Cu12  1  0.348694  0.353461  0.223813  1
  Cu  Cu13  1  0.976748  0.207968  0.055556  1
  Cu  Cu14  1  0.004767  0.651306  0.557146  1
  F  F15  1  0.681730  0.091166  0.021892  1
  F  F16  1  0.505095  0.710787  0.928643  1
  F  F17  1  0.409436  0.318270  0.355225  1
  F  F18  1  0.090469  0.414978  0.483742  1
  F  F19  1  0.521971  0.245346  0.181672  1
  F  F20  1  0.904614  0.626956  0.178178  1
  F  F21  1  0.585022  0.675491  0.150409  1
  F  F22  1  0.373044  0.277658  0.844844  1
  F  F23  1  0.723374  0.478029  0.515005  1
  F  F24  1  0.261568  0.340029  0.093534  1
  F  F25  1  0.324509  0.909531  0.817076  1
  F  F26  1  0.908834  0.590564  0.688559  1
  F  F27  1  0.291268  0.025861  0.981766  1
  F  F28  1  0.028981  0.478884  0.021043  1
  F  F29  1  0.734593  0.708732  0.315099  1
  F  F30  1  0.289213  0.794308  0.595310  1
  F  F31  1  0.012648  0.123026  0.909316  1
  F  F32  1  0.078461  0.738432  0.426867  1
  F  F33  1  0.999786  0.067466  0.418418  1
  F  F34  1  0.974139  0.265407  0.648433  1
  F  F35  1  0.067680  0.000214  0.751752  1
  F  F36  1  0.521116  0.550097  0.687710  1
  F  F37  1  0.449903  0.971019  0.354376  1
  F  F38  1  0.110378  0.987352  0.242649  1
  F  F39  1  0.659971  0.921539  0.760201  1
  F  F40  1  0.754654  0.276626  0.848339  1
  F  F41  1  0.205692  0.494905  0.261976  1
  F  F42  1  0.954417  0.744683  0.888006  1
  F  F43  1  0.790266  0.045583  0.221339  1
  F  F44  1  0.932534  0.932320  0.085085  1
  F  F45  1  0.722342  0.095386  0.511511  1
  F  F46  1  0.876974  0.889622  0.575982  1
  F  F47  1  0.255317  0.209734  0.554673  1
