# generated using pymatgen
data_Ce9Sb16Cl3
_symmetry_space_group_name_H-M   'P 1'
_cell_length_a   20.75378789
_cell_length_b   20.75378789
_cell_length_c   4.31765493
_cell_angle_alpha   90.00000000
_cell_angle_beta   90.00000000
_cell_angle_gamma   120.00000000
_symmetry_Int_Tables_number   1
_chemical_formula_structural   Ce9Sb16Cl3
_chemical_formula_sum   'Ce18 Sb32 Cl6'
_cell_volume   1610.54665310
_cell_formula_units_Z   2
loop_
 _symmetry_equiv_pos_site_id
 _symmetry_equiv_pos_as_xyz
  1  'x, y, z'
loop_
 _atom_site_type_symbol
 _atom_site_label
 _atom_site_symmetry_multiplicity
 _atom_site_fract_x
 _atom_site_fract_y
 _atom_site_fract_z
 _atom_site_occupancy
  Ce  Ce0  1  0.308894  0.769350  0.750000  1
  Ce  Ce1  1  0.460456  0.691106  0.750000  1
  Ce  Ce2  1  0.009502  0.608289  0.250000  1
  Ce  Ce3  1  0.539544  0.308894  0.250000  1
  Ce  Ce4  1  0.691106  0.230650  0.250000  1
  Ce  Ce5  1  0.391711  0.401213  0.250000  1
  Ce  Ce6  1  0.608289  0.598787  0.750000  1
  Ce  Ce7  1  0.856678  0.760691  0.750000  1
  Ce  Ce8  1  0.904013  0.143322  0.750000  1
  Ce  Ce9  1  0.769350  0.460456  0.250000  1
  Ce  Ce10  1  0.095987  0.856678  0.250000  1
  Ce  Ce11  1  0.230650  0.539544  0.750000  1
  Ce  Ce12  1  0.143322  0.239309  0.250000  1
  Ce  Ce13  1  0.760691  0.904013  0.250000  1
  Ce  Ce14  1  0.401213  0.009502  0.750000  1
  Ce  Ce15  1  0.990498  0.391711  0.750000  1
  Ce  Ce16  1  0.239309  0.095987  0.750000  1
  Ce  Ce17  1  0.598787  0.990498  0.250000  1
  Sb  Sb18  1  0.280721  0.001675  0.250000  1
  Sb  Sb19  1  0.507535  0.404982  0.750000  1
  Sb  Sb20  1  0.427417  0.179704  0.750000  1
  Sb  Sb21  1  0.752287  0.572583  0.750000  1
  Sb  Sb22  1  0.127581  0.354099  0.750000  1
  Sb  Sb23  1  0.773481  0.127581  0.250000  1
  Sb  Sb24  1  0.572583  0.820296  0.250000  1
  Sb  Sb25  1  0.492004  0.862960  0.750000  1
  Sb  Sb26  1  0.998325  0.279046  0.250000  1
  Sb  Sb27  1  0.719279  0.998325  0.750000  1
  Sb  Sb28  1  0.862960  0.370956  0.250000  1
  Sb  Sb29  1  0.102552  0.507535  0.250000  1
  Sb  Sb30  1  0.370956  0.507996  0.750000  1
  Sb  Sb31  1  0.279046  0.280721  0.750000  1
  Sb  Sb32  1  0.820296  0.247713  0.750000  1
  Sb  Sb33  1  0.492465  0.595018  0.250000  1
  Sb  Sb34  1  0.001675  0.720954  0.750000  1
  Sb  Sb35  1  0.247713  0.427417  0.250000  1
  Sb  Sb36  1  0.720954  0.719279  0.250000  1
  Sb  Sb37  1  0.226519  0.872419  0.750000  1
  Sb  Sb38  1  0.629044  0.492004  0.250000  1
  Sb  Sb39  1  0.404982  0.897448  0.250000  1
  Sb  Sb40  1  0.595018  0.102552  0.750000  1
  Sb  Sb41  1  0.872419  0.645901  0.250000  1
  Sb  Sb42  1  0.354099  0.226519  0.250000  1
  Sb  Sb43  1  0.179704  0.752287  0.250000  1
  Sb  Sb44  1  0.645901  0.773481  0.750000  1
  Sb  Sb45  1  0.507996  0.137040  0.250000  1
  Sb  Sb46  1  0.897448  0.492465  0.750000  1
  Sb  Sb47  1  0.137040  0.629044  0.750000  1
  Sb  Sb48  1  0.666667  0.333333  0.750000  1
  Sb  Sb49  1  0.333333  0.666667  0.250000  1
  Cl  Cl50  1  0.148896  0.099702  0.250000  1
  Cl  Cl51  1  0.950805  0.851104  0.250000  1
  Cl  Cl52  1  0.049195  0.148896  0.750000  1
  Cl  Cl53  1  0.099702  0.950805  0.750000  1
  Cl  Cl54  1  0.851104  0.900298  0.750000  1
  Cl  Cl55  1  0.900298  0.049195  0.250000  1
