# generated using pymatgen
data_SmOs2
_symmetry_space_group_name_H-M   'P 1'
_cell_length_a   5.34798770
_cell_length_b   5.34798770
_cell_length_c   9.02846788
_cell_angle_alpha   90.00000000
_cell_angle_beta   90.00000000
_cell_angle_gamma   120.00000000
_symmetry_Int_Tables_number   1
_chemical_formula_structural   SmOs2
_chemical_formula_sum   'Sm4 Os8'
_cell_volume   223.62764372
_cell_formula_units_Z   4
loop_
 _symmetry_equiv_pos_site_id
 _symmetry_equiv_pos_as_xyz
  1  'x, y, z'
loop_
 _atom_site_type_symbol
 _atom_site_label
 _atom_site_symmetry_multiplicity
 _atom_site_fract_x
 _atom_site_fract_y
 _atom_site_fract_z
 _atom_site_occupancy
  Sm  Sm0  1  0.333333  0.666667  0.435906  1
  Sm  Sm1  1  0.666667  0.333333  0.564094  1
  Sm  Sm2  1  0.666667  0.333333  0.935906  1
  Sm  Sm3  1  0.333333  0.666667  0.064094  1
  Os  Os4  1  0.170821  0.341642  0.750000  1
  Os  Os5  1  0.170821  0.829179  0.750000  1
  Os  Os6  1  0.341642  0.170821  0.250000  1
  Os  Os7  1  0.829179  0.658358  0.250000  1
  Os  Os8  1  0.658358  0.829179  0.750000  1
  Os  Os9  1  0.000000  0.000000  0.000000  1
  Os  Os10  1  0.829179  0.170821  0.250000  1
  Os  Os11  1  0.000000  0.000000  0.500000  1
