# generated using pymatgen
data_Y2WO6
_symmetry_space_group_name_H-M   'P 1'
_cell_length_a   7.72644290
_cell_length_b   5.41262748
_cell_length_c   11.51074933
_cell_angle_alpha   90.00000000
_cell_angle_beta   104.39881778
_cell_angle_gamma   90.00000000
_symmetry_Int_Tables_number   1
_chemical_formula_structural   Y2WO6
_chemical_formula_sum   'Y8 W4 O24'
_cell_volume   466.26256533
_cell_formula_units_Z   4
loop_
 _symmetry_equiv_pos_site_id
 _symmetry_equiv_pos_as_xyz
  1  'x, y, z'
loop_
 _atom_site_type_symbol
 _atom_site_label
 _atom_site_symmetry_multiplicity
 _atom_site_fract_x
 _atom_site_fract_y
 _atom_site_fract_z
 _atom_site_occupancy
  Y  Y0  1  0.794824  0.186439  0.922285  1
  Y  Y1  1  0.000000  0.261091  0.250000  1
  Y  Y2  1  0.000000  0.738909  0.750000  1
  Y  Y3  1  0.500000  0.316245  0.250000  1
  Y  Y4  1  0.205176  0.186439  0.577715  1
  Y  Y5  1  0.500000  0.683755  0.750000  1
  Y  Y6  1  0.205176  0.813561  0.077715  1
  Y  Y7  1  0.794824  0.813561  0.422285  1
  W  W8  1  0.723347  0.745543  0.114617  1
  W  W9  1  0.723347  0.254457  0.614617  1
  W  W10  1  0.276653  0.745543  0.385383  1
  W  W11  1  0.276653  0.254457  0.885383  1
  O  O12  1  0.364434  0.849567  0.547468  1
  O  O13  1  0.848456  0.470093  0.069315  1
  O  O14  1  0.635566  0.849567  0.952532  1
  O  O15  1  0.291034  0.018686  0.272444  1
  O  O16  1  0.291034  0.981314  0.772444  1
  O  O17  1  0.364434  0.150433  0.047468  1
  O  O18  1  0.490933  0.637544  0.113810  1
  O  O19  1  0.151544  0.529907  0.930685  1
  O  O20  1  0.635566  0.150433  0.452532  1
  O  O21  1  0.708966  0.018686  0.227556  1
  O  O22  1  0.210225  0.457631  0.728128  1
  O  O23  1  0.939498  0.042946  0.605014  1
  O  O24  1  0.151544  0.470093  0.430685  1
  O  O25  1  0.708966  0.981314  0.727556  1
  O  O26  1  0.060502  0.957054  0.394986  1
  O  O27  1  0.210225  0.542369  0.228128  1
  O  O28  1  0.789775  0.542369  0.271872  1
  O  O29  1  0.060502  0.042946  0.894986  1
  O  O30  1  0.509067  0.637544  0.386190  1
  O  O31  1  0.509067  0.362456  0.886190  1
  O  O32  1  0.789775  0.457631  0.771872  1
  O  O33  1  0.490933  0.362456  0.613810  1
  O  O34  1  0.848456  0.529907  0.569315  1
  O  O35  1  0.939498  0.957054  0.105014  1
