# generated using pymatgen
data_TeF4
_symmetry_space_group_name_H-M   'P 1'
_cell_length_a   5.57553256
_cell_length_b   6.22214687
_cell_length_c   9.83374310
_cell_angle_alpha   90.00000000
_cell_angle_beta   90.00000000
_cell_angle_gamma   90.00000000
_symmetry_Int_Tables_number   1
_chemical_formula_structural   TeF4
_chemical_formula_sum   'Te4 F16'
_cell_volume   341.15007646
_cell_formula_units_Z   4
loop_
 _symmetry_equiv_pos_site_id
 _symmetry_equiv_pos_as_xyz
  1  'x, y, z'
loop_
 _atom_site_type_symbol
 _atom_site_label
 _atom_site_symmetry_multiplicity
 _atom_site_fract_x
 _atom_site_fract_y
 _atom_site_fract_z
 _atom_site_occupancy
  Te  Te0  1  0.154301  0.995705  0.624709  1
  Te  Te1  1  0.345699  0.004295  0.124709  1
  Te  Te2  1  0.654301  0.504295  0.375291  1
  Te  Te3  1  0.845699  0.495705  0.875291  1
  F  F4  1  0.700746  0.237692  0.945848  1
  F  F5  1  0.085200  0.843306  0.043851  1
  F  F6  1  0.585200  0.656694  0.956149  1
  F  F7  1  0.437701  0.713931  0.250016  1
  F  F8  1  0.140568  0.035460  0.275297  1
  F  F9  1  0.359432  0.964540  0.775297  1
  F  F10  1  0.640568  0.464540  0.724703  1
  F  F11  1  0.414800  0.156694  0.543851  1
  F  F12  1  0.062299  0.286069  0.750016  1
  F  F13  1  0.859432  0.535460  0.224703  1
  F  F14  1  0.914800  0.343306  0.456149  1
  F  F15  1  0.299254  0.737692  0.554152  1
  F  F16  1  0.562299  0.213931  0.249984  1
  F  F17  1  0.799254  0.762308  0.445848  1
  F  F18  1  0.937701  0.786069  0.749984  1
  F  F19  1  0.200746  0.262308  0.054152  1
