# generated using pymatgen
data_CrP2Pb5O13
_symmetry_space_group_name_H-M   'P 1'
_cell_length_a   9.62105819
_cell_length_b   10.49379657
_cell_length_c   13.71209518
_cell_angle_alpha   90.00000000
_cell_angle_beta   90.00000000
_cell_angle_gamma   90.00000000
_symmetry_Int_Tables_number   1
_chemical_formula_structural   CrP2Pb5O13
_chemical_formula_sum   'Cr4 P8 Pb20 O52'
_cell_volume   1384.39270248
_cell_formula_units_Z   4
loop_
 _symmetry_equiv_pos_site_id
 _symmetry_equiv_pos_as_xyz
  1  'x, y, z'
loop_
 _atom_site_type_symbol
 _atom_site_label
 _atom_site_symmetry_multiplicity
 _atom_site_fract_x
 _atom_site_fract_y
 _atom_site_fract_z
 _atom_site_occupancy
  Cr  Cr0  1  0.570547  0.750000  0.000827  1
  Cr  Cr1  1  0.070547  0.250000  0.499173  1
  Cr  Cr2  1  0.429453  0.250000  0.999173  1
  Cr  Cr3  1  0.929453  0.750000  0.500827  1
  P  P4  1  0.430355  0.966732  0.339996  1
  P  P5  1  0.430355  0.533268  0.339996  1
  P  P6  1  0.069645  0.966732  0.839996  1
  P  P7  1  0.069645  0.533268  0.839996  1
  P  P8  1  0.569645  0.033268  0.660004  1
  P  P9  1  0.930355  0.466732  0.160004  1
  P  P10  1  0.569645  0.466732  0.660004  1
  P  P11  1  0.930355  0.033268  0.160004  1
  Pb  Pb12  1  0.213373  0.943345  0.575841  1
  Pb  Pb13  1  0.296175  0.250000  0.764327  1
  Pb  Pb14  1  0.657744  0.250000  0.220624  1
  Pb  Pb15  1  0.342256  0.750000  0.779376  1
  Pb  Pb16  1  0.157744  0.750000  0.279376  1
  Pb  Pb17  1  0.796175  0.750000  0.735673  1
  Pb  Pb18  1  0.713373  0.056655  0.924159  1
  Pb  Pb19  1  0.213373  0.556655  0.575841  1
  Pb  Pb20  1  0.971217  0.750000  0.023667  1
  Pb  Pb21  1  0.203825  0.250000  0.264327  1
  Pb  Pb22  1  0.028783  0.250000  0.976333  1
  Pb  Pb23  1  0.471217  0.250000  0.476333  1
  Pb  Pb24  1  0.286627  0.943345  0.075841  1
  Pb  Pb25  1  0.713373  0.443345  0.924159  1
  Pb  Pb26  1  0.786627  0.056655  0.424159  1
  Pb  Pb27  1  0.286627  0.556655  0.075841  1
  Pb  Pb28  1  0.842256  0.250000  0.720624  1
  Pb  Pb29  1  0.703825  0.750000  0.235673  1
  Pb  Pb30  1  0.528783  0.750000  0.523667  1
  Pb  Pb31  1  0.786627  0.443345  0.424159  1
  O  O32  1  0.675102  0.250000  0.387416  1
  O  O33  1  0.592391  0.612932  0.671362  1
  O  O34  1  0.092391  0.387068  0.828638  1
  O  O35  1  0.154605  0.250000  0.606220  1
  O  O36  1  0.347691  0.604925  0.258881  1
  O  O37  1  0.880185  0.419148  0.057841  1
  O  O38  1  0.847691  0.104925  0.241119  1
  O  O39  1  0.107184  0.121501  0.433152  1
  O  O40  1  0.589435  0.562600  0.331468  1
  O  O41  1  0.089435  0.437400  0.168532  1
  O  O42  1  0.592391  0.887068  0.671362  1
  O  O43  1  0.619815  0.080852  0.557841  1
  O  O44  1  0.380185  0.580852  0.442159  1
  O  O45  1  0.089435  0.062600  0.168532  1
  O  O46  1  0.345395  0.250000  0.106220  1
  O  O47  1  0.380185  0.919148  0.442159  1
  O  O48  1  0.907609  0.887068  0.171362  1
  O  O49  1  0.601523  0.250000  0.020557  1
  O  O50  1  0.898477  0.250000  0.520557  1
  O  O51  1  0.101523  0.750000  0.479443  1
  O  O52  1  0.892816  0.878499  0.566848  1
  O  O53  1  0.347691  0.895075  0.258881  1
  O  O54  1  0.119815  0.580852  0.942159  1
  O  O55  1  0.845395  0.750000  0.393780  1
  O  O56  1  0.407609  0.112932  0.328638  1
  O  O57  1  0.175102  0.750000  0.112584  1
  O  O58  1  0.119815  0.919148  0.942159  1
  O  O59  1  0.910565  0.937400  0.831468  1
  O  O60  1  0.092391  0.112932  0.828638  1
  O  O61  1  0.324898  0.750000  0.612584  1
  O  O62  1  0.392816  0.121501  0.933152  1
  O  O63  1  0.152309  0.895075  0.758881  1
  O  O64  1  0.410565  0.437400  0.668532  1
  O  O65  1  0.152309  0.604925  0.758881  1
  O  O66  1  0.619815  0.419148  0.557841  1
  O  O67  1  0.824898  0.250000  0.887416  1
  O  O68  1  0.652309  0.395075  0.741119  1
  O  O69  1  0.107184  0.378499  0.433152  1
  O  O70  1  0.880185  0.080852  0.057841  1
  O  O71  1  0.392816  0.378499  0.933152  1
  O  O72  1  0.410565  0.062600  0.668532  1
  O  O73  1  0.910565  0.562600  0.831468  1
  O  O74  1  0.654605  0.750000  0.893780  1
  O  O75  1  0.907609  0.612932  0.171362  1
  O  O76  1  0.847691  0.395075  0.241119  1
  O  O77  1  0.407609  0.387068  0.328638  1
  O  O78  1  0.589435  0.937400  0.331468  1
  O  O79  1  0.607184  0.621501  0.066848  1
  O  O80  1  0.652309  0.104925  0.741119  1
  O  O81  1  0.607184  0.878499  0.066848  1
  O  O82  1  0.892816  0.621501  0.566848  1
  O  O83  1  0.398477  0.750000  0.979443  1
