# generated using pymatgen
data_HoSeO3F
_symmetry_space_group_name_H-M   'P 1'
_cell_length_a   6.63988471
_cell_length_b   6.96448838
_cell_length_c   7.24065470
_cell_angle_alpha   90.00000000
_cell_angle_beta   98.55869503
_cell_angle_gamma   90.00000000
_symmetry_Int_Tables_number   1
_chemical_formula_structural   HoSeO3F
_chemical_formula_sum   'Ho4 Se4 O12 F4'
_cell_volume   331.10377118
_cell_formula_units_Z   4
loop_
 _symmetry_equiv_pos_site_id
 _symmetry_equiv_pos_as_xyz
  1  'x, y, z'
loop_
 _atom_site_type_symbol
 _atom_site_label
 _atom_site_symmetry_multiplicity
 _atom_site_fract_x
 _atom_site_fract_y
 _atom_site_fract_z
 _atom_site_occupancy
  Ho  Ho0  1  0.139918  0.140236  0.823790  1
  Ho  Ho1  1  0.860082  0.859764  0.176210  1
  Ho  Ho2  1  0.860082  0.640236  0.676210  1
  Ho  Ho3  1  0.139918  0.359764  0.323790  1
  Se  Se4  1  0.649370  0.381377  0.210787  1
  Se  Se5  1  0.350630  0.618623  0.789213  1
  Se  Se6  1  0.350630  0.881377  0.289213  1
  Se  Se7  1  0.649370  0.118623  0.710787  1
  O  O8  1  0.174239  0.694447  0.279909  1
  O  O9  1  0.485300  0.185993  0.860159  1
  O  O10  1  0.173265  0.468351  0.647908  1
  O  O11  1  0.485300  0.314007  0.360159  1
  O  O12  1  0.825761  0.194447  0.220091  1
  O  O13  1  0.174239  0.805553  0.779909  1
  O  O14  1  0.514700  0.685993  0.639841  1
  O  O15  1  0.514700  0.814007  0.139841  1
  O  O16  1  0.825761  0.305553  0.720091  1
  O  O17  1  0.173265  0.031649  0.147908  1
  O  O18  1  0.826735  0.968351  0.852092  1
  O  O19  1  0.826735  0.531649  0.352092  1
  F  F20  1  0.832324  0.618528  0.974909  1
  F  F21  1  0.167676  0.381472  0.025091  1
  F  F22  1  0.167676  0.118528  0.525091  1
  F  F23  1  0.832324  0.881472  0.474909  1
