# generated using pymatgen
data_Cu(BiO2)2
_symmetry_space_group_name_H-M   'P 1'
_cell_length_a   6.88666220
_cell_length_b   6.88666220
_cell_length_c   6.88666220
_cell_angle_alpha   99.60905379
_cell_angle_beta   99.60905379
_cell_angle_gamma   131.77067996
_symmetry_Int_Tables_number   1
_chemical_formula_structural   Cu(BiO2)2
_chemical_formula_sum   'Cu2 Bi4 O8'
_cell_volume   222.33138943
_cell_formula_units_Z   2
loop_
 _symmetry_equiv_pos_site_id
 _symmetry_equiv_pos_as_xyz
  1  'x, y, z'
loop_
 _atom_site_type_symbol
 _atom_site_label
 _atom_site_symmetry_multiplicity
 _atom_site_fract_x
 _atom_site_fract_y
 _atom_site_fract_z
 _atom_site_occupancy
  Cu  Cu0  1  0.680282  0.680282  0.000000  1
  Cu  Cu1  1  0.180282  0.180282  0.000000  1
  Bi  Bi2  1  0.813766  0.654932  0.500000  1
  Bi  Bi3  1  0.313766  0.813766  0.158834  1
  Bi  Bi4  1  0.654932  0.154932  0.841166  1
  Bi  Bi5  1  0.154932  0.313766  0.500000  1
  O  O6  1  0.471310  0.767608  0.911449  1
  O  O7  1  0.059862  0.356160  0.088551  1
  O  O8  1  0.856160  0.559862  0.088551  1
  O  O9  1  0.559862  0.471310  0.703702  1
  O  O10  1  0.971310  0.059862  0.703702  1
  O  O11  1  0.267608  0.971310  0.911449  1
  O  O12  1  0.767608  0.856160  0.296298  1
  O  O13  1  0.356160  0.267608  0.296298  1
