# generated using pymatgen
data_LiMg4V3O12
_symmetry_space_group_name_H-M   'P 1'
_cell_length_a   10.77345022
_cell_length_b   10.77345022
_cell_length_c   10.77345022
_cell_angle_alpha   142.32001874
_cell_angle_beta   142.32001874
_cell_angle_gamma   54.34703972
_symmetry_Int_Tables_number   1
_chemical_formula_structural   LiMg4V3O12
_chemical_formula_sum   'Li2 Mg8 V6 O24'
_cell_volume   464.02309528
_cell_formula_units_Z   2
loop_
 _symmetry_equiv_pos_site_id
 _symmetry_equiv_pos_as_xyz
  1  'x, y, z'
loop_
 _atom_site_type_symbol
 _atom_site_label
 _atom_site_symmetry_multiplicity
 _atom_site_fract_x
 _atom_site_fract_y
 _atom_site_fract_z
 _atom_site_occupancy
  Li  Li0  1  0.250000  0.750000  0.500000  1
  Li  Li1  1  0.500000  0.500000  0.000000  1
  Mg  Mg2  1  0.975247  0.475247  0.500000  1
  Mg  Mg3  1  0.524753  0.024753  0.500000  1
  Mg  Mg4  1  0.375000  0.367279  0.492279  1
  Mg  Mg5  1  0.117279  0.625000  0.992279  1
  Mg  Mg6  1  0.774753  0.774753  0.000000  1
  Mg  Mg7  1  0.225247  0.225247  0.000000  1
  Mg  Mg8  1  0.875000  0.882721  0.507721  1
  Mg  Mg9  1  0.632721  0.125000  0.007721  1
  V  V10  1  0.375000  0.774818  0.899818  1
  V  V11  1  0.524818  0.625000  0.399818  1
  V  V12  1  0.225182  0.125000  0.600182  1
  V  V13  1  0.750000  0.250000  0.500000  1
  V  V14  1  0.875000  0.475182  0.100182  1
  V  V15  1  0.000000  0.000000  0.000000  1
  O  O16  1  0.494016  0.257840  0.342858  1
  O  O17  1  0.905610  0.705238  0.222381  1
  O  O18  1  0.835018  0.992160  0.736176  1
  O  O19  1  0.433229  0.732858  0.277619  1
  O  O20  1  0.848842  0.505984  0.763824  1
  O  O21  1  0.914982  0.151158  0.657142  1
  O  O22  1  0.642077  0.328947  0.768694  1
  O  O23  1  0.255984  0.098842  0.263824  1
  O  O24  1  0.126616  0.357923  0.686870  1
  O  O25  1  0.844390  0.566771  0.299629  1
  O  O26  1  0.189747  0.921053  0.813130  1
  O  O27  1  0.901158  0.164982  0.157142  1
  O  O28  1  0.742160  0.085018  0.236176  1
  O  O29  1  0.623384  0.810253  0.731306  1
  O  O30  1  0.482858  0.683229  0.777619  1
  O  O31  1  0.078947  0.892077  0.268694  1
  O  O32  1  0.316771  0.094390  0.799629  1
  O  O33  1  0.560253  0.873384  0.231306  1
  O  O34  1  0.455238  0.155610  0.722381  1
  O  O35  1  0.294762  0.517142  0.200371  1
  O  O36  1  0.671053  0.439747  0.313130  1
  O  O37  1  0.267142  0.544762  0.700371  1
  O  O38  1  0.007840  0.744016  0.842858  1
  O  O39  1  0.107923  0.376616  0.186870  1
