# generated using pymatgen
data_RbTh2(PO4)3
_symmetry_space_group_name_H-M   'P 1'
_cell_length_a   9.63582535
_cell_length_b   9.63582535
_cell_length_c   8.24078620
_cell_angle_alpha   78.31776062
_cell_angle_beta   101.68223938
_cell_angle_gamma   137.66602712
_symmetry_Int_Tables_number   1
_chemical_formula_structural   RbTh2(PO4)3
_chemical_formula_sum   'Rb2 Th4 P6 O24'
_cell_volume   502.99705282
_cell_formula_units_Z   2
loop_
 _symmetry_equiv_pos_site_id
 _symmetry_equiv_pos_as_xyz
  1  'x, y, z'
loop_
 _atom_site_type_symbol
 _atom_site_label
 _atom_site_symmetry_multiplicity
 _atom_site_fract_x
 _atom_site_fract_y
 _atom_site_fract_z
 _atom_site_occupancy
  Rb  Rb0  1  0.405762  0.405762  0.750000  1
  Rb  Rb1  1  0.594238  0.594238  0.250000  1
  Th  Th2  1  0.751288  0.060133  0.466481  1
  Th  Th3  1  0.939867  0.248712  0.966481  1
  Th  Th4  1  0.060133  0.751288  0.033519  1
  Th  Th5  1  0.248712  0.939867  0.533519  1
  P  P6  1  0.216545  0.600311  0.317785  1
  P  P7  1  0.783455  0.399689  0.682215  1
  P  P8  1  0.094808  0.094808  0.250000  1
  P  P9  1  0.600311  0.216545  0.182215  1
  P  P10  1  0.905192  0.905192  0.750000  1
  P  P11  1  0.399689  0.783455  0.817785  1
  O  O12  1  0.550870  0.261602  0.650356  1
  O  O13  1  0.811778  0.757058  0.909442  1
  O  O14  1  0.912451  0.602835  0.571314  1
  O  O15  1  0.856499  0.448092  0.870382  1
  O  O16  1  0.738398  0.449130  0.150356  1
  O  O17  1  0.897689  0.040681  0.256723  1
  O  O18  1  0.102311  0.959319  0.743277  1
  O  O19  1  0.040681  0.897689  0.243277  1
  O  O20  1  0.448092  0.856499  0.629618  1
  O  O21  1  0.188222  0.242942  0.090558  1
  O  O22  1  0.276174  0.828948  0.830444  1
  O  O23  1  0.449130  0.738398  0.349644  1
  O  O24  1  0.602835  0.912451  0.928686  1
  O  O25  1  0.242942  0.188222  0.409442  1
  O  O26  1  0.757058  0.811778  0.590558  1
  O  O27  1  0.397165  0.087549  0.071314  1
  O  O28  1  0.143501  0.551908  0.129618  1
  O  O29  1  0.551908  0.143501  0.370382  1
  O  O30  1  0.723826  0.171052  0.169556  1
  O  O31  1  0.261602  0.550870  0.849644  1
  O  O32  1  0.828948  0.276174  0.669556  1
  O  O33  1  0.959319  0.102311  0.756723  1
  O  O34  1  0.087549  0.397165  0.428686  1
  O  O35  1  0.171052  0.723826  0.330444  1
