# generated using pymatgen
data_LaTmS3
_symmetry_space_group_name_H-M   'P 1'
_cell_length_a   3.99977639
_cell_length_b   16.48406968
_cell_length_c   21.43224669
_cell_angle_alpha   90.00000000
_cell_angle_beta   90.00000000
_cell_angle_gamma   90.00000000
_symmetry_Int_Tables_number   1
_chemical_formula_structural   LaTmS3
_chemical_formula_sum   'La12 Tm12 S36'
_cell_volume   1413.08359203
_cell_formula_units_Z   12
loop_
 _symmetry_equiv_pos_site_id
 _symmetry_equiv_pos_as_xyz
  1  'x, y, z'
loop_
 _atom_site_type_symbol
 _atom_site_label
 _atom_site_symmetry_multiplicity
 _atom_site_fract_x
 _atom_site_fract_y
 _atom_site_fract_z
 _atom_site_occupancy
  La  La0  1  0.250000  0.693859  0.079164  1
  La  La1  1  0.750000  0.340877  0.245419  1
  La  La2  1  0.750000  0.840877  0.254581  1
  La  La3  1  0.250000  0.330047  0.587083  1
  La  La4  1  0.250000  0.159123  0.745419  1
  La  La5  1  0.750000  0.806141  0.579164  1
  La  La6  1  0.250000  0.659123  0.754581  1
  La  La7  1  0.750000  0.306141  0.920836  1
  La  La8  1  0.750000  0.169953  0.087083  1
  La  La9  1  0.250000  0.193859  0.420836  1
  La  La10  1  0.750000  0.669953  0.412917  1
  La  La11  1  0.250000  0.830047  0.912917  1
  Tm  Tm12  1  0.750000  0.405031  0.749600  1
  Tm  Tm13  1  0.750000  0.934074  0.079695  1
  Tm  Tm14  1  0.250000  0.443184  0.068989  1
  Tm  Tm15  1  0.750000  0.905031  0.750400  1
  Tm  Tm16  1  0.250000  0.943184  0.431011  1
  Tm  Tm17  1  0.250000  0.565926  0.579695  1
  Tm  Tm18  1  0.250000  0.594969  0.250400  1
  Tm  Tm19  1  0.250000  0.065926  0.920305  1
  Tm  Tm20  1  0.750000  0.434074  0.420305  1
  Tm  Tm21  1  0.750000  0.556816  0.931011  1
  Tm  Tm22  1  0.750000  0.056816  0.568989  1
  Tm  Tm23  1  0.250000  0.094969  0.249600  1
  S  S24  1  0.250000  0.730118  0.321503  1
  S  S25  1  0.250000  0.948780  0.306939  1
  S  S26  1  0.250000  0.708638  0.517355  1
  S  S27  1  0.750000  0.051220  0.693061  1
  S  S28  1  0.250000  0.823864  0.684884  1
  S  S29  1  0.750000  0.341415  0.063133  1
  S  S30  1  0.250000  0.542609  0.447870  1
  S  S31  1  0.250000  0.854224  0.148529  1
  S  S32  1  0.750000  0.457391  0.552130  1
  S  S33  1  0.750000  0.551220  0.806939  1
  S  S34  1  0.750000  0.291362  0.482645  1
  S  S35  1  0.750000  0.645776  0.648529  1
  S  S36  1  0.750000  0.059156  0.442062  1
  S  S37  1  0.750000  0.559156  0.057938  1
  S  S38  1  0.250000  0.158585  0.563133  1
  S  S39  1  0.250000  0.463553  0.682166  1
  S  S40  1  0.250000  0.440844  0.942062  1
  S  S41  1  0.250000  0.963553  0.817834  1
  S  S42  1  0.250000  0.658585  0.936867  1
  S  S43  1  0.750000  0.536447  0.317834  1
  S  S44  1  0.250000  0.230118  0.178497  1
  S  S45  1  0.250000  0.448780  0.193061  1
  S  S46  1  0.750000  0.269882  0.678497  1
  S  S47  1  0.750000  0.036447  0.182166  1
  S  S48  1  0.750000  0.957391  0.947870  1
  S  S49  1  0.750000  0.145776  0.851471  1
  S  S50  1  0.750000  0.676136  0.184884  1
  S  S51  1  0.750000  0.176136  0.315116  1
  S  S52  1  0.750000  0.791362  0.017355  1
  S  S53  1  0.250000  0.354224  0.351471  1
  S  S54  1  0.750000  0.841415  0.436867  1
  S  S55  1  0.750000  0.769882  0.821503  1
  S  S56  1  0.250000  0.208638  0.982645  1
  S  S57  1  0.250000  0.940844  0.557938  1
  S  S58  1  0.250000  0.323864  0.815116  1
  S  S59  1  0.250000  0.042609  0.052130  1
