# generated using pymatgen
data_Np2Si4Tc3
_symmetry_space_group_name_H-M   'P 1'
_cell_length_a   5.66225457
_cell_length_b   8.05095228
_cell_length_c   6.76394526
_cell_angle_alpha   90.00000000
_cell_angle_beta   104.17026608
_cell_angle_gamma   90.00000000
_symmetry_Int_Tables_number   1
_chemical_formula_structural   Np2Si4Tc3
_chemical_formula_sum   'Np4 Si8 Tc6'
_cell_volume   298.96271382
_cell_formula_units_Z   2
loop_
 _symmetry_equiv_pos_site_id
 _symmetry_equiv_pos_as_xyz
  1  'x, y, z'
loop_
 _atom_site_type_symbol
 _atom_site_label
 _atom_site_symmetry_multiplicity
 _atom_site_fract_x
 _atom_site_fract_y
 _atom_site_fract_z
 _atom_site_occupancy
  Np  Np0  1  0.573398  0.943618  0.745403  1
  Np  Np1  1  0.926602  0.443618  0.254597  1
  Np  Np2  1  0.426602  0.056382  0.254597  1
  Np  Np3  1  0.073398  0.556382  0.745403  1
  Si  Si4  1  0.616012  0.596198  0.872631  1
  Si  Si5  1  0.883988  0.096198  0.127369  1
  Si  Si6  1  0.383988  0.403802  0.127369  1
  Si  Si7  1  0.116012  0.903802  0.872631  1
  Si  Si8  1  0.724400  0.751260  0.421389  1
  Si  Si9  1  0.775600  0.251260  0.578611  1
  Si  Si10  1  0.275600  0.248740  0.578611  1
  Si  Si11  1  0.224400  0.748740  0.421389  1
  Tc  Tc12  1  0.616000  0.292950  0.888397  1
  Tc  Tc13  1  0.884000  0.792950  0.111603  1
  Tc  Tc14  1  0.384000  0.707050  0.111603  1
  Tc  Tc15  1  0.116000  0.207050  0.888397  1
  Tc  Tc16  1  0.500000  0.500000  0.500000  1
  Tc  Tc17  1  0.000000  0.000000  0.500000  1
