# generated using pymatgen
data_La3RuO7
_symmetry_space_group_name_H-M   'P 1'
_cell_length_a   8.91198494
_cell_length_b   5.76793673
_cell_length_c   12.63261242
_cell_angle_alpha   90.00000000
_cell_angle_beta   104.46948187
_cell_angle_gamma   90.00000000
_symmetry_Int_Tables_number   1
_chemical_formula_structural   La3RuO7
_chemical_formula_sum   'La12 Ru4 O28'
_cell_volume   628.76658521
_cell_formula_units_Z   4
loop_
 _symmetry_equiv_pos_site_id
 _symmetry_equiv_pos_as_xyz
  1  'x, y, z'
loop_
 _atom_site_type_symbol
 _atom_site_label
 _atom_site_symmetry_multiplicity
 _atom_site_fract_x
 _atom_site_fract_y
 _atom_site_fract_z
 _atom_site_occupancy
  La  La0  1  0.296206  0.981964  0.427330  1
  La  La1  1  0.569957  0.513697  0.368319  1
  La  La2  1  0.430043  0.013697  0.131681  1
  La  La3  1  0.703794  0.018036  0.572670  1
  La  La4  1  0.296206  0.518036  0.927330  1
  La  La5  1  0.000808  0.989025  0.141367  1
  La  La6  1  0.999192  0.489025  0.358633  1
  La  La7  1  0.569957  0.986303  0.868319  1
  La  La8  1  0.703794  0.481964  0.072670  1
  La  La9  1  0.000808  0.510975  0.641367  1
  La  La10  1  0.430043  0.486303  0.631681  1
  La  La11  1  0.999192  0.010975  0.858633  1
  Ru  Ru12  1  0.215108  0.454824  0.168300  1
  Ru  Ru13  1  0.784892  0.545176  0.831700  1
  Ru  Ru14  1  0.215108  0.045176  0.668300  1
  Ru  Ru15  1  0.784892  0.954824  0.331700  1
  O  O16  1  0.171837  0.237612  0.033053  1
  O  O17  1  0.191112  0.741343  0.077131  1
  O  O18  1  0.239219  0.148436  0.246617  1
  O  O19  1  0.563770  0.947665  0.323057  1
  O  O20  1  0.008692  0.568830  0.830512  1
  O  O21  1  0.748852  0.383439  0.691752  1
  O  O22  1  0.251148  0.616561  0.308248  1
  O  O23  1  0.251148  0.883439  0.808248  1
  O  O24  1  0.436230  0.052335  0.676943  1
  O  O25  1  0.808888  0.241343  0.422869  1
  O  O26  1  0.760781  0.851564  0.753383  1
  O  O27  1  0.008692  0.931170  0.330512  1
  O  O28  1  0.239219  0.351564  0.746617  1
  O  O29  1  0.991308  0.431170  0.169488  1
  O  O30  1  0.191112  0.758657  0.577131  1
  O  O31  1  0.828163  0.762388  0.966947  1
  O  O32  1  0.828163  0.737612  0.466947  1
  O  O33  1  0.493103  0.240509  0.988725  1
  O  O34  1  0.506897  0.740509  0.511275  1
  O  O35  1  0.563770  0.552335  0.823057  1
  O  O36  1  0.991308  0.068830  0.669488  1
  O  O37  1  0.171837  0.262388  0.533053  1
  O  O38  1  0.748852  0.116561  0.191752  1
  O  O39  1  0.506897  0.759491  0.011275  1
  O  O40  1  0.436230  0.447665  0.176943  1
  O  O41  1  0.808888  0.258657  0.922869  1
  O  O42  1  0.760781  0.648436  0.253383  1
  O  O43  1  0.493103  0.259491  0.488725  1
