# generated using pymatgen
data_Yb5Pb3
_symmetry_space_group_name_H-M   'P 1'
_cell_length_a   9.45733382
_cell_length_b   9.45733382
_cell_length_c   6.83010973
_cell_angle_alpha   90.00000000
_cell_angle_beta   90.00000000
_cell_angle_gamma   120.00000000
_symmetry_Int_Tables_number   1
_chemical_formula_structural   Yb5Pb3
_chemical_formula_sum   'Yb10 Pb6'
_cell_volume   529.04881998
_cell_formula_units_Z   2
loop_
 _symmetry_equiv_pos_site_id
 _symmetry_equiv_pos_as_xyz
  1  'x, y, z'
loop_
 _atom_site_type_symbol
 _atom_site_label
 _atom_site_symmetry_multiplicity
 _atom_site_fract_x
 _atom_site_fract_y
 _atom_site_fract_z
 _atom_site_occupancy
  Yb  Yb0  1  0.000000  0.732540  0.750000  1
  Yb  Yb1  1  0.732540  0.732540  0.250000  1
  Yb  Yb2  1  0.267460  0.267460  0.750000  1
  Yb  Yb3  1  0.732540  0.000000  0.750000  1
  Yb  Yb4  1  0.333333  0.666667  0.500000  1
  Yb  Yb5  1  0.267460  0.000000  0.250000  1
  Yb  Yb6  1  0.000000  0.267460  0.250000  1
  Yb  Yb7  1  0.666667  0.333333  0.500000  1
  Yb  Yb8  1  0.333333  0.666667  0.000000  1
  Yb  Yb9  1  0.666667  0.333333  0.000000  1
  Pb  Pb10  1  0.389077  0.389077  0.250000  1
  Pb  Pb11  1  0.000000  0.389077  0.750000  1
  Pb  Pb12  1  0.610923  0.610923  0.750000  1
  Pb  Pb13  1  0.000000  0.610923  0.250000  1
  Pb  Pb14  1  0.610923  0.000000  0.250000  1
  Pb  Pb15  1  0.389077  0.000000  0.750000  1
