# generated using pymatgen
data_Sc2CrB2Rh5
_symmetry_space_group_name_H-M   'P 1'
_cell_length_a   9.38279050
_cell_length_b   9.38279050
_cell_length_c   3.07598626
_cell_angle_alpha   90.00000000
_cell_angle_beta   90.00000000
_cell_angle_gamma   90.00000000
_symmetry_Int_Tables_number   1
_chemical_formula_structural   Sc2CrB2Rh5
_chemical_formula_sum   'Sc4 Cr2 B4 Rh10'
_cell_volume   270.79985665
_cell_formula_units_Z   2
loop_
 _symmetry_equiv_pos_site_id
 _symmetry_equiv_pos_as_xyz
  1  'x, y, z'
loop_
 _atom_site_type_symbol
 _atom_site_label
 _atom_site_symmetry_multiplicity
 _atom_site_fract_x
 _atom_site_fract_y
 _atom_site_fract_z
 _atom_site_occupancy
  Sc  Sc0  1  0.824120  0.324120  0.000000  1
  Sc  Sc1  1  0.324120  0.175880  0.000000  1
  Sc  Sc2  1  0.675880  0.824120  0.000000  1
  Sc  Sc3  1  0.175880  0.675880  0.000000  1
  Cr  Cr4  1  0.000000  0.000000  0.000000  1
  Cr  Cr5  1  0.500000  0.500000  0.000000  1
  B  B6  1  0.622659  0.122659  0.000000  1
  B  B7  1  0.122659  0.377341  0.000000  1
  B  B8  1  0.877341  0.622659  0.000000  1
  B  B9  1  0.377341  0.877341  0.000000  1
  Rh  Rh10  1  0.070671  0.218593  0.500000  1
  Rh  Rh11  1  0.218593  0.929329  0.500000  1
  Rh  Rh12  1  0.781407  0.070671  0.500000  1
  Rh  Rh13  1  0.929329  0.781407  0.500000  1
  Rh  Rh14  1  0.429329  0.718593  0.500000  1
  Rh  Rh15  1  0.570671  0.281407  0.500000  1
  Rh  Rh16  1  0.718593  0.570671  0.500000  1
  Rh  Rh17  1  0.281407  0.429329  0.500000  1
  Rh  Rh18  1  0.500000  0.000000  0.500000  1
  Rh  Rh19  1  0.000000  0.500000  0.500000  1
