# generated using pymatgen
data_Y2WO6
_symmetry_space_group_name_H-M   'P 1'
_cell_length_a   5.29463648
_cell_length_b   9.17595549
_cell_length_c   10.02531335
_cell_angle_alpha   90.00000000
_cell_angle_beta   90.00000000
_cell_angle_gamma   90.00000000
_symmetry_Int_Tables_number   1
_chemical_formula_structural   Y2WO6
_chemical_formula_sum   'Y8 W4 O24'
_cell_volume   487.06329407
_cell_formula_units_Z   4
loop_
 _symmetry_equiv_pos_site_id
 _symmetry_equiv_pos_as_xyz
  1  'x, y, z'
loop_
 _atom_site_type_symbol
 _atom_site_label
 _atom_site_symmetry_multiplicity
 _atom_site_fract_x
 _atom_site_fract_y
 _atom_site_fract_z
 _atom_site_occupancy
  Y  Y0  1  0.980963  0.603293  0.535144  1
  Y  Y1  1  0.480963  0.896707  0.464856  1
  Y  Y2  1  0.019037  0.103293  0.964856  1
  Y  Y3  1  0.519037  0.396707  0.035144  1
  Y  Y4  1  0.461309  0.781026  0.870385  1
  Y  Y5  1  0.961309  0.718974  0.129615  1
  Y  Y6  1  0.038691  0.218974  0.370385  1
  Y  Y7  1  0.538691  0.281026  0.629615  1
  W  W8  1  0.961015  0.995528  0.651581  1
  W  W9  1  0.461015  0.504472  0.348419  1
  W  W10  1  0.038985  0.495528  0.848419  1
  W  W11  1  0.538985  0.004472  0.151581  1
  O  O12  1  0.753132  0.088590  0.505733  1
  O  O13  1  0.253132  0.411410  0.494267  1
  O  O14  1  0.246868  0.588590  0.994267  1
  O  O15  1  0.746868  0.911410  0.005733  1
  O  O16  1  0.231693  0.114955  0.568254  1
  O  O17  1  0.731693  0.385045  0.431746  1
  O  O18  1  0.768307  0.614955  0.931746  1
  O  O19  1  0.268307  0.885045  0.068254  1
  O  O20  1  0.086700  0.843104  0.531116  1
  O  O21  1  0.586700  0.656896  0.468884  1
  O  O22  1  0.913300  0.343104  0.968884  1
  O  O23  1  0.413300  0.156896  0.031116  1
  O  O24  1  0.692103  0.859391  0.263811  1
  O  O25  1  0.192103  0.640609  0.736189  1
  O  O26  1  0.307897  0.359391  0.236189  1
  O  O27  1  0.807897  0.140609  0.763811  1
  O  O28  1  0.325926  0.047689  0.298351  1
  O  O29  1  0.825926  0.452311  0.701649  1
  O  O30  1  0.681025  0.862439  0.681032  1
  O  O31  1  0.174074  0.952311  0.798351  1
  O  O32  1  0.818975  0.137561  0.181032  1
  O  O33  1  0.318975  0.362439  0.818968  1
  O  O34  1  0.181025  0.637561  0.318968  1
  O  O35  1  0.674074  0.547689  0.201649  1
