# generated using pymatgen
data_Rb5Ta(TlAs2)2
_symmetry_space_group_name_H-M   'P 1'
_cell_length_a   8.02034429
_cell_length_b   11.25778408
_cell_length_c   19.48784278
_cell_angle_alpha   90.00000000
_cell_angle_beta   90.00000000
_cell_angle_gamma   90.00000000
_symmetry_Int_Tables_number   1
_chemical_formula_structural   Rb5Ta(TlAs2)2
_chemical_formula_sum   'Rb20 Ta4 Tl8 As16'
_cell_volume   1759.58274190
_cell_formula_units_Z   4
loop_
 _symmetry_equiv_pos_site_id
 _symmetry_equiv_pos_as_xyz
  1  'x, y, z'
loop_
 _atom_site_type_symbol
 _atom_site_label
 _atom_site_symmetry_multiplicity
 _atom_site_fract_x
 _atom_site_fract_y
 _atom_site_fract_z
 _atom_site_occupancy
  Rb  Rb0  1  0.893275  0.750000  0.477853  1
  Rb  Rb1  1  0.692796  0.024644  0.578084  1
  Rb  Rb2  1  0.480109  0.945091  0.748505  1
  Rb  Rb3  1  0.980109  0.054909  0.751495  1
  Rb  Rb4  1  0.019891  0.945091  0.248505  1
  Rb  Rb5  1  0.980109  0.445091  0.751495  1
  Rb  Rb6  1  0.106725  0.250000  0.522147  1
  Rb  Rb7  1  0.807204  0.475356  0.078084  1
  Rb  Rb8  1  0.519891  0.054909  0.251495  1
  Rb  Rb9  1  0.692796  0.475356  0.578084  1
  Rb  Rb10  1  0.307204  0.524644  0.421916  1
  Rb  Rb11  1  0.393275  0.250000  0.022147  1
  Rb  Rb12  1  0.307204  0.975356  0.421916  1
  Rb  Rb13  1  0.519891  0.445091  0.251495  1
  Rb  Rb14  1  0.606725  0.750000  0.977853  1
  Rb  Rb15  1  0.192796  0.524644  0.921916  1
  Rb  Rb16  1  0.807204  0.024644  0.078084  1
  Rb  Rb17  1  0.480109  0.554909  0.748505  1
  Rb  Rb18  1  0.192796  0.975356  0.921916  1
  Rb  Rb19  1  0.019891  0.554909  0.248505  1
  Ta  Ta20  1  0.417316  0.750000  0.163119  1
  Ta  Ta21  1  0.582684  0.250000  0.836881  1
  Ta  Ta22  1  0.917316  0.250000  0.336881  1
  Ta  Ta23  1  0.082684  0.750000  0.663119  1
  Tl  Tl24  1  0.673931  0.750000  0.312602  1
  Tl  Tl25  1  0.417560  0.750000  0.554473  1
  Tl  Tl26  1  0.917560  0.250000  0.945527  1
  Tl  Tl27  1  0.582440  0.250000  0.445527  1
  Tl  Tl28  1  0.326069  0.250000  0.687398  1
  Tl  Tl29  1  0.826069  0.750000  0.812602  1
  Tl  Tl30  1  0.082440  0.750000  0.054473  1
  Tl  Tl31  1  0.173931  0.250000  0.187398  1
  As  As32  1  0.195552  0.930424  0.602608  1
  As  As33  1  0.167831  0.750000  0.788748  1
  As  As34  1  0.332169  0.750000  0.288748  1
  As  As35  1  0.304448  0.930424  0.102608  1
  As  As36  1  0.771244  0.750000  0.663876  1
  As  As37  1  0.304448  0.569576  0.102608  1
  As  As38  1  0.804448  0.069576  0.397392  1
  As  As39  1  0.228756  0.250000  0.336124  1
  As  As40  1  0.804448  0.430424  0.397392  1
  As  As41  1  0.832169  0.250000  0.211252  1
  As  As42  1  0.695552  0.069576  0.897392  1
  As  As43  1  0.728756  0.750000  0.163876  1
  As  As44  1  0.667831  0.250000  0.711252  1
  As  As45  1  0.271244  0.250000  0.836124  1
  As  As46  1  0.195552  0.569576  0.602608  1
  As  As47  1  0.695552  0.430424  0.897392  1
