# generated using pymatgen
data_Li3Ga7
_symmetry_space_group_name_H-M   'P 1'
_cell_length_a   7.63591861
_cell_length_b   7.63591861
_cell_length_c   7.63591861
_cell_angle_alpha   68.30289688
_cell_angle_beta   68.30289688
_cell_angle_gamma   68.30289688
_symmetry_Int_Tables_number   1
_chemical_formula_structural   Li3Ga7
_chemical_formula_sum   'Li6 Ga14'
_cell_volume   370.11016076
_cell_formula_units_Z   2
loop_
 _symmetry_equiv_pos_site_id
 _symmetry_equiv_pos_as_xyz
  1  'x, y, z'
loop_
 _atom_site_type_symbol
 _atom_site_label
 _atom_site_symmetry_multiplicity
 _atom_site_fract_x
 _atom_site_fract_y
 _atom_site_fract_z
 _atom_site_occupancy
  Li  Li0  1  0.118798  0.529225  0.118798  1
  Li  Li1  1  0.118798  0.118798  0.529225  1
  Li  Li2  1  0.881202  0.881202  0.470775  1
  Li  Li3  1  0.529225  0.118798  0.118798  1
  Li  Li4  1  0.470775  0.881202  0.881202  1
  Li  Li5  1  0.881202  0.470775  0.881202  1
  Ga  Ga6  1  0.509482  0.824911  0.509482  1
  Ga  Ga7  1  0.296043  0.821465  0.296043  1
  Ga  Ga8  1  0.178535  0.703957  0.703957  1
  Ga  Ga9  1  0.490518  0.175089  0.490518  1
  Ga  Ga10  1  0.821465  0.296043  0.296043  1
  Ga  Ga11  1  0.490518  0.490518  0.175089  1
  Ga  Ga12  1  0.703957  0.178535  0.703957  1
  Ga  Ga13  1  0.924082  0.924082  0.924082  1
  Ga  Ga14  1  0.175089  0.490518  0.490518  1
  Ga  Ga15  1  0.703957  0.703957  0.178535  1
  Ga  Ga16  1  0.509482  0.509482  0.824911  1
  Ga  Ga17  1  0.296043  0.296043  0.821465  1
  Ga  Ga18  1  0.824911  0.509482  0.509482  1
  Ga  Ga19  1  0.075918  0.075918  0.075918  1
