# generated using pymatgen
data_La4Ti5(Si2O11)2
_symmetry_space_group_name_H-M   'P 1'
_cell_length_a   7.44965839
_cell_length_b   7.44965839
_cell_length_c   11.21155506
_cell_angle_alpha   80.21317200
_cell_angle_beta   99.78682800
_cell_angle_gamma   134.94697923
_symmetry_Int_Tables_number   1
_chemical_formula_structural   La4Ti5(Si2O11)2
_chemical_formula_sum   'La4 Ti5 Si4 O22'
_cell_volume   432.85663311
_cell_formula_units_Z   1
loop_
 _symmetry_equiv_pos_site_id
 _symmetry_equiv_pos_as_xyz
  1  'x, y, z'
loop_
 _atom_site_type_symbol
 _atom_site_label
 _atom_site_symmetry_multiplicity
 _atom_site_fract_x
 _atom_site_fract_y
 _atom_site_fract_z
 _atom_site_occupancy
  La  La0  1  0.569155  0.430845  0.747794  1
  La  La1  1  0.858095  0.141905  0.742213  1
  La  La2  1  0.141905  0.858095  0.257787  1
  La  La3  1  0.430845  0.569155  0.252206  1
  Ti  Ti4  1  0.000000  0.000000  0.500000  1
  Ti  Ti5  1  0.500000  0.500000  0.000000  1
  Ti  Ti6  1  0.000000  0.000000  0.000000  1
  Ti  Ti7  1  0.500000  1.000000  0.000000  1
  Ti  Ti8  1  0.000000  0.500000  0.000000  1
  Si  Si9  1  0.361423  0.638577  0.543530  1
  Si  Si10  1  0.795730  0.204270  0.270475  1
  Si  Si11  1  0.638577  0.361423  0.456470  1
  Si  Si12  1  0.204270  0.795730  0.729525  1
  O  O13  1  0.688752  0.311248  0.597425  1
  O  O14  1  0.908340  0.091660  0.343456  1
  O  O15  1  0.011972  0.460368  0.186150  1
  O  O16  1  0.716217  0.283783  0.360872  1
  O  O17  1  0.229539  0.271686  0.867443  1
  O  O18  1  0.283783  0.716217  0.639128  1
  O  O19  1  0.195548  0.335874  0.586944  1
  O  O20  1  0.850215  0.149785  0.982444  1
  O  O21  1  0.770461  0.728314  0.132557  1
  O  O22  1  0.149785  0.850215  0.017556  1
  O  O23  1  0.460368  0.011972  0.813850  1
  O  O24  1  0.539632  0.988028  0.186150  1
  O  O25  1  0.643723  0.356277  0.978041  1
  O  O26  1  0.271686  0.229539  0.132557  1
  O  O27  1  0.728314  0.770461  0.867443  1
  O  O28  1  0.664126  0.804452  0.586944  1
  O  O29  1  0.091660  0.908340  0.656544  1
  O  O30  1  0.356277  0.643723  0.021959  1
  O  O31  1  0.311248  0.688752  0.402575  1
  O  O32  1  0.335874  0.195548  0.413056  1
  O  O33  1  0.988028  0.539632  0.813850  1
  O  O34  1  0.804452  0.664126  0.413056  1
