# generated using pymatgen
data_Eu3Fe5O12
_symmetry_space_group_name_H-M   'P 1'
_cell_length_a   11.01295229
_cell_length_b   11.01295229
_cell_length_c   11.01295229
_cell_angle_alpha   109.47122063
_cell_angle_beta   109.47122063
_cell_angle_gamma   109.47122063
_symmetry_Int_Tables_number   1
_chemical_formula_structural   Eu3Fe5O12
_chemical_formula_sum   'Eu12 Fe20 O48'
_cell_volume   1028.22789739
_cell_formula_units_Z   4
loop_
 _symmetry_equiv_pos_site_id
 _symmetry_equiv_pos_as_xyz
  1  'x, y, z'
loop_
 _atom_site_type_symbol
 _atom_site_label
 _atom_site_symmetry_multiplicity
 _atom_site_fract_x
 _atom_site_fract_y
 _atom_site_fract_z
 _atom_site_occupancy
  Eu  Eu0  1  0.750000  0.625000  0.875000  1
  Eu  Eu1  1  0.375000  0.750000  0.125000  1
  Eu  Eu2  1  0.875000  0.625000  0.250000  1
  Eu  Eu3  1  0.375000  0.125000  0.250000  1
  Eu  Eu4  1  0.125000  0.250000  0.375000  1
  Eu  Eu5  1  0.625000  0.875000  0.750000  1
  Eu  Eu6  1  0.250000  0.875000  0.625000  1
  Eu  Eu7  1  0.750000  0.125000  0.375000  1
  Eu  Eu8  1  0.250000  0.375000  0.125000  1
  Eu  Eu9  1  0.625000  0.250000  0.875000  1
  Eu  Eu10  1  0.875000  0.750000  0.625000  1
  Eu  Eu11  1  0.125000  0.375000  0.750000  1
  Fe  Fe12  1  0.125000  0.875000  0.250000  1
  Fe  Fe13  1  0.125000  0.750000  0.875000  1
  Fe  Fe14  1  0.875000  0.125000  0.750000  1
  Fe  Fe15  1  0.500000  0.000000  0.500000  1
  Fe  Fe16  1  0.000000  0.000000  0.500000  1
  Fe  Fe17  1  0.500000  0.500000  0.500000  1
  Fe  Fe18  1  0.000000  0.000000  0.000000  1
  Fe  Fe19  1  0.750000  0.375000  0.625000  1
  Fe  Fe20  1  0.375000  0.625000  0.750000  1
  Fe  Fe21  1  0.250000  0.625000  0.375000  1
  Fe  Fe22  1  1.000000  0.500000  0.500000  1
  Fe  Fe23  1  0.625000  0.750000  0.375000  1
  Fe  Fe24  1  0.375000  0.250000  0.625000  1
  Fe  Fe25  1  0.875000  0.250000  0.125000  1
  Fe  Fe26  1  0.500000  0.500000  0.000000  1
  Fe  Fe27  1  0.625000  0.375000  0.250000  1
  Fe  Fe28  1  0.250000  0.125000  0.875000  1
  Fe  Fe29  1  0.500000  0.000000  1.000000  1
  Fe  Fe30  1  0.750000  0.875000  0.125000  1
  Fe  Fe31  1  0.000000  0.500000  0.000000  1
  O  O32  1  0.821982  0.524956  0.404071  1
  O  O33  1  0.379114  0.297026  0.475044  1
  O  O34  1  0.904071  0.379114  0.582089  1
  O  O35  1  0.404071  0.821982  0.524956  1
  O  O36  1  0.595929  0.178018  0.475044  1
  O  O37  1  0.702974  0.678018  0.082089  1
  O  O38  1  0.095929  0.975044  0.678018  1
  O  O39  1  0.297026  0.321982  0.917911  1
  O  O40  1  0.120886  0.024956  0.202974  1
  O  O41  1  0.404071  0.082089  0.879114  1
  O  O42  1  0.678018  0.082089  0.702974  1
  O  O43  1  0.620886  0.702974  0.524956  1
  O  O44  1  0.524956  0.620886  0.702974  1
  O  O45  1  0.524956  0.404071  0.821982  1
  O  O46  1  0.321982  0.904071  0.024956  1
  O  O47  1  0.024956  0.202974  0.120886  1
  O  O48  1  0.120886  0.595929  0.917911  1
  O  O49  1  0.582089  0.178018  0.202974  1
  O  O50  1  0.475044  0.379114  0.297026  1
  O  O51  1  0.379114  0.582089  0.904071  1
  O  O52  1  0.879114  0.404071  0.082089  1
  O  O53  1  0.475044  0.595929  0.178018  1
  O  O54  1  0.678018  0.095929  0.975044  1
  O  O55  1  0.178018  0.202974  0.582089  1
  O  O56  1  0.975044  0.797026  0.879114  1
  O  O57  1  0.595929  0.917911  0.120886  1
  O  O58  1  0.082089  0.879114  0.404071  1
  O  O59  1  0.879114  0.975044  0.797026  1
  O  O60  1  0.321982  0.917911  0.297026  1
  O  O61  1  0.917911  0.120886  0.595929  1
  O  O62  1  0.082089  0.702974  0.678018  1
  O  O63  1  0.797026  0.417911  0.821982  1
  O  O64  1  0.095929  0.620886  0.417911  1
  O  O65  1  0.582089  0.904071  0.379114  1
  O  O66  1  0.821982  0.797026  0.417911  1
  O  O67  1  0.417911  0.821982  0.797026  1
  O  O68  1  0.975044  0.678018  0.095929  1
  O  O69  1  0.702974  0.524956  0.620886  1
  O  O70  1  0.620886  0.417911  0.095929  1
  O  O71  1  0.917911  0.297026  0.321982  1
  O  O72  1  0.202974  0.120886  0.024956  1
  O  O73  1  0.024956  0.321982  0.904071  1
  O  O74  1  0.297026  0.475044  0.379114  1
  O  O75  1  0.202974  0.582089  0.178018  1
  O  O76  1  0.904071  0.024956  0.321982  1
  O  O77  1  0.797026  0.879114  0.975044  1
  O  O78  1  0.178018  0.475044  0.595929  1
  O  O79  1  0.417911  0.095929  0.620886  1
