# generated using pymatgen
data_Tl3Ag3(SbS3)2
_symmetry_space_group_name_H-M   'P 1'
_cell_length_a   11.53770816
_cell_length_b   12.14193049
_cell_length_c   12.24557693
_cell_angle_alpha   90.00000000
_cell_angle_beta   119.78471595
_cell_angle_gamma   90.00000000
_symmetry_Int_Tables_number   1
_chemical_formula_structural   Tl3Ag3(SbS3)2
_chemical_formula_sum   'Tl12 Ag12 Sb8 S24'
_cell_volume   1488.86468060
_cell_formula_units_Z   4
loop_
 _symmetry_equiv_pos_site_id
 _symmetry_equiv_pos_as_xyz
  1  'x, y, z'
loop_
 _atom_site_type_symbol
 _atom_site_label
 _atom_site_symmetry_multiplicity
 _atom_site_fract_x
 _atom_site_fract_y
 _atom_site_fract_z
 _atom_site_occupancy
  Tl  Tl0  1  0.215036  0.115220  0.111886  1
  Tl  Tl1  1  0.838117  0.246486  0.270897  1
  Tl  Tl2  1  0.805752  0.510343  0.034621  1
  Tl  Tl3  1  0.194248  0.010343  0.465379  1
  Tl  Tl4  1  0.784964  0.884780  0.888114  1
  Tl  Tl5  1  0.215036  0.384780  0.611886  1
  Tl  Tl6  1  0.805752  0.989657  0.534621  1
  Tl  Tl7  1  0.784964  0.615220  0.388114  1
  Tl  Tl8  1  0.194248  0.489657  0.965379  1
  Tl  Tl9  1  0.161883  0.746486  0.229103  1
  Tl  Tl10  1  0.838117  0.253514  0.770897  1
  Tl  Tl11  1  0.161883  0.753514  0.729103  1
  Ag  Ag12  1  0.110092  0.653427  0.429032  1
  Ag  Ag13  1  0.526782  0.634845  0.074596  1
  Ag  Ag14  1  0.473218  0.134845  0.425404  1
  Ag  Ag15  1  0.526782  0.865155  0.574596  1
  Ag  Ag16  1  0.526836  0.874880  0.949214  1
  Ag  Ag17  1  0.526836  0.625120  0.449214  1
  Ag  Ag18  1  0.473164  0.125120  0.050786  1
  Ag  Ag19  1  0.473164  0.374880  0.550786  1
  Ag  Ag20  1  0.889908  0.346573  0.570968  1
  Ag  Ag21  1  0.473218  0.365155  0.925404  1
  Ag  Ag22  1  0.110092  0.846573  0.929032  1
  Ag  Ag23  1  0.889908  0.153427  0.070968  1
  Sb  Sb24  1  0.169244  0.409661  0.259470  1
  Sb  Sb25  1  0.169244  0.090339  0.759470  1
  Sb  Sb26  1  0.497961  0.853353  0.244709  1
  Sb  Sb27  1  0.502039  0.146647  0.755291  1
  Sb  Sb28  1  0.830756  0.590339  0.740530  1
  Sb  Sb29  1  0.830756  0.909661  0.240530  1
  Sb  Sb30  1  0.497961  0.646647  0.744709  1
  Sb  Sb31  1  0.502039  0.353353  0.255291  1
  S  S32  1  0.270830  0.248838  0.900968  1
  S  S33  1  0.583949  0.163126  0.288051  1
  S  S34  1  0.994484  0.531769  0.678143  1
  S  S35  1  0.005516  0.468231  0.321857  1
  S  S36  1  0.005516  0.031769  0.821857  1
  S  S37  1  0.645126  0.417896  0.474038  1
  S  S38  1  0.371122  0.574200  0.842898  1
  S  S39  1  0.354874  0.917896  0.025962  1
  S  S40  1  0.416051  0.836874  0.711949  1
  S  S41  1  0.004133  0.321217  0.056659  1
  S  S42  1  0.645126  0.082104  0.974038  1
  S  S43  1  0.729170  0.751162  0.099032  1
  S  S44  1  0.354874  0.582104  0.525962  1
  S  S45  1  0.994484  0.968231  0.178143  1
  S  S46  1  0.270830  0.251162  0.400968  1
  S  S47  1  0.729170  0.748838  0.599032  1
  S  S48  1  0.628878  0.074200  0.657102  1
  S  S49  1  0.628878  0.425800  0.157102  1
  S  S50  1  0.416051  0.663126  0.211949  1
  S  S51  1  0.995867  0.678783  0.943341  1
  S  S52  1  0.583949  0.336874  0.788051  1
  S  S53  1  0.995867  0.821217  0.443341  1
  S  S54  1  0.371122  0.925800  0.342898  1
  S  S55  1  0.004133  0.178783  0.556659  1
