# generated using pymatgen
data_GdSeClO3
_symmetry_space_group_name_H-M   'P 1'
_cell_length_a   7.12221880
_cell_length_b   7.37168481
_cell_length_c   8.97908974
_cell_angle_alpha   90.00000000
_cell_angle_beta   90.00000000
_cell_angle_gamma   90.00000000
_symmetry_Int_Tables_number   1
_chemical_formula_structural   GdSeClO3
_chemical_formula_sum   'Gd4 Se4 Cl4 O12'
_cell_volume   471.42692308
_cell_formula_units_Z   4
loop_
 _symmetry_equiv_pos_site_id
 _symmetry_equiv_pos_as_xyz
  1  'x, y, z'
loop_
 _atom_site_type_symbol
 _atom_site_label
 _atom_site_symmetry_multiplicity
 _atom_site_fract_x
 _atom_site_fract_y
 _atom_site_fract_z
 _atom_site_occupancy
  Gd  Gd0  1  0.250000  0.108191  0.539735  1
  Gd  Gd1  1  0.750000  0.391809  0.039735  1
  Gd  Gd2  1  0.750000  0.891809  0.460265  1
  Gd  Gd3  1  0.250000  0.608191  0.960265  1
  Se  Se4  1  0.750000  0.289314  0.631935  1
  Se  Se5  1  0.750000  0.789314  0.868065  1
  Se  Se6  1  0.250000  0.210686  0.131935  1
  Se  Se7  1  0.250000  0.710686  0.368065  1
  Cl  Cl8  1  0.750000  0.554159  0.318829  1
  Cl  Cl9  1  0.250000  0.945841  0.818829  1
  Cl  Cl10  1  0.750000  0.054159  0.181171  1
  Cl  Cl11  1  0.250000  0.445841  0.681171  1
  O  O12  1  0.926051  0.642864  0.932594  1
  O  O13  1  0.926051  0.142864  0.567406  1
  O  O14  1  0.750000  0.747664  0.681564  1
  O  O15  1  0.573949  0.142864  0.567406  1
  O  O16  1  0.750000  0.247664  0.818436  1
  O  O17  1  0.426051  0.357136  0.067406  1
  O  O18  1  0.073949  0.357136  0.067406  1
  O  O19  1  0.073949  0.857136  0.432594  1
  O  O20  1  0.426051  0.857136  0.432594  1
  O  O21  1  0.250000  0.252336  0.318436  1
  O  O22  1  0.250000  0.752336  0.181564  1
  O  O23  1  0.573949  0.642864  0.932594  1
