# generated using pymatgen
data_BaSbSe2F
_symmetry_space_group_name_H-M   'P 1'
_cell_length_a   6.31479953
_cell_length_b   6.45053078
_cell_length_c   14.27395635
_cell_angle_alpha   94.57758004
_cell_angle_beta   93.90035202
_cell_angle_gamma   89.89508790
_symmetry_Int_Tables_number   1
_chemical_formula_structural   BaSbSe2F
_chemical_formula_sum   'Ba4 Sb4 Se8 F4'
_cell_volume   578.23177813
_cell_formula_units_Z   4
loop_
 _symmetry_equiv_pos_site_id
 _symmetry_equiv_pos_as_xyz
  1  'x, y, z'
loop_
 _atom_site_type_symbol
 _atom_site_label
 _atom_site_symmetry_multiplicity
 _atom_site_fract_x
 _atom_site_fract_y
 _atom_site_fract_z
 _atom_site_occupancy
  Ba  Ba0  1  0.269992  0.522633  0.607170  1
  Ba  Ba1  1  0.229800  0.984357  0.393345  1
  Ba  Ba2  1  0.730008  0.477367  0.392830  1
  Ba  Ba3  1  0.770200  0.015643  0.606655  1
  Sb  Sb4  1  0.736333  0.971121  0.127238  1
  Sb  Sb5  1  0.232164  0.378969  0.127723  1
  Sb  Sb6  1  0.263667  0.028879  0.872762  1
  Sb  Sb7  1  0.767836  0.621031  0.872277  1
  Se  Se8  1  0.345866  0.629784  0.884785  1
  Se  Se9  1  0.285436  0.039852  0.695782  1
  Se  Se10  1  0.216363  0.469576  0.303497  1
  Se  Se11  1  0.654134  0.370216  0.115215  1
  Se  Se12  1  0.783637  0.530424  0.696503  1
  Se  Se13  1  0.837994  0.025263  0.872614  1
  Se  Se14  1  0.162006  0.974737  0.127386  1
  Se  Se15  1  0.714564  0.960148  0.304218  1
  F  F16  1  0.999734  0.253089  0.501668  1
  F  F17  1  0.500042  0.249086  0.501567  1
  F  F18  1  0.499958  0.750914  0.498433  1
  F  F19  1  0.000266  0.746911  0.498332  1
