# generated using pymatgen
data_La12Fe2I17
_symmetry_space_group_name_H-M   'P 1'
_cell_length_a   9.94546354
_cell_length_b   11.99624669
_cell_length_c   12.20182431
_cell_angle_alpha   73.99926931
_cell_angle_beta   75.16267062
_cell_angle_gamma   67.07847896
_symmetry_Int_Tables_number   1
_chemical_formula_structural   La12Fe2I17
_chemical_formula_sum   'La12 Fe2 I17'
_cell_volume   1270.56897824
_cell_formula_units_Z   1
loop_
 _symmetry_equiv_pos_site_id
 _symmetry_equiv_pos_as_xyz
  1  'x, y, z'
loop_
 _atom_site_type_symbol
 _atom_site_label
 _atom_site_symmetry_multiplicity
 _atom_site_fract_x
 _atom_site_fract_y
 _atom_site_fract_z
 _atom_site_occupancy
  La  La0  1  0.452507  0.479268  0.328613  1
  La  La1  1  0.561099  0.667624  0.001099  1
  La  La2  1  0.291089  0.000108  0.087735  1
  La  La3  1  0.842365  0.283958  0.846749  1
  La  La4  1  0.422295  0.238676  0.729685  1
  La  La5  1  0.708911  0.999892  0.912265  1
  La  La6  1  0.547493  0.520732  0.671387  1
  La  La7  1  0.438901  0.332376  0.998901  1
  La  La8  1  0.577705  0.761324  0.270315  1
  La  La9  1  0.828951  0.184971  0.576604  1
  La  La10  1  0.171049  0.815029  0.423396  1
  La  La11  1  0.157635  0.716042  0.153251  1
  Fe  Fe12  1  0.365530  0.734133  0.214846  1
  Fe  Fe13  1  0.634470  0.265867  0.785154  1
  I  I14  1  0.055528  0.107107  0.318152  1
  I  I15  1  0.458580  0.942021  0.825494  1
  I  I16  1  0.430545  0.824348  0.530532  1
  I  I17  1  0.569455  0.175652  0.469468  1
  I  I18  1  0.854338  0.696247  0.049080  1
  I  I19  1  0.212408  0.417588  0.247571  1
  I  I20  1  0.695964  0.362249  0.108372  1
  I  I21  1  0.541420  0.057979  0.174506  1
  I  I22  1  0.747761  0.473738  0.413318  1
  I  I23  1  0.887773  0.786223  0.368015  1
  I  I24  1  0.944472  0.892893  0.681848  1
  I  I25  1  0.145662  0.303753  0.950920  1
  I  I26  1  0.304036  0.637751  0.891628  1
  I  I27  1  0.000000  0.000000  0.000000  1
  I  I28  1  0.112227  0.213777  0.631985  1
  I  I29  1  0.787592  0.582412  0.752429  1
  I  I30  1  0.252239  0.526262  0.586682  1
