# generated using pymatgen
data_BaNa2(SiO3)2
_symmetry_space_group_name_H-M   'P 1'
_cell_length_a   5.77667170
_cell_length_b   4.82902000
_cell_length_c   11.55995649
_cell_angle_alpha   90.00000000
_cell_angle_beta   91.44139593
_cell_angle_gamma   90.00000000
_symmetry_Int_Tables_number   1
_chemical_formula_structural   BaNa2(SiO3)2
_chemical_formula_sum   'Ba2 Na4 Si4 O12'
_cell_volume   322.37061452
_cell_formula_units_Z   2
loop_
 _symmetry_equiv_pos_site_id
 _symmetry_equiv_pos_as_xyz
  1  'x, y, z'
loop_
 _atom_site_type_symbol
 _atom_site_label
 _atom_site_symmetry_multiplicity
 _atom_site_fract_x
 _atom_site_fract_y
 _atom_site_fract_z
 _atom_site_occupancy
  Ba  Ba0  1  0.252603  0.744926  0.096895  1
  Ba  Ba1  1  0.747397  0.244926  0.903105  1
  Na  Na2  1  0.185312  0.757168  0.487644  1
  Na  Na3  1  0.707683  0.754283  0.676745  1
  Na  Na4  1  0.814688  0.257168  0.512356  1
  Na  Na5  1  0.292317  0.254283  0.323255  1
  Si  Si6  1  0.223896  0.802135  0.806694  1
  Si  Si7  1  0.322716  0.295919  0.654434  1
  Si  Si8  1  0.776104  0.302135  0.193306  1
  Si  Si9  1  0.677284  0.795919  0.345566  1
  O  O10  1  0.400315  0.755466  0.322593  1
  O  O11  1  0.750356  0.128060  0.318116  1
  O  O12  1  0.777034  0.734545  0.474789  1
  O  O13  1  0.460671  0.771128  0.883770  1
  O  O14  1  0.990782  0.729167  0.875672  1
  O  O15  1  0.819248  0.626203  0.242114  1
  O  O16  1  0.009218  0.229167  0.124328  1
  O  O17  1  0.599685  0.255466  0.677407  1
  O  O18  1  0.222966  0.234545  0.525211  1
  O  O19  1  0.180752  0.126203  0.757886  1
  O  O20  1  0.249644  0.628060  0.681884  1
  O  O21  1  0.539329  0.271128  0.116230  1
