# generated using pymatgen
data_ClF3
_symmetry_space_group_name_H-M   'P 1'
_cell_length_a   4.69880465
_cell_length_b   6.27202910
_cell_length_c   9.20902728
_cell_angle_alpha   90.00000000
_cell_angle_beta   90.00000000
_cell_angle_gamma   90.00000000
_symmetry_Int_Tables_number   1
_chemical_formula_structural   ClF3
_chemical_formula_sum   'Cl4 F12'
_cell_volume   271.39960673
_cell_formula_units_Z   4
loop_
 _symmetry_equiv_pos_site_id
 _symmetry_equiv_pos_as_xyz
  1  'x, y, z'
loop_
 _atom_site_type_symbol
 _atom_site_label
 _atom_site_symmetry_multiplicity
 _atom_site_fract_x
 _atom_site_fract_y
 _atom_site_fract_z
 _atom_site_occupancy
  Cl  Cl0  1  0.626254  0.750000  0.156059  1
  Cl  Cl1  1  0.373746  0.250000  0.843941  1
  Cl  Cl2  1  0.873746  0.750000  0.656059  1
  Cl  Cl3  1  0.126254  0.250000  0.343941  1
  F  F4  1  0.896343  0.750000  0.044113  1
  F  F5  1  0.364207  0.971390  0.848187  1
  F  F6  1  0.135793  0.971390  0.348187  1
  F  F7  1  0.603657  0.750000  0.544113  1
  F  F8  1  0.135793  0.528610  0.348187  1
  F  F9  1  0.103657  0.250000  0.955887  1
  F  F10  1  0.364207  0.528610  0.848187  1
  F  F11  1  0.635793  0.471390  0.151813  1
  F  F12  1  0.864207  0.471390  0.651813  1
  F  F13  1  0.635793  0.028610  0.151813  1
  F  F14  1  0.864207  0.028610  0.651813  1
  F  F15  1  0.396343  0.250000  0.455887  1
