# generated using pymatgen
data_Cs2NaMnF6
_symmetry_space_group_name_H-M   'P 1'
_cell_length_a   11.04863742
_cell_length_b   11.04863742
_cell_length_c   11.04863742
_cell_angle_alpha   33.53787669
_cell_angle_beta   33.53787669
_cell_angle_gamma   33.53787669
_symmetry_Int_Tables_number   1
_chemical_formula_structural   Cs2NaMnF6
_chemical_formula_sum   'Cs4 Na2 Mn2 F12'
_cell_volume   366.69172991
_cell_formula_units_Z   2
loop_
 _symmetry_equiv_pos_site_id
 _symmetry_equiv_pos_as_xyz
  1  'x, y, z'
loop_
 _atom_site_type_symbol
 _atom_site_label
 _atom_site_symmetry_multiplicity
 _atom_site_fract_x
 _atom_site_fract_y
 _atom_site_fract_z
 _atom_site_occupancy
  Cs  Cs0  1  0.873188  0.873188  0.873188  1
  Cs  Cs1  1  0.126812  0.126812  0.126812  1
  Cs  Cs2  1  0.715578  0.715578  0.715578  1
  Cs  Cs3  1  0.284422  0.284422  0.284422  1
  Na  Na4  1  0.403612  0.403612  0.403612  1
  Na  Na5  1  0.596388  0.596388  0.596388  1
  Mn  Mn6  1  0.500000  0.500000  0.500000  1
  Mn  Mn7  1  0.000000  0.000000  0.000000  1
  F  F8  1  0.813261  0.263270  0.813261  1
  F  F9  1  0.263270  0.813261  0.813261  1
  F  F10  1  0.813261  0.813261  0.263270  1
  F  F11  1  0.186739  0.186739  0.736730  1
  F  F12  1  0.186739  0.736730  0.186739  1
  F  F13  1  0.736730  0.186739  0.186739  1
  F  F14  1  0.604452  0.178281  0.604452  1
  F  F15  1  0.178281  0.604452  0.604452  1
  F  F16  1  0.821719  0.395548  0.395548  1
  F  F17  1  0.395548  0.821719  0.395548  1
  F  F18  1  0.395548  0.395548  0.821719  1
  F  F19  1  0.604452  0.604452  0.178281  1
