# generated using pymatgen
data_YbGeBiO5
_symmetry_space_group_name_H-M   'P 1'
_cell_length_a   5.51329781
_cell_length_b   11.02685868
_cell_length_c   15.54683497
_cell_angle_alpha   90.00000000
_cell_angle_beta   90.00000000
_cell_angle_gamma   90.00000000
_symmetry_Int_Tables_number   1
_chemical_formula_structural   YbGeBiO5
_chemical_formula_sum   'Yb8 Ge8 Bi8 O40'
_cell_volume   945.15981691
_cell_formula_units_Z   8
loop_
 _symmetry_equiv_pos_site_id
 _symmetry_equiv_pos_as_xyz
  1  'x, y, z'
loop_
 _atom_site_type_symbol
 _atom_site_label
 _atom_site_symmetry_multiplicity
 _atom_site_fract_x
 _atom_site_fract_y
 _atom_site_fract_z
 _atom_site_occupancy
  Yb  Yb0  1  0.009636  0.359872  0.947505  1
  Yb  Yb1  1  0.490364  0.859872  0.052495  1
  Yb  Yb2  1  0.509636  0.140128  0.947505  1
  Yb  Yb3  1  0.509636  0.640128  0.552495  1
  Yb  Yb4  1  0.990364  0.640128  0.052495  1
  Yb  Yb5  1  0.990364  0.140128  0.447505  1
  Yb  Yb6  1  0.490364  0.359872  0.447505  1
  Yb  Yb7  1  0.009636  0.859872  0.552495  1
  Ge  Ge8  1  0.501827  0.099952  0.594129  1
  Ge  Ge9  1  0.498173  0.900048  0.405871  1
  Ge  Ge10  1  0.501827  0.599952  0.905871  1
  Ge  Ge11  1  0.998173  0.599952  0.405871  1
  Ge  Ge12  1  0.998173  0.099952  0.094129  1
  Ge  Ge13  1  0.001827  0.900048  0.905871  1
  Ge  Ge14  1  0.001827  0.400048  0.594129  1
  Ge  Ge15  1  0.498173  0.400048  0.094129  1
  Bi  Bi16  1  0.550841  0.151229  0.265448  1
  Bi  Bi17  1  0.949159  0.151229  0.765448  1
  Bi  Bi18  1  0.550841  0.651229  0.234552  1
  Bi  Bi19  1  0.949159  0.651229  0.734552  1
  Bi  Bi20  1  0.050841  0.848771  0.234552  1
  Bi  Bi21  1  0.050841  0.348771  0.265448  1
  Bi  Bi22  1  0.449159  0.348771  0.765448  1
  Bi  Bi23  1  0.449159  0.848771  0.734552  1
  O  O24  1  0.091266  0.817366  0.809705  1
  O  O25  1  0.701709  0.514062  0.137745  1
  O  O26  1  0.798291  0.514062  0.637745  1
  O  O27  1  0.225740  0.463795  0.056371  1
  O  O28  1  0.342313  0.192610  0.523086  1
  O  O29  1  0.245380  0.727833  0.655097  1
  O  O30  1  0.274260  0.463795  0.556371  1
  O  O31  1  0.201709  0.485938  0.362255  1
  O  O32  1  0.725740  0.036205  0.056371  1
  O  O33  1  0.745380  0.772167  0.655097  1
  O  O34  1  0.798291  0.014062  0.862255  1
  O  O35  1  0.298291  0.985938  0.637745  1
  O  O36  1  0.408734  0.817366  0.309705  1
  O  O37  1  0.091266  0.317366  0.690295  1
  O  O38  1  0.745380  0.272167  0.844903  1
  O  O39  1  0.754620  0.272167  0.344903  1
  O  O40  1  0.225740  0.963795  0.443629  1
  O  O41  1  0.274260  0.963795  0.943629  1
  O  O42  1  0.298291  0.485938  0.862255  1
  O  O43  1  0.408734  0.317366  0.190295  1
  O  O44  1  0.657687  0.307390  0.023086  1
  O  O45  1  0.254620  0.727833  0.155097  1
  O  O46  1  0.774260  0.536205  0.943629  1
  O  O47  1  0.254620  0.227833  0.344903  1
  O  O48  1  0.842313  0.307390  0.523086  1
  O  O49  1  0.725740  0.536205  0.443629  1
  O  O50  1  0.774260  0.036205  0.556371  1
  O  O51  1  0.591266  0.682634  0.809705  1
  O  O52  1  0.245380  0.227833  0.844903  1
  O  O53  1  0.657687  0.807390  0.476914  1
  O  O54  1  0.201709  0.985938  0.137745  1
  O  O55  1  0.908734  0.682634  0.309705  1
  O  O56  1  0.908734  0.182634  0.190295  1
  O  O57  1  0.157687  0.192610  0.023086  1
  O  O58  1  0.754620  0.772167  0.155097  1
  O  O59  1  0.701709  0.014062  0.362255  1
  O  O60  1  0.591266  0.182634  0.690295  1
  O  O61  1  0.157687  0.692610  0.476914  1
  O  O62  1  0.342313  0.692610  0.976914  1
  O  O63  1  0.842313  0.807390  0.976914  1
