# generated using pymatgen
data_Na2CrCuF7
_symmetry_space_group_name_H-M   'P 1'
_cell_length_a   7.20209072
_cell_length_b   7.64350149
_cell_length_c   10.48956839
_cell_angle_alpha   90.00000000
_cell_angle_beta   90.00000000
_cell_angle_gamma   90.00000000
_symmetry_Int_Tables_number   1
_chemical_formula_structural   Na2CrCuF7
_chemical_formula_sum   'Na8 Cr4 Cu4 F28'
_cell_volume   577.44225538
_cell_formula_units_Z   4
loop_
 _symmetry_equiv_pos_site_id
 _symmetry_equiv_pos_as_xyz
  1  'x, y, z'
loop_
 _atom_site_type_symbol
 _atom_site_label
 _atom_site_symmetry_multiplicity
 _atom_site_fract_x
 _atom_site_fract_y
 _atom_site_fract_z
 _atom_site_occupancy
  Na  Na0  1  0.000000  0.500000  0.000000  1
  Na  Na1  1  0.500000  0.500000  0.000000  1
  Na  Na2  1  0.000000  0.000000  0.500000  1
  Na  Na3  1  0.500000  0.000000  0.500000  1
  Na  Na4  1  0.250000  0.225635  0.753042  1
  Na  Na5  1  0.750000  0.774365  0.246958  1
  Na  Na6  1  0.750000  0.725635  0.746958  1
  Na  Na7  1  0.250000  0.274365  0.253042  1
  Cr  Cr8  1  0.250000  0.722594  0.758178  1
  Cr  Cr9  1  0.750000  0.277406  0.241822  1
  Cr  Cr10  1  0.750000  0.222594  0.741822  1
  Cr  Cr11  1  0.250000  0.777406  0.258178  1
  Cu  Cu12  1  0.000000  0.000000  0.000000  1
  Cu  Cu13  1  0.500000  0.000000  0.000000  1
  Cu  Cu14  1  0.000000  0.500000  0.500000  1
  Cu  Cu15  1  0.500000  0.500000  0.500000  1
  F  F16  1  0.250000  0.094342  0.993787  1
  F  F17  1  0.750000  0.905658  0.006213  1
  F  F18  1  0.750000  0.594342  0.506213  1
  F  F19  1  0.250000  0.405658  0.493787  1
  F  F20  1  0.250000  0.950330  0.670143  1
  F  F21  1  0.750000  0.049670  0.329857  1
  F  F22  1  0.750000  0.450330  0.829857  1
  F  F23  1  0.250000  0.549670  0.170143  1
  F  F24  1  0.250000  0.493026  0.844051  1
  F  F25  1  0.750000  0.506974  0.155949  1
  F  F26  1  0.750000  0.993026  0.655949  1
  F  F27  1  0.250000  0.006974  0.344051  1
  F  F28  1  0.951842  0.159419  0.858557  1
  F  F29  1  0.451842  0.840581  0.141443  1
  F  F30  1  0.048158  0.659419  0.641443  1
  F  F31  1  0.548158  0.340581  0.358557  1
  F  F32  1  0.048158  0.840581  0.141443  1
  F  F33  1  0.548158  0.159419  0.858557  1
  F  F34  1  0.951842  0.340581  0.358557  1
  F  F35  1  0.451842  0.659419  0.641443  1
  F  F36  1  0.047691  0.775992  0.873061  1
  F  F37  1  0.547691  0.224008  0.126939  1
  F  F38  1  0.952309  0.275992  0.626939  1
  F  F39  1  0.452309  0.724008  0.373061  1
  F  F40  1  0.952309  0.224008  0.126939  1
  F  F41  1  0.452309  0.775992  0.873061  1
  F  F42  1  0.047691  0.724008  0.373061  1
  F  F43  1  0.547691  0.275992  0.626939  1
