# generated using pymatgen
data_Rb3As11
_symmetry_space_group_name_H-M   'P 1'
_cell_length_a   11.16687223
_cell_length_b   11.67560760
_cell_length_c   15.41860979
_cell_angle_alpha   90.00000000
_cell_angle_beta   90.00000000
_cell_angle_gamma   90.00000000
_symmetry_Int_Tables_number   1
_chemical_formula_structural   Rb3As11
_chemical_formula_sum   'Rb12 As44'
_cell_volume   2010.27862622
_cell_formula_units_Z   4
loop_
 _symmetry_equiv_pos_site_id
 _symmetry_equiv_pos_as_xyz
  1  'x, y, z'
loop_
 _atom_site_type_symbol
 _atom_site_label
 _atom_site_symmetry_multiplicity
 _atom_site_fract_x
 _atom_site_fract_y
 _atom_site_fract_z
 _atom_site_occupancy
  Rb  Rb0  1  0.910306  0.268919  0.483560  1
  Rb  Rb1  1  0.250000  0.000000  0.293810  1
  Rb  Rb2  1  0.089694  0.768919  0.016440  1
  Rb  Rb3  1  0.410306  0.268919  0.516440  1
  Rb  Rb4  1  0.910306  0.231081  0.983560  1
  Rb  Rb5  1  0.750000  0.500000  0.206190  1
  Rb  Rb6  1  0.750000  0.000000  0.706190  1
  Rb  Rb7  1  0.250000  0.500000  0.793810  1
  Rb  Rb8  1  0.410306  0.231081  0.016440  1
  Rb  Rb9  1  0.589694  0.768919  0.983560  1
  Rb  Rb10  1  0.589694  0.731081  0.483560  1
  Rb  Rb11  1  0.089694  0.731081  0.516440  1
  As  As12  1  0.568206  0.886762  0.282882  1
  As  As13  1  0.397458  0.932458  0.635696  1
  As  As14  1  0.503291  0.462748  0.353800  1
  As  As15  1  0.602542  0.432458  0.864304  1
  As  As16  1  0.673130  0.422964  0.616519  1
  As  As17  1  0.931794  0.386762  0.782882  1
  As  As18  1  0.996709  0.537252  0.353800  1
  As  As19  1  0.003291  0.037252  0.146200  1
  As  As20  1  0.278733  0.820757  0.744933  1
  As  As21  1  0.750000  0.500000  0.968304  1
  As  As22  1  0.250000  0.500000  0.031696  1
  As  As23  1  0.778733  0.820757  0.255067  1
  As  As24  1  0.503291  0.037252  0.853800  1
  As  As25  1  0.068206  0.886762  0.717118  1
  As  As26  1  0.102542  0.432458  0.135696  1
  As  As27  1  0.778733  0.679243  0.755067  1
  As  As28  1  0.602542  0.067542  0.364304  1
  As  As29  1  0.496709  0.962748  0.146200  1
  As  As30  1  0.173130  0.077036  0.883481  1
  As  As31  1  0.996709  0.962748  0.853800  1
  As  As32  1  0.750000  0.000000  0.468304  1
  As  As33  1  0.068206  0.613238  0.217118  1
  As  As34  1  0.826870  0.922964  0.116519  1
  As  As35  1  0.173130  0.422964  0.383481  1
  As  As36  1  0.897458  0.932458  0.364304  1
  As  As37  1  0.826870  0.577036  0.616519  1
  As  As38  1  0.326870  0.577036  0.383481  1
  As  As39  1  0.221267  0.179243  0.744933  1
  As  As40  1  0.431794  0.113238  0.717118  1
  As  As41  1  0.721267  0.179243  0.255067  1
  As  As42  1  0.496709  0.537252  0.646200  1
  As  As43  1  0.003291  0.462748  0.646200  1
  As  As44  1  0.278733  0.679243  0.244933  1
  As  As45  1  0.568206  0.613238  0.782882  1
  As  As46  1  0.397458  0.567542  0.135696  1
  As  As47  1  0.102542  0.067542  0.635696  1
  As  As48  1  0.326870  0.922964  0.883481  1
  As  As49  1  0.721267  0.320757  0.755067  1
  As  As50  1  0.221267  0.320757  0.244933  1
  As  As51  1  0.897458  0.567542  0.864304  1
  As  As52  1  0.673130  0.077036  0.116519  1
  As  As53  1  0.431794  0.386762  0.217118  1
  As  As54  1  0.931794  0.113238  0.282882  1
  As  As55  1  0.250000  0.000000  0.531696  1
