# generated using pymatgen
data_Lu(PO3)3
_symmetry_space_group_name_H-M   'P 1'
_cell_length_a   12.32931906
_cell_length_b   12.32931906
_cell_length_c   10.08039343
_cell_angle_alpha   69.71293407
_cell_angle_beta   110.28706593
_cell_angle_gamma   69.85813523
_symmetry_Int_Tables_number   1
_chemical_formula_structural   Lu(PO3)3
_chemical_formula_sum   'Lu6 P18 O54'
_cell_volume   1144.85347703
_cell_formula_units_Z   6
loop_
 _symmetry_equiv_pos_site_id
 _symmetry_equiv_pos_as_xyz
  1  'x, y, z'
loop_
 _atom_site_type_symbol
 _atom_site_label
 _atom_site_symmetry_multiplicity
 _atom_site_fract_x
 _atom_site_fract_y
 _atom_site_fract_z
 _atom_site_occupancy
  Lu  Lu0  1  0.729688  0.093502  0.483314  1
  Lu  Lu1  1  0.056853  0.453485  0.448489  1
  Lu  Lu2  1  0.239658  0.603922  0.985095  1
  Lu  Lu3  1  0.906498  0.270312  0.983314  1
  Lu  Lu4  1  0.396078  0.760342  0.485095  1
  Lu  Lu5  1  0.546515  0.943147  0.948489  1
  P  P6  1  0.322195  0.406093  0.807365  1
  P  P7  1  0.655911  0.741626  0.792644  1
  P  P8  1  0.862112  0.538056  0.628936  1
  P  P9  1  0.550444  0.393541  0.757353  1
  P  P10  1  0.789026  0.483673  0.127290  1
  P  P11  1  0.461944  0.137888  0.128936  1
  P  P12  1  0.263058  0.120394  0.239477  1
  P  P13  1  0.136464  0.798304  0.148081  1
  P  P14  1  0.593907  0.677805  0.307365  1
  P  P15  1  0.906475  0.815099  0.191106  1
  P  P16  1  0.606459  0.449556  0.257353  1
  P  P17  1  0.879606  0.736942  0.739477  1
  P  P18  1  0.258374  0.344089  0.292644  1
  P  P19  1  0.999569  0.059750  0.822154  1
  P  P20  1  0.184901  0.093525  0.691106  1
  P  P21  1  0.940250  0.000431  0.322154  1
  P  P22  1  0.201696  0.863536  0.648081  1
  P  P23  1  0.516327  0.210974  0.627290  1
  O  O24  1  0.381056  0.320247  0.447054  1
  O  O25  1  0.367574  0.093644  0.177920  1
  O  O26  1  0.878043  0.376425  0.112024  1
  O  O27  1  0.119641  0.217515  0.091755  1
  O  O28  1  0.917505  0.034997  0.699974  1
  O  O29  1  0.329078  0.795701  0.649155  1
  O  O30  1  0.238202  0.422379  0.644918  1
  O  O31  1  0.537845  0.035817  0.096803  1
  O  O32  1  0.456361  0.531640  0.132273  1
  O  O33  1  0.685210  0.446295  0.160205  1
  O  O34  1  0.668884  0.305397  0.389928  1
  O  O35  1  0.965003  0.082495  0.199974  1
  O  O36  1  0.840029  0.456143  0.755140  1
  O  O37  1  0.924967  0.160856  0.856196  1
  O  O38  1  0.300349  0.981958  0.359220  1
  O  O39  1  0.080451  0.882011  0.496457  1
  O  O40  1  0.964183  0.462155  0.596803  1
  O  O41  1  0.117989  0.919549  0.996457  1
  O  O42  1  0.150715  0.020665  0.590844  1
  O  O43  1  0.468360  0.543639  0.632273  1
  O  O44  1  0.623575  0.121957  0.612024  1
  O  O45  1  0.906356  0.632426  0.677920  1
  O  O46  1  0.782485  0.880359  0.591755  1
  O  O47  1  0.857984  0.514821  0.251023  1
  O  O48  1  0.979335  0.849285  0.090844  1
  O  O49  1  0.475154  0.729007  0.328133  1
  O  O50  1  0.543857  0.159971  0.255140  1
  O  O51  1  0.583628  0.868117  0.790987  1
  O  O52  1  0.839144  0.075033  0.356196  1
  O  O53  1  0.476976  0.352992  0.852938  1
  O  O54  1  0.205854  0.795681  0.305245  1
  O  O55  1  0.485179  0.142016  0.751023  1
  O  O56  1  0.301023  0.189311  0.344247  1
  O  O57  1  0.091430  0.105592  0.768824  1
  O  O58  1  0.331678  0.005503  0.829589  1
  O  O59  1  0.204299  0.670922  0.149155  1
  O  O60  1  0.344818  0.278137  0.954499  1
  O  O61  1  0.810689  0.698977  0.844247  1
  O  O62  1  0.764164  0.866594  0.064008  1
  O  O63  1  0.694603  0.331116  0.889928  1
  O  O64  1  0.261781  0.411825  0.139716  1
  O  O65  1  0.577621  0.761798  0.144918  1
  O  O66  1  0.994497  0.668322  0.329589  1
  O  O67  1  0.894408  0.908570  0.268824  1
  O  O68  1  0.204319  0.794146  0.805245  1
  O  O69  1  0.131883  0.416372  0.290987  1
  O  O70  1  0.647008  0.523024  0.352938  1
  O  O71  1  0.133406  0.235836  0.564008  1
  O  O72  1  0.721863  0.655182  0.454499  1
  O  O73  1  0.679753  0.618944  0.947054  1
  O  O74  1  0.270993  0.524846  0.828133  1
  O  O75  1  0.018042  0.699651  0.859220  1
  O  O76  1  0.588175  0.738219  0.639716  1
  O  O77  1  0.553705  0.314790  0.660205  1
