# generated using pymatgen
data_Cs2Te3As
_symmetry_space_group_name_H-M   'P 1'
_cell_length_a   11.01289821
_cell_length_b   9.61477121
_cell_length_c   11.71664770
_cell_angle_alpha   90.00000000
_cell_angle_beta   119.11525729
_cell_angle_gamma   90.00000000
_symmetry_Int_Tables_number   1
_chemical_formula_structural   Cs2Te3As
_chemical_formula_sum   'Cs8 Te12 As4'
_cell_volume   1083.87149909
_cell_formula_units_Z   4
loop_
 _symmetry_equiv_pos_site_id
 _symmetry_equiv_pos_as_xyz
  1  'x, y, z'
loop_
 _atom_site_type_symbol
 _atom_site_label
 _atom_site_symmetry_multiplicity
 _atom_site_fract_x
 _atom_site_fract_y
 _atom_site_fract_z
 _atom_site_occupancy
  Cs  Cs0  1  0.732017  0.391196  0.030612  1
  Cs  Cs1  1  0.267983  0.608804  0.969388  1
  Cs  Cs2  1  0.744425  0.910580  0.199330  1
  Cs  Cs3  1  0.744425  0.589420  0.699330  1
  Cs  Cs4  1  0.255575  0.089420  0.800670  1
  Cs  Cs5  1  0.732017  0.108804  0.530612  1
  Cs  Cs6  1  0.267983  0.891196  0.469388  1
  Cs  Cs7  1  0.255575  0.410580  0.300670  1
  Te  Te8  1  0.997776  0.780813  0.608006  1
  Te  Te9  1  0.307292  0.504951  0.652513  1
  Te  Te10  1  0.002224  0.280813  0.891994  1
  Te  Te11  1  0.002224  0.219187  0.391994  1
  Te  Te12  1  0.997776  0.719187  0.108006  1
  Te  Te13  1  0.692708  0.004951  0.847487  1
  Te  Te14  1  0.307292  0.995049  0.152513  1
  Te  Te15  1  0.527931  0.724069  0.333329  1
  Te  Te16  1  0.472069  0.275931  0.666671  1
  Te  Te17  1  0.472069  0.224069  0.166671  1
  Te  Te18  1  0.692708  0.495049  0.347487  1
  Te  Te19  1  0.527931  0.775931  0.833329  1
  As  As20  1  0.955707  0.601206  0.427190  1
  As  As21  1  0.955707  0.898794  0.927190  1
  As  As22  1  0.044293  0.101206  0.072810  1
  As  As23  1  0.044293  0.398794  0.572810  1
