# generated using pymatgen
data_Li3Cu(PO4)2
_symmetry_space_group_name_H-M   'P 1'
_cell_length_a   5.07101438
_cell_length_b   6.87087361
_cell_length_c   9.83741257
_cell_angle_alpha   89.59231220
_cell_angle_beta   89.63246093
_cell_angle_gamma   89.77419997
_symmetry_Int_Tables_number   1
_chemical_formula_structural   Li3Cu(PO4)2
_chemical_formula_sum   'Li6 Cu2 P4 O16'
_cell_volume   342.73973973
_cell_formula_units_Z   2
loop_
 _symmetry_equiv_pos_site_id
 _symmetry_equiv_pos_as_xyz
  1  'x, y, z'
loop_
 _atom_site_type_symbol
 _atom_site_label
 _atom_site_symmetry_multiplicity
 _atom_site_fract_x
 _atom_site_fract_y
 _atom_site_fract_z
 _atom_site_occupancy
  Li  Li0  1  0.677125  0.245367  0.751445  1
  Li  Li1  1  0.690458  0.738442  0.739139  1
  Li  Li2  1  0.323033  0.248259  0.004134  1
  Li  Li3  1  0.685341  0.263669  0.248787  1
  Li  Li4  1  0.308837  0.754459  0.506633  1
  Li  Li5  1  0.315076  0.251875  0.499776  1
  Cu  Cu6  1  0.700508  0.761762  0.275789  1
  Cu  Cu7  1  0.302284  0.755542  0.994368  1
  P  P8  1  0.177411  0.485156  0.748028  1
  P  P9  1  0.818771  0.003886  0.498450  1
  P  P10  1  0.193162  0.503622  0.244527  1
  P  P11  1  0.803900  0.001594  0.999268  1
  O  O12  1  0.891101  0.514055  0.278027  1
  O  O13  1  0.313330  0.306761  0.811814  1
  O  O14  1  0.234877  0.509745  0.086017  1
  O  O15  1  0.327087  0.686877  0.305590  1
  O  O16  1  0.310660  0.314514  0.298751  1
  O  O17  1  0.317857  0.671113  0.814061  1
  O  O18  1  0.109057  0.987589  0.030317  1
  O  O19  1  0.666208  0.820686  0.075410  1
  O  O20  1  0.677351  0.182724  0.554623  1
  O  O21  1  0.241640  0.503953  0.595748  1
  O  O22  1  0.785885  0.011425  0.335556  1
  O  O23  1  0.696819  0.190757  0.057919  1
  O  O24  1  0.881850  0.494721  0.778083  1
  O  O25  1  0.747872  0.978510  0.848145  1
  O  O26  1  0.685635  0.810410  0.540993  1
  O  O27  1  0.115859  0.003154  0.524845  1
