# generated using pymatgen
data_PrCoC2
_symmetry_space_group_name_H-M   'P 1'
_cell_length_a   3.83027127
_cell_length_b   3.83027127
_cell_length_c   7.43304726
_cell_angle_alpha   81.56322798
_cell_angle_beta   98.43677202
_cell_angle_gamma   89.97962746
_symmetry_Int_Tables_number   1
_chemical_formula_structural   PrCoC2
_chemical_formula_sum   'Pr2 Co2 C4'
_cell_volume   106.67596063
_cell_formula_units_Z   2
loop_
 _symmetry_equiv_pos_site_id
 _symmetry_equiv_pos_as_xyz
  1  'x, y, z'
loop_
 _atom_site_type_symbol
 _atom_site_label
 _atom_site_symmetry_multiplicity
 _atom_site_fract_x
 _atom_site_fract_y
 _atom_site_fract_z
 _atom_site_occupancy
  Pr  Pr0  1  0.630713  0.514786  0.692999  1
  Pr  Pr1  1  0.485214  0.369287  0.192999  1
  Co  Co2  1  0.070471  0.068666  0.498982  1
  Co  Co3  1  0.931334  0.929529  0.998982  1
  C  C4  1  0.409104  0.952298  0.919741  1
  C  C5  1  0.047702  0.590896  0.419741  1
  C  C6  1  0.152334  0.998873  0.767277  1
  C  C7  1  0.001127  0.847666  0.267277  1
