# generated using pymatgen
data_K2NaInSb2
_symmetry_space_group_name_H-M   'P 1'
_cell_length_a   10.95154486
_cell_length_b   10.95154486
_cell_length_c   7.08939691
_cell_angle_alpha   90.00000000
_cell_angle_beta   90.00000000
_cell_angle_gamma   98.90787924
_symmetry_Int_Tables_number   1
_chemical_formula_structural   K2NaInSb2
_chemical_formula_sum   'K8 Na4 In4 Sb8'
_cell_volume   840.02074221
_cell_formula_units_Z   4
loop_
 _symmetry_equiv_pos_site_id
 _symmetry_equiv_pos_as_xyz
  1  'x, y, z'
loop_
 _atom_site_type_symbol
 _atom_site_label
 _atom_site_symmetry_multiplicity
 _atom_site_fract_x
 _atom_site_fract_y
 _atom_site_fract_z
 _atom_site_occupancy
  K  K0  1  0.076156  0.423844  0.250000  1
  K  K1  1  0.423844  0.076156  0.750000  1
  K  K2  1  0.923844  0.576156  0.750000  1
  K  K3  1  0.576156  0.923844  0.250000  1
  K  K4  1  0.671758  0.328242  0.220900  1
  K  K5  1  0.828242  0.171758  0.720900  1
  K  K6  1  0.328242  0.671758  0.779100  1
  K  K7  1  0.171758  0.828242  0.279100  1
  Na  Na8  1  0.380924  0.380924  0.000000  1
  Na  Na9  1  0.119076  0.119076  0.500000  1
  Na  Na10  1  0.619076  0.619076  0.000000  1
  Na  Na11  1  0.880924  0.880924  0.500000  1
  In  In12  1  0.132242  0.132242  0.000000  1
  In  In13  1  0.367758  0.367758  0.500000  1
  In  In14  1  0.867758  0.867758  0.000000  1
  In  In15  1  0.632242  0.632242  0.500000  1
  Sb  Sb16  1  0.855912  0.644088  0.250000  1
  Sb  Sb17  1  0.644089  0.855911  0.750000  1
  Sb  Sb18  1  0.144089  0.355911  0.750000  1
  Sb  Sb19  1  0.355911  0.144088  0.250000  1
  Sb  Sb20  1  0.894232  0.105768  0.206087  1
  Sb  Sb21  1  0.605768  0.394232  0.706087  1
  Sb  Sb22  1  0.105768  0.894232  0.793913  1
  Sb  Sb23  1  0.394232  0.605768  0.293913  1
