# generated using pymatgen
data_Hf3(Bi5Cl9)2
_symmetry_space_group_name_H-M   'P 1'
_cell_length_a   14.23279705
_cell_length_b   14.23279705
_cell_length_c   11.16521043
_cell_angle_alpha   90.00000000
_cell_angle_beta   90.00000000
_cell_angle_gamma   120.00000000
_symmetry_Int_Tables_number   1
_chemical_formula_structural   Hf3(Bi5Cl9)2
_chemical_formula_sum   'Hf6 Bi20 Cl36'
_cell_volume   1958.74570799
_cell_formula_units_Z   2
loop_
 _symmetry_equiv_pos_site_id
 _symmetry_equiv_pos_as_xyz
  1  'x, y, z'
loop_
 _atom_site_type_symbol
 _atom_site_label
 _atom_site_symmetry_multiplicity
 _atom_site_fract_x
 _atom_site_fract_y
 _atom_site_fract_z
 _atom_site_occupancy
  Hf  Hf0  1  0.223768  0.891555  0.243513  1
  Hf  Hf1  1  0.108445  0.332214  0.243513  1
  Hf  Hf2  1  0.332214  0.223768  0.743513  1
  Hf  Hf3  1  0.667786  0.776232  0.243513  1
  Hf  Hf4  1  0.891555  0.667786  0.743513  1
  Hf  Hf5  1  0.776232  0.108445  0.743513  1
  Bi  Bi6  1  0.000000  0.000000  0.881181  1
  Bi  Bi7  1  0.225094  0.702562  0.570053  1
  Bi  Bi8  1  0.222261  0.700913  0.926015  1
  Bi  Bi9  1  0.120122  0.503220  0.750684  1
  Bi  Bi10  1  0.383098  0.879878  0.750684  1
  Bi  Bi11  1  0.000000  0.000000  0.381181  1
  Bi  Bi12  1  0.299087  0.521348  0.926015  1
  Bi  Bi13  1  0.297438  0.522532  0.570053  1
  Bi  Bi14  1  0.478652  0.777739  0.926015  1
  Bi  Bi15  1  0.477468  0.774906  0.570053  1
  Bi  Bi16  1  0.496780  0.616902  0.750684  1
  Bi  Bi17  1  0.503220  0.383098  0.250684  1
  Bi  Bi18  1  0.522532  0.225094  0.070053  1
  Bi  Bi19  1  0.521348  0.222261  0.426015  1
  Bi  Bi20  1  0.700913  0.478652  0.426015  1
  Bi  Bi21  1  0.702562  0.477468  0.070053  1
  Bi  Bi22  1  0.616902  0.120122  0.250684  1
  Bi  Bi23  1  0.879878  0.496780  0.250684  1
  Bi  Bi24  1  0.774906  0.297438  0.070053  1
  Bi  Bi25  1  0.777739  0.299087  0.426015  1
  Cl  Cl26  1  0.079863  0.812249  0.740402  1
  Cl  Cl27  1  0.091681  0.835326  0.088171  1
  Cl  Cl28  1  0.077262  0.858195  0.397671  1
  Cl  Cl29  1  0.070271  0.438388  0.097409  1
  Cl  Cl30  1  0.063543  0.419035  0.414818  1
  Cl  Cl31  1  0.177919  0.702693  0.276171  1
  Cl  Cl32  1  0.368116  0.929729  0.097409  1
  Cl  Cl33  1  0.355492  0.936457  0.414818  1
  Cl  Cl34  1  0.164674  0.256355  0.088171  1
  Cl  Cl35  1  0.141805  0.219067  0.397671  1
  Cl  Cl36  1  0.297307  0.475226  0.276171  1
  Cl  Cl37  1  0.187751  0.267615  0.740402  1
  Cl  Cl38  1  0.524774  0.822081  0.276171  1
  Cl  Cl39  1  0.256355  0.091681  0.588171  1
  Cl  Cl40  1  0.219067  0.077262  0.897671  1
  Cl  Cl41  1  0.267615  0.079863  0.240402  1
  Cl  Cl42  1  0.561612  0.631884  0.097409  1
  Cl  Cl43  1  0.580965  0.644508  0.414818  1
  Cl  Cl44  1  0.438388  0.368116  0.597409  1
  Cl  Cl45  1  0.419035  0.355492  0.914818  1
  Cl  Cl46  1  0.732385  0.920137  0.740402  1
  Cl  Cl47  1  0.743645  0.908319  0.088171  1
  Cl  Cl48  1  0.780933  0.922738  0.397671  1
  Cl  Cl49  1  0.475226  0.177919  0.776171  1
  Cl  Cl50  1  0.812249  0.732385  0.240402  1
  Cl  Cl51  1  0.702693  0.524774  0.776171  1
  Cl  Cl52  1  0.835326  0.743645  0.588171  1
  Cl  Cl53  1  0.858195  0.780933  0.897671  1
  Cl  Cl54  1  0.631884  0.070271  0.597409  1
  Cl  Cl55  1  0.644508  0.063543  0.914818  1
  Cl  Cl56  1  0.822081  0.297307  0.776171  1
  Cl  Cl57  1  0.929729  0.561612  0.597409  1
  Cl  Cl58  1  0.936457  0.580965  0.914818  1
  Cl  Cl59  1  0.908319  0.164674  0.588171  1
  Cl  Cl60  1  0.922738  0.141805  0.897671  1
  Cl  Cl61  1  0.920137  0.187751  0.240402  1
