# generated using pymatgen
data_K2Ni(MoO4)2
_symmetry_space_group_name_H-M   'P 1'
_cell_length_a   10.59217843
_cell_length_b   10.59217843
_cell_length_c   11.06808709
_cell_angle_alpha   90.00000000
_cell_angle_beta   90.00000000
_cell_angle_gamma   132.13376835
_symmetry_Int_Tables_number   1
_chemical_formula_structural   K2Ni(MoO4)2
_chemical_formula_sum   'K8 Ni4 Mo8 O32'
_cell_volume   920.87672006
_cell_formula_units_Z   4
loop_
 _symmetry_equiv_pos_site_id
 _symmetry_equiv_pos_as_xyz
  1  'x, y, z'
loop_
 _atom_site_type_symbol
 _atom_site_label
 _atom_site_symmetry_multiplicity
 _atom_site_fract_x
 _atom_site_fract_y
 _atom_site_fract_z
 _atom_site_occupancy
  K  K0  1  0.463769  0.036231  0.250000  1
  K  K1  1  0.368545  0.631455  0.069699  1
  K  K2  1  0.868545  0.131455  0.430301  1
  K  K3  1  0.536231  0.963769  0.750000  1
  K  K4  1  0.036231  0.463769  0.750000  1
  K  K5  1  0.131455  0.868545  0.569699  1
  K  K6  1  0.963769  0.536231  0.250000  1
  K  K7  1  0.631455  0.368545  0.930301  1
  Ni  Ni8  1  0.178419  0.178419  0.000000  1
  Ni  Ni9  1  0.678419  0.678419  0.500000  1
  Ni  Ni10  1  0.821581  0.821581  0.000000  1
  Ni  Ni11  1  0.321581  0.321581  0.500000  1
  Mo  Mo12  1  0.531400  0.468600  0.216448  1
  Mo  Mo13  1  0.468600  0.531400  0.783552  1
  Mo  Mo14  1  0.343168  0.656832  0.465051  1
  Mo  Mo15  1  0.031400  0.968600  0.283552  1
  Mo  Mo16  1  0.656832  0.343168  0.534949  1
  Mo  Mo17  1  0.968600  0.031400  0.716449  1
  Mo  Mo18  1  0.156832  0.843168  0.965051  1
  Mo  Mo19  1  0.843168  0.156832  0.034949  1
  O  O20  1  0.161490  0.164563  0.364634  1
  O  O21  1  0.214971  0.432627  0.499364  1
  O  O22  1  0.999122  0.000878  0.126660  1
  O  O23  1  0.838510  0.835437  0.635366  1
  O  O24  1  0.876964  0.123036  0.706318  1
  O  O25  1  0.376964  0.623036  0.793682  1
  O  O26  1  0.164563  0.161490  0.635366  1
  O  O27  1  0.267458  0.732542  0.557434  1
  O  O28  1  0.664563  0.661490  0.864634  1
  O  O29  1  0.567373  0.785029  0.499364  1
  O  O30  1  0.232542  0.767458  0.057434  1
  O  O31  1  0.684622  0.315378  0.689556  1
  O  O32  1  0.623036  0.376964  0.206318  1
  O  O33  1  0.714971  0.932627  0.000636  1
  O  O34  1  0.835437  0.838510  0.364634  1
  O  O35  1  0.123036  0.876964  0.293682  1
  O  O36  1  0.432627  0.214971  0.500636  1
  O  O37  1  0.067373  0.285029  0.000636  1
  O  O38  1  0.500878  0.499122  0.626660  1
  O  O39  1  0.285029  0.067373  0.999364  1
  O  O40  1  0.000878  0.999122  0.873340  1
  O  O41  1  0.815378  0.184622  0.189556  1
  O  O42  1  0.767458  0.232542  0.942566  1
  O  O43  1  0.338510  0.335437  0.864634  1
  O  O44  1  0.499122  0.500878  0.373340  1
  O  O45  1  0.184622  0.815378  0.810444  1
  O  O46  1  0.661490  0.664563  0.135366  1
  O  O47  1  0.315378  0.684622  0.310444  1
  O  O48  1  0.932627  0.714971  0.999364  1
  O  O49  1  0.732542  0.267458  0.442566  1
  O  O50  1  0.785029  0.567373  0.500636  1
  O  O51  1  0.335437  0.338510  0.135366  1
