# generated using pymatgen
data_Gd2GeO5
_symmetry_space_group_name_H-M   'P 1'
_cell_length_a   6.89514382
_cell_length_b   7.14232130
_cell_length_c   9.42275721
_cell_angle_alpha   90.00000000
_cell_angle_beta   104.93910290
_cell_angle_gamma   90.00000000
_symmetry_Int_Tables_number   1
_chemical_formula_structural   Gd2GeO5
_chemical_formula_sum   'Gd8 Ge4 O20'
_cell_volume   448.36108535
_cell_formula_units_Z   4
loop_
 _symmetry_equiv_pos_site_id
 _symmetry_equiv_pos_as_xyz
  1  'x, y, z'
loop_
 _atom_site_type_symbol
 _atom_site_label
 _atom_site_symmetry_multiplicity
 _atom_site_fract_x
 _atom_site_fract_y
 _atom_site_fract_z
 _atom_site_occupancy
  Gd  Gd0  1  0.956527  0.364326  0.634382  1
  Gd  Gd1  1  0.043473  0.635674  0.365618  1
  Gd  Gd2  1  0.456527  0.135674  0.634382  1
  Gd  Gd3  1  0.269020  0.127296  0.974056  1
  Gd  Gd4  1  0.230980  0.627296  0.025944  1
  Gd  Gd5  1  0.730980  0.872704  0.025944  1
  Gd  Gd6  1  0.543473  0.864326  0.365618  1
  Gd  Gd7  1  0.769020  0.372704  0.974056  1
  Ge  Ge8  1  0.023613  0.091847  0.301665  1
  Ge  Ge9  1  0.976387  0.908153  0.698335  1
  Ge  Ge10  1  0.476387  0.591847  0.698335  1
  Ge  Ge11  1  0.523613  0.408153  0.301665  1
  O  O12  1  0.672739  0.417111  0.715919  1
  O  O13  1  0.780556  0.061078  0.610748  1
  O  O14  1  0.506119  0.797182  0.608535  1
  O  O15  1  0.008302  0.864428  0.890916  1
  O  O16  1  0.932768  0.616488  0.110063  1
  O  O17  1  0.508302  0.635572  0.890916  1
  O  O18  1  0.993881  0.297182  0.391465  1
  O  O19  1  0.067232  0.383512  0.889937  1
  O  O20  1  0.991698  0.135572  0.109084  1
  O  O21  1  0.327261  0.582889  0.284081  1
  O  O22  1  0.280556  0.438922  0.610748  1
  O  O23  1  0.493881  0.202818  0.391465  1
  O  O24  1  0.219444  0.938922  0.389252  1
  O  O25  1  0.172739  0.082889  0.715919  1
  O  O26  1  0.827261  0.917111  0.284081  1
  O  O27  1  0.719444  0.561078  0.389252  1
  O  O28  1  0.491698  0.364428  0.109084  1
  O  O29  1  0.432768  0.883512  0.110063  1
  O  O30  1  0.006119  0.702818  0.608535  1
  O  O31  1  0.567232  0.116488  0.889937  1
