# generated using pymatgen
data_Ga8Cu3Mo2
_symmetry_space_group_name_H-M   'P 1'
_cell_length_a   10.40503037
_cell_length_b   10.40503037
_cell_length_c   10.40503037
_cell_angle_alpha   109.47122063
_cell_angle_beta   109.47122063
_cell_angle_gamma   109.47122063
_symmetry_Int_Tables_number   1
_chemical_formula_structural   Ga8Cu3Mo2
_chemical_formula_sum   'Ga32 Cu12 Mo8'
_cell_volume   867.17782951
_cell_formula_units_Z   4
loop_
 _symmetry_equiv_pos_site_id
 _symmetry_equiv_pos_as_xyz
  1  'x, y, z'
loop_
 _atom_site_type_symbol
 _atom_site_label
 _atom_site_symmetry_multiplicity
 _atom_site_fract_x
 _atom_site_fract_y
 _atom_site_fract_z
 _atom_site_occupancy
  Ga  Ga0  1  0.765204  0.765252  0.257624  1
  Ga  Ga1  1  1.000000  0.786950  0.500000  1
  Ga  Ga2  1  0.242376  0.007627  0.507579  1
  Ga  Ga3  1  0.499952  0.492373  0.734748  1
  Ga  Ga4  1  0.713050  0.713050  0.713050  1
  Ga  Ga5  1  0.507579  0.242376  0.007627  1
  Ga  Ga6  1  0.492421  0.234796  0.500048  1
  Ga  Ga7  1  0.734796  0.992421  0.000048  1
  Ga  Ga8  1  0.500000  1.000000  0.286950  1
  Ga  Ga9  1  0.765252  0.257624  0.765204  1
  Ga  Ga10  1  0.786950  0.500000  0.000000  1
  Ga  Ga11  1  0.286950  0.500000  0.000000  1
  Ga  Ga12  1  0.742376  0.007579  0.507627  1
  Ga  Ga13  1  0.492373  0.734748  0.499952  1
  Ga  Ga14  1  0.213050  0.213050  0.213050  1
  Ga  Ga15  1  0.265252  0.265204  0.757624  1
  Ga  Ga16  1  0.500000  1.000000  0.786950  1
  Ga  Ga17  1  1.000000  0.286950  0.500000  1
  Ga  Ga18  1  0.999952  0.234748  0.992373  1
  Ga  Ga19  1  0.257624  0.765204  0.765252  1
  Ga  Ga20  1  0.234796  0.500048  0.492421  1
  Ga  Ga21  1  0.265204  0.757624  0.265252  1
  Ga  Ga22  1  0.992373  0.999952  0.234748  1
  Ga  Ga23  1  0.992421  0.000048  0.734796  1
  Ga  Ga24  1  0.500048  0.492421  0.234796  1
  Ga  Ga25  1  0.507627  0.742376  0.007579  1
  Ga  Ga26  1  0.757624  0.265252  0.265204  1
  Ga  Ga27  1  0.007627  0.507579  0.242376  1
  Ga  Ga28  1  0.234748  0.992373  0.999952  1
  Ga  Ga29  1  0.007579  0.507627  0.742376  1
  Ga  Ga30  1  0.734748  0.499952  0.492373  1
  Ga  Ga31  1  0.000048  0.734796  0.992421  1
  Cu  Cu32  1  0.235645  0.250000  0.485645  1
  Cu  Cu33  1  0.014355  0.264355  0.750000  1
  Cu  Cu34  1  0.250000  0.764355  0.514355  1
  Cu  Cu35  1  0.250000  0.485645  0.235645  1
  Cu  Cu36  1  0.985645  0.750000  0.735645  1
  Cu  Cu37  1  0.764355  0.514355  0.250000  1
  Cu  Cu38  1  0.750000  0.735645  0.985645  1
  Cu  Cu39  1  0.514355  0.250000  0.764355  1
  Cu  Cu40  1  0.264355  0.750000  0.014355  1
  Cu  Cu41  1  0.485645  0.235645  0.250000  1
  Cu  Cu42  1  0.735645  0.985645  0.750000  1
  Cu  Cu43  1  0.750000  0.014355  0.264355  1
  Mo  Mo44  1  0.960752  0.960752  0.960752  1
  Mo  Mo45  1  0.039248  0.500000  0.000000  1
  Mo  Mo46  1  0.539248  0.500000  0.000000  1
  Mo  Mo47  1  0.500000  1.000000  0.539248  1
  Mo  Mo48  1  1.000000  0.039248  0.500000  1
  Mo  Mo49  1  1.000000  0.539248  0.500000  1
  Mo  Mo50  1  0.460752  0.460752  0.460752  1
  Mo  Mo51  1  0.500000  1.000000  0.039248  1
