# generated using pymatgen
data_Li3VO4
_symmetry_space_group_name_H-M   'P 1'
_cell_length_a   5.17564217
_cell_length_b   6.40941956
_cell_length_c   11.01479357
_cell_angle_alpha   90.00000000
_cell_angle_beta   90.00000000
_cell_angle_gamma   90.00000000
_symmetry_Int_Tables_number   1
_chemical_formula_structural   Li3VO4
_chemical_formula_sum   'Li12 V4 O16'
_cell_volume   365.39222882
_cell_formula_units_Z   4
loop_
 _symmetry_equiv_pos_site_id
 _symmetry_equiv_pos_as_xyz
  1  'x, y, z'
loop_
 _atom_site_type_symbol
 _atom_site_label
 _atom_site_symmetry_multiplicity
 _atom_site_fract_x
 _atom_site_fract_y
 _atom_site_fract_z
 _atom_site_occupancy
  Li  Li0  1  0.191216  0.996270  0.665795  1
  Li  Li1  1  0.808784  0.496270  0.334205  1
  Li  Li2  1  0.308784  0.996270  0.165795  1
  Li  Li3  1  0.808784  0.003730  0.334205  1
  Li  Li4  1  0.306330  0.750000  0.921817  1
  Li  Li5  1  0.193670  0.750000  0.421817  1
  Li  Li6  1  0.691216  0.003730  0.834205  1
  Li  Li7  1  0.806330  0.250000  0.578183  1
  Li  Li8  1  0.691216  0.496270  0.834205  1
  Li  Li9  1  0.191216  0.503730  0.665795  1
  Li  Li10  1  0.308784  0.503730  0.165795  1
  Li  Li11  1  0.693670  0.250000  0.078183  1
  V  V12  1  0.186836  0.250000  0.913177  1
  V  V13  1  0.813164  0.750000  0.086823  1
  V  V14  1  0.686836  0.750000  0.586823  1
  V  V15  1  0.313164  0.250000  0.413177  1
  O  O16  1  0.701777  0.750000  0.937771  1
  O  O17  1  0.348427  0.750000  0.586689  1
  O  O18  1  0.203027  0.472571  0.337568  1
  O  O19  1  0.203027  0.027429  0.337568  1
  O  O20  1  0.201777  0.250000  0.562229  1
  O  O21  1  0.703027  0.527429  0.162432  1
  O  O22  1  0.796973  0.972571  0.662432  1
  O  O23  1  0.703027  0.972571  0.162432  1
  O  O24  1  0.298223  0.250000  0.062229  1
  O  O25  1  0.798223  0.750000  0.437771  1
  O  O26  1  0.296973  0.027429  0.837568  1
  O  O27  1  0.796973  0.527429  0.662432  1
  O  O28  1  0.651573  0.250000  0.413311  1
  O  O29  1  0.151573  0.750000  0.086689  1
  O  O30  1  0.848427  0.250000  0.913311  1
  O  O31  1  0.296973  0.472571  0.837568  1
