# generated using pymatgen
data_KTi3Si2P6O25
_symmetry_space_group_name_H-M   'P 1'
_cell_length_a   8.40856450
_cell_length_b   8.40856450
_cell_length_c   17.31416859
_cell_angle_alpha   90.00000000
_cell_angle_beta   90.00000000
_cell_angle_gamma   120.00000000
_symmetry_Int_Tables_number   1
_chemical_formula_structural   KTi3Si2P6O25
_chemical_formula_sum   'K2 Ti6 Si4 P12 O50'
_cell_volume   1060.17117766
_cell_formula_units_Z   2
loop_
 _symmetry_equiv_pos_site_id
 _symmetry_equiv_pos_as_xyz
  1  'x, y, z'
loop_
 _atom_site_type_symbol
 _atom_site_label
 _atom_site_symmetry_multiplicity
 _atom_site_fract_x
 _atom_site_fract_y
 _atom_site_fract_z
 _atom_site_occupancy
  K  K0  1  0.333333  0.666667  0.250000  1
  K  K1  1  0.666667  0.333333  0.750000  1
  Ti  Ti2  1  0.333333  0.666667  0.024251  1
  Ti  Ti3  1  0.333333  0.666667  0.475749  1
  Ti  Ti4  1  0.666667  0.333333  0.975749  1
  Ti  Ti5  1  0.666667  0.333333  0.524251  1
  Ti  Ti6  1  0.666667  0.333333  0.250000  1
  Ti  Ti7  1  0.333333  0.666667  0.750000  1
  Si  Si8  1  0.000000  0.000000  0.092286  1
  Si  Si9  1  0.000000  0.000000  0.407714  1
  Si  Si10  1  0.000000  0.000000  0.907714  1
  Si  Si11  1  0.000000  0.000000  0.592286  1
  P  P12  1  0.382707  0.332424  0.109751  1
  P  P13  1  0.667576  0.050283  0.109751  1
  P  P14  1  0.949717  0.617293  0.109751  1
  P  P15  1  0.667576  0.617293  0.390249  1
  P  P16  1  0.949717  0.332424  0.390249  1
  P  P17  1  0.382707  0.050283  0.390249  1
  P  P18  1  0.617293  0.667576  0.890249  1
  P  P19  1  0.332424  0.949717  0.890249  1
  P  P20  1  0.050283  0.382707  0.890249  1
  P  P21  1  0.332424  0.382707  0.609751  1
  P  P22  1  0.050283  0.667576  0.609751  1
  P  P23  1  0.617293  0.949717  0.609751  1
  O  O24  1  0.122081  0.604358  0.093961  1
  O  O25  1  0.395642  0.517722  0.093961  1
  O  O26  1  0.482278  0.877919  0.093961  1
  O  O27  1  0.395642  0.877919  0.406039  1
  O  O28  1  0.482278  0.604358  0.406039  1
  O  O29  1  0.122081  0.517722  0.406039  1
  O  O30  1  0.877919  0.395642  0.906039  1
  O  O31  1  0.604358  0.482278  0.906039  1
  O  O32  1  0.517722  0.122081  0.906039  1
  O  O33  1  0.604358  0.122081  0.593961  1
  O  O34  1  0.517722  0.395642  0.593961  1
  O  O35  1  0.877919  0.482278  0.593961  1
  O  O36  1  0.814956  0.261112  0.458221  1
  O  O37  1  0.738888  0.553844  0.458221  1
  O  O38  1  0.446156  0.185044  0.458221  1
  O  O39  1  0.738888  0.185044  0.041779  1
  O  O40  1  0.446156  0.261112  0.041779  1
  O  O41  1  0.814956  0.553844  0.041779  1
  O  O42  1  0.185044  0.738888  0.541779  1
  O  O43  1  0.261112  0.446156  0.541779  1
  O  O44  1  0.553844  0.814956  0.541779  1
  O  O45  1  0.261112  0.814956  0.958221  1
  O  O46  1  0.553844  0.738888  0.958221  1
  O  O47  1  0.185044  0.446156  0.958221  1
  O  O48  1  0.478281  0.341865  0.185740  1
  O  O49  1  0.658135  0.136416  0.185740  1
  O  O50  1  0.863584  0.521719  0.185740  1
  O  O51  1  0.658135  0.521719  0.314260  1
  O  O52  1  0.863584  0.341865  0.314260  1
  O  O53  1  0.478281  0.136416  0.314260  1
  O  O54  1  0.521719  0.658135  0.814260  1
  O  O55  1  0.341865  0.863584  0.814260  1
  O  O56  1  0.136416  0.478281  0.814260  1
  O  O57  1  0.341865  0.478281  0.685740  1
  O  O58  1  0.136416  0.658135  0.685740  1
  O  O59  1  0.521719  0.863584  0.685740  1
  O  O60  1  0.000000  0.000000  0.000000  1
  O  O61  1  0.000000  0.000000  0.500000  1
  O  O62  1  0.019429  0.829243  0.125630  1
  O  O63  1  0.170757  0.190186  0.125630  1
  O  O64  1  0.809814  0.980571  0.125630  1
  O  O65  1  0.170757  0.980571  0.374370  1
  O  O66  1  0.809814  0.829243  0.374370  1
  O  O67  1  0.019429  0.190186  0.374370  1
  O  O68  1  0.980571  0.170757  0.874370  1
  O  O69  1  0.829243  0.809814  0.874370  1
  O  O70  1  0.190186  0.019429  0.874370  1
  O  O71  1  0.829243  0.019429  0.625630  1
  O  O72  1  0.190186  0.170757  0.625630  1
  O  O73  1  0.980571  0.809814  0.625630  1
