# generated using pymatgen
data_YbGeIr
_symmetry_space_group_name_H-M   'P 1'
_cell_length_a   4.32832147
_cell_length_b   7.18061455
_cell_length_c   7.25167213
_cell_angle_alpha   90.00000000
_cell_angle_beta   90.00000000
_cell_angle_gamma   90.00000000
_symmetry_Int_Tables_number   1
_chemical_formula_structural   YbGeIr
_chemical_formula_sum   'Yb4 Ge4 Ir4'
_cell_volume   225.38202872
_cell_formula_units_Z   4
loop_
 _symmetry_equiv_pos_site_id
 _symmetry_equiv_pos_as_xyz
  1  'x, y, z'
loop_
 _atom_site_type_symbol
 _atom_site_label
 _atom_site_symmetry_multiplicity
 _atom_site_fract_x
 _atom_site_fract_y
 _atom_site_fract_z
 _atom_site_occupancy
  Yb  Yb0  1  0.250000  0.002980  0.318031  1
  Yb  Yb1  1  0.750000  0.497020  0.818031  1
  Yb  Yb2  1  0.750000  0.997020  0.681969  1
  Yb  Yb3  1  0.250000  0.502980  0.181969  1
  Ge  Ge4  1  0.750000  0.301314  0.388744  1
  Ge  Ge5  1  0.250000  0.198686  0.888744  1
  Ge  Ge6  1  0.750000  0.801314  0.111256  1
  Ge  Ge7  1  0.250000  0.698686  0.611256  1
  Ir  Ir8  1  0.250000  0.347859  0.568920  1
  Ir  Ir9  1  0.250000  0.847859  0.931080  1
  Ir  Ir10  1  0.750000  0.152141  0.068920  1
  Ir  Ir11  1  0.750000  0.652141  0.431080  1
