# generated using pymatgen
data_CaU(SeO4)2
_symmetry_space_group_name_H-M   'P 1'
_cell_length_a   5.67427337
_cell_length_b   6.75244642
_cell_length_c   11.22934260
_cell_angle_alpha   103.96591764
_cell_angle_beta   93.62543612
_cell_angle_gamma   110.72598411
_symmetry_Int_Tables_number   1
_chemical_formula_structural   CaU(SeO4)2
_chemical_formula_sum   'Ca2 U2 Se4 O16'
_cell_volume   385.24218104
_cell_formula_units_Z   2
loop_
 _symmetry_equiv_pos_site_id
 _symmetry_equiv_pos_as_xyz
  1  'x, y, z'
loop_
 _atom_site_type_symbol
 _atom_site_label
 _atom_site_symmetry_multiplicity
 _atom_site_fract_x
 _atom_site_fract_y
 _atom_site_fract_z
 _atom_site_occupancy
  Ca  Ca0  1  0.238159  0.809064  0.435519  1
  Ca  Ca1  1  0.761841  0.190936  0.564481  1
  U  U2  1  0.999643  0.093506  0.167843  1
  U  U3  1  0.000357  0.906494  0.832157  1
  Se  Se4  1  0.186684  0.686143  0.124942  1
  Se  Se5  1  0.382558  0.350220  0.352737  1
  Se  Se6  1  0.813316  0.313857  0.875058  1
  Se  Se7  1  0.617442  0.649780  0.647263  1
  O  O8  1  0.075756  0.841900  0.029612  1
  O  O9  1  0.950280  0.420184  0.160581  1
  O  O10  1  0.643367  0.927552  0.250136  1
  O  O11  1  0.923536  0.229888  0.747216  1
  O  O12  1  0.487242  0.184002  0.436678  1
  O  O13  1  0.908758  0.869663  0.651142  1
  O  O14  1  0.352654  0.256339  0.093166  1
  O  O15  1  0.647346  0.743661  0.906834  1
  O  O16  1  0.512758  0.815998  0.563322  1
  O  O17  1  0.356633  0.072448  0.749864  1
  O  O18  1  0.091242  0.130337  0.348858  1
  O  O19  1  0.049720  0.579816  0.839419  1
  O  O20  1  0.782701  0.554409  0.543549  1
  O  O21  1  0.924244  0.158100  0.970388  1
  O  O22  1  0.217299  0.445591  0.456450  1
  O  O23  1  0.076464  0.770112  0.252784  1
