# generated using pymatgen
data_VCuO4
_symmetry_space_group_name_H-M   'P 1'
_cell_length_a   5.82000039
_cell_length_b   5.82000039
_cell_length_c   5.82000039
_cell_angle_alpha   121.66524585
_cell_angle_beta   115.45194336
_cell_angle_gamma   92.59584938
_symmetry_Int_Tables_number   1
_chemical_formula_structural   VCuO4
_chemical_formula_sum   'V2 Cu2 O8'
_cell_volume   141.78097302
_cell_formula_units_Z   2
loop_
 _symmetry_equiv_pos_site_id
 _symmetry_equiv_pos_as_xyz
  1  'x, y, z'
loop_
 _atom_site_type_symbol
 _atom_site_label
 _atom_site_symmetry_multiplicity
 _atom_site_fract_x
 _atom_site_fract_y
 _atom_site_fract_z
 _atom_site_occupancy
  V  V0  1  0.467350  0.217350  0.750000  1
  V  V1  1  0.532650  0.782650  0.250000  1
  Cu  Cu2  1  0.000000  0.000000  0.000000  1
  Cu  Cu3  1  0.000000  0.500000  0.500000  1
  O  O4  1  0.788139  0.729711  0.558427  1
  O  O5  1  0.658897  0.666622  0.007725  1
  O  O6  1  0.341103  0.333378  0.992275  1
  O  O7  1  0.341103  0.848829  0.507725  1
  O  O8  1  0.828716  0.270289  0.058427  1
  O  O9  1  0.211861  0.270289  0.441573  1
  O  O10  1  0.658897  0.151171  0.492275  1
  O  O11  1  0.171284  0.729711  0.941573  1
