# generated using pymatgen
data_Ca12Al14O33
_symmetry_space_group_name_H-M   'P 1'
_cell_length_a   10.46641701
_cell_length_b   10.46641701
_cell_length_c   10.46641701
_cell_angle_alpha   109.23772600
_cell_angle_beta   109.23772600
_cell_angle_gamma   109.93922601
_symmetry_Int_Tables_number   1
_chemical_formula_structural   Ca12Al14O33
_chemical_formula_sum   'Ca12 Al14 O33'
_cell_volume   882.57263738
_cell_formula_units_Z   1
loop_
 _symmetry_equiv_pos_site_id
 _symmetry_equiv_pos_as_xyz
  1  'x, y, z'
loop_
 _atom_site_type_symbol
 _atom_site_label
 _atom_site_symmetry_multiplicity
 _atom_site_fract_x
 _atom_site_fract_y
 _atom_site_fract_z
 _atom_site_occupancy
  Ca  Ca0  1  0.177493  0.177493  0.000000  1
  Ca  Ca1  1  0.733935  0.375385  0.864630  1
  Ca  Ca2  1  0.130695  0.266065  0.641451  1
  Ca  Ca3  1  0.257153  0.368259  0.380986  1
  Ca  Ca4  1  0.624615  0.489245  0.358549  1
  Ca  Ca5  1  0.822507  0.822507  0.000000  1
  Ca  Ca6  1  0.510755  0.869305  0.135370  1
  Ca  Ca7  1  0.123833  0.742847  0.111107  1
  Ca  Ca8  1  0.012732  0.512732  0.500000  1
  Ca  Ca9  1  0.631741  0.012726  0.888893  1
  Ca  Ca10  1  0.487268  0.987268  0.500000  1
  Ca  Ca11  1  0.987274  0.876167  0.619014  1
  Al  Al12  1  0.750000  0.250000  0.500000  1
  Al  Al13  1  0.500000  0.500000  0.000000  1
  Al  Al14  1  0.998699  0.374863  0.124223  1
  Al  Al15  1  0.909379  0.161008  0.286974  1
  Al  Al16  1  0.872177  0.624834  0.213847  1
  Al  Al17  1  0.410987  0.658330  0.786153  1
  Al  Al18  1  0.625137  0.749361  0.623836  1
  Al  Al19  1  0.375166  0.589013  0.247343  1
  Al  Al20  1  0.874034  0.622405  0.713026  1
  Al  Al21  1  0.250639  0.874475  0.875777  1
  Al  Al22  1  0.838992  0.125966  0.748371  1
  Al  Al23  1  0.341670  0.127823  0.752657  1
  Al  Al24  1  0.125525  0.001301  0.376164  1
  Al  Al25  1  0.377595  0.090621  0.251629  1
  O  O26  1  0.851074  0.224869  0.932829  1
  O  O27  1  0.755215  0.215105  0.654817  1
  O  O28  1  0.359506  0.313284  0.833363  1
  O  O29  1  0.686716  0.520079  0.046222  1
  O  O30  1  0.187110  0.414824  0.156448  1
  O  O31  1  0.479921  0.526143  0.166637  1
  O  O32  1  0.784895  0.439713  0.540110  1
  O  O33  1  0.081756  0.148926  0.373795  1
  O  O34  1  0.385794  0.261433  0.263998  1
  O  O35  1  0.899602  0.244785  0.459890  1
  O  O36  1  0.473857  0.640494  0.953778  1
  O  O37  1  0.970953  0.535081  0.140746  1
  O  O38  1  0.243903  0.494851  0.615092  1
  O  O39  1  0.987606  0.332369  0.271061  1
  O  O40  1  0.775131  0.707961  0.626205  1
  O  O41  1  0.585176  0.741624  0.772285  1
  O  O42  1  0.464919  0.605665  0.435872  1
  O  O43  1  0.878205  0.614206  0.875640  1
  O  O44  1  0.738567  0.002565  0.124360  1
  O  O45  1  0.394335  0.830208  0.859254  1
  O  O46  1  0.969339  0.812890  0.227715  1
  O  O47  1  0.061308  0.716545  0.728939  1
  O  O48  1  0.292039  0.918244  0.067171  1
  O  O49  1  0.667631  0.938692  0.655237  1
  O  O50  1  0.879759  0.628811  0.384908  1
  O  O51  1  0.371189  0.756097  0.250948  1
  O  O52  1  0.258376  0.030661  0.843552  1
  O  O53  1  0.000000  0.000000  0.000000  1
  O  O54  1  0.505149  0.120241  0.749052  1
  O  O55  1  0.169792  0.029047  0.564128  1
  O  O56  1  0.283455  0.012394  0.344763  1
  O  O57  1  0.560287  0.100398  0.345183  1
  O  O58  1  0.997435  0.121795  0.736002  1
