# generated using pymatgen
data_Yb6Co30P19
_symmetry_space_group_name_H-M   'P 1'
_cell_length_a   14.65353678
_cell_length_b   14.65353678
_cell_length_c   3.54498557
_cell_angle_alpha   90.00000000
_cell_angle_beta   90.00000000
_cell_angle_gamma   120.00000000
_symmetry_Int_Tables_number   1
_chemical_formula_structural   Yb6Co30P19
_chemical_formula_sum   'Yb6 Co30 P19'
_cell_volume   659.21946274
_cell_formula_units_Z   1
loop_
 _symmetry_equiv_pos_site_id
 _symmetry_equiv_pos_as_xyz
  1  'x, y, z'
loop_
 _atom_site_type_symbol
 _atom_site_label
 _atom_site_symmetry_multiplicity
 _atom_site_fract_x
 _atom_site_fract_y
 _atom_site_fract_z
 _atom_site_occupancy
  Yb  Yb0  1  0.295323  0.392464  0.000000  1
  Yb  Yb1  1  0.903200  0.296348  0.500000  1
  Yb  Yb2  1  0.703652  0.606852  0.500000  1
  Yb  Yb3  1  0.393148  0.096800  0.500000  1
  Yb  Yb4  1  0.097141  0.704677  0.000000  1
  Yb  Yb5  1  0.607536  0.902859  0.000000  1
  Co  Co6  1  0.074191  0.536236  0.500000  1
  Co  Co7  1  0.775149  0.046909  0.500000  1
  Co  Co8  1  0.222971  0.948660  0.000000  1
  Co  Co9  1  0.582965  0.734177  0.500000  1
  Co  Co10  1  0.051340  0.274311  0.000000  1
  Co  Co11  1  0.271760  0.224851  0.500000  1
  Co  Co12  1  0.774481  0.426327  0.500000  1
  Co  Co13  1  0.024012  0.887818  0.000000  1
  Co  Co14  1  0.535943  0.462255  0.000000  1
  Co  Co15  1  0.725689  0.777029  0.000000  1
  Co  Co16  1  0.225859  0.573700  0.000000  1
  Co  Co17  1  0.426300  0.652160  0.000000  1
  Co  Co18  1  0.972386  0.129639  0.500000  1
  Co  Co19  1  0.347840  0.774141  0.000000  1
  Co  Co20  1  0.265823  0.848788  0.500000  1
  Co  Co21  1  0.151212  0.417035  0.500000  1
  Co  Co22  1  0.463764  0.537955  0.500000  1
  Co  Co23  1  0.870361  0.842747  0.500000  1
  Co  Co24  1  0.157253  0.027614  0.500000  1
  Co  Co25  1  0.651846  0.225519  0.500000  1
  Co  Co26  1  0.849354  0.584192  0.000000  1
  Co  Co27  1  0.573673  0.348154  0.500000  1
  Co  Co28  1  0.953091  0.728240  0.500000  1
  Co  Co29  1  0.112182  0.136194  0.000000  1
  Co  Co30  1  0.537745  0.073687  0.000000  1
  Co  Co31  1  0.734838  0.150646  0.000000  1
  Co  Co32  1  0.863806  0.975988  0.000000  1
  Co  Co33  1  0.462045  0.925809  0.500000  1
  Co  Co34  1  0.926313  0.464057  0.000000  1
  Co  Co35  1  0.415808  0.265162  0.000000  1
  P  P36  1  0.566622  0.629467  0.000000  1
  P  P37  1  0.451024  0.768448  0.500000  1
  P  P38  1  0.432263  0.370405  0.500000  1
  P  P39  1  0.231552  0.682577  0.500000  1
  P  P40  1  0.136918  0.256536  0.500000  1
  P  P41  1  0.548675  0.231523  0.000000  1
  P  P42  1  0.864437  0.744393  0.000000  1
  P  P43  1  0.119618  0.863082  0.500000  1
  P  P44  1  0.317423  0.548976  0.500000  1
  P  P45  1  0.629595  0.061858  0.500000  1
  P  P46  1  0.938142  0.567737  0.500000  1
  P  P47  1  0.370533  0.937155  0.000000  1
  P  P48  1  0.255607  0.120044  0.000000  1
  P  P49  1  0.743464  0.880382  0.500000  1
  P  P50  1  0.682848  0.451325  0.000000  1
  P  P51  1  0.768477  0.317152  0.000000  1
  P  P52  1  0.000000  0.000000  0.500000  1
  P  P53  1  0.879956  0.135563  0.000000  1
  P  P54  1  0.062845  0.433378  0.000000  1
