# generated using pymatgen
data_Tb3P4Pd7
_symmetry_space_group_name_H-M   'P 1'
_cell_length_a   7.97239694
_cell_length_b   7.97239694
_cell_length_c   9.42445678
_cell_angle_alpha   55.74741843
_cell_angle_beta   124.25258157
_cell_angle_gamma   150.78094061
_symmetry_Int_Tables_number   1
_chemical_formula_structural   Tb3P4Pd7
_chemical_formula_sum   'Tb3 P4 Pd7'
_cell_volume   237.85545621
_cell_formula_units_Z   1
loop_
 _symmetry_equiv_pos_site_id
 _symmetry_equiv_pos_as_xyz
  1  'x, y, z'
loop_
 _atom_site_type_symbol
 _atom_site_label
 _atom_site_symmetry_multiplicity
 _atom_site_fract_x
 _atom_site_fract_y
 _atom_site_fract_z
 _atom_site_occupancy
  Tb  Tb0  1  0.680602  0.319398  0.677667  1
  Tb  Tb1  1  0.319398  0.680602  0.322333  1
  Tb  Tb2  1  0.000000  0.000000  0.000000  1
  P  P3  1  0.340586  0.659414  0.745818  1
  P  P4  1  0.659414  0.340586  0.254182  1
  P  P5  1  0.894034  0.105966  0.180040  1
  P  P6  1  0.105966  0.894034  0.819960  1
  Pd  Pd7  1  0.305280  0.694720  0.970454  1
  Pd  Pd8  1  0.694720  0.305280  0.029546  1
  Pd  Pd9  1  0.509795  0.490205  0.283209  1
  Pd  Pd10  1  0.832371  0.167629  0.579304  1
  Pd  Pd11  1  0.490205  0.509795  0.716791  1
  Pd  Pd12  1  0.167629  0.832371  0.420696  1
  Pd  Pd13  1  0.000000  1.000000  0.500000  1
