# generated using pymatgen
data_Er3O2F5
_symmetry_space_group_name_H-M   'P 1'
_cell_length_a   5.36181742
_cell_length_b   5.61496535
_cell_length_c   17.17577052
_cell_angle_alpha   90.00000000
_cell_angle_beta   90.00000000
_cell_angle_gamma   90.00000000
_symmetry_Int_Tables_number   1
_chemical_formula_structural   Er3O2F5
_chemical_formula_sum   'Er12 O8 F20'
_cell_volume   517.10094438
_cell_formula_units_Z   4
loop_
 _symmetry_equiv_pos_site_id
 _symmetry_equiv_pos_as_xyz
  1  'x, y, z'
loop_
 _atom_site_type_symbol
 _atom_site_label
 _atom_site_symmetry_multiplicity
 _atom_site_fract_x
 _atom_site_fract_y
 _atom_site_fract_z
 _atom_site_occupancy
  Er  Er0  1  0.038999  0.325203  0.402601  1
  Er  Er1  1  0.961001  0.674797  0.597399  1
  Er  Er2  1  0.538999  0.174797  0.902601  1
  Er  Er3  1  0.038999  0.325203  0.097399  1
  Er  Er4  1  0.456760  0.261402  0.250000  1
  Er  Er5  1  0.538999  0.174797  0.597399  1
  Er  Er6  1  0.956760  0.238598  0.750000  1
  Er  Er7  1  0.961001  0.674797  0.902601  1
  Er  Er8  1  0.043240  0.761402  0.250000  1
  Er  Er9  1  0.461001  0.825203  0.402601  1
  Er  Er10  1  0.461001  0.825203  0.097399  1
  Er  Er11  1  0.543240  0.738598  0.750000  1
  O  O12  1  0.704659  0.463261  0.668669  1
  O  O13  1  0.295341  0.536739  0.168669  1
  O  O14  1  0.795341  0.963261  0.831331  1
  O  O15  1  0.204659  0.036739  0.168669  1
  O  O16  1  0.795341  0.963261  0.668669  1
  O  O17  1  0.704659  0.463261  0.831331  1
  O  O18  1  0.204659  0.036739  0.331331  1
  O  O19  1  0.295341  0.536739  0.331331  1
  F  F20  1  0.857417  0.388422  0.250000  1
  F  F21  1  0.357417  0.111578  0.750000  1
  F  F22  1  0.286396  0.117215  0.485329  1
  F  F23  1  0.675981  0.161511  0.374432  1
  F  F24  1  0.324019  0.838489  0.625568  1
  F  F25  1  0.175981  0.338489  0.874432  1
  F  F26  1  0.286396  0.117215  0.014671  1
  F  F27  1  0.713604  0.882785  0.514671  1
  F  F28  1  0.213604  0.617215  0.014671  1
  F  F29  1  0.824019  0.661511  0.125568  1
  F  F30  1  0.713604  0.882785  0.985329  1
  F  F31  1  0.642583  0.888422  0.250000  1
  F  F32  1  0.675981  0.161511  0.125568  1
  F  F33  1  0.786396  0.382785  0.985329  1
  F  F34  1  0.175981  0.338489  0.625568  1
  F  F35  1  0.324019  0.838489  0.874432  1
  F  F36  1  0.786396  0.382785  0.514671  1
  F  F37  1  0.213604  0.617215  0.485329  1
  F  F38  1  0.142583  0.611578  0.750000  1
  F  F39  1  0.824019  0.661511  0.374432  1
