# generated using pymatgen
data_Ba5Ru2Cl2O9
_symmetry_space_group_name_H-M   'P 1'
_cell_length_a   5.92206744
_cell_length_b   5.92206744
_cell_length_c   25.21492512
_cell_angle_alpha   90.00000000
_cell_angle_beta   90.00000000
_cell_angle_gamma   120.00000000
_symmetry_Int_Tables_number   1
_chemical_formula_structural   Ba5Ru2Cl2O9
_chemical_formula_sum   'Ba10 Ru4 Cl4 O18'
_cell_volume   765.83464916
_cell_formula_units_Z   2
loop_
 _symmetry_equiv_pos_site_id
 _symmetry_equiv_pos_as_xyz
  1  'x, y, z'
loop_
 _atom_site_type_symbol
 _atom_site_label
 _atom_site_symmetry_multiplicity
 _atom_site_fract_x
 _atom_site_fract_y
 _atom_site_fract_z
 _atom_site_occupancy
  Ba  Ba0  1  0.666667  0.333333  0.828943  1
  Ba  Ba1  1  0.333333  0.666667  0.171057  1
  Ba  Ba2  1  0.333333  0.666667  0.581779  1
  Ba  Ba3  1  0.333333  0.666667  0.328943  1
  Ba  Ba4  1  0.333333  0.666667  0.918221  1
  Ba  Ba5  1  0.666667  0.333333  0.081779  1
  Ba  Ba6  1  0.666667  0.333333  0.418221  1
  Ba  Ba7  1  0.666667  0.333333  0.671057  1
  Ba  Ba8  1  0.666667  0.333333  0.250000  1
  Ba  Ba9  1  0.333333  0.666667  0.750000  1
  Ru  Ru10  1  0.000000  0.000000  0.806657  1
  Ru  Ru11  1  0.000000  0.000000  0.306657  1
  Ru  Ru12  1  0.000000  0.000000  0.193343  1
  Ru  Ru13  1  0.000000  0.000000  0.693343  1
  Cl  Cl14  1  0.666667  0.333333  0.546002  1
  Cl  Cl15  1  0.333333  0.666667  0.453998  1
  Cl  Cl16  1  0.333333  0.666667  0.046002  1
  Cl  Cl17  1  0.666667  0.333333  0.953998  1
  O  O18  1  0.150972  0.301943  0.250000  1
  O  O19  1  0.160018  0.839982  0.844738  1
  O  O20  1  0.839982  0.160018  0.155262  1
  O  O21  1  0.839982  0.679963  0.155262  1
  O  O22  1  0.160018  0.320037  0.844738  1
  O  O23  1  0.839982  0.679963  0.344738  1
  O  O24  1  0.698057  0.849028  0.250000  1
  O  O25  1  0.849028  0.150972  0.750000  1
  O  O26  1  0.679963  0.839982  0.655262  1
  O  O27  1  0.320037  0.160018  0.344738  1
  O  O28  1  0.849028  0.698057  0.750000  1
  O  O29  1  0.839982  0.160018  0.344738  1
  O  O30  1  0.679963  0.839982  0.844738  1
  O  O31  1  0.160018  0.320037  0.655262  1
  O  O32  1  0.160018  0.839982  0.655262  1
  O  O33  1  0.301943  0.150972  0.750000  1
  O  O34  1  0.150972  0.849028  0.250000  1
  O  O35  1  0.320037  0.160018  0.155262  1
