# generated using pymatgen
data_Cs2PbO2
_symmetry_space_group_name_H-M   'P 1'
_cell_length_a   8.03025463
_cell_length_b   8.34491784
_cell_length_c   11.16478397
_cell_angle_alpha   85.06848898
_cell_angle_beta   109.37253024
_cell_angle_gamma   118.66742745
_symmetry_Int_Tables_number   1
_chemical_formula_structural   Cs2PbO2
_chemical_formula_sum   'Cs8 Pb4 O8'
_cell_volume   616.86915873
_cell_formula_units_Z   4
loop_
 _symmetry_equiv_pos_site_id
 _symmetry_equiv_pos_as_xyz
  1  'x, y, z'
loop_
 _atom_site_type_symbol
 _atom_site_label
 _atom_site_symmetry_multiplicity
 _atom_site_fract_x
 _atom_site_fract_y
 _atom_site_fract_z
 _atom_site_occupancy
  Cs  Cs0  1  0.244227  0.738703  0.507261  1
  Cs  Cs1  1  0.071479  0.062135  0.819450  1
  Cs  Cs2  1  0.936380  0.450196  0.171389  1
  Cs  Cs3  1  0.928521  0.937865  0.180550  1
  Cs  Cs4  1  0.598733  0.567955  0.854768  1
  Cs  Cs5  1  0.063620  0.549804  0.828611  1
  Cs  Cs6  1  0.401267  0.432045  0.145232  1
  Cs  Cs7  1  0.755773  0.261297  0.492739  1
  Pb  Pb8  1  0.597573  0.058359  0.880889  1
  Pb  Pb9  1  0.311258  0.306552  0.526944  1
  Pb  Pb10  1  0.688742  0.693448  0.473056  1
  Pb  Pb11  1  0.402427  0.941641  0.119111  1
  O  O12  1  0.493774  0.183038  0.994022  1
  O  O13  1  0.798380  0.591902  0.361294  1
  O  O14  1  0.917830  0.208268  0.975788  1
  O  O15  1  0.506226  0.816962  0.005978  1
  O  O16  1  0.082170  0.791732  0.024212  1
  O  O17  1  0.201620  0.408098  0.638706  1
  O  O18  1  0.650794  0.486155  0.620603  1
  O  O19  1  0.349206  0.513845  0.379397  1
