# generated using pymatgen
data_Th(Al5Fe)2
_symmetry_space_group_name_H-M   'P 1'
_cell_length_a   6.80429036
_cell_length_b   6.80429036
_cell_length_c   9.01958726
_cell_angle_alpha   90.00000000
_cell_angle_beta   90.00000000
_cell_angle_gamma   97.61193185
_symmetry_Int_Tables_number   1
_chemical_formula_structural   Th(Al5Fe)2
_chemical_formula_sum   'Th2 Al20 Fe4'
_cell_volume   413.91233231
_cell_formula_units_Z   2
loop_
 _symmetry_equiv_pos_site_id
 _symmetry_equiv_pos_as_xyz
  1  'x, y, z'
loop_
 _atom_site_type_symbol
 _atom_site_label
 _atom_site_symmetry_multiplicity
 _atom_site_fract_x
 _atom_site_fract_y
 _atom_site_fract_z
 _atom_site_occupancy
  Th  Th0  1  0.124987  0.875013  0.750000  1
  Th  Th1  1  0.875013  0.124987  0.250000  1
  Al  Al2  1  0.777485  0.518504  0.750000  1
  Al  Al3  1  0.222515  0.481496  0.250000  1
  Al  Al4  1  0.865263  0.589543  0.250000  1
  Al  Al5  1  0.771008  0.771008  0.500000  1
  Al  Al6  1  0.839282  0.160718  0.901152  1
  Al  Al7  1  0.228992  0.228992  0.500000  1
  Al  Al8  1  0.410457  0.134737  0.250000  1
  Al  Al9  1  0.376502  0.623498  0.549753  1
  Al  Al10  1  0.160718  0.839282  0.401152  1
  Al  Al11  1  0.623498  0.376502  0.049753  1
  Al  Al12  1  0.839282  0.160718  0.598848  1
  Al  Al13  1  0.481496  0.222515  0.750000  1
  Al  Al14  1  0.623498  0.376502  0.450247  1
  Al  Al15  1  0.160718  0.839282  0.098848  1
  Al  Al16  1  0.376502  0.623498  0.950247  1
  Al  Al17  1  0.134737  0.410457  0.750000  1
  Al  Al18  1  0.518504  0.777485  0.250000  1
  Al  Al19  1  0.771008  0.771008  0.000000  1
  Al  Al20  1  0.228992  0.228992  0.000000  1
  Al  Al21  1  0.589543  0.865263  0.750000  1
  Fe  Fe22  1  0.500000  0.000000  1.000000  1
  Fe  Fe23  1  0.500000  0.000000  0.500000  1
  Fe  Fe24  1  0.000000  0.500000  0.500000  1
  Fe  Fe25  1  0.000000  0.500000  0.000000  1
