# generated using pymatgen
data_Ba2CaTl2(CuO4)2
_symmetry_space_group_name_H-M   'P 1'
_cell_length_a   15.57564434
_cell_length_b   15.57564434
_cell_length_c   15.57564434
_cell_angle_alpha   165.42975444
_cell_angle_beta   165.42975444
_cell_angle_gamma   20.66173577
_symmetry_Int_Tables_number   1
_chemical_formula_structural   Ba2CaTl2(CuO4)2
_chemical_formula_sum   'Ba2 Ca1 Tl2 Cu2 O8'
_cell_volume   239.10389102
_cell_formula_units_Z   1
loop_
 _symmetry_equiv_pos_site_id
 _symmetry_equiv_pos_as_xyz
  1  'x, y, z'
loop_
 _atom_site_type_symbol
 _atom_site_label
 _atom_site_symmetry_multiplicity
 _atom_site_fract_x
 _atom_site_fract_y
 _atom_site_fract_z
 _atom_site_occupancy
  Ba  Ba0  1  0.115264  0.115264  0.000000  1
  Ba  Ba1  1  0.884736  0.884736  0.000000  1
  Ca  Ca2  1  0.000000  0.000000  0.000000  1
  Tl  Tl3  1  0.712974  0.712974  0.000000  1
  Tl  Tl4  1  0.287026  0.287026  0.000000  1
  Cu  Cu5  1  0.550261  0.550261  0.000000  1
  Cu  Cu6  1  0.449739  0.449739  0.000000  1
  O  O7  1  0.051502  0.551502  0.500000  1
  O  O8  1  0.355921  0.355921  0.000000  1
  O  O9  1  0.551502  0.051502  0.500000  1
  O  O10  1  0.750000  0.250000  0.500000  1
  O  O11  1  0.948498  0.448498  0.500000  1
  O  O12  1  0.250000  0.750000  0.500000  1
  O  O13  1  0.448498  0.948498  0.500000  1
  O  O14  1  0.644079  0.644079  0.000000  1
