# generated using pymatgen
data_Ba2Mn2Bi2O
_symmetry_space_group_name_H-M   'P 1'
_cell_length_a   4.90289260
_cell_length_b   4.90289260
_cell_length_c   20.62009239
_cell_angle_alpha   90.00000000
_cell_angle_beta   90.00000000
_cell_angle_gamma   120.00000000
_symmetry_Int_Tables_number   1
_chemical_formula_structural   Ba2Mn2Bi2O
_chemical_formula_sum   'Ba4 Mn4 Bi4 O2'
_cell_volume   429.26551317
_cell_formula_units_Z   2
loop_
 _symmetry_equiv_pos_site_id
 _symmetry_equiv_pos_as_xyz
  1  'x, y, z'
loop_
 _atom_site_type_symbol
 _atom_site_label
 _atom_site_symmetry_multiplicity
 _atom_site_fract_x
 _atom_site_fract_y
 _atom_site_fract_z
 _atom_site_occupancy
  Ba  Ba0  1  0.000000  0.000000  0.750000  1
  Ba  Ba1  1  0.000000  0.000000  0.250000  1
  Ba  Ba2  1  0.000000  0.000000  0.500000  1
  Ba  Ba3  1  0.000000  0.000000  0.000000  1
  Mn  Mn4  1  0.666667  0.333333  0.150781  1
  Mn  Mn5  1  0.333333  0.666667  0.849219  1
  Mn  Mn6  1  0.666667  0.333333  0.349219  1
  Mn  Mn7  1  0.333333  0.666667  0.650781  1
  Bi  Bi8  1  0.666667  0.333333  0.888825  1
  Bi  Bi9  1  0.666667  0.333333  0.611175  1
  Bi  Bi10  1  0.333333  0.666667  0.388825  1
  Bi  Bi11  1  0.333333  0.666667  0.111175  1
  O  O12  1  0.666667  0.333333  0.250000  1
  O  O13  1  0.333333  0.666667  0.750000  1
