# generated using pymatgen
data_Cd(PO3)2
_symmetry_space_group_name_H-M   'P 1'
_cell_length_a   7.56141042
_cell_length_b   7.57123447
_cell_length_c   8.68226891
_cell_angle_alpha   90.00000000
_cell_angle_beta   90.00000000
_cell_angle_gamma   90.00000000
_symmetry_Int_Tables_number   1
_chemical_formula_structural   Cd(PO3)2
_chemical_formula_sum   'Cd4 P8 O24'
_cell_volume   497.05304664
_cell_formula_units_Z   4
loop_
 _symmetry_equiv_pos_site_id
 _symmetry_equiv_pos_as_xyz
  1  'x, y, z'
loop_
 _atom_site_type_symbol
 _atom_site_label
 _atom_site_symmetry_multiplicity
 _atom_site_fract_x
 _atom_site_fract_y
 _atom_site_fract_z
 _atom_site_occupancy
  Cd  Cd0  1  0.019026  0.142303  0.213382  1
  Cd  Cd1  1  0.980974  0.642303  0.286618  1
  Cd  Cd2  1  0.519026  0.357697  0.786618  1
  Cd  Cd3  1  0.480974  0.857697  0.713382  1
  P  P4  1  0.878756  0.060673  0.843186  1
  P  P5  1  0.378756  0.439327  0.156814  1
  P  P6  1  0.621244  0.939327  0.343186  1
  P  P7  1  0.153636  0.161943  0.599849  1
  P  P8  1  0.121244  0.560673  0.656814  1
  P  P9  1  0.653636  0.338057  0.400151  1
  P  P10  1  0.346364  0.838057  0.099849  1
  P  P11  1  0.846364  0.661943  0.900151  1
  O  O12  1  0.152113  0.096893  0.438198  1
  O  O13  1  0.049052  0.680826  0.534931  1
  O  O14  1  0.674415  0.642595  0.812579  1
  O  O15  1  0.549052  0.819174  0.465069  1
  O  O16  1  0.174415  0.857405  0.187421  1
  O  O17  1  0.495807  0.435885  0.310950  1
  O  O18  1  0.911954  0.862675  0.898739  1
  O  O19  1  0.995807  0.064115  0.689050  1
  O  O20  1  0.504193  0.935885  0.189050  1
  O  O21  1  0.450948  0.319174  0.034931  1
  O  O22  1  0.312118  0.583916  0.705894  1
  O  O23  1  0.950948  0.180826  0.965069  1
  O  O24  1  0.847887  0.596893  0.061802  1
  O  O25  1  0.187882  0.416084  0.205894  1
  O  O26  1  0.825585  0.357405  0.312579  1
  O  O27  1  0.004193  0.564115  0.810950  1
  O  O28  1  0.652113  0.403107  0.561802  1
  O  O29  1  0.325585  0.142595  0.687421  1
  O  O30  1  0.588046  0.137325  0.398739  1
  O  O31  1  0.812118  0.916084  0.294106  1
  O  O32  1  0.687882  0.083916  0.794106  1
  O  O33  1  0.411954  0.637325  0.101261  1
  O  O34  1  0.347887  0.903107  0.938198  1
  O  O35  1  0.088046  0.362675  0.601261  1
