# generated using pymatgen
data_HoTaO4
_symmetry_space_group_name_H-M   'P 1'
_cell_length_a   5.13799975
_cell_length_b   5.50538897
_cell_length_c   5.32619285
_cell_angle_alpha   90.00000000
_cell_angle_beta   96.47576716
_cell_angle_gamma   90.00000000
_symmetry_Int_Tables_number   1
_chemical_formula_structural   HoTaO4
_chemical_formula_sum   'Ho2 Ta2 O8'
_cell_volume   149.69908427
_cell_formula_units_Z   2
loop_
 _symmetry_equiv_pos_site_id
 _symmetry_equiv_pos_as_xyz
  1  'x, y, z'
loop_
 _atom_site_type_symbol
 _atom_site_label
 _atom_site_symmetry_multiplicity
 _atom_site_fract_x
 _atom_site_fract_y
 _atom_site_fract_z
 _atom_site_occupancy
  Ho  Ho0  1  0.000000  0.767686  0.250000  1
  Ho  Ho1  1  0.000000  0.232314  0.750000  1
  Ta  Ta2  1  0.500000  0.693782  0.750000  1
  Ta  Ta3  1  0.500000  0.306218  0.250000  1
  O  O4  1  0.268013  0.565092  0.996089  1
  O  O5  1  0.731987  0.565092  0.503911  1
  O  O6  1  0.731987  0.434908  0.003911  1
  O  O7  1  0.268013  0.434908  0.496089  1
  O  O8  1  0.751185  0.084958  0.400781  1
  O  O9  1  0.248815  0.084958  0.099219  1
  O  O10  1  0.248815  0.915042  0.599219  1
  O  O11  1  0.751185  0.915042  0.900781  1
