# generated using pymatgen
data_ZnTe6O13
_symmetry_space_group_name_H-M   'P 1'
_cell_length_a   8.79884421
_cell_length_b   8.79884421
_cell_length_c   8.79884421
_cell_angle_alpha   71.84104806
_cell_angle_beta   71.84104806
_cell_angle_gamma   71.84104806
_symmetry_Int_Tables_number   1
_chemical_formula_structural   ZnTe6O13
_chemical_formula_sum   'Zn2 Te12 O26'
_cell_volume   597.42590333
_cell_formula_units_Z   2
loop_
 _symmetry_equiv_pos_site_id
 _symmetry_equiv_pos_as_xyz
  1  'x, y, z'
loop_
 _atom_site_type_symbol
 _atom_site_label
 _atom_site_symmetry_multiplicity
 _atom_site_fract_x
 _atom_site_fract_y
 _atom_site_fract_z
 _atom_site_occupancy
  Zn  Zn0  1  0.742643  0.742643  0.742643  1
  Zn  Zn1  1  0.257357  0.257357  0.257357  1
  Te  Te2  1  0.940996  0.012105  0.333761  1
  Te  Te3  1  0.012105  0.333761  0.940996  1
  Te  Te4  1  0.059004  0.987895  0.666239  1
  Te  Te5  1  0.578693  0.469191  0.175519  1
  Te  Te6  1  0.666239  0.059004  0.987895  1
  Te  Te7  1  0.333761  0.940996  0.012105  1
  Te  Te8  1  0.987895  0.666239  0.059004  1
  Te  Te9  1  0.530809  0.824481  0.421307  1
  Te  Te10  1  0.824481  0.421307  0.530809  1
  Te  Te11  1  0.175519  0.578693  0.469191  1
  Te  Te12  1  0.421307  0.530809  0.824481  1
  Te  Te13  1  0.469191  0.175519  0.578693  1
  O  O14  1  0.385738  0.701305  0.625296  1
  O  O15  1  0.374704  0.614262  0.298695  1
  O  O16  1  0.087504  0.087504  0.087504  1
  O  O17  1  0.701305  0.625296  0.385738  1
  O  O18  1  0.200995  0.696860  0.947006  1
  O  O19  1  0.115989  0.455751  0.363694  1
  O  O20  1  0.602656  0.897118  0.921756  1
  O  O21  1  0.078244  0.397344  0.102882  1
  O  O22  1  0.544249  0.636306  0.884011  1
  O  O23  1  0.363694  0.115989  0.455751  1
  O  O24  1  0.897118  0.921756  0.602656  1
  O  O25  1  0.625296  0.385738  0.701305  1
  O  O26  1  0.799005  0.303140  0.052994  1
  O  O27  1  0.884011  0.544249  0.636306  1
  O  O28  1  0.636306  0.884011  0.544249  1
  O  O29  1  0.912496  0.912496  0.912496  1
  O  O30  1  0.298695  0.374704  0.614262  1
  O  O31  1  0.614262  0.298695  0.374704  1
  O  O32  1  0.947006  0.200995  0.696860  1
  O  O33  1  0.455751  0.363694  0.115989  1
  O  O34  1  0.102882  0.078244  0.397344  1
  O  O35  1  0.303140  0.052994  0.799005  1
  O  O36  1  0.921756  0.602656  0.897118  1
  O  O37  1  0.696860  0.947006  0.200995  1
  O  O38  1  0.052994  0.799005  0.303140  1
  O  O39  1  0.397344  0.102882  0.078244  1
