# generated using pymatgen
data_SiO2
_symmetry_space_group_name_H-M   'P 1'
_cell_length_a   15.89122901
_cell_length_b   15.89122901
_cell_length_c   15.89122901
_cell_angle_alpha   129.41273082
_cell_angle_beta   100.89347261
_cell_angle_gamma   100.14350607
_symmetry_Int_Tables_number   1
_chemical_formula_structural   SiO2
_chemical_formula_sum   'Si48 O96'
_cell_volume   2803.11163117
_cell_formula_units_Z   48
loop_
 _symmetry_equiv_pos_site_id
 _symmetry_equiv_pos_as_xyz
  1  'x, y, z'
loop_
 _atom_site_type_symbol
 _atom_site_label
 _atom_site_symmetry_multiplicity
 _atom_site_fract_x
 _atom_site_fract_y
 _atom_site_fract_z
 _atom_site_occupancy
  Si  Si0  1  0.811628  0.480117  0.049679  1
  Si  Si1  1  0.045632  0.059967  0.257740  1
  Si  Si2  1  0.352859  0.219004  0.420162  1
  Si  Si3  1  0.974248  0.642910  0.062391  1
  Si  Si4  1  0.196756  0.468980  0.425740  1
  Si  Si5  1  0.736144  0.422275  0.308493  1
  Si  Si6  1  0.190701  0.454323  0.016922  1
  Si  Si7  1  0.569562  0.238051  0.049679  1
  Si  Si8  1  0.592852  0.455224  0.424754  1
  Si  Si9  1  0.802227  0.059967  0.014335  1
  Si  Si10  1  0.188372  0.238051  0.668489  1
  Si  Si11  1  0.809299  0.826221  0.263622  1
  Si  Si12  1  0.353067  0.625952  0.430797  1
  Si  Si13  1  0.886218  0.572349  0.308493  1
  Si  Si14  1  0.197773  0.212108  0.257740  1
  Si  Si15  1  0.646933  0.077730  0.272885  1
  Si  Si16  1  0.647141  0.067303  0.866145  1
  Si  Si17  1  0.025752  0.088143  0.668662  1
  Si  Si18  1  0.880354  0.809800  0.080448  1
  Si  Si19  1  0.654966  0.574454  0.075887  1
  Si  Si20  1  0.798842  0.219004  0.866145  1
  Si  Si21  1  0.954368  0.212108  0.014335  1
  Si  Si22  1  0.873049  0.202951  0.693590  1
  Si  Si23  1  0.501433  0.420921  0.075887  1
  Si  Si24  1  0.263856  0.572349  0.686131  1
  Si  Si25  1  0.969530  0.831902  0.424754  1
  Si  Si26  1  0.803244  0.228984  0.272224  1
  Si  Si27  1  0.804845  0.077730  0.430797  1
  Si  Si28  1  0.345034  0.420921  0.919488  1
  Si  Si29  1  0.419481  0.088143  0.062391  1
  Si  Si30  1  0.956760  0.228984  0.425740  1
  Si  Si31  1  0.195155  0.625952  0.272885  1
  Si  Si32  1  0.509361  0.202951  0.329902  1
  Si  Si33  1  0.430438  0.480117  0.668489  1
  Si  Si34  1  0.119646  0.200094  0.929446  1
  Si  Si35  1  0.729352  0.809800  0.929446  1
  Si  Si36  1  0.030470  0.455224  0.862372  1
  Si  Si37  1  0.580519  0.642910  0.668662  1
  Si  Si38  1  0.126951  0.820541  0.329902  1
  Si  Si39  1  0.562599  0.826221  0.016922  1
  Si  Si40  1  0.113782  0.422275  0.686131  1
  Si  Si41  1  0.407148  0.831902  0.862372  1
  Si  Si42  1  0.437401  0.454323  0.263622  1
  Si  Si43  1  0.490639  0.820541  0.693590  1
  Si  Si44  1  0.201158  0.067303  0.420162  1
  Si  Si45  1  0.498567  0.574454  0.919488  1
  Si  Si46  1  0.270648  0.200094  0.080448  1
  Si  Si47  1  0.043240  0.468980  0.272224  1
  O  O48  1  0.491391  0.514184  0.787646  1
  O  O49  1  0.809659  0.536762  0.346421  1
  O  O50  1  0.165104  0.341251  0.683590  1
  O  O51  1  0.579169  0.943455  0.149852  1
  O  O52  1  0.113077  0.495682  0.382605  1
  O  O53  1  0.963141  0.932048  0.142477  1
  O  O54  1  0.802682  0.183361  0.746650  1
  O  O55  1  0.657661  0.341251  0.176147  1
  O  O56  1  0.997282  0.327368  0.156402  1
  O  O57  1  0.273462  0.296255  0.787646  1
  O  O58  1  0.789571  0.932048  0.968907  1
  O  O59  1  0.096573  0.148398  0.642961  1
  O  O60  1  0.189784  0.753498  0.337029  1
  O  O61  1  0.036859  0.179336  0.968907  1
  O  O62  1  0.726538  0.514184  0.022793  1
  O  O63  1  0.919942  0.707034  0.037293  1
  O  O64  1  0.801305  0.765426  0.964121  1
  O  O65  1  0.494563  0.546388  0.642961  1
  O  O66  1  0.342339  0.518486  0.683590  1
  O  O67  1  0.933846  0.715717  0.404324  1
  O  O68  1  0.099462  0.535517  0.241251  1
  O  O69  1  0.943390  0.137415  0.684527  1
  O  O70  1  0.900538  0.141789  0.436055  1
  O  O71  1  0.563289  0.943968  0.746650  1
  O  O72  1  0.703969  0.047938  0.945438  1
  O  O73  1  0.885830  0.100681  0.986511  1
  O  O74  1  0.564292  0.344198  0.413628  1
  O  O75  1  0.895542  0.814708  0.323732  1
  O  O76  1  0.508609  0.296255  0.022793  1
  O  O77  1  0.509024  0.428190  0.323732  1
  O  O78  1  0.296031  0.241469  0.343969  1
  O  O79  1  0.069430  0.849336  0.413628  1
  O  O80  1  0.584155  0.559194  0.975039  1
  O  O81  1  0.002718  0.159120  0.330086  1
  O  O82  1  0.518156  0.713869  0.000339  1
  O  O83  1  0.416469  0.753498  0.563714  1
  O  O84  1  0.197318  0.943968  0.380679  1
  O  O85  1  0.714964  0.110261  0.825225  1
  O  O86  1  0.284074  0.645599  0.361525  1
  O  O87  1  0.166959  0.339408  0.000174  1
  O  O88  1  0.897500  0.241469  0.945438  1
  O  O89  1  0.833041  0.833215  0.172449  1
  O  O90  1  0.415845  0.390884  0.975039  1
  O  O91  1  0.547112  0.741137  0.684527  1
  O  O92  1  0.066154  0.470478  0.781871  1
  O  O93  1  0.452888  0.137415  0.194025  1
  O  O94  1  0.610824  0.576012  0.556533  1
  O  O95  1  0.056610  0.741137  0.194025  1
  O  O96  1  0.393699  0.338286  0.559987  1
  O  O97  1  0.208067  0.518240  0.554711  1
  O  O98  1  0.198695  0.162816  0.964121  1
  O  O99  1  0.490976  0.814708  0.919166  1
  O  O100  1  0.286470  0.482183  0.000339  1
  O  O101  1  0.715926  0.077451  0.361525  1
  O  O102  1  0.190341  0.536762  0.727103  1
  O  O103  1  0.834896  0.518486  0.176147  1
  O  O104  1  0.114170  0.100681  0.214851  1
  O  O105  1  0.688607  0.470478  0.404324  1
  O  O106  1  0.206397  0.570683  0.149852  1
  O  O107  1  0.330259  0.117351  0.037293  1
  O  O108  1  0.420831  0.570683  0.364286  1
  O  O109  1  0.793603  0.943455  0.364286  1
  O  O110  1  0.886923  0.269528  0.382605  1
  O  O111  1  0.339234  0.339408  0.172449  1
  O  O112  1  0.606301  0.166288  0.944587  1
  O  O113  1  0.481844  0.482183  0.195713  1
  O  O114  1  0.791933  0.346644  0.310173  1
  O  O115  1  0.669741  0.707034  0.787092  1
  O  O116  1  0.019479  0.576012  0.965188  1
  O  O117  1  0.963529  0.518240  0.310173  1
  O  O118  1  0.903427  0.546388  0.051825  1
  O  O119  1  0.660766  0.833215  0.000174  1
  O  O120  1  0.311393  0.715717  0.781871  1
  O  O121  1  0.597905  0.511523  0.109428  1
  O  O122  1  0.170966  0.327368  0.330086  1
  O  O123  1  0.435708  0.849336  0.779906  1
  O  O124  1  0.583531  0.147245  0.337029  1
  O  O125  1  0.713530  0.713869  0.195713  1
  O  O126  1  0.829034  0.159120  0.156402  1
  O  O127  1  0.102500  0.047938  0.343969  1
  O  O128  1  0.980521  0.945709  0.556533  1
  O  O129  1  0.705734  0.141789  0.241251  1
  O  O130  1  0.080058  0.117351  0.787092  1
  O  O131  1  0.285036  0.110261  0.395297  1
  O  O132  1  0.810216  0.147245  0.563714  1
  O  O133  1  0.210429  0.179336  0.142477  1
  O  O134  1  0.402095  0.511523  0.913618  1
  O  O135  1  0.036471  0.346644  0.554711  1
  O  O136  1  0.778299  0.338286  0.944587  1
  O  O137  1  0.221701  0.166288  0.559987  1
  O  O138  1  0.104458  0.428190  0.919166  1
  O  O139  1  0.294266  0.535517  0.436055  1
  O  O140  1  0.436711  0.183361  0.380679  1
  O  O141  1  0.930570  0.344198  0.779906  1
  O  O142  1  0.505437  0.148398  0.051825  1
  O  O143  1  0.389176  0.945709  0.965188  1
