# generated using pymatgen
data_Cs3ZnCl5
_symmetry_space_group_name_H-M   'P 1'
_cell_length_a   9.93930833
_cell_length_b   9.93930833
_cell_length_c   9.93930833
_cell_angle_alpha   123.47224293
_cell_angle_beta   123.47224293
_cell_angle_gamma   84.08425465
_symmetry_Int_Tables_number   1
_chemical_formula_structural   Cs3ZnCl5
_chemical_formula_sum   'Cs6 Zn2 Cl10'
_cell_volume   654.05573971
_cell_formula_units_Z   2
loop_
 _symmetry_equiv_pos_site_id
 _symmetry_equiv_pos_as_xyz
  1  'x, y, z'
loop_
 _atom_site_type_symbol
 _atom_site_label
 _atom_site_symmetry_multiplicity
 _atom_site_fract_x
 _atom_site_fract_y
 _atom_site_fract_z
 _atom_site_occupancy
  Cs  Cs0  1  0.665866  0.165866  0.831732  1
  Cs  Cs1  1  0.834134  0.665866  0.500000  1
  Cs  Cs2  1  0.750000  0.750000  0.000000  1
  Cs  Cs3  1  0.334134  0.834134  0.168268  1
  Cs  Cs4  1  0.250000  0.250000  0.000000  1
  Cs  Cs5  1  0.165866  0.334134  0.500000  1
  Zn  Zn6  1  0.250000  0.750000  0.500000  1
  Zn  Zn7  1  0.750000  0.250000  0.500000  1
  Cl  Cl8  1  0.480560  0.703748  0.500000  1
  Cl  Cl9  1  0.203748  0.980560  0.500000  1
  Cl  Cl10  1  0.519440  0.296252  0.500000  1
  Cl  Cl11  1  0.500000  0.500000  0.000000  1
  Cl  Cl12  1  0.703748  0.203748  0.223188  1
  Cl  Cl13  1  0.296252  0.796252  0.776812  1
  Cl  Cl14  1  0.980560  0.480560  0.776812  1
  Cl  Cl15  1  0.796252  0.019440  0.500000  1
  Cl  Cl16  1  0.019440  0.519440  0.223188  1
  Cl  Cl17  1  0.000000  0.000000  0.000000  1
