# generated using pymatgen
data_Ba4NaAuO8
_symmetry_space_group_name_H-M   'P 1'
_cell_length_a   8.48252909
_cell_length_b   8.48252909
_cell_length_c   8.48252909
_cell_angle_alpha   139.71884659
_cell_angle_beta   139.71884659
_cell_angle_gamma   58.28043968
_symmetry_Int_Tables_number   1
_chemical_formula_structural   Ba4NaAuO8
_chemical_formula_sum   'Ba4 Na1 Au1 O8'
_cell_volume   252.81379110
_cell_formula_units_Z   1
loop_
 _symmetry_equiv_pos_site_id
 _symmetry_equiv_pos_as_xyz
  1  'x, y, z'
loop_
 _atom_site_type_symbol
 _atom_site_label
 _atom_site_symmetry_multiplicity
 _atom_site_fract_x
 _atom_site_fract_y
 _atom_site_fract_z
 _atom_site_occupancy
  Ba  Ba0  1  0.873851  0.373851  0.500000  1
  Ba  Ba1  1  0.373851  0.873851  0.500000  1
  Ba  Ba2  1  0.626149  0.126149  0.500000  1
  Ba  Ba3  1  0.126149  0.626149  0.500000  1
  Na  Na4  1  0.500000  0.500000  0.000000  1
  Au  Au5  1  0.000000  0.000000  0.000000  1
  O  O6  1  0.223239  0.223239  0.000000  1
  O  O7  1  0.327228  0.327228  0.000000  1
  O  O8  1  0.672772  0.672772  0.000000  1
  O  O9  1  0.759036  0.759036  0.518072  1
  O  O10  1  0.776761  0.776761  0.000000  1
  O  O11  1  0.240964  0.240964  0.481928  1
  O  O12  1  0.759036  0.240964  0.000000  1
  O  O13  1  0.240964  0.759036  0.000000  1
