# generated using pymatgen
data_Yb2Ag7
_symmetry_space_group_name_H-M   'P 1'
_cell_length_a   5.51268589
_cell_length_b   5.51268589
_cell_length_c   14.17867341
_cell_angle_alpha   90.00000000
_cell_angle_beta   90.00000000
_cell_angle_gamma   119.66941410
_symmetry_Int_Tables_number   1
_chemical_formula_structural   Yb2Ag7
_chemical_formula_sum   'Yb4 Ag14'
_cell_volume   374.39482004
_cell_formula_units_Z   2
loop_
 _symmetry_equiv_pos_site_id
 _symmetry_equiv_pos_as_xyz
  1  'x, y, z'
loop_
 _atom_site_type_symbol
 _atom_site_label
 _atom_site_symmetry_multiplicity
 _atom_site_fract_x
 _atom_site_fract_y
 _atom_site_fract_z
 _atom_site_occupancy
  Yb  Yb0  1  0.820934  0.820934  0.115516  1
  Yb  Yb1  1  0.179066  0.179066  0.884484  1
  Yb  Yb2  1  0.820934  0.820934  0.384484  1
  Yb  Yb3  1  0.179066  0.179066  0.615516  1
  Ag  Ag4  1  0.163963  0.490718  0.075795  1
  Ag  Ag5  1  0.509282  0.836037  0.924205  1
  Ag  Ag6  1  0.170338  0.672815  0.750000  1
  Ag  Ag7  1  0.490718  0.163963  0.075795  1
  Ag  Ag8  1  0.836037  0.509282  0.575795  1
  Ag  Ag9  1  0.490718  0.163963  0.424205  1
  Ag  Ag10  1  0.836037  0.509282  0.924205  1
  Ag  Ag11  1  0.672815  0.170338  0.750000  1
  Ag  Ag12  1  0.670439  0.670439  0.750000  1
  Ag  Ag13  1  0.327185  0.829662  0.250000  1
  Ag  Ag14  1  0.829662  0.327185  0.250000  1
  Ag  Ag15  1  0.509282  0.836037  0.575795  1
  Ag  Ag16  1  0.163963  0.490718  0.424205  1
  Ag  Ag17  1  0.329561  0.329561  0.250000  1
