# generated using pymatgen
data_Cs4Pb9
_symmetry_space_group_name_H-M   'P 1'
_cell_length_a   10.35254531
_cell_length_b   15.21362414
_cell_length_c   17.76213196
_cell_angle_alpha   90.00000000
_cell_angle_beta   115.18926984
_cell_angle_gamma   90.00000000
_symmetry_Int_Tables_number   1
_chemical_formula_structural   Cs4Pb9
_chemical_formula_sum   'Cs16 Pb36'
_cell_volume   2531.50479684
_cell_formula_units_Z   4
loop_
 _symmetry_equiv_pos_site_id
 _symmetry_equiv_pos_as_xyz
  1  'x, y, z'
loop_
 _atom_site_type_symbol
 _atom_site_label
 _atom_site_symmetry_multiplicity
 _atom_site_fract_x
 _atom_site_fract_y
 _atom_site_fract_z
 _atom_site_occupancy
  Cs  Cs0  1  0.366595  0.729759  0.879572  1
  Cs  Cs1  1  0.229669  0.459868  0.485756  1
  Cs  Cs2  1  0.730487  0.931107  0.340162  1
  Cs  Cs3  1  0.770331  0.540132  0.514244  1
  Cs  Cs4  1  0.805470  0.271017  0.908213  1
  Cs  Cs5  1  0.366595  0.770241  0.379572  1
  Cs  Cs6  1  0.770331  0.959868  0.014244  1
  Cs  Cs7  1  0.194530  0.771017  0.591787  1
  Cs  Cs8  1  0.269513  0.431107  0.159838  1
  Cs  Cs9  1  0.194530  0.728983  0.091787  1
  Cs  Cs10  1  0.805470  0.228983  0.408213  1
  Cs  Cs11  1  0.730487  0.568893  0.840162  1
  Cs  Cs12  1  0.633405  0.270241  0.120428  1
  Cs  Cs13  1  0.269513  0.068893  0.659838  1
  Cs  Cs14  1  0.633405  0.229759  0.620428  1
  Cs  Cs15  1  0.229669  0.040132  0.985756  1
  Pb  Pb16  1  0.599694  0.713699  0.634471  1
  Pb  Pb17  1  0.176542  0.988728  0.397542  1
  Pb  Pb18  1  0.400306  0.213699  0.865529  1
  Pb  Pb19  1  0.050031  0.603140  0.245065  1
  Pb  Pb20  1  0.400306  0.286301  0.365529  1
  Pb  Pb21  1  0.541444  0.921448  0.594493  1
  Pb  Pb22  1  0.823458  0.011272  0.602458  1
  Pb  Pb23  1  0.798088  0.005886  0.775716  1
  Pb  Pb24  1  0.941527  0.802630  0.226476  1
  Pb  Pb25  1  0.070575  0.177977  0.131040  1
  Pb  Pb26  1  0.070575  0.322023  0.631040  1
  Pb  Pb27  1  0.949969  0.396860  0.754935  1
  Pb  Pb28  1  0.058473  0.302630  0.273524  1
  Pb  Pb29  1  0.458556  0.421448  0.905507  1
  Pb  Pb30  1  0.929425  0.677977  0.368960  1
  Pb  Pb31  1  0.201912  0.994114  0.224284  1
  Pb  Pb32  1  0.458556  0.078552  0.405507  1
  Pb  Pb33  1  0.599694  0.786301  0.134471  1
  Pb  Pb34  1  0.929425  0.822023  0.868960  1
  Pb  Pb35  1  0.595267  0.844988  0.772690  1
  Pb  Pb36  1  0.541444  0.578552  0.094493  1
  Pb  Pb37  1  0.050031  0.896860  0.745065  1
  Pb  Pb38  1  0.941527  0.697370  0.726476  1
  Pb  Pb39  1  0.176542  0.511272  0.897542  1
  Pb  Pb40  1  0.798088  0.494114  0.275716  1
  Pb  Pb41  1  0.058473  0.197370  0.773524  1
  Pb  Pb42  1  0.791354  0.690417  0.060269  1
  Pb  Pb43  1  0.208646  0.309583  0.939731  1
  Pb  Pb44  1  0.595267  0.655012  0.272690  1
  Pb  Pb45  1  0.791354  0.809583  0.560269  1
  Pb  Pb46  1  0.201912  0.505886  0.724284  1
  Pb  Pb47  1  0.404733  0.344988  0.727310  1
  Pb  Pb48  1  0.949969  0.103140  0.254935  1
  Pb  Pb49  1  0.404733  0.155012  0.227310  1
  Pb  Pb50  1  0.823458  0.488728  0.102458  1
  Pb  Pb51  1  0.208646  0.190417  0.439731  1
