# generated using pymatgen
data_MnH10SO9
_symmetry_space_group_name_H-M   'P 1'
_cell_length_a   6.17986380
_cell_length_b   6.33266855
_cell_length_c   10.96004200
_cell_angle_alpha   75.46148167
_cell_angle_beta   81.58809324
_cell_angle_gamma   70.04754247
_symmetry_Int_Tables_number   1
_chemical_formula_structural   MnH10SO9
_chemical_formula_sum   'Mn2 H20 S2 O18'
_cell_volume   389.39864162
_cell_formula_units_Z   2
loop_
 _symmetry_equiv_pos_site_id
 _symmetry_equiv_pos_as_xyz
  1  'x, y, z'
loop_
 _atom_site_type_symbol
 _atom_site_label
 _atom_site_symmetry_multiplicity
 _atom_site_fract_x
 _atom_site_fract_y
 _atom_site_fract_z
 _atom_site_occupancy
  Mn  Mn0  1  0.000000  0.000000  0.000000  1
  Mn  Mn1  1  0.000000  0.500000  0.500000  1
  H  H2  1  0.729471  0.898090  0.852185  1
  H  H3  1  0.270529  0.101910  0.147815  1
  H  H4  1  0.764772  0.709223  0.982432  1
  H  H5  1  0.235228  0.290777  0.017568  1
  H  H6  1  0.639349  0.360599  0.872135  1
  H  H7  1  0.360651  0.639401  0.127865  1
  H  H8  1  0.879508  0.344076  0.792620  1
  H  H9  1  0.120492  0.655924  0.207380  1
  H  H10  1  0.621289  0.337419  0.628540  1
  H  H11  1  0.378711  0.662581  0.371460  1
  H  H12  1  0.544494  0.612834  0.613369  1
  H  H13  1  0.455506  0.387166  0.386631  1
  H  H14  1  0.818749  0.872470  0.625477  1
  H  H15  1  0.181251  0.127530  0.374523  1
  H  H16  1  0.092089  0.824442  0.605720  1
  H  H17  1  0.907911  0.175558  0.394280  1
  H  H18  1  0.286131  0.613644  0.867937  1
  H  H19  1  0.713869  0.386356  0.132063  1
  H  H20  1  0.269462  0.419335  0.807731  1
  H  H21  1  0.730538  0.580665  0.192269  1
  S  S22  1  0.343166  0.025736  0.714265  1
  S  S23  1  0.656834  0.974264  0.285735  1
  O  O24  1  0.285787  0.919407  0.847886  1
  O  O25  1  0.714213  0.080593  0.152114  1
  O  O26  1  0.172698  0.262282  0.679501  1
  O  O27  1  0.827302  0.737718  0.320499  1
  O  O28  1  0.337679  0.879162  0.628843  1
  O  O29  1  0.662321  0.120838  0.371157  1
  O  O30  1  0.579313  0.048384  0.704746  1
  O  O31  1  0.420687  0.951616  0.295254  1
  O  O32  1  0.834104  0.816673  0.921016  1
  O  O33  1  0.165896  0.183327  0.078984  1
  O  O34  1  0.808466  0.320822  0.878932  1
  O  O35  1  0.191534  0.679178  0.121068  1
  O  O36  1  0.674055  0.473570  0.600714  1
  O  O37  1  0.325945  0.526430  0.399286  1
  O  O38  1  0.965200  0.770235  0.593919  1
  O  O39  1  0.034800  0.229765  0.406081  1
  O  O40  1  0.339718  0.445308  0.875043  1
  O  O41  1  0.660282  0.554692  0.124957  1
