# generated using pymatgen
data_LaNbO4
_symmetry_space_group_name_H-M   'P 1'
_cell_length_a   6.96834184
_cell_length_b   6.96834184
_cell_length_c   5.36072070
_cell_angle_alpha   68.14141942
_cell_angle_beta   111.85858058
_cell_angle_gamma   65.81272659
_symmetry_Int_Tables_number   1
_chemical_formula_structural   LaNbO4
_chemical_formula_sum   'La2 Nb2 O8'
_cell_volume   172.92123173
_cell_formula_units_Z   2
loop_
 _symmetry_equiv_pos_site_id
 _symmetry_equiv_pos_as_xyz
  1  'x, y, z'
loop_
 _atom_site_type_symbol
 _atom_site_label
 _atom_site_symmetry_multiplicity
 _atom_site_fract_x
 _atom_site_fract_y
 _atom_site_fract_z
 _atom_site_occupancy
  La  La0  1  0.626715  0.626715  0.250000  1
  La  La1  1  0.373285  0.373285  0.750000  1
  Nb  Nb2  1  0.115113  0.115113  0.250000  1
  Nb  Nb3  1  0.884887  0.884887  0.750000  1
  O  O4  1  0.946879  0.637077  0.662182  1
  O  O5  1  0.637077  0.946879  0.837818  1
  O  O6  1  0.053121  0.362923  0.337818  1
  O  O7  1  0.362923  0.053121  0.162182  1
  O  O8  1  0.791587  0.279972  0.827605  1
  O  O9  1  0.279972  0.791587  0.672395  1
  O  O10  1  0.208413  0.720028  0.172395  1
  O  O11  1  0.720028  0.208413  0.327605  1
