# generated using pymatgen
data_Mn3(CuO4)2
_symmetry_space_group_name_H-M   'P 1'
_cell_length_a   5.62791542
_cell_length_b   5.62791542
_cell_length_c   5.02954608
_cell_angle_alpha   81.53369733
_cell_angle_beta   98.46630267
_cell_angle_gamma   118.47446057
_symmetry_Int_Tables_number   1
_chemical_formula_structural   Mn3(CuO4)2
_chemical_formula_sum   'Mn3 Cu2 O8'
_cell_volume   137.96135657
_cell_formula_units_Z   1
loop_
 _symmetry_equiv_pos_site_id
 _symmetry_equiv_pos_as_xyz
  1  'x, y, z'
loop_
 _atom_site_type_symbol
 _atom_site_label
 _atom_site_symmetry_multiplicity
 _atom_site_fract_x
 _atom_site_fract_y
 _atom_site_fract_z
 _atom_site_occupancy
  Mn  Mn0  1  0.000000  1.000000  0.500000  1
  Mn  Mn1  1  0.743791  0.743791  0.000000  1
  Mn  Mn2  1  0.256209  0.256209  0.000000  1
  Cu  Cu3  1  0.289284  0.710716  0.425269  1
  Cu  Cu4  1  0.710716  0.289284  0.574731  1
  O  O5  1  0.899396  0.100604  0.140120  1
  O  O6  1  0.100604  0.899396  0.859880  1
  O  O7  1  0.607017  0.392983  0.887799  1
  O  O8  1  0.392983  0.607017  0.112201  1
  O  O9  1  0.348928  0.108786  0.361419  1
  O  O10  1  0.891214  0.651072  0.361419  1
  O  O11  1  0.108786  0.348928  0.638581  1
  O  O12  1  0.651072  0.891214  0.638581  1
