# generated using pymatgen
data_ErSeO3F
_symmetry_space_group_name_H-M   'P 1'
_cell_length_a   6.61924424
_cell_length_b   6.94733672
_cell_length_c   7.20726773
_cell_angle_alpha   90.00000000
_cell_angle_beta   98.49997984
_cell_angle_gamma   90.00000000
_symmetry_Int_Tables_number   1
_chemical_formula_structural   ErSeO3F
_chemical_formula_sum   'Er4 Se4 O12 F4'
_cell_volume   327.79376639
_cell_formula_units_Z   4
loop_
 _symmetry_equiv_pos_site_id
 _symmetry_equiv_pos_as_xyz
  1  'x, y, z'
loop_
 _atom_site_type_symbol
 _atom_site_label
 _atom_site_symmetry_multiplicity
 _atom_site_fract_x
 _atom_site_fract_y
 _atom_site_fract_z
 _atom_site_occupancy
  Er  Er0  1  0.860737  0.640476  0.675775  1
  Er  Er1  1  0.860737  0.859524  0.175775  1
  Er  Er2  1  0.139263  0.140476  0.824225  1
  Er  Er3  1  0.139263  0.359524  0.324225  1
  Se  Se4  1  0.648833  0.118993  0.710746  1
  Se  Se5  1  0.648833  0.381007  0.210746  1
  Se  Se6  1  0.351167  0.618993  0.789254  1
  Se  Se7  1  0.351167  0.881007  0.289254  1
  O  O8  1  0.825977  0.193679  0.220521  1
  O  O9  1  0.827061  0.531387  0.352463  1
  O  O10  1  0.483921  0.313884  0.360827  1
  O  O11  1  0.172939  0.031387  0.147537  1
  O  O12  1  0.825977  0.306321  0.720521  1
  O  O13  1  0.516079  0.813884  0.139173  1
  O  O14  1  0.174023  0.693679  0.279479  1
  O  O15  1  0.827061  0.968613  0.852463  1
  O  O16  1  0.172939  0.468613  0.647537  1
  O  O17  1  0.174023  0.806321  0.779479  1
  O  O18  1  0.516079  0.686116  0.639173  1
  O  O19  1  0.483921  0.186116  0.860827  1
  F  F20  1  0.833103  0.880930  0.474586  1
  F  F21  1  0.833103  0.619070  0.974586  1
  F  F22  1  0.166897  0.119070  0.525414  1
  F  F23  1  0.166897  0.380930  0.025414  1
