# generated using pymatgen
data_CsMo2P3O13
_symmetry_space_group_name_H-M   'P 1'
_cell_length_a   7.84029986
_cell_length_b   8.63192451
_cell_length_c   9.16652144
_cell_angle_alpha   90.00000000
_cell_angle_beta   100.78353972
_cell_angle_gamma   90.00000000
_symmetry_Int_Tables_number   1
_chemical_formula_structural   CsMo2P3O13
_chemical_formula_sum   'Cs2 Mo4 P6 O26'
_cell_volume   609.40660108
_cell_formula_units_Z   2
loop_
 _symmetry_equiv_pos_site_id
 _symmetry_equiv_pos_as_xyz
  1  'x, y, z'
loop_
 _atom_site_type_symbol
 _atom_site_label
 _atom_site_symmetry_multiplicity
 _atom_site_fract_x
 _atom_site_fract_y
 _atom_site_fract_z
 _atom_site_occupancy
  Cs  Cs0  1  0.500000  0.771481  0.250000  1
  Cs  Cs1  1  0.500000  0.228519  0.750000  1
  Mo  Mo2  1  0.790642  0.765223  0.932348  1
  Mo  Mo3  1  0.209358  0.765223  0.567652  1
  Mo  Mo4  1  0.790642  0.234777  0.432348  1
  Mo  Mo5  1  0.209358  0.234777  0.067652  1
  P  P6  1  0.852035  0.439840  0.137800  1
  P  P7  1  0.852035  0.560160  0.637800  1
  P  P8  1  0.000000  0.044628  0.750000  1
  P  P9  1  0.000000  0.955372  0.250000  1
  P  P10  1  0.147965  0.439840  0.362200  1
  P  P11  1  0.147965  0.560160  0.862200  1
  O  O12  1  0.000000  0.534860  0.250000  1
  O  O13  1  0.416635  0.165672  0.081015  1
  O  O14  1  0.054436  0.328184  0.449334  1
  O  O15  1  0.945564  0.671816  0.550666  1
  O  O16  1  0.739543  0.358789  0.234961  1
  O  O17  1  0.739543  0.641211  0.734961  1
  O  O18  1  0.258421  0.561175  0.458573  1
  O  O19  1  0.117222  0.947394  0.668859  1
  O  O20  1  0.583365  0.165672  0.418985  1
  O  O21  1  0.583365  0.834328  0.918985  1
  O  O22  1  0.121534  0.851135  0.360338  1
  O  O23  1  0.882778  0.947394  0.831141  1
  O  O24  1  0.878466  0.851135  0.139662  1
  O  O25  1  0.878466  0.148865  0.639662  1
  O  O26  1  0.882778  0.052606  0.331141  1
  O  O27  1  0.054436  0.671816  0.949334  1
  O  O28  1  0.741579  0.561175  0.041427  1
  O  O29  1  0.121534  0.148865  0.860338  1
  O  O30  1  0.416635  0.834328  0.581015  1
  O  O31  1  0.000000  0.465140  0.750000  1
  O  O32  1  0.945564  0.328184  0.050666  1
  O  O33  1  0.741579  0.438825  0.541427  1
  O  O34  1  0.260457  0.358789  0.265039  1
  O  O35  1  0.258421  0.438825  0.958573  1
  O  O36  1  0.260457  0.641211  0.765039  1
  O  O37  1  0.117222  0.052606  0.168859  1
