# generated using pymatgen
data_GdAlO3
_symmetry_space_group_name_H-M   'P 1'
_cell_length_a   5.28457078
_cell_length_b   5.37112566
_cell_length_c   7.51058523
_cell_angle_alpha   90.00000000
_cell_angle_beta   90.00000000
_cell_angle_gamma   90.00000000
_symmetry_Int_Tables_number   1
_chemical_formula_structural   GdAlO3
_chemical_formula_sum   'Gd4 Al4 O12'
_cell_volume   213.18115505
_cell_formula_units_Z   4
loop_
 _symmetry_equiv_pos_site_id
 _symmetry_equiv_pos_as_xyz
  1  'x, y, z'
loop_
 _atom_site_type_symbol
 _atom_site_label
 _atom_site_symmetry_multiplicity
 _atom_site_fract_x
 _atom_site_fract_y
 _atom_site_fract_z
 _atom_site_occupancy
  Gd  Gd0  1  0.010071  0.956427  0.750000  1
  Gd  Gd1  1  0.510071  0.543573  0.250000  1
  Gd  Gd2  1  0.489929  0.456427  0.750000  1
  Gd  Gd3  1  0.989929  0.043573  0.250000  1
  Al  Al4  1  0.500000  0.000000  0.500000  1
  Al  Al5  1  0.000000  0.500000  0.500000  1
  Al  Al6  1  0.000000  0.500000  0.000000  1
  Al  Al7  1  0.500000  0.000000  0.000000  1
  O  O8  1  0.712903  0.287592  0.458986  1
  O  O9  1  0.212903  0.212408  0.541014  1
  O  O10  1  0.787097  0.787592  0.041014  1
  O  O11  1  0.287097  0.712408  0.958986  1
  O  O12  1  0.287097  0.712408  0.541014  1
  O  O13  1  0.787097  0.787592  0.458986  1
  O  O14  1  0.212903  0.212408  0.958986  1
  O  O15  1  0.712903  0.287592  0.041014  1
  O  O16  1  0.077181  0.482594  0.250000  1
  O  O17  1  0.577181  0.017406  0.750000  1
  O  O18  1  0.422819  0.982594  0.250000  1
  O  O19  1  0.922819  0.517406  0.750000  1
