# generated using pymatgen
data_Tb9(SbO)5
_symmetry_space_group_name_H-M   'P 1'
_cell_length_a   9.92464812
_cell_length_b   9.92464812
_cell_length_c   8.92553480
_cell_angle_alpha   90.00000000
_cell_angle_beta   90.00000000
_cell_angle_gamma   90.00000000
_symmetry_Int_Tables_number   1
_chemical_formula_structural   Tb9(SbO)5
_chemical_formula_sum   'Tb18 Sb10 O10'
_cell_volume   879.15304180
_cell_formula_units_Z   2
loop_
 _symmetry_equiv_pos_site_id
 _symmetry_equiv_pos_as_xyz
  1  'x, y, z'
loop_
 _atom_site_type_symbol
 _atom_site_label
 _atom_site_symmetry_multiplicity
 _atom_site_fract_x
 _atom_site_fract_y
 _atom_site_fract_z
 _atom_site_occupancy
  Tb  Tb0  1  0.205442  0.895419  0.341895  1
  Tb  Tb1  1  0.500000  0.000000  0.671644  1
  Tb  Tb2  1  0.294558  0.604581  0.658105  1
  Tb  Tb3  1  0.705442  0.395419  0.658105  1
  Tb  Tb4  1  0.725940  0.917518  0.001460  1
  Tb  Tb5  1  0.395419  0.294558  0.341895  1
  Tb  Tb6  1  0.104581  0.205442  0.658105  1
  Tb  Tb7  1  0.604581  0.705442  0.341895  1
  Tb  Tb8  1  0.000000  0.500000  0.328356  1
  Tb  Tb9  1  0.895419  0.794558  0.658105  1
  Tb  Tb10  1  0.274060  0.082482  0.001460  1
  Tb  Tb11  1  0.774060  0.582482  0.998540  1
  Tb  Tb12  1  0.225940  0.417518  0.998540  1
  Tb  Tb13  1  0.794558  0.104581  0.341895  1
  Tb  Tb14  1  0.582482  0.225940  0.001460  1
  Tb  Tb15  1  0.917518  0.274060  0.998540  1
  Tb  Tb16  1  0.082482  0.725940  0.998540  1
  Tb  Tb17  1  0.417518  0.774060  0.001460  1
  Sb  Sb18  1  0.595632  0.695545  0.698367  1
  Sb  Sb19  1  0.904368  0.804455  0.301633  1
  Sb  Sb20  1  0.695545  0.404368  0.301633  1
  Sb  Sb21  1  0.000000  0.500000  0.681998  1
  Sb  Sb22  1  0.195545  0.904368  0.698367  1
  Sb  Sb23  1  0.804455  0.095632  0.698367  1
  Sb  Sb24  1  0.304455  0.595632  0.301633  1
  Sb  Sb25  1  0.404368  0.304455  0.698367  1
  Sb  Sb26  1  0.095632  0.195545  0.301633  1
  Sb  Sb27  1  0.500000  0.000000  0.318002  1
  O  O28  1  0.224940  0.879892  0.087058  1
  O  O29  1  0.724940  0.379892  0.912942  1
  O  O30  1  0.500000  0.000000  0.935639  1
  O  O31  1  0.620108  0.724940  0.087058  1
  O  O32  1  0.000000  0.500000  0.064361  1
  O  O33  1  0.879892  0.775060  0.912942  1
  O  O34  1  0.120108  0.224940  0.912942  1
  O  O35  1  0.379892  0.275060  0.087058  1
  O  O36  1  0.775060  0.120108  0.087058  1
  O  O37  1  0.275060  0.620108  0.912942  1
