# generated using pymatgen
data_Fe(PO3)4
_symmetry_space_group_name_H-M   'P 1'
_cell_length_a   8.38355100
_cell_length_b   9.41193165
_cell_length_c   13.08047875
_cell_angle_alpha   90.00000000
_cell_angle_beta   90.00000000
_cell_angle_gamma   90.00000000
_symmetry_Int_Tables_number   1
_chemical_formula_structural   Fe(PO3)4
_chemical_formula_sum   'Fe4 P16 O48'
_cell_volume   1032.12052564
_cell_formula_units_Z   4
loop_
 _symmetry_equiv_pos_site_id
 _symmetry_equiv_pos_as_xyz
  1  'x, y, z'
loop_
 _atom_site_type_symbol
 _atom_site_label
 _atom_site_symmetry_multiplicity
 _atom_site_fract_x
 _atom_site_fract_y
 _atom_site_fract_z
 _atom_site_occupancy
  Fe  Fe0  1  0.363147  0.750000  0.000000  1
  Fe  Fe1  1  0.636853  0.250000  0.000000  1
  Fe  Fe2  1  0.136853  0.250000  0.500000  1
  Fe  Fe3  1  0.863147  0.750000  0.500000  1
  P  P4  1  0.186789  0.515567  0.148147  1
  P  P5  1  0.813211  0.015567  0.148147  1
  P  P6  1  0.460151  0.016066  0.147862  1
  P  P7  1  0.539849  0.516066  0.147862  1
  P  P8  1  0.039849  0.516066  0.352138  1
  P  P9  1  0.960151  0.016066  0.352138  1
  P  P10  1  0.313211  0.015567  0.351853  1
  P  P11  1  0.686789  0.515567  0.351853  1
  P  P12  1  0.313211  0.484433  0.648147  1
  P  P13  1  0.686789  0.984433  0.648147  1
  P  P14  1  0.039849  0.983934  0.647862  1
  P  P15  1  0.960151  0.483934  0.647862  1
  P  P16  1  0.460151  0.483934  0.852138  1
  P  P17  1  0.539849  0.983934  0.852138  1
  P  P18  1  0.186789  0.984433  0.851853  1
  P  P19  1  0.813211  0.484433  0.851853  1
  O  O20  1  0.195893  0.633354  0.069704  1
  O  O21  1  0.804107  0.133354  0.069704  1
  O  O22  1  0.469073  0.132284  0.069031  1
  O  O23  1  0.530927  0.632284  0.069031  1
  O  O24  1  0.093985  0.387151  0.115897  1
  O  O25  1  0.906015  0.887151  0.115897  1
  O  O26  1  0.368210  0.884005  0.121586  1
  O  O27  1  0.631790  0.384005  0.121586  1
  O  O28  1  0.363664  0.472312  0.185321  1
  O  O29  1  0.636336  0.972312  0.185321  1
  O  O30  1  0.115744  0.585273  0.251167  1
  O  O31  1  0.884256  0.085273  0.251167  1
  O  O32  1  0.384256  0.085273  0.248833  1
  O  O33  1  0.615744  0.585273  0.248833  1
  O  O34  1  0.136336  0.972312  0.314679  1
  O  O35  1  0.863664  0.472312  0.314679  1
  O  O36  1  0.131790  0.384005  0.378414  1
  O  O37  1  0.868210  0.884005  0.378414  1
  O  O38  1  0.406015  0.887151  0.384103  1
  O  O39  1  0.593985  0.387151  0.384103  1
  O  O40  1  0.030927  0.632284  0.430969  1
  O  O41  1  0.969073  0.132284  0.430969  1
  O  O42  1  0.304107  0.133354  0.430296  1
  O  O43  1  0.695893  0.633354  0.430296  1
  O  O44  1  0.304107  0.366646  0.569704  1
  O  O45  1  0.695893  0.866646  0.569704  1
  O  O46  1  0.030927  0.867716  0.569031  1
  O  O47  1  0.969073  0.367716  0.569031  1
  O  O48  1  0.406015  0.612849  0.615897  1
  O  O49  1  0.593985  0.112849  0.615897  1
  O  O50  1  0.131790  0.115995  0.621586  1
  O  O51  1  0.868210  0.615995  0.621586  1
  O  O52  1  0.136336  0.527688  0.685321  1
  O  O53  1  0.863664  0.027688  0.685321  1
  O  O54  1  0.384256  0.414727  0.751167  1
  O  O55  1  0.615744  0.914727  0.751167  1
  O  O56  1  0.115744  0.914727  0.748833  1
  O  O57  1  0.884256  0.414727  0.748833  1
  O  O58  1  0.363664  0.027688  0.814679  1
  O  O59  1  0.636336  0.527688  0.814679  1
  O  O60  1  0.368210  0.615995  0.878414  1
  O  O61  1  0.631790  0.115995  0.878414  1
  O  O62  1  0.093985  0.112849  0.884103  1
  O  O63  1  0.906015  0.612849  0.884103  1
  O  O64  1  0.469073  0.367716  0.930969  1
  O  O65  1  0.530927  0.867716  0.930969  1
  O  O66  1  0.195893  0.866646  0.930296  1
  O  O67  1  0.804107  0.366646  0.930296  1
