# generated using pymatgen
data_LiNiP2O7
_symmetry_space_group_name_H-M   'P 1'
_cell_length_a   5.03263774
_cell_length_b   6.82675446
_cell_length_c   8.39176221
_cell_angle_alpha   67.61026541
_cell_angle_beta   87.89629944
_cell_angle_gamma   87.74421979
_symmetry_Int_Tables_number   1
_chemical_formula_structural   LiNiP2O7
_chemical_formula_sum   'Li2 Ni2 P4 O14'
_cell_volume   266.29747549
_cell_formula_units_Z   2
loop_
 _symmetry_equiv_pos_site_id
 _symmetry_equiv_pos_as_xyz
  1  'x, y, z'
loop_
 _atom_site_type_symbol
 _atom_site_label
 _atom_site_symmetry_multiplicity
 _atom_site_fract_x
 _atom_site_fract_y
 _atom_site_fract_z
 _atom_site_occupancy
  Li  Li0  1  0.276015  0.824169  0.003303  1
  Li  Li1  1  0.782710  0.173858  0.439202  1
  Ni  Ni2  1  0.243594  0.214953  0.720453  1
  Ni  Ni3  1  0.757160  0.780650  0.270092  1
  P  P4  1  0.765462  0.887531  0.830076  1
  P  P5  1  0.716072  0.550611  0.687891  1
  P  P6  1  0.237530  0.123960  0.169614  1
  P  P7  1  0.280993  0.453737  0.309274  1
  O  O8  1  0.283022  0.360906  0.154583  1
  O  O9  1  0.891547  0.350256  0.760768  1
  O  O10  1  0.064184  0.922538  0.796588  1
  O  O11  1  0.123552  0.662395  0.226326  1
  O  O12  1  0.145706  0.289143  0.467050  1
  O  O13  1  0.954725  0.065193  0.243648  1
  O  O14  1  0.272006  0.125152  0.988276  1
  O  O15  1  0.430664  0.487291  0.678768  1
  O  O16  1  0.444951  0.978915  0.291542  1
  O  O17  1  0.821523  0.716456  0.521213  1
  O  O18  1  0.597396  0.051928  0.688882  1
  O  O19  1  0.667241  0.858800  0.012240  1
  O  O20  1  0.710251  0.653903  0.831402  1
  O  O21  1  0.574303  0.483810  0.334323  1
