# generated using pymatgen
data_Ag3N5O6
_symmetry_space_group_name_H-M   'P 1'
_cell_length_a   7.38748686
_cell_length_b   7.38748686
_cell_length_c   9.32769560
_cell_angle_alpha   90.00000000
_cell_angle_beta   90.00000000
_cell_angle_gamma   130.66298585
_symmetry_Int_Tables_number   1
_chemical_formula_structural   Ag3N5O6
_chemical_formula_sum   'Ag6 N10 O12'
_cell_volume   386.14919919
_cell_formula_units_Z   2
loop_
 _symmetry_equiv_pos_site_id
 _symmetry_equiv_pos_as_xyz
  1  'x, y, z'
loop_
 _atom_site_type_symbol
 _atom_site_label
 _atom_site_symmetry_multiplicity
 _atom_site_fract_x
 _atom_site_fract_y
 _atom_site_fract_z
 _atom_site_occupancy
  Ag  Ag0  1  0.576490  0.576490  0.044181  1
  Ag  Ag1  1  0.775545  0.047973  0.606324  1
  Ag  Ag2  1  0.423510  0.423510  0.544181  1
  Ag  Ag3  1  0.224455  0.952027  0.106324  1
  Ag  Ag4  1  0.047973  0.775545  0.606324  1
  Ag  Ag5  1  0.952027  0.224455  0.106324  1
  N  N6  1  0.181783  0.181783  0.833460  1
  N  N7  1  0.434371  0.830691  0.876158  1
  N  N8  1  0.565629  0.169309  0.376158  1
  N  N9  1  0.818217  0.818217  0.333460  1
  N  N10  1  0.852283  0.852283  0.208083  1
  N  N11  1  0.787912  0.787912  0.459496  1
  N  N12  1  0.212088  0.212088  0.959496  1
  N  N13  1  0.169309  0.565629  0.376158  1
  N  N14  1  0.147717  0.147717  0.708083  1
  N  N15  1  0.830691  0.434371  0.876158  1
  O  O16  1  0.373459  0.773446  0.008221  1
  O  O17  1  0.442777  0.215755  0.319341  1
  O  O18  1  0.067410  0.622260  0.306940  1
  O  O19  1  0.215755  0.442777  0.319341  1
  O  O20  1  0.626541  0.226554  0.508221  1
  O  O21  1  0.784245  0.557223  0.819341  1
  O  O22  1  0.932590  0.377740  0.806940  1
  O  O23  1  0.773446  0.373459  0.008221  1
  O  O24  1  0.377740  0.932590  0.806940  1
  O  O25  1  0.557223  0.784245  0.819341  1
  O  O26  1  0.226554  0.626541  0.508221  1
  O  O27  1  0.622260  0.067410  0.306940  1
