# generated using pymatgen
data_Li2MnP2O7
_symmetry_space_group_name_H-M   'P 1'
_cell_length_a   8.65797412
_cell_length_b   5.11176719
_cell_length_c   14.27717243
_cell_angle_alpha   90.00000000
_cell_angle_beta   115.57492744
_cell_angle_gamma   90.00000000
_symmetry_Int_Tables_number   1
_chemical_formula_structural   Li2MnP2O7
_chemical_formula_sum   'Li8 Mn4 P8 O28'
_cell_volume   569.96272352
_cell_formula_units_Z   4
loop_
 _symmetry_equiv_pos_site_id
 _symmetry_equiv_pos_as_xyz
  1  'x, y, z'
loop_
 _atom_site_type_symbol
 _atom_site_label
 _atom_site_symmetry_multiplicity
 _atom_site_fract_x
 _atom_site_fract_y
 _atom_site_fract_z
 _atom_site_occupancy
  Li  Li0  1  0.498694  0.711919  0.076892  1
  Li  Li1  1  0.051355  0.233822  0.173925  1
  Li  Li2  1  0.948645  0.733822  0.326075  1
  Li  Li3  1  0.501306  0.211919  0.423108  1
  Li  Li4  1  0.498694  0.788081  0.576892  1
  Li  Li5  1  0.051355  0.266178  0.673925  1
  Li  Li6  1  0.948645  0.766178  0.826075  1
  Li  Li7  1  0.501306  0.288081  0.923108  1
  Mn  Mn8  1  0.777679  0.760837  0.016657  1
  Mn  Mn9  1  0.777679  0.739163  0.516657  1
  Mn  Mn10  1  0.222321  0.260837  0.483343  1
  Mn  Mn11  1  0.222321  0.239163  0.983343  1
  P  P12  1  0.196545  0.734103  0.124328  1
  P  P13  1  0.679942  0.224153  0.147198  1
  P  P14  1  0.803455  0.234103  0.375672  1
  P  P15  1  0.320058  0.724153  0.352802  1
  P  P16  1  0.679942  0.275847  0.647198  1
  P  P17  1  0.196545  0.765897  0.624328  1
  P  P18  1  0.320058  0.775847  0.852802  1
  P  P19  1  0.803455  0.265897  0.875672  1
  O  O20  1  0.286267  0.862005  0.064407  1
  O  O21  1  0.168184  0.439503  0.102378  1
  O  O22  1  0.503245  0.319452  0.066982  1
  O  O23  1  0.706213  0.928966  0.138808  1
  O  O24  1  0.825334  0.392784  0.145840  1
  O  O25  1  0.334405  0.771634  0.244481  1
  O  O26  1  0.034122  0.877862  0.113249  1
  O  O27  1  0.665595  0.271634  0.255519  1
  O  O28  1  0.496755  0.819452  0.433018  1
  O  O29  1  0.831816  0.939503  0.397622  1
  O  O30  1  0.965878  0.377862  0.386751  1
  O  O31  1  0.713733  0.362005  0.435593  1
  O  O32  1  0.174666  0.892784  0.354160  1
  O  O33  1  0.293787  0.428966  0.361192  1
  O  O34  1  0.706213  0.571034  0.638808  1
  O  O35  1  0.825334  0.107216  0.645840  1
  O  O36  1  0.286267  0.637995  0.564407  1
  O  O37  1  0.034122  0.622138  0.613249  1
  O  O38  1  0.168184  0.060497  0.602378  1
  O  O39  1  0.503245  0.180548  0.566982  1
  O  O40  1  0.334405  0.728366  0.744481  1
  O  O41  1  0.965878  0.122138  0.886751  1
  O  O42  1  0.665595  0.228366  0.755519  1
  O  O43  1  0.174666  0.607216  0.854160  1
  O  O44  1  0.293787  0.071034  0.861192  1
  O  O45  1  0.496755  0.680548  0.933018  1
  O  O46  1  0.831816  0.560497  0.897622  1
  O  O47  1  0.713733  0.137995  0.935593  1
