# generated using pymatgen
data_Ce5Pb3O
_symmetry_space_group_name_H-M   'P 1'
_cell_length_a   9.41045178
_cell_length_b   9.41045178
_cell_length_c   9.41045178
_cell_angle_alpha   125.61990074
_cell_angle_beta   125.61990074
_cell_angle_gamma   80.51376193
_symmetry_Int_Tables_number   1
_chemical_formula_structural   Ce5Pb3O
_chemical_formula_sum   'Ce10 Pb6 O2'
_cell_volume   531.16447213
_cell_formula_units_Z   2
loop_
 _symmetry_equiv_pos_site_id
 _symmetry_equiv_pos_as_xyz
  1  'x, y, z'
loop_
 _atom_site_type_symbol
 _atom_site_label
 _atom_site_symmetry_multiplicity
 _atom_site_fract_x
 _atom_site_fract_y
 _atom_site_fract_z
 _atom_site_occupancy
  Ce  Ce0  1  0.502211  0.693161  0.500000  1
  Ce  Ce1  1  0.306839  0.806839  0.809050  1
  Ce  Ce2  1  0.002211  0.502211  0.809050  1
  Ce  Ce3  1  0.997789  0.497789  0.190950  1
  Ce  Ce4  1  0.497789  0.306839  0.500000  1
  Ce  Ce5  1  0.000000  0.000000  0.000000  1
  Ce  Ce6  1  0.693161  0.193161  0.190950  1
  Ce  Ce7  1  0.193161  0.002211  0.500000  1
  Ce  Ce8  1  0.806839  0.997789  0.500000  1
  Ce  Ce9  1  0.500000  0.500000  0.000000  1
  Pb  Pb10  1  0.355489  0.855489  0.210978  1
  Pb  Pb11  1  0.644511  0.144511  0.789022  1
  Pb  Pb12  1  0.855489  0.644511  0.500000  1
  Pb  Pb13  1  0.250000  0.250000  0.000000  1
  Pb  Pb14  1  0.144511  0.355489  0.500000  1
  Pb  Pb15  1  0.750000  0.750000  0.000000  1
  O  O16  1  0.250000  0.750000  0.500000  1
  O  O17  1  0.750000  0.250000  0.500000  1
