# generated using pymatgen
data_Th2P2O9
_symmetry_space_group_name_H-M   'P 1'
_cell_length_a   5.89523707
_cell_length_b   5.89523707
_cell_length_c   12.99896344
_cell_angle_alpha   90.00000000
_cell_angle_beta   90.00000000
_cell_angle_gamma   103.90760912
_symmetry_Int_Tables_number   1
_chemical_formula_structural   Th2P2O9
_chemical_formula_sum   'Th4 P4 O18'
_cell_volume   438.51999235
_cell_formula_units_Z   2
loop_
 _symmetry_equiv_pos_site_id
 _symmetry_equiv_pos_as_xyz
  1  'x, y, z'
loop_
 _atom_site_type_symbol
 _atom_site_label
 _atom_site_symmetry_multiplicity
 _atom_site_fract_x
 _atom_site_fract_y
 _atom_site_fract_z
 _atom_site_occupancy
  Th  Th0  1  0.207210  0.792790  0.427077  1
  Th  Th1  1  0.792790  0.207210  0.572923  1
  Th  Th2  1  0.292790  0.707210  0.927077  1
  Th  Th3  1  0.707210  0.292790  0.072923  1
  P  P4  1  0.111152  0.888848  0.140393  1
  P  P5  1  0.388848  0.611152  0.640393  1
  P  P6  1  0.888848  0.111152  0.859607  1
  P  P7  1  0.611152  0.388848  0.359607  1
  O  O8  1  0.447890  0.552110  0.376970  1
  O  O9  1  0.851059  0.483497  0.416005  1
  O  O10  1  0.353639  0.646361  0.755429  1
  O  O11  1  0.351059  0.983497  0.083995  1
  O  O12  1  0.516503  0.148941  0.416005  1
  O  O13  1  0.052110  0.947890  0.876970  1
  O  O14  1  0.983497  0.351059  0.916005  1
  O  O15  1  0.853639  0.146361  0.744571  1
  O  O16  1  0.552110  0.447890  0.623030  1
  O  O17  1  0.483497  0.851059  0.583995  1
  O  O18  1  0.146361  0.853639  0.255429  1
  O  O19  1  0.648941  0.016503  0.916005  1
  O  O20  1  0.947890  0.052110  0.123030  1
  O  O21  1  0.000000  0.000000  0.500000  1
  O  O22  1  0.646361  0.353639  0.244571  1
  O  O23  1  0.016503  0.648941  0.083995  1
  O  O24  1  0.148941  0.516503  0.583995  1
  O  O25  1  0.500000  0.500000  1.000000  1
