# generated using pymatgen
data_NbCo3
_symmetry_space_group_name_H-M   'P 1'
_cell_length_a   4.71961928
_cell_length_b   4.71961928
_cell_length_c   15.47174762
_cell_angle_alpha   90.00000000
_cell_angle_beta   90.00000000
_cell_angle_gamma   120.00000000
_symmetry_Int_Tables_number   1
_chemical_formula_structural   NbCo3
_chemical_formula_sum   'Nb6 Co18'
_cell_volume   298.45849032
_cell_formula_units_Z   6
loop_
 _symmetry_equiv_pos_site_id
 _symmetry_equiv_pos_as_xyz
  1  'x, y, z'
loop_
 _atom_site_type_symbol
 _atom_site_label
 _atom_site_symmetry_multiplicity
 _atom_site_fract_x
 _atom_site_fract_y
 _atom_site_fract_z
 _atom_site_occupancy
  Nb  Nb0  1  0.333333  0.666667  0.669109  1
  Nb  Nb1  1  0.000000  0.000000  0.399838  1
  Nb  Nb2  1  0.000000  0.000000  0.589813  1
  Nb  Nb3  1  0.000000  0.000000  0.899838  1
  Nb  Nb4  1  0.666667  0.333333  0.169109  1
  Nb  Nb5  1  0.000000  0.000000  0.089813  1
  Co  Co6  1  0.499737  0.999474  0.998631  1
  Co  Co7  1  0.835245  0.164755  0.750368  1
  Co  Co8  1  0.666667  0.333333  0.348248  1
  Co  Co9  1  0.329509  0.164755  0.750368  1
  Co  Co10  1  0.164755  0.835245  0.250368  1
  Co  Co11  1  0.666667  0.333333  0.872295  1
  Co  Co12  1  0.670491  0.835245  0.250368  1
  Co  Co13  1  0.000526  0.500263  0.998631  1
  Co  Co14  1  0.835245  0.670491  0.750368  1
  Co  Co15  1  0.500263  0.000526  0.498631  1
  Co  Co16  1  0.333333  0.666667  0.848248  1
  Co  Co17  1  0.333333  0.666667  0.123700  1
  Co  Co18  1  0.164755  0.329509  0.250368  1
  Co  Co19  1  0.499737  0.500263  0.998631  1
  Co  Co20  1  0.666667  0.333333  0.623700  1
  Co  Co21  1  0.999474  0.499737  0.498631  1
  Co  Co22  1  0.333333  0.666667  0.372295  1
  Co  Co23  1  0.500263  0.499737  0.498631  1
