# generated using pymatgen
data_CaSiBHO5
_symmetry_space_group_name_H-M   'P 1'
_cell_length_a   4.90241752
_cell_length_b   7.70310613
_cell_length_c   9.71694450
_cell_angle_alpha   90.00000000
_cell_angle_beta   90.21982053
_cell_angle_gamma   90.00000000
_symmetry_Int_Tables_number   1
_chemical_formula_structural   CaSiBHO5
_chemical_formula_sum   'Ca4 Si4 B4 H4 O20'
_cell_volume   366.94646102
_cell_formula_units_Z   4
loop_
 _symmetry_equiv_pos_site_id
 _symmetry_equiv_pos_as_xyz
  1  'x, y, z'
loop_
 _atom_site_type_symbol
 _atom_site_label
 _atom_site_symmetry_multiplicity
 _atom_site_fract_x
 _atom_site_fract_y
 _atom_site_fract_z
 _atom_site_occupancy
  Ca  Ca0  1  0.009270  0.896983  0.662906  1
  Ca  Ca1  1  0.990730  0.103017  0.337094  1
  Ca  Ca2  1  0.009270  0.603017  0.162906  1
  Ca  Ca3  1  0.990730  0.396983  0.837094  1
  Si  Si4  1  0.467520  0.264446  0.084331  1
  Si  Si5  1  0.467520  0.235554  0.584331  1
  Si  Si6  1  0.532480  0.764446  0.415669  1
  Si  Si7  1  0.532480  0.735554  0.915669  1
  B  B8  1  0.567490  0.090763  0.840385  1
  B  B9  1  0.432510  0.909237  0.159615  1
  B  B10  1  0.432510  0.590763  0.659615  1
  B  B11  1  0.567490  0.409237  0.340385  1
  H  H12  1  0.806827  0.957117  0.076354  1
  H  H13  1  0.193173  0.457117  0.423646  1
  H  H14  1  0.193173  0.042883  0.923646  1
  H  H15  1  0.806827  0.542883  0.576354  1
  O  O16  1  0.260694  0.087708  0.835665  1
  O  O17  1  0.238306  0.100838  0.537217  1
  O  O18  1  0.331179  0.700013  0.543370  1
  O  O19  1  0.315357  0.085742  0.145666  1
  O  O20  1  0.260694  0.412292  0.335665  1
  O  O21  1  0.326918  0.665701  0.789742  1
  O  O22  1  0.238306  0.399162  0.037217  1
  O  O23  1  0.684643  0.585742  0.354334  1
  O  O24  1  0.739306  0.912292  0.164335  1
  O  O25  1  0.761694  0.600838  0.962783  1
  O  O26  1  0.684643  0.914258  0.854334  1
  O  O27  1  0.673082  0.165701  0.710258  1
  O  O28  1  0.761694  0.899162  0.462783  1
  O  O29  1  0.315357  0.414258  0.645666  1
  O  O30  1  0.668821  0.200013  0.956630  1
  O  O31  1  0.739306  0.587708  0.664335  1
  O  O32  1  0.668821  0.299987  0.456630  1
  O  O33  1  0.331179  0.799987  0.043370  1
  O  O34  1  0.326918  0.834299  0.289742  1
  O  O35  1  0.673082  0.334299  0.210258  1
