# generated using pymatgen
data_B3H5
_symmetry_space_group_name_H-M   'P 1'
_cell_length_a   11.46632953
_cell_length_b   7.12604602
_cell_length_c   13.65018245
_cell_angle_alpha   90.00000000
_cell_angle_beta   124.42337197
_cell_angle_gamma   90.00000000
_symmetry_Int_Tables_number   1
_chemical_formula_structural   B3H5
_chemical_formula_sum   'B36 H60'
_cell_volume   920.03391138
_cell_formula_units_Z   12
loop_
 _symmetry_equiv_pos_site_id
 _symmetry_equiv_pos_as_xyz
  1  'x, y, z'
loop_
 _atom_site_type_symbol
 _atom_site_label
 _atom_site_symmetry_multiplicity
 _atom_site_fract_x
 _atom_site_fract_y
 _atom_site_fract_z
 _atom_site_occupancy
  B  B0  1  0.127234  0.198473  0.341376  1
  B  B1  1  0.712068  0.870896  0.531015  1
  B  B2  1  0.009874  0.767660  0.629930  1
  B  B3  1  0.990126  0.232340  0.370070  1
  B  B4  1  0.319505  0.508381  0.545287  1
  B  B5  1  0.324331  0.134404  0.152458  1
  B  B6  1  0.680495  0.008381  0.954713  1
  B  B7  1  0.597214  0.791202  0.918493  1
  B  B8  1  0.990126  0.267660  0.870070  1
  B  B9  1  0.324331  0.365596  0.652458  1
  B  B10  1  0.703885  0.872087  0.399296  1
  B  B11  1  0.703885  0.627913  0.899296  1
  B  B12  1  0.872766  0.698473  0.158624  1
  B  B13  1  0.127234  0.301527  0.841376  1
  B  B14  1  0.712068  0.629104  0.031015  1
  B  B15  1  0.710338  0.860074  0.072932  1
  B  B16  1  0.296115  0.372087  0.100704  1
  B  B17  1  0.319505  0.991619  0.045287  1
  B  B18  1  0.130938  0.055817  0.449677  1
  B  B19  1  0.710338  0.639926  0.572932  1
  B  B20  1  0.130938  0.444183  0.949677  1
  B  B21  1  0.009874  0.732340  0.129930  1
  B  B22  1  0.675669  0.865596  0.847542  1
  B  B23  1  0.597214  0.708798  0.418493  1
  B  B24  1  0.296115  0.127913  0.600704  1
  B  B25  1  0.675669  0.634404  0.347542  1
  B  B26  1  0.402786  0.208798  0.081507  1
  B  B27  1  0.869062  0.555817  0.050323  1
  B  B28  1  0.289662  0.360074  0.427068  1
  B  B29  1  0.402786  0.291202  0.581507  1
  B  B30  1  0.287932  0.129104  0.468985  1
  B  B31  1  0.869062  0.944183  0.550323  1
  B  B32  1  0.680495  0.491619  0.454713  1
  B  B33  1  0.872766  0.801527  0.658624  1
  B  B34  1  0.287932  0.370896  0.968985  1
  B  B35  1  0.289662  0.139926  0.927068  1
  H  H36  1  0.877580  0.166603  0.295892  1
  H  H37  1  0.096755  0.365880  0.748923  1
  H  H38  1  0.343700  0.492886  0.949467  1
  H  H39  1  0.898782  0.393076  0.067975  1
  H  H40  1  0.472378  0.724322  0.367494  1
  H  H41  1  0.343700  0.007114  0.449467  1
  H  H42  1  0.653398  0.509706  0.824527  1
  H  H43  1  0.776629  0.758748  0.374870  1
  H  H44  1  0.898782  0.106924  0.567975  1
  H  H45  1  0.767908  0.000313  0.918334  1
  H  H46  1  0.656300  0.507114  0.050533  1
  H  H47  1  0.368335  0.837859  0.066541  1
  H  H48  1  0.944342  0.637177  0.021234  1
  H  H49  1  0.055658  0.362823  0.978766  1
  H  H50  1  0.527622  0.224322  0.132506  1
  H  H51  1  0.472378  0.775678  0.867494  1
  H  H52  1  0.527622  0.275678  0.632506  1
  H  H53  1  0.096755  0.134120  0.248923  1
  H  H54  1  0.335871  0.083332  0.873440  1
  H  H55  1  0.944342  0.862823  0.521234  1
  H  H56  1  0.376594  0.085188  0.252221  1
  H  H57  1  0.223371  0.241252  0.625130  1
  H  H58  1  0.903245  0.865880  0.751077  1
  H  H59  1  0.101218  0.893076  0.432025  1
  H  H60  1  0.877580  0.333397  0.795892  1
  H  H61  1  0.047550  0.339278  0.320823  1
  H  H62  1  0.335871  0.416668  0.373440  1
  H  H63  1  0.623406  0.914812  0.747779  1
  H  H64  1  0.346602  0.490294  0.175473  1
  H  H65  1  0.013644  0.872377  0.081054  1
  H  H66  1  0.232092  0.999687  0.081666  1
  H  H67  1  0.631665  0.162141  0.933459  1
  H  H68  1  0.122420  0.833397  0.704108  1
  H  H69  1  0.122420  0.666603  0.204108  1
  H  H70  1  0.767908  0.499687  0.418334  1
  H  H71  1  0.013644  0.627623  0.581054  1
  H  H72  1  0.623406  0.585188  0.247779  1
  H  H73  1  0.047550  0.160722  0.820823  1
  H  H74  1  0.214496  0.000452  0.930366  1
  H  H75  1  0.223371  0.258748  0.125130  1
  H  H76  1  0.653398  0.990294  0.324527  1
  H  H77  1  0.903245  0.634120  0.251077  1
  H  H78  1  0.631665  0.337859  0.433459  1
  H  H79  1  0.986356  0.372377  0.418946  1
  H  H80  1  0.785504  0.500452  0.569634  1
  H  H81  1  0.986356  0.127623  0.918946  1
  H  H82  1  0.656300  0.992886  0.550533  1
  H  H83  1  0.101218  0.606924  0.932025  1
  H  H84  1  0.055658  0.137177  0.478766  1
  H  H85  1  0.952450  0.660722  0.679177  1
  H  H86  1  0.376594  0.414812  0.752221  1
  H  H87  1  0.952450  0.839278  0.179177  1
  H  H88  1  0.785504  0.999548  0.069634  1
  H  H89  1  0.664129  0.916668  0.126560  1
  H  H90  1  0.346602  0.009706  0.675473  1
  H  H91  1  0.664129  0.583332  0.626560  1
  H  H92  1  0.232092  0.500313  0.581666  1
  H  H93  1  0.214496  0.499548  0.430366  1
  H  H94  1  0.776629  0.741252  0.874870  1
  H  H95  1  0.368335  0.662141  0.566541  1
