# generated using pymatgen
data_UV3O10
_symmetry_space_group_name_H-M   'P 1'
_cell_length_a   10.21722290
_cell_length_b   8.90542734
_cell_length_c   7.05106310
_cell_angle_alpha   78.68860282
_cell_angle_beta   58.72428428
_cell_angle_gamma   42.58711290
_symmetry_Int_Tables_number   1
_chemical_formula_structural   UV3O10
_chemical_formula_sum   'U2 V6 O20'
_cell_volume   351.33257378
_cell_formula_units_Z   2
loop_
 _symmetry_equiv_pos_site_id
 _symmetry_equiv_pos_as_xyz
  1  'x, y, z'
loop_
 _atom_site_type_symbol
 _atom_site_label
 _atom_site_symmetry_multiplicity
 _atom_site_fract_x
 _atom_site_fract_y
 _atom_site_fract_z
 _atom_site_occupancy
  U  U0  1  0.500000  0.500000  0.500000  1
  U  U1  1  0.750000  0.750000  0.750000  1
  V  V2  1  0.000000  1.000000  0.000000  1
  V  V3  1  0.250000  0.250000  0.250000  1
  V  V4  1  0.223825  0.223825  0.776175  1
  V  V5  1  0.776175  0.776175  0.223825  1
  V  V6  1  0.026175  0.026175  0.473825  1
  V  V7  1  0.473825  0.473825  0.026175  1
  O  O8  1  0.098251  0.908402  0.694426  1
  O  O9  1  0.298921  0.694426  0.908402  1
  O  O10  1  0.694426  0.298921  0.098251  1
  O  O11  1  0.908402  0.098251  0.298921  1
  O  O12  1  0.151749  0.341598  0.555574  1
  O  O13  1  0.951079  0.555574  0.341598  1
  O  O14  1  0.555574  0.951079  0.151749  1
  O  O15  1  0.341598  0.151749  0.951079  1
  O  O16  1  0.120591  0.120591  0.879409  1
  O  O17  1  0.879409  0.879409  0.120591  1
  O  O18  1  0.129409  0.129409  0.370591  1
  O  O19  1  0.370591  0.370591  0.129409  1
  O  O20  1  0.389625  0.389625  0.610375  1
  O  O21  1  0.610375  0.610375  0.389625  1
  O  O22  1  0.860375  0.860375  0.639625  1
  O  O23  1  0.639625  0.639625  0.860375  1
  O  O24  1  0.291122  0.708878  0.291122  1
  O  O25  1  0.708878  0.291122  0.708878  1
  O  O26  1  0.958878  0.541122  0.958878  1
  O  O27  1  0.541122  0.958878  0.541122  1
