# generated using pymatgen
data_NaLaMgWO6
_symmetry_space_group_name_H-M   'P 1'
_cell_length_a   5.60353173
_cell_length_b   5.60353173
_cell_length_c   8.01979938
_cell_angle_alpha   90.00000000
_cell_angle_beta   90.00000000
_cell_angle_gamma   90.00000000
_symmetry_Int_Tables_number   1
_chemical_formula_structural   NaLaMgWO6
_chemical_formula_sum   'Na2 La2 Mg2 W2 O12'
_cell_volume   251.81823496
_cell_formula_units_Z   2
loop_
 _symmetry_equiv_pos_site_id
 _symmetry_equiv_pos_as_xyz
  1  'x, y, z'
loop_
 _atom_site_type_symbol
 _atom_site_label
 _atom_site_symmetry_multiplicity
 _atom_site_fract_x
 _atom_site_fract_y
 _atom_site_fract_z
 _atom_site_occupancy
  Na  Na0  1  0.000000  0.000000  0.500000  1
  Na  Na1  1  0.500000  0.500000  0.500000  1
  La  La2  1  0.000000  0.000000  0.000000  1
  La  La3  1  0.500000  0.500000  0.000000  1
  Mg  Mg4  1  0.000000  0.500000  0.255204  1
  Mg  Mg5  1  0.500000  0.000000  0.744796  1
  W  W6  1  0.000000  0.500000  0.743055  1
  W  W7  1  0.500000  0.000000  0.256945  1
  O  O8  1  0.243454  0.256546  0.770423  1
  O  O9  1  0.256546  0.243454  0.229577  1
  O  O10  1  0.000000  0.500000  0.996460  1
  O  O11  1  0.243454  0.743454  0.770423  1
  O  O12  1  0.000000  0.500000  0.509926  1
  O  O13  1  0.500000  0.000000  0.003540  1
  O  O14  1  0.256546  0.756546  0.229577  1
  O  O15  1  0.756546  0.256546  0.770423  1
  O  O16  1  0.500000  0.000000  0.490074  1
  O  O17  1  0.756546  0.743454  0.770423  1
  O  O18  1  0.743454  0.756546  0.229577  1
  O  O19  1  0.743454  0.243454  0.229577  1
