# generated using pymatgen
data_Pr4Se3(O5F3)2
_symmetry_space_group_name_H-M   'P 1'
_cell_length_a   11.87695907
_cell_length_b   11.87695907
_cell_length_c   8.44072296
_cell_angle_alpha   81.32627817
_cell_angle_beta   98.67372183
_cell_angle_gamma   144.71215080
_symmetry_Int_Tables_number   1
_chemical_formula_structural   Pr4Se3(O5F3)2
_chemical_formula_sum   'Pr8 Se6 O20 F12'
_cell_volume   679.16217851
_cell_formula_units_Z   2
loop_
 _symmetry_equiv_pos_site_id
 _symmetry_equiv_pos_as_xyz
  1  'x, y, z'
loop_
 _atom_site_type_symbol
 _atom_site_label
 _atom_site_symmetry_multiplicity
 _atom_site_fract_x
 _atom_site_fract_y
 _atom_site_fract_z
 _atom_site_occupancy
  Pr  Pr0  1  0.855551  0.280939  0.830399  1
  Pr  Pr1  1  0.543772  0.285517  0.030644  1
  Pr  Pr2  1  0.456228  0.714483  0.969356  1
  Pr  Pr3  1  0.719061  0.144449  0.330399  1
  Pr  Pr4  1  0.285517  0.543772  0.469356  1
  Pr  Pr5  1  0.144449  0.719061  0.169601  1
  Pr  Pr6  1  0.280939  0.855551  0.669601  1
  Pr  Pr7  1  0.714483  0.456228  0.530644  1
  Se  Se8  1  0.984117  0.169893  0.133613  1
  Se  Se9  1  0.389619  0.389619  0.750000  1
  Se  Se10  1  0.169893  0.984117  0.366387  1
  Se  Se11  1  0.830107  0.015883  0.633613  1
  Se  Se12  1  0.015883  0.830107  0.866387  1
  Se  Se13  1  0.610381  0.610381  0.250000  1
  O  O14  1  0.582084  0.459554  0.743627  1
  O  O15  1  0.749054  0.709711  0.419802  1
  O  O16  1  0.039485  0.750097  0.400331  1
  O  O17  1  0.417916  0.540446  0.256373  1
  O  O18  1  0.107451  0.362774  0.991550  1
  O  O19  1  0.892549  0.637226  0.008450  1
  O  O20  1  0.637226  0.892549  0.491550  1
  O  O21  1  0.750097  0.039485  0.099669  1
  O  O22  1  0.250946  0.290289  0.580198  1
  O  O23  1  0.743200  0.975896  0.809150  1
  O  O24  1  0.256800  0.024104  0.190850  1
  O  O25  1  0.362774  0.107451  0.508450  1
  O  O26  1  0.024104  0.256800  0.309150  1
  O  O27  1  0.540446  0.417916  0.243627  1
  O  O28  1  0.709711  0.749054  0.080198  1
  O  O29  1  0.459554  0.582084  0.756373  1
  O  O30  1  0.290289  0.250946  0.919802  1
  O  O31  1  0.960515  0.249903  0.599669  1
  O  O32  1  0.975896  0.743200  0.690850  1
  O  O33  1  0.249903  0.960515  0.900331  1
  F  F34  1  0.518762  0.965040  0.867243  1
  F  F35  1  0.645888  0.288200  0.797979  1
  F  F36  1  0.354112  0.711800  0.202021  1
  F  F37  1  0.643838  0.151744  0.580286  1
  F  F38  1  0.848256  0.356162  0.080286  1
  F  F39  1  0.965040  0.518762  0.632757  1
  F  F40  1  0.711800  0.354112  0.297979  1
  F  F41  1  0.356162  0.848256  0.419714  1
  F  F42  1  0.481238  0.034960  0.132757  1
  F  F43  1  0.034960  0.481238  0.367243  1
  F  F44  1  0.288200  0.645888  0.702021  1
  F  F45  1  0.151744  0.643838  0.919714  1
