# generated using pymatgen
data_V2S2O11
_symmetry_space_group_name_H-M   'P 1'
_cell_length_a   9.67299140
_cell_length_b   9.11630765
_cell_length_c   10.10396564
_cell_angle_alpha   90.00000000
_cell_angle_beta   105.41480251
_cell_angle_gamma   90.00000000
_symmetry_Int_Tables_number   1
_chemical_formula_structural   V2S2O11
_chemical_formula_sum   'V8 S8 O44'
_cell_volume   858.93584550
_cell_formula_units_Z   4
loop_
 _symmetry_equiv_pos_site_id
 _symmetry_equiv_pos_as_xyz
  1  'x, y, z'
loop_
 _atom_site_type_symbol
 _atom_site_label
 _atom_site_symmetry_multiplicity
 _atom_site_fract_x
 _atom_site_fract_y
 _atom_site_fract_z
 _atom_site_occupancy
  V  V0  1  0.357117  0.129417  0.667455  1
  V  V1  1  0.142883  0.629417  0.332545  1
  V  V2  1  0.642883  0.870583  0.332545  1
  V  V3  1  0.857117  0.370583  0.667455  1
  V  V4  1  0.620233  0.873364  0.822830  1
  V  V5  1  0.879767  0.373364  0.177170  1
  V  V6  1  0.379767  0.126636  0.177170  1
  V  V7  1  0.120233  0.626636  0.822830  1
  S  S8  1  0.288650  0.926385  0.896075  1
  S  S9  1  0.211350  0.426385  0.103925  1
  S  S10  1  0.711350  0.073615  0.103925  1
  S  S11  1  0.788650  0.573615  0.896075  1
  S  S12  1  0.427818  0.785426  0.526757  1
  S  S13  1  0.072182  0.285426  0.473243  1
  S  S14  1  0.572182  0.214574  0.473243  1
  S  S15  1  0.927818  0.714574  0.526757  1
  O  O16  1  0.355958  0.926823  0.505279  1
  O  O17  1  0.144042  0.426823  0.494721  1
  O  O18  1  0.644042  0.073177  0.494721  1
  O  O19  1  0.855958  0.573177  0.505279  1
  O  O20  1  0.491393  0.753551  0.676572  1
  O  O21  1  0.008607  0.253551  0.323428  1
  O  O22  1  0.508607  0.246449  0.323428  1
  O  O23  1  0.991393  0.746449  0.676572  1
  O  O24  1  0.547583  0.772183  0.459076  1
  O  O25  1  0.952417  0.272183  0.540924  1
  O  O26  1  0.452417  0.227817  0.540924  1
  O  O27  1  0.047583  0.727817  0.459076  1
  O  O28  1  0.328030  0.659809  0.475477  1
  O  O29  1  0.171970  0.159809  0.524523  1
  O  O30  1  0.426585  0.851797  0.926968  1
  O  O31  1  0.671970  0.340191  0.524523  1
  O  O32  1  0.252292  0.607022  0.757649  1
  O  O33  1  0.247708  0.107022  0.242351  1
  O  O34  1  0.747708  0.392978  0.242351  1
  O  O35  1  0.752292  0.892978  0.757649  1
  O  O36  1  0.855306  0.232630  0.764276  1
  O  O37  1  0.644694  0.732630  0.235724  1
  O  O38  1  0.144694  0.767370  0.235724  1
  O  O39  1  0.355306  0.267370  0.764276  1
  O  O40  1  0.019506  0.462723  0.758721  1
  O  O41  1  0.480494  0.962723  0.241279  1
  O  O42  1  0.980494  0.537277  0.241279  1
  O  O43  1  0.519506  0.037277  0.758721  1
  O  O44  1  0.669988  0.674285  0.907279  1
  O  O45  1  0.830012  0.174285  0.092721  1
  O  O46  1  0.330012  0.325715  0.092721  1
  O  O47  1  0.169988  0.825715  0.907279  1
  O  O48  1  0.785905  0.449168  0.991587  1
  O  O49  1  0.714095  0.949168  0.008413  1
  O  O50  1  0.214095  0.550832  0.008413  1
  O  O51  1  0.285905  0.050832  0.991587  1
  O  O52  1  0.746719  0.511159  0.752292  1
  O  O53  1  0.753281  0.011159  0.247708  1
  O  O54  1  0.253281  0.488841  0.247708  1
  O  O55  1  0.246719  0.988841  0.752292  1
  O  O56  1  0.926585  0.648203  0.926968  1
  O  O57  1  0.573415  0.148203  0.073032  1
  O  O58  1  0.073415  0.351797  0.073032  1
  O  O59  1  0.828030  0.840191  0.475477  1
