# generated using pymatgen
data_Te3Pt2
_symmetry_space_group_name_H-M   'P 1'
_cell_length_a   17.69118081
_cell_length_b   17.69118081
_cell_length_c   17.69118081
_cell_angle_alpha   13.18044714
_cell_angle_beta   13.18044714
_cell_angle_gamma   13.18044714
_symmetry_Int_Tables_number   1
_chemical_formula_structural   Te3Pt2
_chemical_formula_sum   'Te6 Pt4'
_cell_volume   250.41053591
_cell_formula_units_Z   2
loop_
 _symmetry_equiv_pos_site_id
 _symmetry_equiv_pos_as_xyz
  1  'x, y, z'
loop_
 _atom_site_type_symbol
 _atom_site_label
 _atom_site_symmetry_multiplicity
 _atom_site_fract_x
 _atom_site_fract_y
 _atom_site_fract_z
 _atom_site_occupancy
  Te  Te0  1  0.962983  0.962983  0.962983  1
  Te  Te1  1  0.037017  0.037017  0.037017  1
  Te  Te2  1  0.857438  0.857438  0.857438  1
  Te  Te3  1  0.142562  0.142562  0.142562  1
  Te  Te4  1  0.757105  0.757105  0.757105  1
  Te  Te5  1  0.242895  0.242895  0.242895  1
  Pt  Pt6  1  0.652558  0.652558  0.652558  1
  Pt  Pt7  1  0.347442  0.347442  0.347442  1
  Pt  Pt8  1  0.549858  0.549858  0.549858  1
  Pt  Pt9  1  0.450142  0.450142  0.450142  1
