# generated using pymatgen
data_TlF
_symmetry_space_group_name_H-M   'P 1'
_cell_length_a   3.85065830
_cell_length_b   3.85065830
_cell_length_c   6.31615960
_cell_angle_alpha   90.00000000
_cell_angle_beta   90.00000000
_cell_angle_gamma   90.61788316
_symmetry_Int_Tables_number   1
_chemical_formula_structural   TlF
_chemical_formula_sum   'Tl2 F2'
_cell_volume   93.64784878
_cell_formula_units_Z   2
loop_
 _symmetry_equiv_pos_site_id
 _symmetry_equiv_pos_as_xyz
  1  'x, y, z'
loop_
 _atom_site_type_symbol
 _atom_site_label
 _atom_site_symmetry_multiplicity
 _atom_site_fract_x
 _atom_site_fract_y
 _atom_site_fract_z
 _atom_site_occupancy
  Tl  Tl0  1  0.029821  0.470179  0.253525  1
  Tl  Tl1  1  0.529821  0.970179  0.746475  1
  F  F2  1  0.052179  0.447821  0.647444  1
  F  F3  1  0.552179  0.947821  0.352556  1
