# generated using pymatgen
data_Dy(SiNi5)2
_symmetry_space_group_name_H-M   'P 1'
_cell_length_a   8.16281813
_cell_length_b   8.16281813
_cell_length_c   4.66751575
_cell_angle_alpha   90.00000000
_cell_angle_beta   90.00000000
_cell_angle_gamma   90.00000000
_symmetry_Int_Tables_number   1
_chemical_formula_structural   Dy(SiNi5)2
_chemical_formula_sum   'Dy2 Si4 Ni20'
_cell_volume   311.00404162
_cell_formula_units_Z   2
loop_
 _symmetry_equiv_pos_site_id
 _symmetry_equiv_pos_as_xyz
  1  'x, y, z'
loop_
 _atom_site_type_symbol
 _atom_site_label
 _atom_site_symmetry_multiplicity
 _atom_site_fract_x
 _atom_site_fract_y
 _atom_site_fract_z
 _atom_site_occupancy
  Dy  Dy0  1  0.500000  0.000000  0.221159  1
  Dy  Dy1  1  0.000000  0.500000  0.778841  1
  Si  Si2  1  0.250000  0.250000  0.500000  1
  Si  Si3  1  0.750000  0.250000  0.500000  1
  Si  Si4  1  0.250000  0.750000  0.500000  1
  Si  Si5  1  0.750000  0.750000  0.500000  1
  Ni  Ni6  1  0.250000  0.750000  0.000000  1
  Ni  Ni7  1  0.250000  0.250000  0.000000  1
  Ni  Ni8  1  0.750000  0.750000  0.000000  1
  Ni  Ni9  1  0.750000  0.250000  0.000000  1
  Ni  Ni10  1  0.852880  0.000000  0.238558  1
  Ni  Ni11  1  0.500000  0.647120  0.238558  1
  Ni  Ni12  1  0.500000  0.352880  0.238558  1
  Ni  Ni13  1  0.147120  0.000000  0.238558  1
  Ni  Ni14  1  0.647120  0.500000  0.761442  1
  Ni  Ni15  1  0.352880  0.500000  0.761442  1
  Ni  Ni16  1  0.000000  0.852880  0.761442  1
  Ni  Ni17  1  0.000000  0.147120  0.761442  1
  Ni  Ni18  1  0.276411  0.000000  0.728841  1
  Ni  Ni19  1  0.500000  0.223589  0.728841  1
  Ni  Ni20  1  0.500000  0.776411  0.728841  1
  Ni  Ni21  1  0.723589  0.000000  0.728841  1
  Ni  Ni22  1  0.223589  0.500000  0.271159  1
  Ni  Ni23  1  0.776411  0.500000  0.271159  1
  Ni  Ni24  1  0.000000  0.276411  0.271159  1
  Ni  Ni25  1  0.000000  0.723589  0.271159  1
