# generated using pymatgen
data_K3FeO3
_symmetry_space_group_name_H-M   'P 1'
_cell_length_a   6.74441278
_cell_length_b   6.74441278
_cell_length_c   6.61109452
_cell_angle_alpha   84.08230424
_cell_angle_beta   95.91769576
_cell_angle_gamma   64.58549654
_symmetry_Int_Tables_number   1
_chemical_formula_structural   K3FeO3
_chemical_formula_sum   'K6 Fe2 O6'
_cell_volume   266.51212187
_cell_formula_units_Z   2
loop_
 _symmetry_equiv_pos_site_id
 _symmetry_equiv_pos_as_xyz
  1  'x, y, z'
loop_
 _atom_site_type_symbol
 _atom_site_label
 _atom_site_symmetry_multiplicity
 _atom_site_fract_x
 _atom_site_fract_y
 _atom_site_fract_z
 _atom_site_occupancy
  K  K0  1  0.372365  0.627635  0.146150  1
  K  K1  1  0.195981  0.195981  0.000000  1
  K  K2  1  0.804019  0.804019  0.000000  1
  K  K3  1  0.259689  0.259689  0.500000  1
  K  K4  1  0.627635  0.372365  0.853850  1
  K  K5  1  0.740311  0.740311  0.500000  1
  Fe  Fe6  1  0.171692  0.828308  0.644479  1
  Fe  Fe7  1  0.828308  0.171692  0.355521  1
  O  O8  1  0.431997  0.838883  0.763581  1
  O  O9  1  0.099320  0.900680  0.338670  1
  O  O10  1  0.900680  0.099320  0.661330  1
  O  O11  1  0.568003  0.161117  0.236419  1
  O  O12  1  0.838883  0.431997  0.236419  1
  O  O13  1  0.161117  0.568003  0.763581  1
