# generated using pymatgen
data_Sr5Cr3ClO12
_symmetry_space_group_name_H-M   'P 1'
_cell_length_a   10.30686743
_cell_length_b   10.30686743
_cell_length_c   7.37518247
_cell_angle_alpha   90.00000000
_cell_angle_beta   90.00000000
_cell_angle_gamma   120.00000000
_symmetry_Int_Tables_number   1
_chemical_formula_structural   Sr5Cr3ClO12
_chemical_formula_sum   'Sr10 Cr6 Cl2 O24'
_cell_volume   678.51082653
_cell_formula_units_Z   2
loop_
 _symmetry_equiv_pos_site_id
 _symmetry_equiv_pos_as_xyz
  1  'x, y, z'
loop_
 _atom_site_type_symbol
 _atom_site_label
 _atom_site_symmetry_multiplicity
 _atom_site_fract_x
 _atom_site_fract_y
 _atom_site_fract_z
 _atom_site_occupancy
  Sr  Sr0  1  0.001082  0.747584  0.750000  1
  Sr  Sr1  1  0.333333  0.666667  0.501228  1
  Sr  Sr2  1  0.747584  0.746502  0.250000  1
  Sr  Sr3  1  0.666667  0.333333  0.498772  1
  Sr  Sr4  1  0.253498  0.001082  0.250000  1
  Sr  Sr5  1  0.252416  0.253498  0.750000  1
  Sr  Sr6  1  0.998918  0.252416  0.250000  1
  Sr  Sr7  1  0.666667  0.333333  0.001228  1
  Sr  Sr8  1  0.746502  0.998918  0.750000  1
  Sr  Sr9  1  0.333333  0.666667  0.998772  1
  Cr  Cr10  1  0.031718  0.405852  0.750000  1
  Cr  Cr11  1  0.374134  0.968282  0.750000  1
  Cr  Cr12  1  0.594148  0.625866  0.750000  1
  Cr  Cr13  1  0.968282  0.594148  0.250000  1
  Cr  Cr14  1  0.625866  0.031718  0.250000  1
  Cr  Cr15  1  0.405852  0.374134  0.250000  1
  Cl  Cl16  1  0.000000  0.000000  0.500000  1
  Cl  Cl17  1  0.000000  0.000000  0.000000  1
  O  O18  1  0.161375  0.680231  0.250000  1
  O  O19  1  0.739565  0.096623  0.441817  1
  O  O20  1  0.096623  0.357058  0.558183  1
  O  O21  1  0.260435  0.903377  0.941817  1
  O  O22  1  0.131016  0.600318  0.750000  1
  O  O23  1  0.260435  0.903377  0.558183  1
  O  O24  1  0.518856  0.838625  0.250000  1
  O  O25  1  0.481144  0.161375  0.750000  1
  O  O26  1  0.642942  0.739565  0.558183  1
  O  O27  1  0.399682  0.530698  0.750000  1
  O  O28  1  0.319769  0.481144  0.250000  1
  O  O29  1  0.357058  0.260435  0.441817  1
  O  O30  1  0.903377  0.642942  0.058183  1
  O  O31  1  0.838625  0.319769  0.750000  1
  O  O32  1  0.868984  0.399682  0.250000  1
  O  O33  1  0.096623  0.357058  0.941817  1
  O  O34  1  0.903377  0.642942  0.441817  1
  O  O35  1  0.600318  0.469302  0.250000  1
  O  O36  1  0.357058  0.260435  0.058183  1
  O  O37  1  0.680231  0.518856  0.750000  1
  O  O38  1  0.642942  0.739565  0.941817  1
  O  O39  1  0.739565  0.096623  0.058183  1
  O  O40  1  0.469302  0.868984  0.750000  1
  O  O41  1  0.530698  0.131016  0.250000  1
