# generated using pymatgen
data_Hg2MoO4
_symmetry_space_group_name_H-M   'P 1'
_cell_length_a   5.28948513
_cell_length_b   9.43828829
_cell_length_c   11.19714553
_cell_angle_alpha   90.00000000
_cell_angle_beta   99.28829720
_cell_angle_gamma   90.00000000
_symmetry_Int_Tables_number   1
_chemical_formula_structural   Hg2MoO4
_chemical_formula_sum   'Hg8 Mo4 O16'
_cell_volume   551.67352229
_cell_formula_units_Z   4
loop_
 _symmetry_equiv_pos_site_id
 _symmetry_equiv_pos_as_xyz
  1  'x, y, z'
loop_
 _atom_site_type_symbol
 _atom_site_label
 _atom_site_symmetry_multiplicity
 _atom_site_fract_x
 _atom_site_fract_y
 _atom_site_fract_z
 _atom_site_occupancy
  Hg  Hg0  1  0.335303  0.871899  0.063538  1
  Hg  Hg1  1  0.664697  0.371899  0.436462  1
  Hg  Hg2  1  0.664697  0.128101  0.936462  1
  Hg  Hg3  1  0.335303  0.628101  0.563538  1
  Hg  Hg4  1  0.550855  0.793586  0.423534  1
  Hg  Hg5  1  0.449145  0.293586  0.076466  1
  Hg  Hg6  1  0.449145  0.206414  0.576466  1
  Hg  Hg7  1  0.550855  0.706414  0.923534  1
  Mo  Mo8  1  0.968558  0.037367  0.283410  1
  Mo  Mo9  1  0.031442  0.537367  0.216590  1
  Mo  Mo10  1  0.031442  0.962633  0.716590  1
  Mo  Mo11  1  0.968558  0.462633  0.783410  1
  O  O12  1  0.711162  0.906833  0.283521  1
  O  O13  1  0.288838  0.406833  0.216479  1
  O  O14  1  0.288838  0.093167  0.716479  1
  O  O15  1  0.711162  0.593167  0.783521  1
  O  O16  1  0.787698  0.513522  0.089852  1
  O  O17  1  0.212302  0.013522  0.410148  1
  O  O18  1  0.212302  0.486478  0.910148  1
  O  O19  1  0.787698  0.986478  0.589852  1
  O  O20  1  0.835960  0.209681  0.289423  1
  O  O21  1  0.164040  0.709681  0.210577  1
  O  O22  1  0.164040  0.790319  0.710577  1
  O  O23  1  0.835960  0.290319  0.789423  1
  O  O24  1  0.898824  0.971593  0.857667  1
  O  O25  1  0.101176  0.471593  0.642333  1
  O  O26  1  0.101176  0.028407  0.142333  1
  O  O27  1  0.898824  0.528407  0.357667  1
