# generated using pymatgen
data_Ba(Mo3S4)2
_symmetry_space_group_name_H-M   'P 1'
_cell_length_a   6.65851547
_cell_length_b   6.73156351
_cell_length_c   6.79470460
_cell_angle_alpha   89.11259404
_cell_angle_beta   89.24878395
_cell_angle_gamma   87.91486738
_symmetry_Int_Tables_number   1
_chemical_formula_structural   Ba(Mo3S4)2
_chemical_formula_sum   'Ba1 Mo6 S8'
_cell_volume   304.29159148
_cell_formula_units_Z   1
loop_
 _symmetry_equiv_pos_site_id
 _symmetry_equiv_pos_as_xyz
  1  'x, y, z'
loop_
 _atom_site_type_symbol
 _atom_site_label
 _atom_site_symmetry_multiplicity
 _atom_site_fract_x
 _atom_site_fract_y
 _atom_site_fract_z
 _atom_site_occupancy
  Ba  Ba0  1  0.000000  0.000000  0.000000  1
  Mo  Mo1  1  0.567425  0.416517  0.233250  1
  Mo  Mo2  1  0.432575  0.583483  0.766750  1
  Mo  Mo3  1  0.418016  0.233525  0.563887  1
  Mo  Mo4  1  0.581984  0.766475  0.436113  1
  Mo  Mo5  1  0.241776  0.563699  0.419526  1
  Mo  Mo6  1  0.758224  0.436301  0.580474  1
  S  S7  1  0.260991  0.245740  0.252180  1
  S  S8  1  0.739009  0.754260  0.747820  1
  S  S9  1  0.392040  0.730210  0.125827  1
  S  S10  1  0.607960  0.269790  0.874173  1
  S  S11  1  0.733580  0.123171  0.386711  1
  S  S12  1  0.266420  0.876829  0.613289  1
  S  S13  1  0.125682  0.391617  0.733124  1
  S  S14  1  0.874318  0.608383  0.266876  1
