# generated using pymatgen
data_NaLi2PO4
_symmetry_space_group_name_H-M   'P 1'
_cell_length_a   4.99234151
_cell_length_b   6.94566931
_cell_length_c   10.12336771
_cell_angle_alpha   90.00000000
_cell_angle_beta   90.00000000
_cell_angle_gamma   90.00000000
_symmetry_Int_Tables_number   1
_chemical_formula_structural   NaLi2PO4
_chemical_formula_sum   'Na4 Li8 P4 O16'
_cell_volume   351.02932636
_cell_formula_units_Z   4
loop_
 _symmetry_equiv_pos_site_id
 _symmetry_equiv_pos_as_xyz
  1  'x, y, z'
loop_
 _atom_site_type_symbol
 _atom_site_label
 _atom_site_symmetry_multiplicity
 _atom_site_fract_x
 _atom_site_fract_y
 _atom_site_fract_z
 _atom_site_occupancy
  Na  Na0  1  0.236235  0.750000  0.112650  1
  Na  Na1  1  0.263765  0.750000  0.612650  1
  Na  Na2  1  0.763765  0.250000  0.887350  1
  Na  Na3  1  0.736235  0.250000  0.387350  1
  Li  Li4  1  0.791401  0.500523  0.654619  1
  Li  Li5  1  0.291401  0.000523  0.845381  1
  Li  Li6  1  0.708599  0.999477  0.154619  1
  Li  Li7  1  0.208599  0.499477  0.345381  1
  Li  Li8  1  0.708599  0.500523  0.154619  1
  Li  Li9  1  0.208599  0.000523  0.345381  1
  Li  Li10  1  0.791401  0.999477  0.654619  1
  Li  Li11  1  0.291401  0.499477  0.845381  1
  P  P12  1  0.297887  0.250000  0.597815  1
  P  P13  1  0.202113  0.250000  0.097815  1
  P  P14  1  0.702113  0.750000  0.402185  1
  P  P15  1  0.797887  0.750000  0.902185  1
  O  O16  1  0.758098  0.750000  0.554283  1
  O  O17  1  0.323692  0.433613  0.162079  1
  O  O18  1  0.676308  0.933613  0.837921  1
  O  O19  1  0.323692  0.066387  0.162079  1
  O  O20  1  0.608343  0.250000  0.619189  1
  O  O21  1  0.391657  0.750000  0.380811  1
  O  O22  1  0.741902  0.750000  0.054283  1
  O  O23  1  0.176308  0.433613  0.662079  1
  O  O24  1  0.823692  0.566387  0.337921  1
  O  O25  1  0.676308  0.566387  0.837921  1
  O  O26  1  0.891657  0.250000  0.119189  1
  O  O27  1  0.108343  0.750000  0.880811  1
  O  O28  1  0.258098  0.250000  0.945717  1
  O  O29  1  0.241902  0.250000  0.445717  1
  O  O30  1  0.176308  0.066387  0.662079  1
  O  O31  1  0.823692  0.933613  0.337921  1
