# generated using pymatgen
data_TeMo5O16
_symmetry_space_group_name_H-M   'P 1'
_cell_length_a   8.20220399
_cell_length_b   14.83156905
_cell_length_c   10.28018900
_cell_angle_alpha   90.00000000
_cell_angle_beta   90.74434221
_cell_angle_gamma   90.00000000
_symmetry_Int_Tables_number   1
_chemical_formula_structural   TeMo5O16
_chemical_formula_sum   'Te4 Mo20 O64'
_cell_volume   1250.49544387
_cell_formula_units_Z   4
loop_
 _symmetry_equiv_pos_site_id
 _symmetry_equiv_pos_as_xyz
  1  'x, y, z'
loop_
 _atom_site_type_symbol
 _atom_site_label
 _atom_site_symmetry_multiplicity
 _atom_site_fract_x
 _atom_site_fract_y
 _atom_site_fract_z
 _atom_site_occupancy
  Te  Te0  1  0.285425  0.836824  0.978386  1
  Te  Te1  1  0.785425  0.663176  0.978386  1
  Te  Te2  1  0.214575  0.336824  0.021614  1
  Te  Te3  1  0.714575  0.163176  0.021614  1
  Mo  Mo4  1  0.206997  0.999222  0.314820  1
  Mo  Mo5  1  0.706997  0.500778  0.314820  1
  Mo  Mo6  1  0.274634  0.252212  0.334583  1
  Mo  Mo7  1  0.225366  0.752212  0.665417  1
  Mo  Mo8  1  0.198580  0.254127  0.692522  1
  Mo  Mo9  1  0.801420  0.745873  0.307478  1
  Mo  Mo10  1  0.793003  0.000778  0.685180  1
  Mo  Mo11  1  0.294822  0.001801  0.670269  1
  Mo  Mo12  1  0.725366  0.747788  0.665417  1
  Mo  Mo13  1  0.293003  0.499222  0.685180  1
  Mo  Mo14  1  0.774634  0.247788  0.334583  1
  Mo  Mo15  1  0.755595  0.889093  0.001013  1
  Mo  Mo16  1  0.698580  0.245873  0.692522  1
  Mo  Mo17  1  0.255595  0.610907  0.001013  1
  Mo  Mo18  1  0.794822  0.498199  0.670269  1
  Mo  Mo19  1  0.205178  0.501801  0.329731  1
  Mo  Mo20  1  0.301420  0.754127  0.307478  1
  Mo  Mo21  1  0.744405  0.389093  0.998987  1
  Mo  Mo22  1  0.244405  0.110907  0.998987  1
  Mo  Mo23  1  0.705178  0.998199  0.329731  1
  O  O24  1  0.513511  0.746970  0.311738  1
  O  O25  1  0.234655  0.232696  0.887959  1
  O  O26  1  0.533069  0.391314  0.991931  1
  O  O27  1  0.734655  0.267304  0.887959  1
  O  O28  1  0.260182  0.877416  0.252651  1
  O  O29  1  0.255650  0.630607  0.643774  1
  O  O30  1  0.738214  0.215029  0.503402  1
  O  O31  1  0.466931  0.608686  0.008069  1
  O  O32  1  0.012886  0.754804  0.672767  1
  O  O33  1  0.993551  0.499615  0.346109  1
  O  O34  1  0.739818  0.122584  0.747349  1
  O  O35  1  0.270532  0.727894  0.868015  1
  O  O36  1  0.770532  0.772106  0.868015  1
  O  O37  1  0.755650  0.869393  0.643774  1
  O  O38  1  0.509944  0.845402  0.988882  1
  O  O39  1  0.779263  0.464407  0.137424  1
  O  O40  1  0.252921  0.123712  0.652717  1
  O  O41  1  0.744350  0.369393  0.356226  1
  O  O42  1  0.496214  0.499594  0.295624  1
  O  O43  1  0.230756  0.375837  0.256988  1
  O  O44  1  0.293002  0.032868  0.867078  1
  O  O45  1  0.238214  0.284971  0.503402  1
  O  O46  1  0.506449  0.999615  0.653891  1
  O  O47  1  0.761786  0.715029  0.496598  1
  O  O48  1  0.966931  0.891314  0.008069  1
  O  O49  1  0.003786  0.999594  0.704376  1
  O  O50  1  0.769244  0.624163  0.743012  1
  O  O51  1  0.239818  0.377416  0.747349  1
  O  O52  1  0.265345  0.732696  0.112041  1
  O  O53  1  0.033069  0.108686  0.991931  1
  O  O54  1  0.273857  0.469936  0.494526  1
  O  O55  1  0.729468  0.272106  0.131985  1
  O  O56  1  0.503786  0.500406  0.704376  1
  O  O57  1  0.226143  0.969936  0.505474  1
  O  O58  1  0.752921  0.376288  0.652717  1
  O  O59  1  0.730756  0.124163  0.256988  1
  O  O60  1  0.279263  0.035593  0.137424  1
  O  O61  1  0.006449  0.500385  0.653891  1
  O  O62  1  0.206998  0.532868  0.132922  1
  O  O63  1  0.247079  0.623712  0.347283  1
  O  O64  1  0.760182  0.622584  0.252651  1
  O  O65  1  0.773857  0.030064  0.494526  1
  O  O66  1  0.765345  0.767304  0.112041  1
  O  O67  1  0.013511  0.753030  0.311738  1
  O  O68  1  0.996214  0.000406  0.295624  1
  O  O69  1  0.987114  0.245196  0.327233  1
  O  O70  1  0.986489  0.246970  0.688262  1
  O  O71  1  0.269244  0.875837  0.743012  1
  O  O72  1  0.229468  0.227894  0.131985  1
  O  O73  1  0.486489  0.253030  0.688262  1
  O  O74  1  0.747079  0.876288  0.347283  1
  O  O75  1  0.793002  0.467132  0.867078  1
  O  O76  1  0.009944  0.654598  0.988882  1
  O  O77  1  0.490056  0.154598  0.011118  1
  O  O78  1  0.512886  0.745196  0.672767  1
  O  O79  1  0.487114  0.254804  0.327233  1
  O  O80  1  0.990056  0.345402  0.011118  1
  O  O81  1  0.720737  0.964407  0.862576  1
  O  O82  1  0.261786  0.784971  0.496598  1
  O  O83  1  0.244350  0.130607  0.356226  1
  O  O84  1  0.726143  0.530064  0.505474  1
  O  O85  1  0.706998  0.967132  0.132922  1
  O  O86  1  0.493551  0.000385  0.346109  1
  O  O87  1  0.220737  0.535593  0.862576  1
