# generated using pymatgen
data_Ca2Th(Si2O5)4
_symmetry_space_group_name_H-M   'P 1'
_cell_length_a   9.26560183
_cell_length_b   9.26560183
_cell_length_c   9.26560183
_cell_angle_alpha   131.94506449
_cell_angle_beta   131.94506449
_cell_angle_gamma   70.31580539
_symmetry_Int_Tables_number   1
_chemical_formula_structural   Ca2Th(Si2O5)4
_chemical_formula_sum   'Ca2 Th1 Si8 O20'
_cell_volume   431.28677354
_cell_formula_units_Z   1
loop_
 _symmetry_equiv_pos_site_id
 _symmetry_equiv_pos_as_xyz
  1  'x, y, z'
loop_
 _atom_site_type_symbol
 _atom_site_label
 _atom_site_symmetry_multiplicity
 _atom_site_fract_x
 _atom_site_fract_y
 _atom_site_fract_z
 _atom_site_occupancy
  Ca  Ca0  1  0.000000  0.500000  0.500000  1
  Ca  Ca1  1  0.500000  0.000000  0.500000  1
  Th  Th2  1  0.000000  0.000000  0.000000  1
  Si  Si3  1  0.815818  0.400210  0.921552  1
  Si  Si4  1  0.478659  0.894266  0.078448  1
  Si  Si5  1  0.400210  0.478659  0.584393  1
  Si  Si6  1  0.184182  0.105734  0.584393  1
  Si  Si7  1  0.599790  0.184182  0.078448  1
  Si  Si8  1  0.105734  0.521341  0.921552  1
  Si  Si9  1  0.521341  0.599790  0.415607  1
  Si  Si10  1  0.894266  0.815818  0.415607  1
  O  O11  1  0.025958  0.663852  0.850886  1
  O  O12  1  0.955967  0.455967  0.911934  1
  O  O13  1  0.974042  0.824928  0.637894  1
  O  O14  1  0.663852  0.812966  0.637894  1
  O  O15  1  0.578860  0.379648  0.706142  1
  O  O16  1  0.336148  0.974042  0.149114  1
  O  O17  1  0.127281  0.326493  0.706142  1
  O  O18  1  0.326493  0.620352  0.199212  1
  O  O19  1  0.812966  0.175072  0.149114  1
  O  O20  1  0.824928  0.187034  0.850886  1
  O  O21  1  0.421140  0.127281  0.800788  1
  O  O22  1  0.544033  0.044033  0.088066  1
  O  O23  1  0.187034  0.336148  0.362106  1
  O  O24  1  0.455967  0.544033  0.500000  1
  O  O25  1  0.175072  0.025958  0.362106  1
  O  O26  1  0.044033  0.955967  0.500000  1
  O  O27  1  0.673507  0.872719  0.293858  1
  O  O28  1  0.620352  0.421140  0.293858  1
  O  O29  1  0.872719  0.578860  0.199212  1
  O  O30  1  0.379648  0.673507  0.800788  1
