# generated using pymatgen
data_Ni(WO4)2
_symmetry_space_group_name_H-M   'P 1'
_cell_length_a   5.20278333
_cell_length_b   5.68698773
_cell_length_c   5.89586537
_cell_angle_alpha   108.44607618
_cell_angle_beta   90.68343029
_cell_angle_gamma   117.12191253
_symmetry_Int_Tables_number   1
_chemical_formula_structural   Ni(WO4)2
_chemical_formula_sum   'Ni1 W2 O8'
_cell_volume   144.74636403
_cell_formula_units_Z   1
loop_
 _symmetry_equiv_pos_site_id
 _symmetry_equiv_pos_as_xyz
  1  'x, y, z'
loop_
 _atom_site_type_symbol
 _atom_site_label
 _atom_site_symmetry_multiplicity
 _atom_site_fract_x
 _atom_site_fract_y
 _atom_site_fract_z
 _atom_site_occupancy
  Ni  Ni0  1  0.500000  0.000000  0.000000  1
  W  W1  1  0.251993  0.516403  0.346239  1
  W  W2  1  0.748007  0.483597  0.653761  1
  O  O3  1  0.822034  0.294032  0.322627  1
  O  O4  1  0.703712  0.762423  0.893980  1
  O  O5  1  0.674240  0.739883  0.493499  1
  O  O6  1  0.277109  0.738227  0.180050  1
  O  O7  1  0.177966  0.705968  0.677373  1
  O  O8  1  0.325760  0.260117  0.506501  1
  O  O9  1  0.722891  0.261773  0.819950  1
  O  O10  1  0.296288  0.237577  0.106020  1
