# generated using pymatgen
data_Gd2SiO5
_symmetry_space_group_name_H-M   'P 1'
_cell_length_a   6.78337725
_cell_length_b   7.11197400
_cell_length_c   9.22453362
_cell_angle_alpha   90.00000000
_cell_angle_beta   107.51220735
_cell_angle_gamma   90.00000000
_symmetry_Int_Tables_number   1
_chemical_formula_structural   Gd2SiO5
_chemical_formula_sum   'Gd8 Si4 O20'
_cell_volume   424.39559264
_cell_formula_units_Z   4
loop_
 _symmetry_equiv_pos_site_id
 _symmetry_equiv_pos_as_xyz
  1  'x, y, z'
loop_
 _atom_site_type_symbol
 _atom_site_label
 _atom_site_symmetry_multiplicity
 _atom_site_fract_x
 _atom_site_fract_y
 _atom_site_fract_z
 _atom_site_occupancy
  Gd  Gd0  1  0.416163  0.852361  0.114529  1
  Gd  Gd1  1  0.083837  0.352361  0.885471  1
  Gd  Gd2  1  0.583837  0.147639  0.885471  1
  Gd  Gd3  1  0.916163  0.647639  0.114529  1
  Gd  Gd4  1  0.233858  0.376042  0.526173  1
  Gd  Gd5  1  0.266142  0.876042  0.473827  1
  Gd  Gd6  1  0.766142  0.623958  0.473827  1
  Gd  Gd7  1  0.733858  0.123958  0.526173  1
  Si  Si8  1  0.459478  0.412560  0.202244  1
  Si  Si9  1  0.040522  0.912560  0.797756  1
  Si  Si10  1  0.540522  0.587440  0.797756  1
  Si  Si11  1  0.959478  0.087440  0.202244  1
  O  O12  1  0.643405  0.569249  0.205448  1
  O  O13  1  0.856595  0.069249  0.794552  1
  O  O14  1  0.356595  0.430751  0.794552  1
  O  O15  1  0.143405  0.930751  0.205448  1
  O  O16  1  0.252302  0.542585  0.135125  1
  O  O17  1  0.247698  0.042585  0.864875  1
  O  O18  1  0.747698  0.457415  0.864875  1
  O  O19  1  0.752302  0.957415  0.135125  1
  O  O20  1  0.508229  0.361093  0.384897  1
  O  O21  1  0.991771  0.861093  0.615103  1
  O  O22  1  0.491771  0.638907  0.615103  1
  O  O23  1  0.008229  0.138907  0.384897  1
  O  O24  1  0.445958  0.232314  0.093562  1
  O  O25  1  0.054042  0.732314  0.906438  1
  O  O26  1  0.554042  0.767686  0.906438  1
  O  O27  1  0.945958  0.267686  0.093562  1
  O  O28  1  0.052210  0.620715  0.384145  1
  O  O29  1  0.447790  0.120715  0.615855  1
  O  O30  1  0.947790  0.379285  0.615855  1
  O  O31  1  0.552210  0.879285  0.384145  1
