# generated using pymatgen
data_K3Sb5O14
_symmetry_space_group_name_H-M   'P 1'
_cell_length_a   7.27795950
_cell_length_b   7.46143325
_cell_length_c   24.68966822
_cell_angle_alpha   90.00000000
_cell_angle_beta   90.00000000
_cell_angle_gamma   90.00000000
_symmetry_Int_Tables_number   1
_chemical_formula_structural   K3Sb5O14
_chemical_formula_sum   'K12 Sb20 O56'
_cell_volume   1340.74796536
_cell_formula_units_Z   4
loop_
 _symmetry_equiv_pos_site_id
 _symmetry_equiv_pos_as_xyz
  1  'x, y, z'
loop_
 _atom_site_type_symbol
 _atom_site_label
 _atom_site_symmetry_multiplicity
 _atom_site_fract_x
 _atom_site_fract_y
 _atom_site_fract_z
 _atom_site_occupancy
  K  K0  1  0.103504  0.010745  0.383159  1
  K  K1  1  0.722831  0.969804  0.484823  1
  K  K2  1  0.616032  0.496137  0.205807  1
  K  K3  1  0.396496  0.010745  0.883159  1
  K  K4  1  0.883968  0.496137  0.705807  1
  K  K5  1  0.896496  0.010745  0.616841  1
  K  K6  1  0.603504  0.010745  0.116841  1
  K  K7  1  0.222831  0.969804  0.015177  1
  K  K8  1  0.777169  0.969804  0.984823  1
  K  K9  1  0.277169  0.969804  0.515177  1
  K  K10  1  0.383968  0.496137  0.794193  1
  K  K11  1  0.116032  0.496137  0.294193  1
  Sb  Sb12  1  0.175161  0.986607  0.756138  1
  Sb  Sb13  1  0.582553  0.487335  0.942947  1
  Sb  Sb14  1  0.824839  0.986607  0.243862  1
  Sb  Sb15  1  0.390379  0.752008  0.645166  1
  Sb  Sb16  1  0.082553  0.487335  0.557053  1
  Sb  Sb17  1  0.609621  0.752008  0.354834  1
  Sb  Sb18  1  0.675161  0.986607  0.743862  1
  Sb  Sb19  1  0.109621  0.752008  0.145166  1
  Sb  Sb20  1  0.890379  0.752008  0.854834  1
  Sb  Sb21  1  0.109003  0.223140  0.145436  1
  Sb  Sb22  1  0.405895  0.486635  0.437722  1
  Sb  Sb23  1  0.890997  0.223140  0.854564  1
  Sb  Sb24  1  0.917447  0.487335  0.442947  1
  Sb  Sb25  1  0.390997  0.223140  0.645436  1
  Sb  Sb26  1  0.417447  0.487335  0.057053  1
  Sb  Sb27  1  0.905895  0.486635  0.062278  1
  Sb  Sb28  1  0.324839  0.986607  0.256138  1
  Sb  Sb29  1  0.094105  0.486635  0.937722  1
  Sb  Sb30  1  0.594105  0.486635  0.562278  1
  Sb  Sb31  1  0.609003  0.223140  0.354564  1
  O  O32  1  0.660771  0.484786  0.094008  1
  O  O33  1  0.739007  0.211891  0.788461  1
  O  O34  1  0.622367  0.172012  0.685365  1
  O  O35  1  0.239007  0.211891  0.711539  1
  O  O36  1  0.839229  0.484786  0.594008  1
  O  O37  1  0.953216  0.230614  0.074112  1
  O  O38  1  0.435071  0.984857  0.781538  1
  O  O39  1  0.837913  0.687135  0.397248  1
  O  O40  1  0.453216  0.230614  0.425888  1
  O  O41  1  0.660406  0.487279  0.482373  1
  O  O42  1  0.160900  0.292179  0.604605  1
  O  O43  1  0.761703  0.760754  0.288710  1
  O  O44  1  0.027248  0.487683  0.142578  1
  O  O45  1  0.935071  0.984857  0.718462  1
  O  O46  1  0.377633  0.172012  0.314635  1
  O  O47  1  0.238297  0.760754  0.711290  1
  O  O48  1  0.839100  0.292179  0.395395  1
  O  O49  1  0.046784  0.230614  0.925888  1
  O  O50  1  0.339100  0.292179  0.104605  1
  O  O51  1  0.047463  0.743313  0.926313  1
  O  O52  1  0.160771  0.484786  0.405992  1
  O  O53  1  0.472752  0.487683  0.642578  1
  O  O54  1  0.682115  0.987824  0.380677  1
  O  O55  1  0.546784  0.230614  0.574112  1
  O  O56  1  0.839594  0.487279  0.982373  1
  O  O57  1  0.527248  0.487683  0.357422  1
  O  O58  1  0.260993  0.211891  0.211539  1
  O  O59  1  0.339229  0.484786  0.905992  1
  O  O60  1  0.621629  0.802594  0.685185  1
  O  O61  1  0.122367  0.172012  0.814635  1
  O  O62  1  0.121629  0.802594  0.814815  1
  O  O63  1  0.452537  0.743313  0.426313  1
  O  O64  1  0.000000  0.308165  0.500000  1
  O  O65  1  0.878371  0.802594  0.185185  1
  O  O66  1  0.160406  0.487279  0.017627  1
  O  O67  1  0.500000  0.666381  0.000000  1
  O  O68  1  0.564929  0.984857  0.218462  1
  O  O69  1  0.162087  0.687135  0.602752  1
  O  O70  1  0.972752  0.487683  0.857422  1
  O  O71  1  0.378371  0.802594  0.314815  1
  O  O72  1  0.660900  0.292179  0.895395  1
  O  O73  1  0.547463  0.743313  0.573687  1
  O  O74  1  0.182115  0.987824  0.119323  1
  O  O75  1  0.000000  0.666381  0.500000  1
  O  O76  1  0.877633  0.172012  0.185365  1
  O  O77  1  0.500000  0.308165  0.000000  1
  O  O78  1  0.738297  0.760754  0.788710  1
  O  O79  1  0.952537  0.743313  0.073687  1
  O  O80  1  0.339594  0.487279  0.517627  1
  O  O81  1  0.064929  0.984857  0.281538  1
  O  O82  1  0.317885  0.987824  0.619323  1
  O  O83  1  0.662087  0.687135  0.897248  1
  O  O84  1  0.760993  0.211891  0.288461  1
  O  O85  1  0.337913  0.687135  0.102752  1
  O  O86  1  0.261703  0.760754  0.211290  1
  O  O87  1  0.817885  0.987824  0.880677  1
