# generated using pymatgen
data_VF5
_symmetry_space_group_name_H-M   'P 1'
_cell_length_a   5.52590790
_cell_length_b   7.74854637
_cell_length_c   17.40411833
_cell_angle_alpha   90.00000000
_cell_angle_beta   90.00000000
_cell_angle_gamma   90.00000000
_symmetry_Int_Tables_number   1
_chemical_formula_structural   VF5
_chemical_formula_sum   'V8 F40'
_cell_volume   745.20525027
_cell_formula_units_Z   8
loop_
 _symmetry_equiv_pos_site_id
 _symmetry_equiv_pos_as_xyz
  1  'x, y, z'
loop_
 _atom_site_type_symbol
 _atom_site_label
 _atom_site_symmetry_multiplicity
 _atom_site_fract_x
 _atom_site_fract_y
 _atom_site_fract_z
 _atom_site_occupancy
  V  V0  1  0.750000  0.953469  0.640808  1
  V  V1  1  0.250000  0.046531  0.359192  1
  V  V2  1  0.750000  0.453469  0.859192  1
  V  V3  1  0.250000  0.546531  0.140808  1
  V  V4  1  0.250000  0.608984  0.618913  1
  V  V5  1  0.750000  0.391016  0.381087  1
  V  V6  1  0.250000  0.108984  0.881087  1
  V  V7  1  0.750000  0.891016  0.118913  1
  F  F8  1  0.482562  0.898358  0.373517  1
  F  F9  1  0.982562  0.101642  0.626483  1
  F  F10  1  0.017438  0.398358  0.126483  1
  F  F11  1  0.517438  0.601642  0.873517  1
  F  F12  1  0.517438  0.101642  0.626483  1
  F  F13  1  0.017438  0.898358  0.373517  1
  F  F14  1  0.982562  0.601642  0.873517  1
  F  F15  1  0.482562  0.398358  0.126483  1
  F  F16  1  0.750000  0.751324  0.038521  1
  F  F17  1  0.250000  0.248676  0.961479  1
  F  F18  1  0.750000  0.251324  0.461479  1
  F  F19  1  0.250000  0.748676  0.538521  1
  F  F20  1  0.750000  0.968310  0.214228  1
  F  F21  1  0.250000  0.031690  0.785772  1
  F  F22  1  0.750000  0.468310  0.285772  1
  F  F23  1  0.250000  0.531690  0.714228  1
  F  F24  1  0.517425  0.024041  0.086134  1
  F  F25  1  0.017425  0.975959  0.913866  1
  F  F26  1  0.982575  0.524041  0.413866  1
  F  F27  1  0.482575  0.475959  0.586134  1
  F  F28  1  0.482575  0.975959  0.913866  1
  F  F29  1  0.982575  0.024041  0.086134  1
  F  F30  1  0.017425  0.475959  0.586134  1
  F  F31  1  0.517425  0.524041  0.413866  1
  F  F32  1  0.500342  0.728911  0.159819  1
  F  F33  1  0.000342  0.271089  0.840181  1
  F  F34  1  0.999658  0.228911  0.340181  1
  F  F35  1  0.499658  0.771089  0.659819  1
  F  F36  1  0.499658  0.271089  0.840181  1
  F  F37  1  0.999658  0.728911  0.159819  1
  F  F38  1  0.000342  0.771089  0.659819  1
  F  F39  1  0.500342  0.228911  0.340181  1
  F  F40  1  0.250000  0.630370  0.046376  1
  F  F41  1  0.750000  0.369630  0.953624  1
  F  F42  1  0.250000  0.130370  0.453624  1
  F  F43  1  0.750000  0.869630  0.546376  1
  F  F44  1  0.250000  0.535861  0.242080  1
  F  F45  1  0.750000  0.464139  0.757920  1
  F  F46  1  0.250000  0.035861  0.257920  1
  F  F47  1  0.750000  0.964139  0.742080  1
