# generated using pymatgen
data_Pr6O11
_symmetry_space_group_name_H-M   'P 1'
_cell_length_a   6.96751743
_cell_length_b   12.15731022
_cell_length_c   13.41808979
_cell_angle_alpha   90.00000000
_cell_angle_beta   100.36503949
_cell_angle_gamma   90.00000000
_symmetry_Int_Tables_number   1
_chemical_formula_structural   Pr6O11
_chemical_formula_sum   'Pr24 O44'
_cell_volume   1118.04872831
_cell_formula_units_Z   4
loop_
 _symmetry_equiv_pos_site_id
 _symmetry_equiv_pos_as_xyz
  1  'x, y, z'
loop_
 _atom_site_type_symbol
 _atom_site_label
 _atom_site_symmetry_multiplicity
 _atom_site_fract_x
 _atom_site_fract_y
 _atom_site_fract_z
 _atom_site_occupancy
  Pr  Pr0  1  0.359447  0.665822  0.622611  1
  Pr  Pr1  1  0.872562  0.350256  0.124923  1
  Pr  Pr2  1  0.640553  0.165822  0.877389  1
  Pr  Pr3  1  0.585025  0.670350  0.376372  1
  Pr  Pr4  1  0.359447  0.834178  0.122611  1
  Pr  Pr5  1  0.127438  0.850256  0.375077  1
  Pr  Pr6  1  0.872562  0.149744  0.624923  1
  Pr  Pr7  1  0.640553  0.334178  0.377389  1
  Pr  Pr8  1  0.622550  0.000213  0.369624  1
  Pr  Pr9  1  0.622550  0.499787  0.869624  1
  Pr  Pr10  1  0.864072  0.985813  0.116327  1
  Pr  Pr11  1  0.377450  0.500213  0.130376  1
  Pr  Pr12  1  0.377450  0.999787  0.630376  1
  Pr  Pr13  1  0.135928  0.014187  0.883673  1
  Pr  Pr14  1  0.863682  0.829717  0.604486  1
  Pr  Pr15  1  0.863682  0.670283  0.104486  1
  Pr  Pr16  1  0.414975  0.329650  0.623628  1
  Pr  Pr17  1  0.136318  0.170283  0.395514  1
  Pr  Pr18  1  0.136318  0.329717  0.895514  1
  Pr  Pr19  1  0.414975  0.170350  0.123628  1
  Pr  Pr20  1  0.585025  0.829650  0.876372  1
  Pr  Pr21  1  0.864072  0.514187  0.616327  1
  Pr  Pr22  1  0.127438  0.649744  0.875077  1
  Pr  Pr23  1  0.135928  0.485813  0.383673  1
  O  O24  1  0.424215  0.837520  0.306585  1
  O  O25  1  0.336728  0.169079  0.943111  1
  O  O26  1  0.586632  0.832682  0.696460  1
  O  O27  1  0.265982  0.831394  0.928197  1
  O  O28  1  0.190786  0.662483  0.062303  1
  O  O29  1  0.184999  0.488073  0.574893  1
  O  O30  1  0.663272  0.830921  0.056889  1
  O  O31  1  0.810990  0.672487  0.920560  1
  O  O32  1  0.189010  0.172487  0.579440  1
  O  O33  1  0.043200  0.821943  0.192776  1
  O  O34  1  0.189010  0.327513  0.079440  1
  O  O35  1  0.043200  0.678057  0.692776  1
  O  O36  1  0.184999  0.011927  0.074893  1
  O  O37  1  0.575785  0.162480  0.693415  1
  O  O38  1  0.413368  0.332682  0.803540  1
  O  O39  1  0.051828  0.519921  0.199489  1
  O  O40  1  0.956800  0.178057  0.807224  1
  O  O41  1  0.318795  0.004993  0.440434  1
  O  O42  1  0.413368  0.167318  0.303540  1
  O  O43  1  0.565942  0.501238  0.685345  1
  O  O44  1  0.956800  0.321943  0.307224  1
  O  O45  1  0.663272  0.669079  0.556889  1
  O  O46  1  0.265982  0.668606  0.428197  1
  O  O47  1  0.565942  0.998762  0.185345  1
  O  O48  1  0.586632  0.667318  0.196460  1
  O  O49  1  0.815001  0.988073  0.925107  1
  O  O50  1  0.809214  0.337517  0.937697  1
  O  O51  1  0.424215  0.662480  0.806585  1
  O  O52  1  0.734018  0.168606  0.071803  1
  O  O53  1  0.681205  0.504993  0.059566  1
  O  O54  1  0.681205  0.995007  0.559566  1
  O  O55  1  0.810990  0.827513  0.420560  1
  O  O56  1  0.336728  0.330921  0.443111  1
  O  O57  1  0.809214  0.162483  0.437697  1
  O  O58  1  0.815001  0.511927  0.425107  1
  O  O59  1  0.318795  0.495007  0.940434  1
  O  O60  1  0.948172  0.019921  0.300511  1
  O  O61  1  0.434058  0.498762  0.314655  1
  O  O62  1  0.734018  0.331394  0.571803  1
  O  O63  1  0.051828  0.980079  0.699489  1
  O  O64  1  0.190786  0.837517  0.562303  1
  O  O65  1  0.434058  0.001238  0.814655  1
  O  O66  1  0.575785  0.337520  0.193415  1
  O  O67  1  0.948172  0.480079  0.800511  1
