# generated using pymatgen
data_K2CoCl4
_symmetry_space_group_name_H-M   'P 1'
_cell_length_a   6.88270057
_cell_length_b   9.70752371
_cell_length_c   12.86283134
_cell_angle_alpha   90.00000000
_cell_angle_beta   107.00781696
_cell_angle_gamma   90.00000000
_symmetry_Int_Tables_number   1
_chemical_formula_structural   K2CoCl4
_chemical_formula_sum   'K8 Co4 Cl16'
_cell_volume   821.83022076
_cell_formula_units_Z   4
loop_
 _symmetry_equiv_pos_site_id
 _symmetry_equiv_pos_as_xyz
  1  'x, y, z'
loop_
 _atom_site_type_symbol
 _atom_site_label
 _atom_site_symmetry_multiplicity
 _atom_site_fract_x
 _atom_site_fract_y
 _atom_site_fract_z
 _atom_site_occupancy
  K  K0  1  0.776365  0.354766  0.007011  1
  K  K1  1  0.223635  0.645234  0.992989  1
  K  K2  1  0.403955  0.404420  0.665124  1
  K  K3  1  0.596045  0.904420  0.834876  1
  K  K4  1  0.223635  0.854766  0.492989  1
  K  K5  1  0.403955  0.095580  0.165124  1
  K  K6  1  0.596045  0.595580  0.334876  1
  K  K7  1  0.776365  0.145234  0.507011  1
  Co  Co8  1  0.117920  0.146612  0.819891  1
  Co  Co9  1  0.882080  0.853388  0.180109  1
  Co  Co10  1  0.117920  0.353388  0.319891  1
  Co  Co11  1  0.882080  0.646612  0.680109  1
  Cl  Cl12  1  0.793812  0.036719  0.068915  1
  Cl  Cl13  1  0.206188  0.963281  0.931085  1
  Cl  Cl14  1  0.212169  0.101241  0.667764  1
  Cl  Cl15  1  0.780739  0.312485  0.279821  1
  Cl  Cl16  1  0.780739  0.187515  0.779821  1
  Cl  Cl17  1  0.700798  0.834886  0.601398  1
  Cl  Cl18  1  0.299202  0.334886  0.898602  1
  Cl  Cl19  1  0.219261  0.812485  0.220179  1
  Cl  Cl20  1  0.787831  0.898759  0.332236  1
  Cl  Cl21  1  0.299202  0.165114  0.398602  1
  Cl  Cl22  1  0.700798  0.665114  0.101398  1
  Cl  Cl23  1  0.219261  0.687515  0.720179  1
  Cl  Cl24  1  0.212169  0.398759  0.167764  1
  Cl  Cl25  1  0.206188  0.536719  0.431085  1
  Cl  Cl26  1  0.787831  0.601241  0.832236  1
  Cl  Cl27  1  0.793812  0.463281  0.568915  1
