# generated using pymatgen
data_Rb3SnP3Se11
_symmetry_space_group_name_H-M   'P 1'
_cell_length_a   14.33407453
_cell_length_b   7.56291178
_cell_length_c   22.51441055
_cell_angle_alpha   90.00000000
_cell_angle_beta   105.98180643
_cell_angle_gamma   90.00000000
_symmetry_Int_Tables_number   1
_chemical_formula_structural   Rb3SnP3Se11
_chemical_formula_sum   'Rb12 Sn4 P12 Se44'
_cell_volume   2346.39125226
_cell_formula_units_Z   4
loop_
 _symmetry_equiv_pos_site_id
 _symmetry_equiv_pos_as_xyz
  1  'x, y, z'
loop_
 _atom_site_type_symbol
 _atom_site_label
 _atom_site_symmetry_multiplicity
 _atom_site_fract_x
 _atom_site_fract_y
 _atom_site_fract_z
 _atom_site_occupancy
  Rb  Rb0  1  0.155293  0.535417  0.931583  1
  Rb  Rb1  1  0.115839  0.821255  0.492005  1
  Rb  Rb2  1  0.488775  0.369120  0.769597  1
  Rb  Rb3  1  0.655293  0.964583  0.931583  1
  Rb  Rb4  1  0.344707  0.035417  0.068417  1
  Rb  Rb5  1  0.884161  0.178745  0.507995  1
  Rb  Rb6  1  0.615839  0.678745  0.492005  1
  Rb  Rb7  1  0.011225  0.869120  0.230403  1
  Rb  Rb8  1  0.844707  0.464583  0.068417  1
  Rb  Rb9  1  0.511225  0.630880  0.230403  1
  Rb  Rb10  1  0.384161  0.321255  0.507995  1
  Rb  Rb11  1  0.988775  0.130880  0.769597  1
  Sn  Sn12  1  0.778595  0.640153  0.719807  1
  Sn  Sn13  1  0.278595  0.859847  0.719807  1
  Sn  Sn14  1  0.221405  0.359847  0.280193  1
  Sn  Sn15  1  0.721405  0.140153  0.280193  1
  P  P16  1  0.371928  0.853333  0.602785  1
  P  P17  1  0.128072  0.353333  0.397215  1
  P  P18  1  0.020017  0.631197  0.673857  1
  P  P19  1  0.803404  0.436827  0.886208  1
  P  P20  1  0.628072  0.146667  0.397215  1
  P  P21  1  0.520017  0.868803  0.673857  1
  P  P22  1  0.303404  0.063173  0.886208  1
  P  P23  1  0.479983  0.131197  0.326143  1
  P  P24  1  0.871928  0.646667  0.602785  1
  P  P25  1  0.696596  0.936827  0.113792  1
  P  P26  1  0.196596  0.563173  0.113792  1
  P  P27  1  0.979983  0.368803  0.326143  1
  Se  Se28  1  0.882651  0.654157  0.509154  1
  Se  Se29  1  0.702683  0.907057  0.373808  1
  Se  Se30  1  0.674205  0.459765  0.918671  1
  Se  Se31  1  0.016903  0.367687  0.234791  1
  Se  Se32  1  0.917372  0.108115  0.343473  1
  Se  Se33  1  0.423060  0.217423  0.941964  1
  Se  Se34  1  0.076940  0.717423  0.058036  1
  Se  Se35  1  0.983097  0.632313  0.765209  1
  Se  Se36  1  0.775781  0.875690  0.809197  1
  Se  Se37  1  0.260123  0.151976  0.785895  1
  Se  Se38  1  0.704377  0.379288  0.369751  1
  Se  Se39  1  0.117100  0.296106  0.114024  1
  Se  Se40  1  0.082628  0.891885  0.656527  1
  Se  Se41  1  0.325795  0.540235  0.081329  1
  Se  Se42  1  0.275781  0.624310  0.809197  1
  Se  Se43  1  0.760123  0.348024  0.785895  1
  Se  Se44  1  0.224219  0.124310  0.190803  1
  Se  Se45  1  0.382900  0.796106  0.885976  1
  Se  Se46  1  0.582628  0.608115  0.656527  1
  Se  Se47  1  0.099567  0.400960  0.659340  1
  Se  Se48  1  0.239877  0.651976  0.214105  1
  Se  Se49  1  0.795623  0.879288  0.630249  1
  Se  Se50  1  0.202683  0.592943  0.373808  1
  Se  Se51  1  0.400433  0.900960  0.340660  1
  Se  Se52  1  0.174205  0.040235  0.918671  1
  Se  Se53  1  0.617100  0.203894  0.114024  1
  Se  Se54  1  0.516903  0.132313  0.234791  1
  Se  Se55  1  0.576940  0.782577  0.058036  1
  Se  Se56  1  0.382651  0.845843  0.509154  1
  Se  Se57  1  0.204377  0.120712  0.369751  1
  Se  Se58  1  0.900433  0.599040  0.340660  1
  Se  Se59  1  0.417372  0.391885  0.343473  1
  Se  Se60  1  0.882900  0.703894  0.885976  1
  Se  Se61  1  0.739877  0.848024  0.214105  1
  Se  Se62  1  0.483097  0.867687  0.765209  1
  Se  Se63  1  0.923060  0.282577  0.941964  1
  Se  Se64  1  0.295623  0.620712  0.630249  1
  Se  Se65  1  0.297317  0.092943  0.626192  1
  Se  Se66  1  0.599567  0.099040  0.659340  1
  Se  Se67  1  0.617349  0.154157  0.490846  1
  Se  Se68  1  0.724219  0.375690  0.190803  1
  Se  Se69  1  0.117349  0.345843  0.490846  1
  Se  Se70  1  0.825795  0.959765  0.081329  1
  Se  Se71  1  0.797317  0.407057  0.626192  1
