# generated using pymatgen
data_BeF2
_symmetry_space_group_name_H-M   'P 1'
_cell_length_a   9.00768100
_cell_length_b   9.00768100
_cell_length_c   9.00768100
_cell_angle_alpha   93.96769773
_cell_angle_beta   93.96769773
_cell_angle_gamma   93.96769773
_symmetry_Int_Tables_number   1
_chemical_formula_structural   BeF2
_chemical_formula_sum   'Be12 F24'
_cell_volume   725.35627018
_cell_formula_units_Z   12
loop_
 _symmetry_equiv_pos_site_id
 _symmetry_equiv_pos_as_xyz
  1  'x, y, z'
loop_
 _atom_site_type_symbol
 _atom_site_label
 _atom_site_symmetry_multiplicity
 _atom_site_fract_x
 _atom_site_fract_y
 _atom_site_fract_z
 _atom_site_occupancy
  Be  Be0  1  0.896682  0.667005  0.126739  1
  Be  Be1  1  0.103318  0.873261  0.332995  1
  Be  Be2  1  0.667005  0.126739  0.896682  1
  Be  Be3  1  0.873261  0.103318  0.332995  1
  Be  Be4  1  0.896682  0.126739  0.667005  1
  Be  Be5  1  0.873261  0.332995  0.103318  1
  Be  Be6  1  0.126739  0.896682  0.667005  1
  Be  Be7  1  0.332995  0.103318  0.873261  1
  Be  Be8  1  0.126739  0.667005  0.896682  1
  Be  Be9  1  0.103318  0.332995  0.873261  1
  Be  Be10  1  0.667005  0.896682  0.126739  1
  Be  Be11  1  0.332995  0.873261  0.103318  1
  F  F12  1  0.318597  0.017941  0.017941  1
  F  F13  1  0.111830  0.753106  0.753106  1
  F  F14  1  0.147072  0.500000  0.852928  1
  F  F15  1  0.265051  0.000000  0.734949  1
  F  F16  1  0.500000  0.852928  0.147072  1
  F  F17  1  0.734949  0.000000  0.265051  1
  F  F18  1  0.888170  0.246894  0.246894  1
  F  F19  1  0.982059  0.982059  0.681403  1
  F  F20  1  0.246894  0.888170  0.246894  1
  F  F21  1  0.500000  0.147072  0.852928  1
  F  F22  1  0.681403  0.982059  0.982059  1
  F  F23  1  0.852928  0.147072  0.500000  1
  F  F24  1  0.265051  0.734949  0.000000  1
  F  F25  1  1.000000  0.734949  0.265051  1
  F  F26  1  0.246894  0.246894  0.888170  1
  F  F27  1  0.017941  0.017941  0.318597  1
  F  F28  1  0.000000  0.265051  0.734949  1
  F  F29  1  0.753106  0.111830  0.753106  1
  F  F30  1  0.734949  0.265051  0.000000  1
  F  F31  1  0.147072  0.852928  0.500000  1
  F  F32  1  0.017941  0.318597  0.017941  1
  F  F33  1  0.753106  0.753106  0.111830  1
  F  F34  1  0.982059  0.681403  0.982059  1
  F  F35  1  0.852928  0.500000  0.147072  1
