# generated using pymatgen
data_Ba(BSe3)2
_symmetry_space_group_name_H-M   'P 1'
_cell_length_a   6.93254989
_cell_length_b   6.93254989
_cell_length_c   10.64058537
_cell_angle_alpha   90.00000000
_cell_angle_beta   90.00000000
_cell_angle_gamma   111.73061028
_symmetry_Int_Tables_number   1
_chemical_formula_structural   Ba(BSe3)2
_chemical_formula_sum   'Ba2 B4 Se12'
_cell_volume   475.04724946
_cell_formula_units_Z   2
loop_
 _symmetry_equiv_pos_site_id
 _symmetry_equiv_pos_as_xyz
  1  'x, y, z'
loop_
 _atom_site_type_symbol
 _atom_site_label
 _atom_site_symmetry_multiplicity
 _atom_site_fract_x
 _atom_site_fract_y
 _atom_site_fract_z
 _atom_site_occupancy
  Ba  Ba0  1  0.500000  0.500000  0.500000  1
  Ba  Ba1  1  0.000000  0.000000  0.000000  1
  B  B2  1  0.386714  0.613286  0.000000  1
  B  B3  1  0.613286  0.386714  0.000000  1
  B  B4  1  0.113286  0.886714  0.500000  1
  B  B5  1  0.886714  0.113286  0.500000  1
  Se  Se6  1  0.477214  0.892186  0.091975  1
  Se  Se7  1  0.400849  0.400849  0.135291  1
  Se  Se8  1  0.107814  0.522786  0.908025  1
  Se  Se9  1  0.392186  0.977214  0.408025  1
  Se  Se10  1  0.607814  0.022786  0.591975  1
  Se  Se11  1  0.892186  0.477214  0.091975  1
  Se  Se12  1  0.022786  0.607814  0.591975  1
  Se  Se13  1  0.522786  0.107814  0.908025  1
  Se  Se14  1  0.099151  0.099151  0.635291  1
  Se  Se15  1  0.599151  0.599151  0.864709  1
  Se  Se16  1  0.900849  0.900849  0.364709  1
  Se  Se17  1  0.977214  0.392186  0.408025  1
