# generated using pymatgen
data_LiCr6P7O24
_symmetry_space_group_name_H-M   'P 1'
_cell_length_a   5.43891303
_cell_length_b   27.92118296
_cell_length_c   6.48120646
_cell_angle_alpha   90.00000000
_cell_angle_beta   107.34224150
_cell_angle_gamma   90.00000000
_symmetry_Int_Tables_number   1
_chemical_formula_structural   LiCr6P7O24
_chemical_formula_sum   'Li2 Cr12 P14 O48'
_cell_volume   939.49940284
_cell_formula_units_Z   2
loop_
 _symmetry_equiv_pos_site_id
 _symmetry_equiv_pos_as_xyz
  1  'x, y, z'
loop_
 _atom_site_type_symbol
 _atom_site_label
 _atom_site_symmetry_multiplicity
 _atom_site_fract_x
 _atom_site_fract_y
 _atom_site_fract_z
 _atom_site_occupancy
  Li  Li0  1  0.932039  0.250000  0.554351  1
  Li  Li1  1  0.067961  0.750000  0.445649  1
  Cr  Cr2  1  0.140662  0.180759  0.283492  1
  Cr  Cr3  1  0.859338  0.680759  0.716508  1
  Cr  Cr4  1  0.195852  0.596842  0.078317  1
  Cr  Cr5  1  0.802069  0.545934  0.307040  1
  Cr  Cr6  1  0.804148  0.096842  0.921683  1
  Cr  Cr7  1  0.195852  0.903158  0.078317  1
  Cr  Cr8  1  0.197931  0.045934  0.692960  1
  Cr  Cr9  1  0.802069  0.954066  0.307040  1
  Cr  Cr10  1  0.197931  0.454066  0.692960  1
  Cr  Cr11  1  0.140662  0.319241  0.283492  1
  Cr  Cr12  1  0.804148  0.403158  0.921683  1
  Cr  Cr13  1  0.859338  0.819241  0.716508  1
  P  P14  1  0.700807  0.109147  0.388970  1
  P  P15  1  0.452040  0.750000  0.892913  1
  P  P16  1  0.280446  0.169356  0.822781  1
  P  P17  1  0.719554  0.830644  0.177219  1
  P  P18  1  0.307848  0.472396  0.210307  1
  P  P19  1  0.299193  0.609147  0.611030  1
  P  P20  1  0.307848  0.027604  0.210307  1
  P  P21  1  0.719554  0.669356  0.177219  1
  P  P22  1  0.547960  0.250000  0.107087  1
  P  P23  1  0.700807  0.390853  0.388970  1
  P  P24  1  0.299193  0.890853  0.611030  1
  P  P25  1  0.280446  0.330644  0.822781  1
  P  P26  1  0.692152  0.972396  0.789693  1
  P  P27  1  0.692152  0.527604  0.789693  1
  O  O28  1  0.095114  0.167213  0.960245  1
  O  O29  1  0.172653  0.750000  0.756945  1
  O  O30  1  0.514563  0.294279  0.945973  1
  O  O31  1  0.130387  0.908276  0.386355  1
  O  O32  1  0.856699  0.692437  0.396817  1
  O  O33  1  0.130387  0.591724  0.386355  1
  O  O34  1  0.577441  0.877003  0.188892  1
  O  O35  1  0.869203  0.378488  0.241021  1
  O  O36  1  0.131847  0.451217  0.995923  1
  O  O37  1  0.652366  0.750000  0.772133  1
  O  O38  1  0.130797  0.621512  0.758979  1
  O  O39  1  0.577441  0.622997  0.188892  1
  O  O40  1  0.166829  0.027748  0.380486  1
  O  O41  1  0.833171  0.527748  0.619514  1
  O  O42  1  0.483771  0.851987  0.599245  1
  O  O43  1  0.483771  0.648013  0.599245  1
  O  O44  1  0.095114  0.332787  0.960245  1
  O  O45  1  0.422559  0.377003  0.811108  1
  O  O46  1  0.143301  0.307563  0.603183  1
  O  O47  1  0.442398  0.561302  0.723065  1
  O  O48  1  0.442398  0.938698  0.723065  1
  O  O49  1  0.485437  0.794279  0.054027  1
  O  O50  1  0.514563  0.205721  0.945973  1
  O  O51  1  0.166829  0.472252  0.380486  1
  O  O52  1  0.904886  0.832787  0.039755  1
  O  O53  1  0.827347  0.250000  0.243055  1
  O  O54  1  0.516229  0.148013  0.400755  1
  O  O55  1  0.868153  0.548783  0.004077  1
  O  O56  1  0.904886  0.667213  0.039755  1
  O  O57  1  0.869613  0.091724  0.613645  1
  O  O58  1  0.833171  0.972252  0.619514  1
  O  O59  1  0.577429  0.478909  0.818805  1
  O  O60  1  0.869203  0.121512  0.241021  1
  O  O61  1  0.131847  0.048783  0.995923  1
  O  O62  1  0.577429  0.021091  0.818805  1
  O  O63  1  0.422559  0.122997  0.811108  1
  O  O64  1  0.856699  0.807563  0.396817  1
  O  O65  1  0.130797  0.878488  0.758979  1
  O  O66  1  0.422571  0.521091  0.181195  1
  O  O67  1  0.868153  0.951217  0.004077  1
  O  O68  1  0.347634  0.250000  0.227867  1
  O  O69  1  0.485437  0.705721  0.054027  1
  O  O70  1  0.143301  0.192437  0.603183  1
  O  O71  1  0.557602  0.061302  0.276935  1
  O  O72  1  0.557602  0.438698  0.276935  1
  O  O73  1  0.869613  0.408276  0.613645  1
  O  O74  1  0.516229  0.351987  0.400755  1
  O  O75  1  0.422571  0.978909  0.181195  1
