# generated using pymatgen
data_Nb2TlPS10
_symmetry_space_group_name_H-M   'P 1'
_cell_length_a   7.25842267
_cell_length_b   7.74367047
_cell_length_c   13.18584385
_cell_angle_alpha   90.00000000
_cell_angle_beta   106.80295910
_cell_angle_gamma   90.00000000
_symmetry_Int_Tables_number   1
_chemical_formula_structural   Nb2TlPS10
_chemical_formula_sum   'Nb4 Tl2 P2 S20'
_cell_volume   709.49146889
_cell_formula_units_Z   2
loop_
 _symmetry_equiv_pos_site_id
 _symmetry_equiv_pos_as_xyz
  1  'x, y, z'
loop_
 _atom_site_type_symbol
 _atom_site_label
 _atom_site_symmetry_multiplicity
 _atom_site_fract_x
 _atom_site_fract_y
 _atom_site_fract_z
 _atom_site_occupancy
  Nb  Nb0  1  0.316484  0.444131  0.158947  1
  Nb  Nb1  1  0.316484  0.555869  0.658947  1
  Nb  Nb2  1  0.323051  0.437898  0.870199  1
  Nb  Nb3  1  0.323051  0.562102  0.370199  1
  Tl  Tl4  1  0.738045  0.992781  0.607759  1
  Tl  Tl5  1  0.738045  0.007219  0.107759  1
  P  P6  1  0.172155  0.106920  0.991277  1
  P  P7  1  0.172155  0.893080  0.491277  1
  S  S8  1  0.363242  0.893067  0.400984  1
  S  S9  1  0.067505  0.638847  0.472957  1
  S  S10  1  0.384557  0.341035  0.523825  1
  S  S11  1  0.055085  0.391356  0.248739  1
  S  S12  1  0.575542  0.623670  0.825318  1
  S  S13  1  0.068740  0.639078  0.197347  1
  S  S14  1  0.068740  0.360922  0.697347  1
  S  S15  1  0.315764  0.106038  0.151264  1
  S  S16  1  0.973922  0.076584  0.446242  1
  S  S17  1  0.067505  0.361153  0.972957  1
  S  S18  1  0.575542  0.376330  0.325318  1
  S  S19  1  0.570100  0.452342  0.054293  1
  S  S20  1  0.363242  0.106933  0.900984  1
  S  S21  1  0.576059  0.627261  0.281528  1
  S  S22  1  0.576059  0.372739  0.781528  1
  S  S23  1  0.384557  0.658965  0.023825  1
  S  S24  1  0.055085  0.608644  0.748739  1
  S  S25  1  0.315764  0.893962  0.651264  1
  S  S26  1  0.570100  0.547658  0.554293  1
  S  S27  1  0.973922  0.923416  0.946242  1
