# generated using pymatgen
data_Sb2(PO4)3
_symmetry_space_group_name_H-M   'P 1'
_cell_length_a   8.54470274
_cell_length_b   8.87130899
_cell_length_c   14.67670581
_cell_angle_alpha   90.00000000
_cell_angle_beta   124.44182796
_cell_angle_gamma   90.00000000
_symmetry_Int_Tables_number   1
_chemical_formula_structural   Sb2(PO4)3
_chemical_formula_sum   'Sb8 P12 O48'
_cell_volume   917.50763524
_cell_formula_units_Z   4
loop_
 _symmetry_equiv_pos_site_id
 _symmetry_equiv_pos_as_xyz
  1  'x, y, z'
loop_
 _atom_site_type_symbol
 _atom_site_label
 _atom_site_symmetry_multiplicity
 _atom_site_fract_x
 _atom_site_fract_y
 _atom_site_fract_z
 _atom_site_occupancy
  Sb  Sb0  1  0.137176  0.033265  0.885839  1
  Sb  Sb1  1  0.365119  0.030525  0.616483  1
  Sb  Sb2  1  0.137176  0.466735  0.385839  1
  Sb  Sb3  1  0.634881  0.969475  0.383517  1
  Sb  Sb4  1  0.634881  0.530525  0.883517  1
  Sb  Sb5  1  0.862824  0.966735  0.114161  1
  Sb  Sb6  1  0.862824  0.533265  0.614161  1
  Sb  Sb7  1  0.365119  0.469475  0.116483  1
  P  P8  1  0.250294  0.116526  0.146887  1
  P  P9  1  0.026850  0.618022  0.146798  1
  P  P10  1  0.973150  0.381978  0.853202  1
  P  P11  1  0.542090  0.257005  0.504389  1
  P  P12  1  0.749706  0.883474  0.853113  1
  P  P13  1  0.457910  0.757005  0.995611  1
  P  P14  1  0.026850  0.881978  0.646798  1
  P  P15  1  0.457910  0.742995  0.495611  1
  P  P16  1  0.542090  0.242995  0.004389  1
  P  P17  1  0.749706  0.616526  0.353113  1
  P  P18  1  0.973150  0.118022  0.353202  1
  P  P19  1  0.250294  0.383474  0.646887  1
  O  O20  1  0.993980  0.223448  0.813935  1
  O  O21  1  0.849070  0.904984  0.979696  1
  O  O22  1  0.110269  0.065718  0.177325  1
  O  O23  1  0.262763  0.664790  0.451615  1
  O  O24  1  0.457917  0.807158  0.398320  1
  O  O25  1  0.492243  0.861141  0.581655  1
  O  O26  1  0.431309  0.480046  0.710900  1
  O  O27  1  0.889731  0.934282  0.822675  1
  O  O28  1  0.879302  0.011991  0.250776  1
  O  O29  1  0.837664  0.374628  0.890930  1
  O  O30  1  0.281466  0.213982  0.673515  1
  O  O31  1  0.829057  0.556964  0.057235  1
  O  O32  1  0.150930  0.404984  0.520304  1
  O  O33  1  0.542083  0.192842  0.601680  1
  O  O34  1  0.568691  0.519954  0.289100  1
  O  O35  1  0.262763  0.835210  0.951615  1
  O  O36  1  0.879302  0.488009  0.750776  1
  O  O37  1  0.542083  0.307158  0.101680  1
  O  O38  1  0.737237  0.164790  0.048385  1
  O  O39  1  0.889731  0.565718  0.322675  1
  O  O40  1  0.737237  0.335210  0.548385  1
  O  O41  1  0.718534  0.786018  0.326485  1
  O  O42  1  0.718534  0.713982  0.826485  1
  O  O43  1  0.507757  0.361141  0.918345  1
  O  O44  1  0.993980  0.276552  0.313935  1
  O  O45  1  0.120698  0.511991  0.249224  1
  O  O46  1  0.568691  0.980046  0.789100  1
  O  O47  1  0.507757  0.138859  0.418345  1
  O  O48  1  0.006020  0.776552  0.186065  1
  O  O49  1  0.170943  0.443036  0.942765  1
  O  O50  1  0.281466  0.286018  0.173515  1
  O  O51  1  0.162336  0.625372  0.109070  1
  O  O52  1  0.492243  0.638859  0.081655  1
  O  O53  1  0.120698  0.988009  0.749224  1
  O  O54  1  0.431309  0.019954  0.210900  1
  O  O55  1  0.829057  0.943036  0.557235  1
  O  O56  1  0.006020  0.723448  0.686065  1
  O  O57  1  0.150930  0.095016  0.020304  1
  O  O58  1  0.385898  0.378772  0.438853  1
  O  O59  1  0.457917  0.692842  0.898320  1
  O  O60  1  0.110269  0.434282  0.677325  1
  O  O61  1  0.849070  0.595016  0.479696  1
  O  O62  1  0.162336  0.874628  0.609070  1
  O  O63  1  0.614102  0.621228  0.561147  1
  O  O64  1  0.837664  0.125372  0.390930  1
  O  O65  1  0.170943  0.056964  0.442765  1
  O  O66  1  0.385898  0.121228  0.938853  1
  O  O67  1  0.614102  0.878772  0.061147  1
