# generated using pymatgen
data_SrZn2
_symmetry_space_group_name_H-M   'P 1'
_cell_length_a   6.02489813
_cell_length_b   6.02489813
_cell_length_c   6.02489813
_cell_angle_alpha   133.25384621
_cell_angle_beta   99.31110634
_cell_angle_gamma   98.79925601
_symmetry_Int_Tables_number   1
_chemical_formula_structural   SrZn2
_chemical_formula_sum   'Sr2 Zn4'
_cell_volume   146.21206508
_cell_formula_units_Z   2
loop_
 _symmetry_equiv_pos_site_id
 _symmetry_equiv_pos_as_xyz
  1  'x, y, z'
loop_
 _atom_site_type_symbol
 _atom_site_label
 _atom_site_symmetry_multiplicity
 _atom_site_fract_x
 _atom_site_fract_y
 _atom_site_fract_z
 _atom_site_occupancy
  Sr  Sr0  1  0.701100  0.951100  0.250000  1
  Sr  Sr1  1  0.298900  0.048900  0.750000  1
  Zn  Zn2  1  0.898184  0.335020  0.063164  1
  Zn  Zn3  1  0.101816  0.664980  0.936836  1
  Zn  Zn4  1  0.271856  0.335020  0.436836  1
  Zn  Zn5  1  0.728144  0.664980  0.563164  1
