# generated using pymatgen
data_SiO2
_symmetry_space_group_name_H-M   'P 1'
_cell_length_a   12.67612792
_cell_length_b   12.67612792
_cell_length_c   14.55329577
_cell_angle_alpha   73.37131402
_cell_angle_beta   106.62868598
_cell_angle_gamma   89.79422868
_symmetry_Int_Tables_number   1
_chemical_formula_structural   SiO2
_chemical_formula_sum   'Si32 O64'
_cell_volume   2137.65474960
_cell_formula_units_Z   32
loop_
 _symmetry_equiv_pos_site_id
 _symmetry_equiv_pos_as_xyz
  1  'x, y, z'
loop_
 _atom_site_type_symbol
 _atom_site_label
 _atom_site_symmetry_multiplicity
 _atom_site_fract_x
 _atom_site_fract_y
 _atom_site_fract_z
 _atom_site_occupancy
  Si  Si0  1  0.373059  0.337521  0.112696  1
  Si  Si1  1  0.005553  0.665976  0.893622  1
  Si  Si2  1  0.611087  0.224486  0.245439  1
  Si  Si3  1  0.582465  0.752803  0.382345  1
  Si  Si4  1  0.753617  0.331318  0.114873  1
  Si  Si5  1  0.626941  0.662479  0.887304  1
  Si  Si6  1  0.668682  0.246383  0.614873  1
  Si  Si7  1  0.586403  0.996049  0.386493  1
  Si  Si8  1  0.752803  0.582465  0.117655  1
  Si  Si9  1  0.247197  0.417535  0.882345  1
  Si  Si10  1  0.246383  0.668682  0.885127  1
  Si  Si11  1  0.996049  0.586403  0.113507  1
  Si  Si12  1  0.629378  0.409030  0.884782  1
  Si  Si13  1  0.417535  0.247197  0.617655  1
  Si  Si14  1  0.413597  0.003951  0.613507  1
  Si  Si15  1  0.224486  0.611087  0.254561  1
  Si  Si16  1  0.337521  0.373059  0.387304  1
  Si  Si17  1  0.389520  0.389520  0.750000  1
  Si  Si18  1  0.409030  0.629378  0.615218  1
  Si  Si19  1  0.225428  0.225428  0.250000  1
  Si  Si20  1  0.662479  0.626941  0.612696  1
  Si  Si21  1  0.994447  0.334024  0.106378  1
  Si  Si22  1  0.388913  0.775514  0.754561  1
  Si  Si23  1  0.590970  0.370622  0.384782  1
  Si  Si24  1  0.003951  0.413597  0.886493  1
  Si  Si25  1  0.331318  0.753617  0.385127  1
  Si  Si26  1  0.775514  0.388913  0.745439  1
  Si  Si27  1  0.610480  0.610480  0.250000  1
  Si  Si28  1  0.774572  0.774572  0.750000  1
  Si  Si29  1  0.665976  0.005553  0.606378  1
  Si  Si30  1  0.370622  0.590970  0.115218  1
  Si  Si31  1  0.334024  0.994447  0.393622  1
  O  O32  1  0.009510  0.457276  0.118101  1
  O  O33  1  0.713766  0.239470  0.198294  1
  O  O34  1  0.670911  0.341784  0.003584  1
  O  O35  1  0.542724  0.990490  0.618101  1
  O  O36  1  0.351950  0.329461  0.506748  1
  O  O37  1  0.291716  0.878902  0.376525  1
  O  O38  1  0.371768  0.712994  0.668761  1
  O  O39  1  0.905821  0.751063  0.808843  1
  O  O40  1  0.449770  0.750013  0.362877  1
  O  O41  1  0.094179  0.248937  0.191157  1
  O  O42  1  0.329461  0.351950  0.993252  1
  O  O43  1  0.121098  0.708284  0.876525  1
  O  O44  1  0.457276  0.009510  0.381899  1
  O  O45  1  0.708284  0.121098  0.623475  1
  O  O46  1  0.658216  0.329089  0.503584  1
  O  O47  1  0.329089  0.658216  0.996416  1
  O  O48  1  0.608077  0.092985  0.295251  1
  O  O49  1  0.505621  0.377842  0.838392  1
  O  O50  1  0.391923  0.907015  0.704749  1
  O  O51  1  0.286234  0.760530  0.801706  1
  O  O52  1  0.092985  0.608077  0.204749  1
  O  O53  1  0.239470  0.713766  0.301706  1
  O  O54  1  0.751063  0.905821  0.691157  1
  O  O55  1  0.739675  0.705487  0.668991  1
  O  O56  1  0.494379  0.622158  0.161608  1
  O  O57  1  0.377842  0.505621  0.661608  1
  O  O58  1  0.664200  0.004576  0.494217  1
  O  O59  1  0.722535  0.502225  0.655203  1
  O  O60  1  0.750013  0.449770  0.137123  1
  O  O61  1  0.990490  0.542724  0.881899  1
  O  O62  1  0.541936  0.629244  0.631853  1
  O  O63  1  0.502225  0.722535  0.844797  1
  O  O64  1  0.249987  0.550230  0.862877  1
  O  O65  1  0.712226  0.616209  0.202272  1
  O  O66  1  0.341784  0.670911  0.496416  1
  O  O67  1  0.248937  0.094179  0.308843  1
  O  O68  1  0.497775  0.277465  0.155203  1
  O  O69  1  0.907015  0.391923  0.795251  1
  O  O70  1  0.122121  0.383272  0.873172  1
  O  O71  1  0.616728  0.877879  0.373172  1
  O  O72  1  0.287774  0.383791  0.797728  1
  O  O73  1  0.383272  0.122121  0.626828  1
  O  O74  1  0.622158  0.494379  0.338392  1
  O  O75  1  0.760530  0.286234  0.698294  1
  O  O76  1  0.629244  0.541936  0.868147  1
  O  O77  1  0.878902  0.291716  0.123475  1
  O  O78  1  0.550230  0.249987  0.637123  1
  O  O79  1  0.995424  0.335800  0.994217  1
  O  O80  1  0.383791  0.287774  0.702272  1
  O  O81  1  0.294513  0.260325  0.168991  1
  O  O82  1  0.287006  0.628232  0.168761  1
  O  O83  1  0.458064  0.370756  0.368147  1
  O  O84  1  0.670539  0.648050  0.006748  1
  O  O85  1  0.712994  0.371768  0.831239  1
  O  O86  1  0.877879  0.616728  0.126828  1
  O  O87  1  0.705487  0.739675  0.831009  1
  O  O88  1  0.004576  0.664200  0.005783  1
  O  O89  1  0.370756  0.458064  0.131853  1
  O  O90  1  0.260325  0.294513  0.331009  1
  O  O91  1  0.616209  0.712226  0.297728  1
  O  O92  1  0.648050  0.670539  0.493252  1
  O  O93  1  0.335800  0.995424  0.505783  1
  O  O94  1  0.277465  0.497775  0.344797  1
  O  O95  1  0.628232  0.287006  0.331239  1
