# generated using pymatgen
data_KFe(MoO4)2
_symmetry_space_group_name_H-M   'P 1'
_cell_length_a   5.75759307
_cell_length_b   5.75759307
_cell_length_c   14.81598400
_cell_angle_alpha   90.00000000
_cell_angle_beta   90.00000000
_cell_angle_gamma   120.00000000
_symmetry_Int_Tables_number   1
_chemical_formula_structural   KFe(MoO4)2
_chemical_formula_sum   'K2 Fe2 Mo4 O16'
_cell_volume   425.34669818
_cell_formula_units_Z   2
loop_
 _symmetry_equiv_pos_site_id
 _symmetry_equiv_pos_as_xyz
  1  'x, y, z'
loop_
 _atom_site_type_symbol
 _atom_site_label
 _atom_site_symmetry_multiplicity
 _atom_site_fract_x
 _atom_site_fract_y
 _atom_site_fract_z
 _atom_site_occupancy
  K  K0  1  0.000000  0.000000  0.750000  1
  K  K1  1  0.000000  0.000000  0.250000  1
  Fe  Fe2  1  0.000000  0.000000  0.000000  1
  Fe  Fe3  1  0.000000  0.000000  0.500000  1
  Mo  Mo4  1  0.666667  0.333333  0.381742  1
  Mo  Mo5  1  0.666667  0.333333  0.881742  1
  Mo  Mo6  1  0.333333  0.666667  0.618258  1
  Mo  Mo7  1  0.333333  0.666667  0.118258  1
  O  O8  1  0.134033  0.811895  0.581210  1
  O  O9  1  0.865967  0.188105  0.418790  1
  O  O10  1  0.322138  0.134033  0.418790  1
  O  O11  1  0.666667  0.333333  0.763604  1
  O  O12  1  0.677862  0.865967  0.581210  1
  O  O13  1  0.677862  0.811895  0.081210  1
  O  O14  1  0.865967  0.677862  0.918790  1
  O  O15  1  0.188105  0.865967  0.081210  1
  O  O16  1  0.134033  0.322138  0.081210  1
  O  O17  1  0.322138  0.188105  0.918790  1
  O  O18  1  0.666667  0.333333  0.263604  1
  O  O19  1  0.811895  0.134033  0.918790  1
  O  O20  1  0.188105  0.322138  0.581210  1
  O  O21  1  0.333333  0.666667  0.736396  1
  O  O22  1  0.811895  0.677862  0.418790  1
  O  O23  1  0.333333  0.666667  0.236396  1
