# generated using pymatgen
data_Na5Lu(WO4)4
_symmetry_space_group_name_H-M   'P 1'
_cell_length_a   9.96690942
_cell_length_b   9.96690942
_cell_length_c   9.96690942
_cell_angle_alpha   109.05179203
_cell_angle_beta   109.05179203
_cell_angle_gamma   110.31337437
_symmetry_Int_Tables_number   1
_chemical_formula_structural   Na5Lu(WO4)4
_chemical_formula_sum   'Na10 Lu2 W8 O32'
_cell_volume   762.05997080
_cell_formula_units_Z   2
loop_
 _symmetry_equiv_pos_site_id
 _symmetry_equiv_pos_as_xyz
  1  'x, y, z'
loop_
 _atom_site_type_symbol
 _atom_site_label
 _atom_site_symmetry_multiplicity
 _atom_site_fract_x
 _atom_site_fract_y
 _atom_site_fract_z
 _atom_site_occupancy
  Na  Na0  1  0.250000  0.750000  0.500000  1
  Na  Na1  1  0.000000  0.000000  0.000000  1
  Na  Na2  1  0.089283  0.264344  0.412466  1
  Na  Na3  1  0.926817  0.839283  0.324939  1
  Na  Na4  1  0.514344  0.601877  0.675061  1
  Na  Na5  1  0.851877  0.676817  0.587534  1
  Na  Na6  1  0.160717  0.485656  0.087534  1
  Na  Na7  1  0.323183  0.910717  0.175061  1
  Na  Na8  1  0.735656  0.148123  0.824939  1
  Na  Na9  1  0.398123  0.073183  0.912466  1
  Lu  Lu10  1  0.750000  0.250000  0.500000  1
  Lu  Lu11  1  0.500000  0.500000  0.000000  1
  W  W12  1  0.191011  0.598692  0.774113  1
  W  W13  1  0.666898  0.941011  0.092319  1
  W  W14  1  0.848692  0.574579  0.907681  1
  W  W15  1  0.824579  0.416898  0.225887  1
  W  W16  1  0.058989  0.151308  0.725887  1
  W  W17  1  0.583102  0.808989  0.407681  1
  W  W18  1  0.401308  0.175421  0.592319  1
  W  W19  1  0.425421  0.333102  0.274113  1
  O  O20  1  0.283315  0.817427  0.896736  1
  O  O21  1  0.636580  0.033315  0.965889  1
  O  O22  1  0.067427  0.670691  0.034111  1
  O  O23  1  0.920691  0.386580  0.103264  1
  O  O24  1  0.966685  0.932573  0.603264  1
  O  O25  1  0.613420  0.716685  0.534111  1
  O  O26  1  0.182573  0.079309  0.465889  1
  O  O27  1  0.329309  0.363420  0.396736  1
  O  O28  1  0.247359  0.569118  0.615430  1
  O  O29  1  0.881929  0.997359  0.178241  1
  O  O30  1  0.819118  0.703688  0.821759  1
  O  O31  1  0.953688  0.631929  0.384570  1
  O  O32  1  0.002641  0.180882  0.884570  1
  O  O33  1  0.368071  0.752641  0.321759  1
  O  O34  1  0.430882  0.046312  0.678241  1
  O  O35  1  0.296312  0.118071  0.115430  1
  O  O36  1  0.968736  0.520757  0.671843  1
  O  O37  1  0.546893  0.718736  0.947980  1
  O  O38  1  0.770757  0.598913  0.052020  1
  O  O39  1  0.848913  0.296893  0.328157  1
  O  O40  1  0.281264  0.229243  0.828157  1
  O  O41  1  0.703107  0.031264  0.552020  1
  O  O42  1  0.479243  0.151087  0.447980  1
  O  O43  1  0.401087  0.453107  0.171843  1
  O  O44  1  0.258015  0.511254  0.903926  1
  O  O45  1  0.604089  0.008015  0.246761  1
  O  O46  1  0.761254  0.357327  0.753239  1
  O  O47  1  0.607327  0.354089  0.096074  1
  O  O48  1  0.991985  0.238746  0.596074  1
  O  O49  1  0.645911  0.741985  0.253239  1
  O  O50  1  0.488746  0.392673  0.746761  1
  O  O51  1  0.642673  0.395911  0.403926  1
