# generated using pymatgen
data_Bi12PtCl12
_symmetry_space_group_name_H-M   'P 1'
_cell_length_a   9.33458788
_cell_length_b   9.41478615
_cell_length_c   9.54304458
_cell_angle_alpha   89.42791973
_cell_angle_beta   89.43761690
_cell_angle_gamma   87.58955744
_symmetry_Int_Tables_number   1
_chemical_formula_structural   Bi12PtCl12
_chemical_formula_sum   'Bi12 Pt1 Cl12'
_cell_volume   837.85191372
_cell_formula_units_Z   1
loop_
 _symmetry_equiv_pos_site_id
 _symmetry_equiv_pos_as_xyz
  1  'x, y, z'
loop_
 _atom_site_type_symbol
 _atom_site_label
 _atom_site_symmetry_multiplicity
 _atom_site_fract_x
 _atom_site_fract_y
 _atom_site_fract_z
 _atom_site_occupancy
  Bi  Bi0  1  0.035416  0.285266  0.033993  1
  Bi  Bi1  1  0.708512  0.041155  0.039837  1
  Bi  Bi2  1  0.963791  0.712603  0.968192  1
  Bi  Bi3  1  0.542659  0.497363  0.760860  1
  Bi  Bi4  1  0.542646  0.729071  0.552168  1
  Bi  Bi5  1  0.290178  0.959123  0.958279  1
  Bi  Bi6  1  0.033322  0.954745  0.283618  1
  Bi  Bi7  1  0.964662  0.038658  0.715591  1
  Bi  Bi8  1  0.453705  0.261292  0.398268  1
  Bi  Bi9  1  0.475409  0.546483  0.272814  1
  Bi  Bi10  1  0.718124  0.437168  0.484032  1
  Bi  Bi11  1  0.287810  0.497866  0.560737  1
  Pt  Pt12  1  0.999369  0.999219  0.999717  1
  Cl  Cl13  1  0.667694  0.071523  0.750278  1
  Cl  Cl14  1  0.667880  0.750055  0.017864  1
  Cl  Cl15  1  0.070873  0.248199  0.325771  1
  Cl  Cl16  1  0.263291  0.990745  0.667769  1
  Cl  Cl17  1  0.737337  0.001903  0.332184  1
  Cl  Cl18  1  0.330908  0.918683  0.249352  1
  Cl  Cl19  1  0.003450  0.662298  0.253458  1
  Cl  Cl20  1  0.738559  0.337297  0.073785  1
  Cl  Cl21  1  0.330784  0.247982  0.989546  1
  Cl  Cl22  1  0.927271  0.750769  0.673733  1
  Cl  Cl23  1  0.996370  0.337733  0.743688  1
  Cl  Cl24  1  0.260378  0.660699  0.931967  1
