# generated using pymatgen
data_K10MgMo7O27
_symmetry_space_group_name_H-M   'P 1'
_cell_length_a   8.07949440
_cell_length_b   10.77526122
_cell_length_c   18.72941073
_cell_angle_alpha   90.00000000
_cell_angle_beta   90.00000000
_cell_angle_gamma   90.00000000
_symmetry_Int_Tables_number   1
_chemical_formula_structural   K10MgMo7O27
_chemical_formula_sum   'K20 Mg2 Mo14 O54'
_cell_volume   1630.55745104
_cell_formula_units_Z   2
loop_
 _symmetry_equiv_pos_site_id
 _symmetry_equiv_pos_as_xyz
  1  'x, y, z'
loop_
 _atom_site_type_symbol
 _atom_site_label
 _atom_site_symmetry_multiplicity
 _atom_site_fract_x
 _atom_site_fract_y
 _atom_site_fract_z
 _atom_site_occupancy
  K  K0  1  0.096310  0.121641  0.500000  1
  K  K1  1  0.733423  0.008541  0.347560  1
  K  K2  1  0.260985  0.023436  0.315666  1
  K  K3  1  0.620172  0.267433  0.000000  1
  K  K4  1  0.054622  0.694845  0.320789  1
  K  K5  1  0.381499  0.365896  0.640677  1
  K  K6  1  0.739015  0.523436  0.184334  1
  K  K7  1  0.739015  0.523436  0.815666  1
  K  K8  1  0.618501  0.865896  0.140677  1
  K  K9  1  0.054622  0.694845  0.679211  1
  K  K10  1  0.733423  0.008541  0.652440  1
  K  K11  1  0.903690  0.621641  0.000000  1
  K  K12  1  0.945378  0.194845  0.179211  1
  K  K13  1  0.618501  0.865896  0.859323  1
  K  K14  1  0.381499  0.365896  0.359323  1
  K  K15  1  0.379828  0.767433  0.500000  1
  K  K16  1  0.266577  0.508541  0.152440  1
  K  K17  1  0.945378  0.194845  0.820789  1
  K  K18  1  0.266577  0.508541  0.847560  1
  K  K19  1  0.260985  0.023436  0.684334  1
  Mg  Mg20  1  0.290107  0.013263  0.000000  1
  Mg  Mg21  1  0.709893  0.513263  0.500000  1
  Mo  Mo22  1  0.108536  0.500690  0.500000  1
  Mo  Mo23  1  0.906865  0.348800  0.346464  1
  Mo  Mo24  1  0.440536  0.686026  0.000000  1
  Mo  Mo25  1  0.536857  0.677571  0.333552  1
  Mo  Mo26  1  0.891464  0.000690  0.000000  1
  Mo  Mo27  1  0.463143  0.177571  0.166448  1
  Mo  Mo28  1  0.093135  0.848800  0.153536  1
  Mo  Mo29  1  0.101624  0.322281  0.000000  1
  Mo  Mo30  1  0.463143  0.177571  0.833552  1
  Mo  Mo31  1  0.898376  0.822281  0.500000  1
  Mo  Mo32  1  0.093135  0.848800  0.846464  1
  Mo  Mo33  1  0.559464  0.186026  0.500000  1
  Mo  Mo34  1  0.536857  0.677571  0.666448  1
  Mo  Mo35  1  0.906865  0.348800  0.653536  1
  O  O36  1  0.000429  0.385588  0.077350  1
  O  O37  1  0.548805  0.632113  0.078336  1
  O  O38  1  0.280421  0.235089  0.790231  1
  O  O39  1  0.027656  0.210089  0.354617  1
  O  O40  1  0.548805  0.632113  0.921664  1
  O  O41  1  0.402006  0.805275  0.353674  1
  O  O42  1  0.592660  0.599575  0.416072  1
  O  O43  1  0.597994  0.305275  0.853674  1
  O  O44  1  0.999571  0.885588  0.422650  1
  O  O45  1  0.280421  0.235089  0.209769  1
  O  O46  1  0.402006  0.805275  0.646326  1
  O  O47  1  0.197188  0.350479  0.500000  1
  O  O48  1  0.006429  0.942837  0.776848  1
  O  O49  1  0.719579  0.735089  0.709769  1
  O  O50  1  0.993571  0.442837  0.723152  1
  O  O51  1  0.294736  0.806017  0.819523  1
  O  O52  1  0.569802  0.354331  0.500000  1
  O  O53  1  0.705264  0.306017  0.319523  1
  O  O54  1  0.440289  0.568239  0.725780  1
  O  O55  1  0.451195  0.132113  0.578336  1
  O  O56  1  0.795146  0.072997  0.925305  1
  O  O57  1  0.204854  0.572997  0.574695  1
  O  O58  1  0.234193  0.627747  0.000000  1
  O  O59  1  0.294736  0.806017  0.180477  1
  O  O60  1  0.407340  0.099575  0.916072  1
  O  O61  1  0.999571  0.885588  0.577350  1
  O  O62  1  0.559711  0.068239  0.225780  1
  O  O63  1  0.705264  0.306017  0.680477  1
  O  O64  1  0.000429  0.385588  0.922650  1
  O  O65  1  0.027656  0.210089  0.645383  1
  O  O66  1  0.972344  0.710089  0.854617  1
  O  O67  1  0.719579  0.735089  0.290231  1
  O  O68  1  0.592660  0.599575  0.583928  1
  O  O69  1  0.993571  0.442837  0.276848  1
  O  O70  1  0.087070  0.151208  0.000000  1
  O  O71  1  0.559711  0.068239  0.774220  1
  O  O72  1  0.451195  0.132113  0.421664  1
  O  O73  1  0.099745  0.938603  0.930834  1
  O  O74  1  0.802812  0.850479  0.000000  1
  O  O75  1  0.407340  0.099575  0.083928  1
  O  O76  1  0.006429  0.942837  0.223152  1
  O  O77  1  0.099745  0.938603  0.069166  1
  O  O78  1  0.972344  0.710089  0.145383  1
  O  O79  1  0.312490  0.364444  0.000000  1
  O  O80  1  0.912930  0.651208  0.500000  1
  O  O81  1  0.440289  0.568239  0.274220  1
  O  O82  1  0.430198  0.854331  0.000000  1
  O  O83  1  0.765807  0.127747  0.500000  1
  O  O84  1  0.900255  0.438603  0.569166  1
  O  O85  1  0.597994  0.305275  0.146326  1
  O  O86  1  0.204854  0.572997  0.425305  1
  O  O87  1  0.795146  0.072997  0.074695  1
  O  O88  1  0.900255  0.438603  0.430834  1
  O  O89  1  0.687510  0.864444  0.500000  1
