# generated using pymatgen
data_GaSe2NCl6
_symmetry_space_group_name_H-M   'P 1'
_cell_length_a   10.19615190
_cell_length_b   11.81437844
_cell_length_c   11.05995733
_cell_angle_alpha   90.00000000
_cell_angle_beta   114.47532826
_cell_angle_gamma   90.00000000
_symmetry_Int_Tables_number   1
_chemical_formula_structural   GaSe2NCl6
_chemical_formula_sum   'Ga4 Se8 N4 Cl24'
_cell_volume   1212.57528274
_cell_formula_units_Z   4
loop_
 _symmetry_equiv_pos_site_id
 _symmetry_equiv_pos_as_xyz
  1  'x, y, z'
loop_
 _atom_site_type_symbol
 _atom_site_label
 _atom_site_symmetry_multiplicity
 _atom_site_fract_x
 _atom_site_fract_y
 _atom_site_fract_z
 _atom_site_occupancy
  Ga  Ga0  1  0.827474  0.193649  0.512978  1
  Ga  Ga1  1  0.172526  0.806351  0.487022  1
  Ga  Ga2  1  0.172526  0.693649  0.987022  1
  Ga  Ga3  1  0.827474  0.306351  0.012978  1
  Se  Se4  1  0.726173  0.546461  0.545855  1
  Se  Se5  1  0.273827  0.453539  0.454145  1
  Se  Se6  1  0.726173  0.953539  0.045855  1
  Se  Se7  1  0.788398  0.681856  0.121003  1
  Se  Se8  1  0.211602  0.318144  0.878997  1
  Se  Se9  1  0.273827  0.046461  0.954145  1
  Se  Se10  1  0.788398  0.818144  0.621003  1
  Se  Se11  1  0.211602  0.181856  0.378997  1
  N  N12  1  0.785182  0.672422  0.627577  1
  N  N13  1  0.785182  0.827578  0.127577  1
  N  N14  1  0.214818  0.172422  0.872423  1
  N  N15  1  0.214818  0.327578  0.372423  1
  Cl  Cl16  1  0.836391  0.414224  0.178237  1
  Cl  Cl17  1  0.857868  0.402895  0.857269  1
  Cl  Cl18  1  0.003036  0.176159  0.086928  1
  Cl  Cl19  1  0.996964  0.823841  0.913072  1
  Cl  Cl20  1  0.163609  0.914224  0.321763  1
  Cl  Cl21  1  0.857868  0.097105  0.357269  1
  Cl  Cl22  1  0.365471  0.367954  0.077987  1
  Cl  Cl23  1  0.622268  0.287997  0.433026  1
  Cl  Cl24  1  0.576222  0.920294  0.839948  1
  Cl  Cl25  1  0.163609  0.585776  0.821763  1
  Cl  Cl26  1  0.996964  0.676159  0.413072  1
  Cl  Cl27  1  0.622268  0.212003  0.933026  1
  Cl  Cl28  1  0.634529  0.867954  0.422013  1
  Cl  Cl29  1  0.003036  0.323841  0.586928  1
  Cl  Cl30  1  0.634529  0.632046  0.922013  1
  Cl  Cl31  1  0.142132  0.597105  0.142731  1
  Cl  Cl32  1  0.836391  0.085776  0.678237  1
  Cl  Cl33  1  0.365471  0.132046  0.577987  1
  Cl  Cl34  1  0.423778  0.079706  0.160052  1
  Cl  Cl35  1  0.377732  0.712003  0.566974  1
  Cl  Cl36  1  0.576222  0.579706  0.339948  1
  Cl  Cl37  1  0.377732  0.787997  0.066974  1
  Cl  Cl38  1  0.423778  0.420294  0.660052  1
  Cl  Cl39  1  0.142132  0.902895  0.642731  1
