# generated using pymatgen
data_In3SnI5
_symmetry_space_group_name_H-M   'P 1'
_cell_length_a   9.09115911
_cell_length_b   9.05888022
_cell_length_c   17.77693994
_cell_angle_alpha   90.00000000
_cell_angle_beta   99.48453686
_cell_angle_gamma   90.00000000
_symmetry_Int_Tables_number   1
_chemical_formula_structural   In3SnI5
_chemical_formula_sum   'In12 Sn4 I20'
_cell_volume   1444.01954680
_cell_formula_units_Z   4
loop_
 _symmetry_equiv_pos_site_id
 _symmetry_equiv_pos_as_xyz
  1  'x, y, z'
loop_
 _atom_site_type_symbol
 _atom_site_label
 _atom_site_symmetry_multiplicity
 _atom_site_fract_x
 _atom_site_fract_y
 _atom_site_fract_z
 _atom_site_occupancy
  In  In0  1  0.385151  0.821672  0.249676  1
  In  In1  1  0.385151  0.678328  0.749676  1
  In  In2  1  0.889859  0.603958  0.249253  1
  In  In3  1  0.110141  0.103958  0.250747  1
  In  In4  1  0.614849  0.321672  0.250324  1
  In  In5  1  0.779885  0.545514  0.972194  1
  In  In6  1  0.220115  0.454486  0.027806  1
  In  In7  1  0.889859  0.896042  0.749253  1
  In  In8  1  0.220115  0.045514  0.527806  1
  In  In9  1  0.110141  0.396042  0.750747  1
  In  In10  1  0.614849  0.178328  0.750324  1
  In  In11  1  0.779885  0.954486  0.472194  1
  Sn  Sn12  1  0.703727  0.536659  0.585905  1
  Sn  Sn13  1  0.296273  0.036659  0.914095  1
  Sn  Sn14  1  0.296273  0.463341  0.414095  1
  Sn  Sn15  1  0.703727  0.963341  0.085905  1
  I  I16  1  0.385298  0.377852  0.603728  1
  I  I17  1  0.385298  0.122148  0.103728  1
  I  I18  1  0.748454  0.537355  0.761276  1
  I  I19  1  0.545474  0.649102  0.102632  1
  I  I20  1  0.993755  0.209615  0.893754  1
  I  I21  1  0.868205  0.278137  0.113275  1
  I  I22  1  0.006245  0.790385  0.106246  1
  I  I23  1  0.993755  0.290385  0.393754  1
  I  I24  1  0.748454  0.962645  0.261276  1
  I  I25  1  0.131795  0.778137  0.386725  1
  I  I26  1  0.614702  0.877852  0.896272  1
  I  I27  1  0.454526  0.350898  0.897368  1
  I  I28  1  0.131795  0.721863  0.886725  1
  I  I29  1  0.006245  0.709615  0.606246  1
  I  I30  1  0.251546  0.462645  0.238724  1
  I  I31  1  0.251546  0.037355  0.738724  1
  I  I32  1  0.614702  0.622148  0.396272  1
  I  I33  1  0.868205  0.221863  0.613275  1
  I  I34  1  0.454526  0.149102  0.397368  1
  I  I35  1  0.545474  0.850898  0.602632  1
