# generated using pymatgen
data_K2YNb5O15
_symmetry_space_group_name_H-M   'P 1'
_cell_length_a   9.35185666
_cell_length_b   9.35185666
_cell_length_c   3.97510141
_cell_angle_alpha   90.00000000
_cell_angle_beta   90.00000000
_cell_angle_gamma   111.88706825
_symmetry_Int_Tables_number   1
_chemical_formula_structural   K2YNb5O15
_chemical_formula_sum   'K2 Y1 Nb5 O15'
_cell_volume   322.59276655
_cell_formula_units_Z   1
loop_
 _symmetry_equiv_pos_site_id
 _symmetry_equiv_pos_as_xyz
  1  'x, y, z'
loop_
 _atom_site_type_symbol
 _atom_site_label
 _atom_site_symmetry_multiplicity
 _atom_site_fract_x
 _atom_site_fract_y
 _atom_site_fract_z
 _atom_site_occupancy
  K  K0  1  0.298057  0.701943  0.000000  1
  K  K1  1  0.701943  0.298057  0.000000  1
  Y  Y2  1  0.000000  0.000000  0.000000  1
  Nb  Nb3  1  0.318330  0.059391  0.500000  1
  Nb  Nb4  1  0.059391  0.318330  0.500000  1
  Nb  Nb5  1  0.681670  0.940609  0.500000  1
  Nb  Nb6  1  0.940609  0.681670  0.500000  1
  Nb  Nb7  1  0.500000  0.500000  0.500000  1
  O  O8  1  0.127325  0.127325  0.500000  1
  O  O9  1  0.161393  0.838607  0.500000  1
  O  O10  1  0.272737  0.457589  0.500000  1
  O  O11  1  0.838607  0.161393  0.500000  1
  O  O12  1  0.872675  0.872675  0.500000  1
  O  O13  1  0.279295  0.047579  1.000000  1
  O  O14  1  0.720705  0.952421  1.000000  1
  O  O15  1  0.542411  0.727263  0.500000  1
  O  O16  1  0.047579  0.279295  1.000000  1
  O  O17  1  0.500000  1.000000  0.500000  1
  O  O18  1  0.457589  0.272737  0.500000  1
  O  O19  1  0.952421  0.720705  0.000000  1
  O  O20  1  0.500000  0.500000  1.000000  1
  O  O21  1  0.727263  0.542411  0.500000  1
  O  O22  1  1.000000  0.500000  0.500000  1
