# generated using pymatgen
data_La3(GaNi2)2
_symmetry_space_group_name_H-M   'P 1'
_cell_length_a   5.53504492
_cell_length_b   5.53504492
_cell_length_c   8.33133402
_cell_angle_alpha   81.86016170
_cell_angle_beta   98.13983830
_cell_angle_gamma   135.03347941
_symmetry_Int_Tables_number   1
_chemical_formula_structural   La3(GaNi2)2
_chemical_formula_sum   'La3 Ga2 Ni4'
_cell_volume   178.24943289
_cell_formula_units_Z   1
loop_
 _symmetry_equiv_pos_site_id
 _symmetry_equiv_pos_as_xyz
  1  'x, y, z'
loop_
 _atom_site_type_symbol
 _atom_site_label
 _atom_site_symmetry_multiplicity
 _atom_site_fract_x
 _atom_site_fract_y
 _atom_site_fract_z
 _atom_site_occupancy
  La  La0  1  0.376071  0.623929  0.620411  1
  La  La1  1  0.000000  0.000000  0.000000  1
  La  La2  1  0.623929  0.376071  0.379589  1
  Ga  Ga3  1  0.321484  0.678516  0.213985  1
  Ga  Ga4  1  0.678516  0.321484  0.786015  1
  Ni  Ni5  1  0.739554  0.260446  0.085342  1
  Ni  Ni6  1  0.085249  0.914751  0.639225  1
  Ni  Ni7  1  0.914751  0.085249  0.360775  1
  Ni  Ni8  1  0.260446  0.739554  0.914658  1
