# generated using pymatgen
data_Sr9YbV7O28
_symmetry_space_group_name_H-M   'P 1'
_cell_length_a   14.95423921
_cell_length_b   14.95423921
_cell_length_c   14.95423921
_cell_angle_alpha   44.65909815
_cell_angle_beta   44.65909815
_cell_angle_gamma   44.65909815
_symmetry_Int_Tables_number   1
_chemical_formula_structural   Sr9YbV7O28
_chemical_formula_sum   'Sr18 Yb2 V14 O56'
_cell_volume   1502.72226354
_cell_formula_units_Z   2
loop_
 _symmetry_equiv_pos_site_id
 _symmetry_equiv_pos_as_xyz
  1  'x, y, z'
loop_
 _atom_site_type_symbol
 _atom_site_label
 _atom_site_symmetry_multiplicity
 _atom_site_fract_x
 _atom_site_fract_y
 _atom_site_fract_z
 _atom_site_occupancy
  Sr  Sr0  1  0.527194  0.950023  0.544965  1
  Sr  Sr1  1  0.063419  0.650731  0.090298  1
  Sr  Sr2  1  0.844035  0.433217  0.424435  1
  Sr  Sr3  1  0.933217  0.344035  0.924435  1
  Sr  Sr4  1  0.433217  0.424435  0.844035  1
  Sr  Sr5  1  0.950023  0.544965  0.527194  1
  Sr  Sr6  1  0.344035  0.924435  0.933217  1
  Sr  Sr7  1  0.150731  0.563419  0.590298  1
  Sr  Sr8  1  0.924435  0.933217  0.344035  1
  Sr  Sr9  1  0.044965  0.450023  0.027194  1
  Sr  Sr10  1  0.090298  0.063419  0.650731  1
  Sr  Sr11  1  0.450023  0.027194  0.044965  1
  Sr  Sr12  1  0.563419  0.590298  0.150731  1
  Sr  Sr13  1  0.027194  0.044965  0.450023  1
  Sr  Sr14  1  0.544965  0.527194  0.950023  1
  Sr  Sr15  1  0.590298  0.150731  0.563419  1
  Sr  Sr16  1  0.424435  0.844035  0.433217  1
  Sr  Sr17  1  0.650731  0.090298  0.063419  1
  Yb  Yb18  1  0.000090  0.000090  0.000090  1
  Yb  Yb19  1  0.500090  0.500090  0.500090  1
  V  V20  1  0.192346  0.680413  0.223826  1
  V  V21  1  0.812619  0.311113  0.279939  1
  V  V22  1  0.680413  0.223826  0.192346  1
  V  V23  1  0.779939  0.811113  0.312619  1
  V  V24  1  0.311113  0.279939  0.812619  1
  V  V25  1  0.223826  0.192346  0.680413  1
  V  V26  1  0.723826  0.180413  0.692346  1
  V  V27  1  0.180413  0.692346  0.723826  1
  V  V28  1  0.811113  0.312619  0.779939  1
  V  V29  1  0.279939  0.812619  0.311113  1
  V  V30  1  0.692346  0.723826  0.180413  1
  V  V31  1  0.312619  0.779939  0.811113  1
  V  V32  1  0.729410  0.729410  0.729410  1
  V  V33  1  0.229410  0.229410  0.229410  1
  O  O34  1  0.394717  0.105494  0.662117  1
  O  O35  1  0.140596  0.601530  0.232273  1
  O  O36  1  0.621229  0.143881  0.373409  1
  O  O37  1  0.101801  0.396305  0.225077  1
  O  O38  1  0.894717  0.162117  0.605494  1
  O  O39  1  0.162117  0.605494  0.894717  1
  O  O40  1  0.225077  0.101801  0.396305  1
  O  O41  1  0.601530  0.232273  0.140596  1
  O  O42  1  0.366446  0.630716  0.384545  1
  O  O43  1  0.105494  0.662117  0.394717  1
  O  O44  1  0.884545  0.130716  0.866446  1
  O  O45  1  0.905744  0.356952  0.600725  1
  O  O46  1  0.812646  0.824955  0.391925  1
  O  O47  1  0.824955  0.391925  0.812646  1
  O  O48  1  0.725077  0.896305  0.601801  1
  O  O49  1  0.384545  0.366446  0.630716  1
  O  O50  1  0.732273  0.101530  0.640596  1
  O  O51  1  0.891925  0.324955  0.312646  1
  O  O52  1  0.605494  0.894717  0.162117  1
  O  O53  1  0.630716  0.384545  0.366446  1
  O  O54  1  0.126051  0.125029  0.862857  1
  O  O55  1  0.634044  0.367194  0.845859  1
  O  O56  1  0.134044  0.345859  0.867194  1
  O  O57  1  0.312646  0.891925  0.324955  1
  O  O58  1  0.101530  0.640596  0.732273  1
  O  O59  1  0.601801  0.725077  0.896305  1
  O  O60  1  0.185990  0.185990  0.185990  1
  O  O61  1  0.324955  0.312646  0.891925  1
  O  O62  1  0.130716  0.866446  0.884545  1
  O  O63  1  0.867194  0.134044  0.345859  1
  O  O64  1  0.121229  0.873409  0.643881  1
  O  O65  1  0.345859  0.867194  0.134044  1
  O  O66  1  0.862857  0.126051  0.125029  1
  O  O67  1  0.373409  0.621229  0.143881  1
  O  O68  1  0.232273  0.140596  0.601530  1
  O  O69  1  0.866446  0.884545  0.130716  1
  O  O70  1  0.626051  0.362857  0.625029  1
  O  O71  1  0.600725  0.905744  0.356952  1
  O  O72  1  0.391925  0.812646  0.824955  1
  O  O73  1  0.100725  0.856952  0.405744  1
  O  O74  1  0.625029  0.626051  0.362857  1
  O  O75  1  0.643881  0.121229  0.873409  1
  O  O76  1  0.143881  0.373409  0.621229  1
  O  O77  1  0.685990  0.685990  0.685990  1
  O  O78  1  0.362857  0.625029  0.626051  1
  O  O79  1  0.896305  0.601801  0.725077  1
  O  O80  1  0.356952  0.600725  0.905744  1
  O  O81  1  0.845859  0.634044  0.367194  1
  O  O82  1  0.125029  0.862857  0.126051  1
  O  O83  1  0.640596  0.732273  0.101530  1
  O  O84  1  0.367194  0.845859  0.634044  1
  O  O85  1  0.856952  0.405744  0.100725  1
  O  O86  1  0.662117  0.394717  0.105494  1
  O  O87  1  0.396305  0.225077  0.101801  1
  O  O88  1  0.405744  0.100725  0.856952  1
  O  O89  1  0.873409  0.643881  0.121229  1
