# generated using pymatgen
data_Gd3BWO9
_symmetry_space_group_name_H-M   'P 1'
_cell_length_a   8.66959715
_cell_length_b   8.66959715
_cell_length_c   5.47653164
_cell_angle_alpha   90.00000000
_cell_angle_beta   90.00000000
_cell_angle_gamma   120.00000000
_symmetry_Int_Tables_number   1
_chemical_formula_structural   Gd3BWO9
_chemical_formula_sum   'Gd6 B2 W2 O18'
_cell_volume   356.47909588
_cell_formula_units_Z   2
loop_
 _symmetry_equiv_pos_site_id
 _symmetry_equiv_pos_as_xyz
  1  'x, y, z'
loop_
 _atom_site_type_symbol
 _atom_site_label
 _atom_site_symmetry_multiplicity
 _atom_site_fract_x
 _atom_site_fract_y
 _atom_site_fract_z
 _atom_site_occupancy
  Gd  Gd0  1  0.355878  0.078776  0.198850  1
  Gd  Gd1  1  0.277103  0.355878  0.698850  1
  Gd  Gd2  1  0.722897  0.644122  0.198850  1
  Gd  Gd3  1  0.644122  0.921224  0.698850  1
  Gd  Gd4  1  0.921224  0.277103  0.198850  1
  Gd  Gd5  1  0.078776  0.722897  0.698850  1
  B  B6  1  0.000000  0.000000  0.368799  1
  B  B7  1  0.000000  0.000000  0.868799  1
  W  W8  1  0.666667  0.333333  0.741637  1
  W  W9  1  0.333333  0.666667  0.241637  1
  O  O10  1  0.124999  0.179254  0.360163  1
  O  O11  1  0.875001  0.820746  0.860163  1
  O  O12  1  0.519023  0.386966  0.968971  1
  O  O13  1  0.179254  0.054255  0.860163  1
  O  O14  1  0.820746  0.945745  0.360163  1
  O  O15  1  0.259640  0.796227  0.034504  1
  O  O16  1  0.867943  0.480977  0.968971  1
  O  O17  1  0.463413  0.259640  0.534504  1
  O  O18  1  0.203773  0.463413  0.034504  1
  O  O19  1  0.945745  0.124999  0.860163  1
  O  O20  1  0.740360  0.203773  0.534504  1
  O  O21  1  0.796227  0.536587  0.534504  1
  O  O22  1  0.054255  0.875001  0.360163  1
  O  O23  1  0.536587  0.740360  0.034504  1
  O  O24  1  0.613034  0.132057  0.968971  1
  O  O25  1  0.132057  0.519023  0.468971  1
  O  O26  1  0.480977  0.613034  0.468971  1
  O  O27  1  0.386966  0.867943  0.468971  1
