# generated using pymatgen
data_LiCaNiF6
_symmetry_space_group_name_H-M   'P 1'
_cell_length_a   5.14801441
_cell_length_b   5.14801441
_cell_length_c   9.87019279
_cell_angle_alpha   90.00000000
_cell_angle_beta   90.00000000
_cell_angle_gamma   120.00000000
_symmetry_Int_Tables_number   1
_chemical_formula_structural   LiCaNiF6
_chemical_formula_sum   'Li2 Ca2 Ni2 F12'
_cell_volume   226.53524204
_cell_formula_units_Z   2
loop_
 _symmetry_equiv_pos_site_id
 _symmetry_equiv_pos_as_xyz
  1  'x, y, z'
loop_
 _atom_site_type_symbol
 _atom_site_label
 _atom_site_symmetry_multiplicity
 _atom_site_fract_x
 _atom_site_fract_y
 _atom_site_fract_z
 _atom_site_occupancy
  Li  Li0  1  0.333333  0.666667  0.250000  1
  Li  Li1  1  0.666667  0.333333  0.750000  1
  Ca  Ca2  1  0.000000  0.000000  0.000000  1
  Ca  Ca3  1  0.000000  0.000000  0.500000  1
  Ni  Ni4  1  0.333333  0.666667  0.750000  1
  Ni  Ni5  1  0.666667  0.333333  0.250000  1
  F  F6  1  0.366768  0.018906  0.140317  1
  F  F7  1  0.633232  0.652138  0.640317  1
  F  F8  1  0.347862  0.981094  0.640317  1
  F  F9  1  0.018906  0.366768  0.640317  1
  F  F10  1  0.981094  0.633232  0.359683  1
  F  F11  1  0.981094  0.347862  0.140317  1
  F  F12  1  0.652138  0.633232  0.140317  1
  F  F13  1  0.652138  0.018906  0.359683  1
  F  F14  1  0.018906  0.652138  0.859683  1
  F  F15  1  0.366768  0.347862  0.359683  1
  F  F16  1  0.633232  0.981094  0.859683  1
  F  F17  1  0.347862  0.366768  0.859683  1
