# generated using pymatgen
data_Mg9Si5
_symmetry_space_group_name_H-M   'P 1'
_cell_length_a   7.17867145
_cell_length_b   7.17867145
_cell_length_c   12.29331828
_cell_angle_alpha   90.00000000
_cell_angle_beta   90.00000000
_cell_angle_gamma   120.00000000
_symmetry_Int_Tables_number   1
_chemical_formula_structural   Mg9Si5
_chemical_formula_sum   'Mg18 Si10'
_cell_volume   548.64056065
_cell_formula_units_Z   2
loop_
 _symmetry_equiv_pos_site_id
 _symmetry_equiv_pos_as_xyz
  1  'x, y, z'
loop_
 _atom_site_type_symbol
 _atom_site_label
 _atom_site_symmetry_multiplicity
 _atom_site_fract_x
 _atom_site_fract_y
 _atom_site_fract_z
 _atom_site_occupancy
  Mg  Mg0  1  0.594487  0.679080  0.583126  1
  Mg  Mg1  1  0.915407  0.594487  0.083126  1
  Mg  Mg2  1  0.679080  0.084593  0.083126  1
  Mg  Mg3  1  0.320920  0.915407  0.583126  1
  Mg  Mg4  1  0.084593  0.405513  0.583126  1
  Mg  Mg5  1  0.405513  0.320920  0.083126  1
  Mg  Mg6  1  0.405513  0.320920  0.416874  1
  Mg  Mg7  1  0.084593  0.405513  0.916874  1
  Mg  Mg8  1  0.320920  0.915407  0.916874  1
  Mg  Mg9  1  0.679080  0.084593  0.416874  1
  Mg  Mg10  1  0.915407  0.594487  0.416874  1
  Mg  Mg11  1  0.594487  0.679080  0.916874  1
  Mg  Mg12  1  0.653714  0.725971  0.250000  1
  Mg  Mg13  1  0.927743  0.653714  0.750000  1
  Mg  Mg14  1  0.725971  0.072257  0.750000  1
  Mg  Mg15  1  0.274029  0.927743  0.250000  1
  Mg  Mg16  1  0.072257  0.346286  0.250000  1
  Mg  Mg17  1  0.346286  0.274029  0.750000  1
  Si  Si18  1  0.000000  0.000000  0.398098  1
  Si  Si19  1  0.000000  0.000000  0.898098  1
  Si  Si20  1  0.000000  0.000000  0.601902  1
  Si  Si21  1  0.000000  0.000000  0.101902  1
  Si  Si22  1  0.666667  0.333333  0.250000  1
  Si  Si23  1  0.333333  0.666667  0.750000  1
  Si  Si24  1  0.333333  0.666667  0.088024  1
  Si  Si25  1  0.666667  0.333333  0.588024  1
  Si  Si26  1  0.666667  0.333333  0.911976  1
  Si  Si27  1  0.333333  0.666667  0.411976  1
