# generated using pymatgen
data_AlPO4
_symmetry_space_group_name_H-M   'P 1'
_cell_length_a   8.79361231
_cell_length_b   8.79361231
_cell_length_c   13.86345303
_cell_angle_alpha   88.72509863
_cell_angle_beta   91.27490137
_cell_angle_gamma   145.23565184
_symmetry_Int_Tables_number   1
_chemical_formula_structural   AlPO4
_chemical_formula_sum   'Al6 P6 O24'
_cell_volume   611.10678109
_cell_formula_units_Z   6
loop_
 _symmetry_equiv_pos_site_id
 _symmetry_equiv_pos_as_xyz
  1  'x, y, z'
loop_
 _atom_site_type_symbol
 _atom_site_label
 _atom_site_symmetry_multiplicity
 _atom_site_fract_x
 _atom_site_fract_y
 _atom_site_fract_z
 _atom_site_occupancy
  Al  Al0  1  0.599662  0.503128  0.230766  1
  Al  Al1  1  0.901969  0.238787  0.085010  1
  Al  Al2  1  0.238787  0.901969  0.914990  1
  Al  Al3  1  0.503128  0.599662  0.769234  1
  Al  Al4  1  0.263606  0.966308  0.538818  1
  Al  Al5  1  0.966308  0.263606  0.461182  1
  P  P6  1  0.716967  0.425631  0.039597  1
  P  P7  1  0.778611  0.450011  0.413166  1
  P  P8  1  0.997218  0.106328  0.266961  1
  P  P9  1  0.106328  0.997218  0.733039  1
  P  P10  1  0.425631  0.716967  0.960403  1
  P  P11  1  0.450011  0.778611  0.586834  1
  O  O12  1  0.802218  0.750733  0.745763  1
  O  O13  1  0.713068  0.453311  0.310621  1
  O  O14  1  0.251132  0.227198  0.240595  1
  O  O15  1  0.687496  0.527239  0.113350  1
  O  O16  1  0.228237  0.970735  0.798014  1
  O  O17  1  0.175749  0.445113  0.008857  1
  O  O18  1  0.970735  0.228237  0.201986  1
  O  O19  1  0.168193  0.014332  0.627353  1
  O  O20  1  0.344154  0.855524  0.592023  1
  O  O21  1  0.453311  0.713068  0.689379  1
  O  O22  1  0.527239  0.687496  0.886650  1
  O  O23  1  0.536820  0.271115  0.479335  1
  O  O24  1  0.010969  0.734991  0.453060  1
  O  O25  1  0.445113  0.175749  0.991143  1
  O  O26  1  0.271115  0.536820  0.520665  1
  O  O27  1  0.750733  0.802218  0.254237  1
  O  O28  1  0.734991  0.010969  0.546940  1
  O  O29  1  0.916366  0.640333  0.961814  1
  O  O30  1  0.815842  0.360507  0.091737  1
  O  O31  1  0.640333  0.916366  0.038186  1
  O  O32  1  0.227197  0.251132  0.759405  1
  O  O33  1  0.855524  0.344154  0.407977  1
  O  O34  1  0.360507  0.815842  0.908263  1
  O  O35  1  0.014332  0.168193  0.372647  1
