# generated using pymatgen
data_CaMn6SiO12
_symmetry_space_group_name_H-M   'P 1'
_cell_length_a   11.76467633
_cell_length_b   11.76467633
_cell_length_c   11.76467633
_cell_angle_alpha   131.68061322
_cell_angle_beta   131.68061322
_cell_angle_gamma   70.73393375
_symmetry_Int_Tables_number   1
_chemical_formula_structural   CaMn6SiO12
_chemical_formula_sum   'Ca4 Mn24 Si4 O48'
_cell_volume   889.70743639
_cell_formula_units_Z   4
loop_
 _symmetry_equiv_pos_site_id
 _symmetry_equiv_pos_as_xyz
  1  'x, y, z'
loop_
 _atom_site_type_symbol
 _atom_site_label
 _atom_site_symmetry_multiplicity
 _atom_site_fract_x
 _atom_site_fract_y
 _atom_site_fract_z
 _atom_site_occupancy
  Ca  Ca0  1  0.250000  0.250000  0.000000  1
  Ca  Ca1  1  0.750000  0.750000  0.000000  1
  Ca  Ca2  1  0.500000  0.000000  0.500000  1
  Ca  Ca3  1  0.000000  0.500000  0.500000  1
  Mn  Mn4  1  0.125000  0.903117  0.278117  1
  Mn  Mn5  1  0.875000  0.125000  0.250000  1
  Mn  Mn6  1  0.596883  0.375000  0.721883  1
  Mn  Mn7  1  0.875000  0.625000  0.750000  1
  Mn  Mn8  1  0.096883  0.375000  0.221883  1
  Mn  Mn9  1  0.375000  0.625000  0.250000  1
  Mn  Mn10  1  0.875000  0.125000  0.750000  1
  Mn  Mn11  1  0.987227  0.512773  0.000000  1
  Mn  Mn12  1  0.262773  0.762773  0.025547  1
  Mn  Mn13  1  0.737227  0.237227  0.974453  1
  Mn  Mn14  1  0.125000  0.403117  0.778117  1
  Mn  Mn15  1  0.375000  0.125000  0.750000  1
  Mn  Mn16  1  0.653117  0.875000  0.278117  1
  Mn  Mn17  1  0.512773  0.987227  1.000000  1
  Mn  Mn18  1  0.762773  0.737227  0.500000  1
  Mn  Mn19  1  0.237227  0.262773  0.500000  1
  Mn  Mn20  1  0.375000  0.625000  0.750000  1
  Mn  Mn21  1  0.375000  0.125000  0.250000  1
  Mn  Mn22  1  0.487227  0.487227  0.474453  1
  Mn  Mn23  1  0.153117  0.875000  0.778117  1
  Mn  Mn24  1  0.625000  0.846883  0.721883  1
  Mn  Mn25  1  0.625000  0.346883  0.221883  1
  Mn  Mn26  1  0.012773  0.012773  0.525547  1
  Mn  Mn27  1  0.875000  0.625000  0.250000  1
  Si  Si28  1  0.750000  0.250000  0.500000  1
  Si  Si29  1  0.500000  0.500000  0.000000  1
  Si  Si30  1  0.000000  0.000000  0.000000  1
  Si  Si31  1  0.250000  0.750000  0.500000  1
  O  O32  1  0.938912  0.133578  0.973874  1
  O  O33  1  0.790493  0.262805  0.189539  1
  O  O34  1  0.573266  0.762805  0.472312  1
  O  O35  1  0.290493  0.100953  0.527688  1
  O  O36  1  0.850953  0.823266  0.310461  1
  O  O37  1  0.459507  0.149047  0.972312  1
  O  O38  1  0.274939  0.809436  0.231058  1
  O  O39  1  0.456119  0.921623  0.231058  1
  O  O40  1  0.475061  0.440564  0.268942  1
  O  O41  1  0.774939  0.543881  0.465504  1
  O  O42  1  0.975061  0.706119  0.034496  1
  O  O43  1  0.883578  0.409704  0.694666  1
  O  O44  1  0.293881  0.328377  0.268942  1
  O  O45  1  0.659704  0.633578  0.194666  1
  O  O46  1  0.383578  0.688912  0.473874  1
  O  O47  1  0.366422  0.561088  0.026126  1
  O  O48  1  0.590296  0.284963  0.473874  1
  O  O49  1  0.715037  0.188912  0.305334  1
  O  O50  1  0.534963  0.340296  0.973874  1
  O  O51  1  0.073266  0.600953  0.810461  1
  O  O52  1  0.034963  0.061088  0.194666  1
  O  O53  1  0.578377  0.043881  0.768942  1
  O  O54  1  0.811088  0.116422  0.526126  1
  O  O55  1  0.959507  0.987195  0.310461  1
  O  O56  1  0.012805  0.323266  0.972312  1
  O  O57  1  0.559436  0.828377  0.034496  1
  O  O58  1  0.059436  0.024939  0.731058  1
  O  O59  1  0.350953  0.040493  0.027688  1
  O  O60  1  0.176734  0.487195  0.027688  1
  O  O61  1  0.078377  0.309436  0.534496  1
  O  O62  1  0.690564  0.225061  0.768942  1
  O  O63  1  0.671623  0.940564  0.965504  1
  O  O64  1  0.676734  0.649047  0.689539  1
  O  O65  1  0.171623  0.206119  0.731058  1
  O  O66  1  0.159704  0.965037  0.026126  1
  O  O67  1  0.793881  0.524939  0.965504  1
  O  O68  1  0.956119  0.725061  0.534496  1
  O  O69  1  0.512805  0.540493  0.689539  1
  O  O70  1  0.866422  0.840296  0.805334  1
  O  O71  1  0.899047  0.426734  0.189539  1
  O  O72  1  0.190564  0.421623  0.465504  1
  O  O73  1  0.311088  0.784963  0.694666  1
  O  O74  1  0.090296  0.616422  0.305334  1
  O  O75  1  0.399047  0.209507  0.472312  1
  O  O76  1  0.215037  0.909704  0.526126  1
  O  O77  1  0.237195  0.709507  0.810461  1
  O  O78  1  0.438912  0.465037  0.805334  1
  O  O79  1  0.737195  0.926734  0.527688  1
