# generated using pymatgen
data_Ba3LuIr2O9
_symmetry_space_group_name_H-M   'P 1'
_cell_length_a   5.91033844
_cell_length_b   5.91033844
_cell_length_c   14.61456150
_cell_angle_alpha   90.00000000
_cell_angle_beta   90.00000000
_cell_angle_gamma   120.00000000
_symmetry_Int_Tables_number   1
_chemical_formula_structural   Ba3LuIr2O9
_chemical_formula_sum   'Ba6 Lu2 Ir4 O18'
_cell_volume   442.12097760
_cell_formula_units_Z   2
loop_
 _symmetry_equiv_pos_site_id
 _symmetry_equiv_pos_as_xyz
  1  'x, y, z'
loop_
 _atom_site_type_symbol
 _atom_site_label
 _atom_site_symmetry_multiplicity
 _atom_site_fract_x
 _atom_site_fract_y
 _atom_site_fract_z
 _atom_site_occupancy
  Ba  Ba0  1  0.666667  0.333333  0.091823  1
  Ba  Ba1  1  0.333333  0.666667  0.591823  1
  Ba  Ba2  1  0.666667  0.333333  0.408177  1
  Ba  Ba3  1  0.000000  0.000000  0.250000  1
  Ba  Ba4  1  0.333333  0.666667  0.908177  1
  Ba  Ba5  1  0.000000  0.000000  0.750000  1
  Lu  Lu6  1  0.000000  0.000000  0.000000  1
  Lu  Lu7  1  0.000000  0.000000  0.500000  1
  Ir  Ir8  1  0.666667  0.333333  0.663427  1
  Ir  Ir9  1  0.333333  0.666667  0.336573  1
  Ir  Ir10  1  0.333333  0.666667  0.163427  1
  Ir  Ir11  1  0.666667  0.333333  0.836573  1
  O  O12  1  0.173612  0.347225  0.414419  1
  O  O13  1  0.173612  0.347225  0.085581  1
  O  O14  1  0.826388  0.173612  0.914419  1
  O  O15  1  0.491537  0.508463  0.250000  1
  O  O16  1  0.173612  0.826388  0.414419  1
  O  O17  1  0.983075  0.491537  0.750000  1
  O  O18  1  0.347225  0.173612  0.914419  1
  O  O19  1  0.826388  0.652775  0.585581  1
  O  O20  1  0.173612  0.826388  0.085581  1
  O  O21  1  0.508463  0.016925  0.750000  1
  O  O22  1  0.826388  0.652775  0.914419  1
  O  O23  1  0.508463  0.491537  0.750000  1
  O  O24  1  0.347225  0.173612  0.585581  1
  O  O25  1  0.652775  0.826388  0.414419  1
  O  O26  1  0.826388  0.173612  0.585581  1
  O  O27  1  0.491537  0.983075  0.250000  1
  O  O28  1  0.652775  0.826388  0.085581  1
  O  O29  1  0.016925  0.508463  0.250000  1
