# generated using pymatgen
data_KSnAsS5
_symmetry_space_group_name_H-M   'P 1'
_cell_length_a   7.59662381
_cell_length_b   8.33849035
_cell_length_c   14.15302663
_cell_angle_alpha   90.00000000
_cell_angle_beta   90.00000000
_cell_angle_gamma   90.00000000
_symmetry_Int_Tables_number   1
_chemical_formula_structural   KSnAsS5
_chemical_formula_sum   'K4 Sn4 As4 S20'
_cell_volume   896.51461679
_cell_formula_units_Z   4
loop_
 _symmetry_equiv_pos_site_id
 _symmetry_equiv_pos_as_xyz
  1  'x, y, z'
loop_
 _atom_site_type_symbol
 _atom_site_label
 _atom_site_symmetry_multiplicity
 _atom_site_fract_x
 _atom_site_fract_y
 _atom_site_fract_z
 _atom_site_occupancy
  K  K0  1  0.500000  0.894193  0.839548  1
  K  K1  1  0.500000  0.605807  0.339548  1
  K  K2  1  0.500000  0.394193  0.660452  1
  K  K3  1  0.500000  0.105807  0.160452  1
  Sn  Sn4  1  0.732131  0.000000  0.500000  1
  Sn  Sn5  1  0.732131  0.500000  0.000000  1
  Sn  Sn6  1  0.267869  0.500000  0.000000  1
  Sn  Sn7  1  0.267869  0.000000  0.500000  1
  As  As8  1  0.000000  0.696735  0.777920  1
  As  As9  1  0.000000  0.803265  0.277920  1
  As  As10  1  0.000000  0.303265  0.222080  1
  As  As11  1  0.000000  0.196735  0.722080  1
  S  S12  1  0.000000  0.713819  0.022827  1
  S  S13  1  0.234760  0.547999  0.818055  1
  S  S14  1  0.000000  0.786181  0.522827  1
  S  S15  1  0.500000  0.208116  0.463097  1
  S  S16  1  0.765240  0.047999  0.681945  1
  S  S17  1  0.234760  0.952001  0.318055  1
  S  S18  1  0.765240  0.547999  0.818055  1
  S  S19  1  0.000000  0.864688  0.910447  1
  S  S20  1  0.000000  0.364688  0.589553  1
  S  S21  1  0.000000  0.286181  0.977173  1
  S  S22  1  0.765240  0.952001  0.318055  1
  S  S23  1  0.000000  0.135312  0.089553  1
  S  S24  1  0.765240  0.452001  0.181945  1
  S  S25  1  0.500000  0.291884  0.963097  1
  S  S26  1  0.234760  0.452001  0.181945  1
  S  S27  1  0.000000  0.213819  0.477173  1
  S  S28  1  0.500000  0.708116  0.036903  1
  S  S29  1  0.234760  0.047999  0.681945  1
  S  S30  1  0.500000  0.791884  0.536903  1
  S  S31  1  0.000000  0.635312  0.410447  1
