# generated using pymatgen
data_NdTeBrO3
_symmetry_space_group_name_H-M   'P 1'
_cell_length_a   3.92603000
_cell_length_b   3.92603000
_cell_length_c   27.93683482
_cell_angle_alpha   90.00000000
_cell_angle_beta   90.00000000
_cell_angle_gamma   90.00000000
_symmetry_Int_Tables_number   1
_chemical_formula_structural   NdTeBrO3
_chemical_formula_sum   'Nd4 Te4 Br4 O12'
_cell_volume   430.61031384
_cell_formula_units_Z   4
loop_
 _symmetry_equiv_pos_site_id
 _symmetry_equiv_pos_as_xyz
  1  'x, y, z'
loop_
 _atom_site_type_symbol
 _atom_site_label
 _atom_site_symmetry_multiplicity
 _atom_site_fract_x
 _atom_site_fract_y
 _atom_site_fract_z
 _atom_site_occupancy
  Nd  Nd0  1  0.000000  0.500000  0.711125  1
  Nd  Nd1  1  0.500000  0.000000  0.288875  1
  Nd  Nd2  1  0.500000  0.000000  0.955662  1
  Nd  Nd3  1  0.000000  0.500000  0.044338  1
  Te  Te4  1  0.500000  0.000000  0.792828  1
  Te  Te5  1  0.000000  0.500000  0.380595  1
  Te  Te6  1  0.000000  0.500000  0.207172  1
  Te  Te7  1  0.500000  0.000000  0.619405  1
  Br  Br8  1  0.500000  0.000000  0.444104  1
  Br  Br9  1  0.000000  0.500000  0.555896  1
  Br  Br10  1  0.500000  0.000000  0.103867  1
  Br  Br11  1  0.000000  0.500000  0.896133  1
  O  O12  1  0.500000  0.000000  0.721437  1
  O  O13  1  0.000000  0.500000  0.278563  1
  O  O14  1  0.000000  0.000000  0.775247  1
  O  O15  1  0.500000  0.500000  0.347110  1
  O  O16  1  0.000000  0.000000  0.347110  1
  O  O17  1  0.500000  0.500000  0.224753  1
  O  O18  1  0.000000  0.000000  0.652890  1
  O  O19  1  0.000000  0.000000  0.224753  1
  O  O20  1  0.500000  0.500000  0.000000  1
  O  O21  1  0.500000  0.500000  0.775247  1
  O  O22  1  0.500000  0.500000  0.652890  1
  O  O23  1  0.000000  0.000000  0.000000  1
