# generated using pymatgen
data_Rb15Hg16
_symmetry_space_group_name_H-M   'P 1'
_cell_length_a   15.33773735
_cell_length_b   15.33773735
_cell_length_c   15.33773735
_cell_angle_alpha   111.73112235
_cell_angle_beta   111.73112235
_cell_angle_gamma   105.04023037
_symmetry_Int_Tables_number   1
_chemical_formula_structural   Rb15Hg16
_chemical_formula_sum   'Rb30 Hg32'
_cell_volume   2765.21848350
_cell_formula_units_Z   2
loop_
 _symmetry_equiv_pos_site_id
 _symmetry_equiv_pos_as_xyz
  1  'x, y, z'
loop_
 _atom_site_type_symbol
 _atom_site_label
 _atom_site_symmetry_multiplicity
 _atom_site_fract_x
 _atom_site_fract_y
 _atom_site_fract_z
 _atom_site_occupancy
  Rb  Rb0  1  0.443911  0.438279  0.456681  1
  Rb  Rb1  1  0.561834  0.788623  0.265855  1
  Rb  Rb2  1  0.188279  0.231598  0.494367  1
  Rb  Rb3  1  0.538623  0.772768  0.726788  1
  Rb  Rb4  1  0.739530  0.534569  0.746262  1
  Rb  Rb5  1  0.961692  0.256731  0.246262  1
  Rb  Rb6  1  0.006731  0.260470  0.795039  1
  Rb  Rb7  1  0.256179  0.256179  0.000000  1
  Rb  Rb8  1  0.500000  0.500000  0.000000  1
  Rb  Rb9  1  0.284569  0.038308  0.295039  1
  Rb  Rb10  1  0.188166  0.461377  0.234145  1
  Rb  Rb11  1  0.743821  0.743821  0.000000  1
  Rb  Rb12  1  0.306089  0.811721  0.043319  1
  Rb  Rb13  1  0.981598  0.987231  0.543319  1
  Rb  Rb14  1  0.768402  0.262769  0.956681  1
  Rb  Rb15  1  0.010470  0.715431  0.753738  1
  Rb  Rb16  1  0.006179  0.506179  0.500000  1
  Rb  Rb17  1  0.788308  0.993269  0.253738  1
  Rb  Rb18  1  0.704020  0.438166  0.226788  1
  Rb  Rb19  1  0.561721  0.018402  0.005633  1
  Rb  Rb20  1  0.522768  0.295980  0.734145  1
  Rb  Rb21  1  0.493821  0.993821  0.500000  1
  Rb  Rb22  1  0.743269  0.989530  0.704961  1
  Rb  Rb23  1  0.250000  0.750000  0.500000  1
  Rb  Rb24  1  0.012769  0.556089  0.994367  1
  Rb  Rb25  1  0.737231  0.693911  0.505633  1
  Rb  Rb26  1  0.045980  0.811834  0.273212  1
  Rb  Rb27  1  0.465431  0.211692  0.204961  1
  Rb  Rb28  1  0.227232  0.954020  0.765855  1
  Rb  Rb29  1  0.211377  0.477232  0.773212  1
  Hg  Hg30  1  0.274577  0.527921  0.568070  1
  Hg  Hg31  1  0.912487  0.422046  0.674547  1
  Hg  Hg32  1  0.837513  0.827954  0.825452  1
  Hg  Hg33  1  0.472356  0.214395  0.931525  1
  Hg  Hg34  1  0.002501  0.012060  0.174547  1
  Hg  Hg35  1  0.475423  0.722079  0.931930  1
  Hg  Hg36  1  0.456506  0.524577  0.246656  1
  Hg  Hg37  1  0.293494  0.725423  0.253344  1
  Hg  Hg38  1  0.790150  0.543494  0.068070  1
  Hg  Hg39  1  0.935783  0.249924  0.512790  1
  Hg  Hg40  1  0.459169  0.527644  0.742038  1
  Hg  Hg41  1  0.282869  0.540831  0.068475  1
  Hg  Hg42  1  0.577008  0.064217  0.314141  1
  Hg  Hg43  1  0.012866  0.827008  0.012790  1
  Hg  Hg44  1  0.959850  0.706506  0.431930  1
  Hg  Hg45  1  0.577954  0.252501  0.490441  1
  Hg  Hg46  1  0.172992  0.185783  0.185859  1
  Hg  Hg47  1  0.750076  0.262866  0.685859  1
  Hg  Hg48  1  0.747499  0.237940  0.325453  1
  Hg  Hg49  1  0.785605  0.717131  0.257962  1
  Hg  Hg50  1  0.737134  0.422992  0.487210  1
  Hg  Hg51  1  0.290831  0.722356  0.757962  1
  Hg  Hg52  1  0.172046  0.997499  0.009559  1
  Hg  Hg53  1  0.999924  0.987134  0.814141  1
  Hg  Hg54  1  0.472079  0.040150  0.746656  1
  Hg  Hg55  1  0.987940  0.162487  0.990441  1
  Hg  Hg56  1  0.467131  0.709169  0.431525  1
  Hg  Hg57  1  0.964395  0.532869  0.242038  1
  Hg  Hg58  1  0.762060  0.087513  0.509559  1
  Hg  Hg59  1  0.814217  0.000076  0.987210  1
  Hg  Hg60  1  0.277921  0.209850  0.753344  1
  Hg  Hg61  1  0.277644  0.035605  0.568475  1
