# generated using pymatgen
data_LiHo(PO3)4
_symmetry_space_group_name_H-M   'P 1'
_cell_length_a   8.94131591
_cell_length_b   8.94131591
_cell_length_c   9.65152331
_cell_angle_alpha   57.37895753
_cell_angle_beta   122.62104247
_cell_angle_gamma   133.09000980
_symmetry_Int_Tables_number   1
_chemical_formula_structural   LiHo(PO3)4
_chemical_formula_sum   'Li2 Ho2 P8 O24'
_cell_volume   455.93754627
_cell_formula_units_Z   2
loop_
 _symmetry_equiv_pos_site_id
 _symmetry_equiv_pos_as_xyz
  1  'x, y, z'
loop_
 _atom_site_type_symbol
 _atom_site_label
 _atom_site_symmetry_multiplicity
 _atom_site_fract_x
 _atom_site_fract_y
 _atom_site_fract_z
 _atom_site_occupancy
  Li  Li0  1  0.293769  0.293769  0.750000  1
  Li  Li1  1  0.706231  0.706231  0.250000  1
  Ho  Ho2  1  0.796962  0.796962  0.750000  1
  Ho  Ho3  1  0.203038  0.203038  0.250000  1
  P  P4  1  0.687844  0.414073  0.616043  1
  P  P5  1  0.704579  0.995934  0.306026  1
  P  P6  1  0.995934  0.704579  0.193974  1
  P  P7  1  0.004066  0.295421  0.806026  1
  P  P8  1  0.585927  0.312156  0.116043  1
  P  P9  1  0.312156  0.585927  0.383957  1
  P  P10  1  0.414073  0.687844  0.883957  1
  P  P11  1  0.295421  0.004066  0.693974  1
  O  O12  1  0.529126  0.216840  0.734106  1
  O  O13  1  0.436809  0.568593  0.071812  1
  O  O14  1  0.010818  0.153468  0.774035  1
  O  O15  1  0.783160  0.470874  0.234106  1
  O  O16  1  0.824371  0.601130  0.684124  1
  O  O17  1  0.242918  0.991358  0.523248  1
  O  O18  1  0.991358  0.242918  0.976752  1
  O  O19  1  0.398870  0.175629  0.184124  1
  O  O20  1  0.601130  0.824371  0.815876  1
  O  O21  1  0.989182  0.846532  0.225965  1
  O  O22  1  0.823583  0.333459  0.650886  1
  O  O23  1  0.216840  0.529126  0.765894  1
  O  O24  1  0.568593  0.436809  0.428188  1
  O  O25  1  0.153468  0.010818  0.725965  1
  O  O26  1  0.008642  0.757082  0.023248  1
  O  O27  1  0.175629  0.398870  0.315876  1
  O  O28  1  0.563191  0.431407  0.928188  1
  O  O29  1  0.176417  0.666541  0.349114  1
  O  O30  1  0.846532  0.989182  0.274035  1
  O  O31  1  0.333459  0.823583  0.849114  1
  O  O32  1  0.666541  0.176417  0.150886  1
  O  O33  1  0.431407  0.563191  0.571812  1
  O  O34  1  0.757082  0.008642  0.476752  1
  O  O35  1  0.470874  0.783160  0.265894  1
