# generated using pymatgen
data_NaC2N3
_symmetry_space_group_name_H-M   'P 1'
_cell_length_a   3.64153500
_cell_length_b   23.43563800
_cell_length_c   11.24397217
_cell_angle_alpha   90.00000000
_cell_angle_beta   99.53340496
_cell_angle_gamma   90.00000000
_symmetry_Int_Tables_number   1
_chemical_formula_structural   NaC2N3
_chemical_formula_sum   'Na12 C24 N36'
_cell_volume   946.32709924
_cell_formula_units_Z   12
loop_
 _symmetry_equiv_pos_site_id
 _symmetry_equiv_pos_as_xyz
  1  'x, y, z'
loop_
 _atom_site_type_symbol
 _atom_site_label
 _atom_site_symmetry_multiplicity
 _atom_site_fract_x
 _atom_site_fract_y
 _atom_site_fract_z
 _atom_site_occupancy
  Na  Na0  1  0.231655  0.386848  0.925193  1
  Na  Na1  1  0.803807  0.258943  0.509574  1
  Na  Na2  1  0.587534  0.490853  0.351100  1
  Na  Na3  1  0.412466  0.509147  0.648900  1
  Na  Na4  1  0.803807  0.241057  0.009574  1
  Na  Na5  1  0.587534  0.009147  0.851100  1
  Na  Na6  1  0.768345  0.613152  0.074807  1
  Na  Na7  1  0.768345  0.886848  0.574807  1
  Na  Na8  1  0.196193  0.758943  0.990426  1
  Na  Na9  1  0.412466  0.990853  0.148900  1
  Na  Na10  1  0.231655  0.113152  0.425193  1
  Na  Na11  1  0.196193  0.741057  0.490426  1
  C  C12  1  0.199115  0.971522  0.377696  1
  C  C13  1  0.275319  0.294998  0.225072  1
  C  C14  1  0.023586  0.117154  0.676386  1
  C  C15  1  0.873011  0.646677  0.626533  1
  C  C16  1  0.958080  0.406113  0.527127  1
  C  C17  1  0.724681  0.794998  0.274928  1
  C  C18  1  0.451706  0.707819  0.233511  1
  C  C19  1  0.126989  0.146677  0.873467  1
  C  C20  1  0.041920  0.906113  0.972873  1
  C  C21  1  0.724681  0.705002  0.774928  1
  C  C22  1  0.800885  0.471522  0.122304  1
  C  C23  1  0.873011  0.853323  0.126533  1
  C  C24  1  0.958080  0.093887  0.027127  1
  C  C25  1  0.041920  0.593887  0.472873  1
  C  C26  1  0.126989  0.353323  0.373467  1
  C  C27  1  0.275319  0.205002  0.725072  1
  C  C28  1  0.976414  0.882846  0.323614  1
  C  C29  1  0.976414  0.617154  0.823614  1
  C  C30  1  0.199115  0.528478  0.877696  1
  C  C31  1  0.548294  0.207819  0.266489  1
  C  C32  1  0.023586  0.382846  0.176386  1
  C  C33  1  0.451706  0.792181  0.733511  1
  C  C34  1  0.800885  0.028478  0.622304  1
  C  C35  1  0.548294  0.292181  0.766489  1
  N  N36  1  0.143221  0.332504  0.137175  1
  N  N37  1  0.976924  0.896232  0.205940  1
  N  N38  1  0.318438  0.672145  0.164721  1
  N  N39  1  0.856779  0.667496  0.862825  1
  N  N40  1  0.844668  0.051800  0.067455  1
  N  N41  1  0.915454  0.858728  0.008875  1
  N  N42  1  0.976924  0.603768  0.705940  1
  N  N43  1  0.732180  0.802512  0.155732  1
  N  N44  1  0.896360  0.078636  0.588383  1
  N  N45  1  0.023076  0.396232  0.294060  1
  N  N46  1  0.844668  0.448200  0.567455  1
  N  N47  1  0.583537  0.754595  0.814266  1
  N  N48  1  0.708461  0.517776  0.147766  1
  N  N49  1  0.291539  0.482224  0.852234  1
  N  N50  1  0.856779  0.832504  0.362825  1
  N  N51  1  0.267820  0.302512  0.344268  1
  N  N52  1  0.318438  0.827855  0.664721  1
  N  N53  1  0.416463  0.245405  0.185734  1
  N  N54  1  0.023076  0.103768  0.794060  1
  N  N55  1  0.103640  0.578636  0.911617  1
  N  N56  1  0.155332  0.948200  0.932545  1
  N  N57  1  0.708461  0.982224  0.647766  1
  N  N58  1  0.915454  0.641272  0.508875  1
  N  N59  1  0.681562  0.327855  0.835279  1
  N  N60  1  0.084546  0.358728  0.491125  1
  N  N61  1  0.896360  0.421364  0.088383  1
  N  N62  1  0.681562  0.172145  0.335279  1
  N  N63  1  0.732180  0.697488  0.655732  1
  N  N64  1  0.291539  0.017776  0.352234  1
  N  N65  1  0.143221  0.167496  0.637175  1
  N  N66  1  0.416463  0.254595  0.685734  1
  N  N67  1  0.583537  0.745405  0.314266  1
  N  N68  1  0.267820  0.197488  0.844268  1
  N  N69  1  0.103640  0.921364  0.411617  1
  N  N70  1  0.084546  0.141272  0.991125  1
  N  N71  1  0.155332  0.551800  0.432545  1
