# generated using pymatgen
data_Y3CuSiS7
_symmetry_space_group_name_H-M   'P 1'
_cell_length_a   9.92602353
_cell_length_b   9.92602353
_cell_length_c   5.70726330
_cell_angle_alpha   90.00000000
_cell_angle_beta   90.00000000
_cell_angle_gamma   120.00000000
_symmetry_Int_Tables_number   1
_chemical_formula_structural   Y3CuSiS7
_chemical_formula_sum   'Y6 Cu2 Si2 S14'
_cell_volume   486.97777560
_cell_formula_units_Z   2
loop_
 _symmetry_equiv_pos_site_id
 _symmetry_equiv_pos_as_xyz
  1  'x, y, z'
loop_
 _atom_site_type_symbol
 _atom_site_label
 _atom_site_symmetry_multiplicity
 _atom_site_fract_x
 _atom_site_fract_y
 _atom_site_fract_z
 _atom_site_occupancy
  Y  Y0  1  0.128144  0.356975  0.743228  1
  Y  Y1  1  0.871856  0.643025  0.243228  1
  Y  Y2  1  0.228831  0.871856  0.743228  1
  Y  Y3  1  0.356975  0.228831  0.243228  1
  Y  Y4  1  0.771169  0.128144  0.243228  1
  Y  Y5  1  0.643025  0.771169  0.743228  1
  Cu  Cu6  1  0.000000  0.000000  0.702748  1
  Cu  Cu7  1  0.000000  0.000000  0.202748  1
  Si  Si8  1  0.666667  0.333333  0.830881  1
  Si  Si9  1  0.333333  0.666667  0.330881  1
  S  S10  1  0.257534  0.164097  0.718846  1
  S  S11  1  0.415884  0.523016  0.480848  1
  S  S12  1  0.333333  0.666667  0.960706  1
  S  S13  1  0.164097  0.906562  0.218846  1
  S  S14  1  0.476984  0.892868  0.480848  1
  S  S15  1  0.584116  0.476984  0.980848  1
  S  S16  1  0.523016  0.107132  0.980848  1
  S  S17  1  0.835903  0.093438  0.718846  1
  S  S18  1  0.906562  0.742466  0.718846  1
  S  S19  1  0.666667  0.333333  0.460706  1
  S  S20  1  0.892868  0.415884  0.980848  1
  S  S21  1  0.093438  0.257534  0.218846  1
  S  S22  1  0.107132  0.584116  0.480848  1
  S  S23  1  0.742466  0.835903  0.218846  1
