# generated using pymatgen
data_Li4Ni5(P3O11)2
_symmetry_space_group_name_H-M   'P 1'
_cell_length_a   10.54965926
_cell_length_b   6.53050760
_cell_length_c   12.53550090
_cell_angle_alpha   90.00000000
_cell_angle_beta   103.96065705
_cell_angle_gamma   90.00000000
_symmetry_Int_Tables_number   1
_chemical_formula_structural   Li4Ni5(P3O11)2
_chemical_formula_sum   'Li8 Ni10 P12 O44'
_cell_volume   838.11850088
_cell_formula_units_Z   2
loop_
 _symmetry_equiv_pos_site_id
 _symmetry_equiv_pos_as_xyz
  1  'x, y, z'
loop_
 _atom_site_type_symbol
 _atom_site_label
 _atom_site_symmetry_multiplicity
 _atom_site_fract_x
 _atom_site_fract_y
 _atom_site_fract_z
 _atom_site_occupancy
  Li  Li0  1  0.944847  0.620590  0.822452  1
  Li  Li1  1  0.555153  0.120590  0.177548  1
  Li  Li2  1  0.627191  0.023859  0.656165  1
  Li  Li3  1  0.872809  0.523859  0.343835  1
  Li  Li4  1  0.372809  0.976141  0.343835  1
  Li  Li5  1  0.055153  0.379410  0.177548  1
  Li  Li6  1  0.127191  0.476141  0.656165  1
  Li  Li7  1  0.444847  0.879410  0.822452  1
  Ni  Ni8  1  0.219303  0.240221  0.866893  1
  Ni  Ni9  1  0.304028  0.512358  0.334170  1
  Ni  Ni10  1  0.195972  0.012358  0.665830  1
  Ni  Ni11  1  0.695972  0.487642  0.665830  1
  Ni  Ni12  1  0.780697  0.759779  0.133107  1
  Ni  Ni13  1  0.500000  0.500000  0.000000  1
  Ni  Ni14  1  0.719303  0.259779  0.866893  1
  Ni  Ni15  1  0.804028  0.987642  0.334170  1
  Ni  Ni16  1  0.280697  0.740221  0.133107  1
  Ni  Ni17  1  0.000000  0.000000  0.000000  1
  P  P18  1  0.913963  0.782374  0.581925  1
  P  P19  1  0.086037  0.217626  0.418075  1
  P  P20  1  0.776169  0.266000  0.086521  1
  P  P21  1  0.586037  0.282374  0.418075  1
  P  P22  1  0.276169  0.234000  0.086521  1
  P  P23  1  0.223831  0.734000  0.913479  1
  P  P24  1  0.066246  0.894590  0.259109  1
  P  P25  1  0.566246  0.605410  0.259109  1
  P  P26  1  0.723831  0.766000  0.913479  1
  P  P27  1  0.433754  0.394590  0.740891  1
  P  P28  1  0.413963  0.717626  0.581925  1
  P  P29  1  0.933754  0.105410  0.740891  1
  O  O30  1  0.364108  0.883486  0.648371  1
  O  O31  1  0.367386  0.273421  0.006482  1
  O  O32  1  0.367718  0.498214  0.623794  1
  O  O33  1  0.669194  0.951122  0.839079  1
  O  O34  1  0.857588  0.798205  0.999572  1
  O  O35  1  0.256520  0.417976  0.160236  1
  O  O36  1  0.936669  0.796317  0.271395  1
  O  O37  1  0.830806  0.451122  0.160921  1
  O  O38  1  0.851848  0.777325  0.459287  1
  O  O39  1  0.045287  0.059206  0.170995  1
  O  O40  1  0.635892  0.116514  0.351629  1
  O  O41  1  0.436669  0.703683  0.271395  1
  O  O42  1  0.142412  0.201795  0.000428  1
  O  O43  1  0.563331  0.296317  0.728605  1
  O  O44  1  0.564973  0.722603  0.613048  1
  O  O45  1  0.867718  0.001786  0.623794  1
  O  O46  1  0.864108  0.616514  0.648371  1
  O  O47  1  0.063331  0.203683  0.728605  1
  O  O48  1  0.867386  0.226579  0.006482  1
  O  O49  1  0.632614  0.726579  0.993518  1
  O  O50  1  0.454713  0.559206  0.829005  1
  O  O51  1  0.243480  0.917976  0.839764  1
  O  O52  1  0.135892  0.383486  0.351629  1
  O  O53  1  0.132614  0.773421  0.993518  1
  O  O54  1  0.435027  0.277397  0.386952  1
  O  O55  1  0.756520  0.082024  0.160236  1
  O  O56  1  0.132282  0.998214  0.376206  1
  O  O57  1  0.166082  0.732943  0.244096  1
  O  O58  1  0.351848  0.722675  0.459287  1
  O  O59  1  0.148152  0.222675  0.540713  1
  O  O60  1  0.357588  0.701795  0.999572  1
  O  O61  1  0.666082  0.767057  0.244096  1
  O  O62  1  0.833918  0.267057  0.755904  1
  O  O63  1  0.333918  0.232943  0.755904  1
  O  O64  1  0.648152  0.277325  0.540713  1
  O  O65  1  0.743480  0.582024  0.839764  1
  O  O66  1  0.642412  0.298205  0.000428  1
  O  O67  1  0.935027  0.222603  0.386952  1
  O  O68  1  0.169194  0.548878  0.839079  1
  O  O69  1  0.545287  0.440794  0.170995  1
  O  O70  1  0.632282  0.501786  0.376206  1
  O  O71  1  0.954713  0.940794  0.829005  1
  O  O72  1  0.330806  0.048878  0.160921  1
  O  O73  1  0.064973  0.777397  0.613048  1
