# generated using pymatgen
data_Rb2Na2IrO4
_symmetry_space_group_name_H-M   'P 1'
_cell_length_a   6.31147642
_cell_length_b   11.25611880
_cell_length_c   9.90217713
_cell_angle_alpha   90.00000000
_cell_angle_beta   114.91560496
_cell_angle_gamma   90.00000000
_symmetry_Int_Tables_number   1
_chemical_formula_structural   Rb2Na2IrO4
_chemical_formula_sum   'Rb8 Na8 Ir4 O16'
_cell_volume   638.00452613
_cell_formula_units_Z   4
loop_
 _symmetry_equiv_pos_site_id
 _symmetry_equiv_pos_as_xyz
  1  'x, y, z'
loop_
 _atom_site_type_symbol
 _atom_site_label
 _atom_site_symmetry_multiplicity
 _atom_site_fract_x
 _atom_site_fract_y
 _atom_site_fract_z
 _atom_site_occupancy
  Rb  Rb0  1  0.342196  0.866766  0.222019  1
  Rb  Rb1  1  0.325049  0.135389  0.996422  1
  Rb  Rb2  1  0.674951  0.635389  0.503578  1
  Rb  Rb3  1  0.325049  0.364611  0.496422  1
  Rb  Rb4  1  0.657804  0.366766  0.277981  1
  Rb  Rb5  1  0.657804  0.133234  0.777981  1
  Rb  Rb6  1  0.342196  0.633234  0.722019  1
  Rb  Rb7  1  0.674951  0.864611  0.003578  1
  Na  Na8  1  0.937035  0.611485  0.905575  1
  Na  Na9  1  0.435718  0.608878  0.090176  1
  Na  Na10  1  0.435718  0.891122  0.590176  1
  Na  Na11  1  0.937035  0.888515  0.405575  1
  Na  Na12  1  0.564282  0.108878  0.409824  1
  Na  Na13  1  0.062965  0.111485  0.594425  1
  Na  Na14  1  0.564282  0.391122  0.909824  1
  Na  Na15  1  0.062965  0.388515  0.094425  1
  Ir  Ir16  1  0.009718  0.867434  0.763434  1
  Ir  Ir17  1  0.009718  0.632566  0.263434  1
  Ir  Ir18  1  0.990282  0.367434  0.736566  1
  Ir  Ir19  1  0.990282  0.132566  0.236566  1
  O  O20  1  0.795279  0.957830  0.591732  1
  O  O21  1  0.728979  0.455267  0.740214  1
  O  O22  1  0.254256  0.277801  0.739484  1
  O  O23  1  0.215011  0.729347  0.428310  1
  O  O24  1  0.784989  0.270653  0.571690  1
  O  O25  1  0.795279  0.542170  0.091732  1
  O  O26  1  0.745744  0.777801  0.760516  1
  O  O27  1  0.215011  0.770653  0.928310  1
  O  O28  1  0.271021  0.955267  0.759786  1
  O  O29  1  0.784989  0.229347  0.071690  1
  O  O30  1  0.204721  0.042170  0.408268  1
  O  O31  1  0.254256  0.222199  0.239484  1
  O  O32  1  0.271021  0.544733  0.259786  1
  O  O33  1  0.728979  0.044733  0.240214  1
  O  O34  1  0.745744  0.722199  0.260516  1
  O  O35  1  0.204721  0.457830  0.908268  1
