# generated using pymatgen
data_Re5(NiAs6)2
_symmetry_space_group_name_H-M   'P 1'
_cell_length_a   3.24905430
_cell_length_b   12.64861746
_cell_length_c   15.74293417
_cell_angle_alpha   90.00000000
_cell_angle_beta   90.00000000
_cell_angle_gamma   90.00000000
_symmetry_Int_Tables_number   1
_chemical_formula_structural   Re5(NiAs6)2
_chemical_formula_sum   'Re10 Ni4 As24'
_cell_volume   646.97233026
_cell_formula_units_Z   2
loop_
 _symmetry_equiv_pos_site_id
 _symmetry_equiv_pos_as_xyz
  1  'x, y, z'
loop_
 _atom_site_type_symbol
 _atom_site_label
 _atom_site_symmetry_multiplicity
 _atom_site_fract_x
 _atom_site_fract_y
 _atom_site_fract_z
 _atom_site_occupancy
  Re  Re0  1  0.000000  0.183707  0.601399  1
  Re  Re1  1  0.000000  0.816293  0.398601  1
  Re  Re2  1  0.500000  0.683707  0.898601  1
  Re  Re3  1  0.500000  0.316293  0.101399  1
  Re  Re4  1  0.000000  0.578895  0.761943  1
  Re  Re5  1  0.000000  0.421105  0.238057  1
  Re  Re6  1  0.500000  0.078895  0.738057  1
  Re  Re7  1  0.500000  0.921105  0.261943  1
  Re  Re8  1  0.000000  0.000000  0.000000  1
  Re  Re9  1  0.500000  0.500000  0.500000  1
  Ni  Ni10  1  0.000000  0.371117  0.847204  1
  Ni  Ni11  1  0.000000  0.628883  0.152796  1
  Ni  Ni12  1  0.500000  0.871117  0.652796  1
  Ni  Ni13  1  0.500000  0.128883  0.347204  1
  As  As14  1  0.000000  0.592862  0.598184  1
  As  As15  1  0.000000  0.407138  0.401816  1
  As  As16  1  0.500000  0.092862  0.901816  1
  As  As17  1  0.500000  0.907138  0.098184  1
  As  As18  1  0.000000  0.930329  0.762263  1
  As  As19  1  0.000000  0.069671  0.237737  1
  As  As20  1  0.500000  0.430329  0.737737  1
  As  As21  1  0.500000  0.569671  0.262263  1
  As  As22  1  0.000000  0.774464  0.243249  1
  As  As23  1  0.000000  0.225536  0.756751  1
  As  As24  1  0.500000  0.274464  0.256751  1
  As  As25  1  0.500000  0.725536  0.743249  1
  As  As26  1  0.000000  0.841104  0.908853  1
  As  As27  1  0.000000  0.158896  0.091147  1
  As  As28  1  0.500000  0.341104  0.591147  1
  As  As29  1  0.500000  0.658896  0.408853  1
  As  As30  1  0.000000  0.534719  0.922235  1
  As  As31  1  0.000000  0.465281  0.077765  1
  As  As32  1  0.500000  0.034719  0.577765  1
  As  As33  1  0.500000  0.965281  0.422235  1
  As  As34  1  0.000000  0.792354  0.558951  1
  As  As35  1  0.000000  0.207646  0.441049  1
  As  As36  1  0.500000  0.292354  0.941049  1
  As  As37  1  0.500000  0.707646  0.058951  1
