# generated using pymatgen
data_Ba2Ge(TeSe)2
_symmetry_space_group_name_H-M   'P 1'
_cell_length_a   7.56382473
_cell_length_b   7.28759733
_cell_length_c   9.49392997
_cell_angle_alpha   90.00000000
_cell_angle_beta   108.45543084
_cell_angle_gamma   90.00000000
_symmetry_Int_Tables_number   1
_chemical_formula_structural   Ba2Ge(TeSe)2
_chemical_formula_sum   'Ba4 Ge2 Te4 Se4'
_cell_volume   496.41091524
_cell_formula_units_Z   2
loop_
 _symmetry_equiv_pos_site_id
 _symmetry_equiv_pos_as_xyz
  1  'x, y, z'
loop_
 _atom_site_type_symbol
 _atom_site_label
 _atom_site_symmetry_multiplicity
 _atom_site_fract_x
 _atom_site_fract_y
 _atom_site_fract_z
 _atom_site_occupancy
  Ba  Ba0  1  0.762062  0.250000  0.940261  1
  Ba  Ba1  1  0.786275  0.250000  0.448849  1
  Ba  Ba2  1  0.213725  0.750000  0.551151  1
  Ba  Ba3  1  0.237938  0.750000  0.059739  1
  Ge  Ge4  1  0.211338  0.250000  0.297016  1
  Ge  Ge5  1  0.788662  0.750000  0.702984  1
  Te  Te6  1  0.401723  0.250000  0.111343  1
  Te  Te7  1  0.379104  0.250000  0.582260  1
  Te  Te8  1  0.620896  0.750000  0.417740  1
  Te  Te9  1  0.598277  0.750000  0.888657  1
  Se  Se10  1  0.002499  0.504803  0.240150  1
  Se  Se11  1  0.997501  0.004803  0.759850  1
  Se  Se12  1  0.997501  0.495197  0.759850  1
  Se  Se13  1  0.002499  0.995197  0.240150  1
