# generated using pymatgen
data_K2U7O22
_symmetry_space_group_name_H-M   'P 1'
_cell_length_a   6.98241206
_cell_length_b   7.36974728
_cell_length_c   19.78731977
_cell_angle_alpha   90.00000000
_cell_angle_beta   90.00000000
_cell_angle_gamma   90.00000000
_symmetry_Int_Tables_number   1
_chemical_formula_structural   K2U7O22
_chemical_formula_sum   'K4 U14 O44'
_cell_volume   1018.22801624
_cell_formula_units_Z   2
loop_
 _symmetry_equiv_pos_site_id
 _symmetry_equiv_pos_as_xyz
  1  'x, y, z'
loop_
 _atom_site_type_symbol
 _atom_site_label
 _atom_site_symmetry_multiplicity
 _atom_site_fract_x
 _atom_site_fract_y
 _atom_site_fract_z
 _atom_site_occupancy
  K  K0  1  0.821215  0.500000  0.691995  1
  K  K1  1  0.321215  0.500000  0.808005  1
  K  K2  1  0.178785  0.500000  0.308005  1
  K  K3  1  0.678785  0.500000  0.191995  1
  U  U4  1  0.000000  0.000000  0.000000  1
  U  U5  1  0.500000  0.000000  0.500000  1
  U  U6  1  0.028191  0.000000  0.784658  1
  U  U7  1  0.528191  0.000000  0.715342  1
  U  U8  1  0.971809  0.000000  0.215342  1
  U  U9  1  0.471809  0.000000  0.284658  1
  U  U10  1  0.056389  0.000000  0.596967  1
  U  U11  1  0.556389  0.000000  0.903033  1
  U  U12  1  0.943611  0.000000  0.403033  1
  U  U13  1  0.443611  0.000000  0.096967  1
  U  U14  1  0.769486  0.500000  0.956926  1
  U  U15  1  0.269486  0.500000  0.543074  1
  U  U16  1  0.230514  0.500000  0.043074  1
  U  U17  1  0.730514  0.500000  0.456926  1
  O  O18  1  0.000000  0.307440  0.000000  1
  O  O19  1  0.500000  0.692560  0.500000  1
  O  O20  1  0.000000  0.692560  0.000000  1
  O  O21  1  0.500000  0.307440  0.500000  1
  O  O22  1  0.031253  0.249220  0.781050  1
  O  O23  1  0.531253  0.750780  0.718950  1
  O  O24  1  0.968747  0.249220  0.218950  1
  O  O25  1  0.468747  0.750780  0.281050  1
  O  O26  1  0.968747  0.750780  0.218950  1
  O  O27  1  0.468747  0.249220  0.281050  1
  O  O28  1  0.031253  0.750780  0.781050  1
  O  O29  1  0.531253  0.249220  0.718950  1
  O  O30  1  0.085018  0.257713  0.591381  1
  O  O31  1  0.585018  0.742287  0.908619  1
  O  O32  1  0.914982  0.257713  0.408619  1
  O  O33  1  0.414982  0.742287  0.091381  1
  O  O34  1  0.914982  0.742287  0.408619  1
  O  O35  1  0.414982  0.257713  0.091381  1
  O  O36  1  0.085018  0.742287  0.591381  1
  O  O37  1  0.585018  0.257713  0.908619  1
  O  O38  1  0.694973  0.000000  0.013280  1
  O  O39  1  0.194973  0.000000  0.486720  1
  O  O40  1  0.305027  0.000000  0.986720  1
  O  O41  1  0.805027  0.000000  0.513280  1
  O  O42  1  0.933189  0.000000  0.905311  1
  O  O43  1  0.433189  0.000000  0.594689  1
  O  O44  1  0.066811  0.000000  0.094689  1
  O  O45  1  0.566811  0.000000  0.405311  1
  O  O46  1  0.708219  0.000000  0.806557  1
  O  O47  1  0.208219  0.000000  0.693443  1
  O  O48  1  0.291781  0.000000  0.193443  1
  O  O49  1  0.791781  0.000000  0.306557  1
  O  O50  1  0.840997  0.000000  0.673585  1
  O  O51  1  0.340997  0.000000  0.826415  1
  O  O52  1  0.159003  0.000000  0.326415  1
  O  O53  1  0.659003  0.000000  0.173585  1
  O  O54  1  0.884502  0.500000  0.875512  1
  O  O55  1  0.384502  0.500000  0.624488  1
  O  O56  1  0.115498  0.500000  0.124488  1
  O  O57  1  0.615498  0.500000  0.375512  1
  O  O58  1  0.837049  0.500000  0.541162  1
  O  O59  1  0.337049  0.500000  0.958838  1
  O  O60  1  0.162951  0.500000  0.458838  1
  O  O61  1  0.662951  0.500000  0.041162  1
