# generated using pymatgen
data_Nb3Te8I7O
_symmetry_space_group_name_H-M   'P 1'
_cell_length_a   9.21300665
_cell_length_b   16.60345021
_cell_length_c   20.64915778
_cell_angle_alpha   90.00000000
_cell_angle_beta   104.47089620
_cell_angle_gamma   90.00000000
_symmetry_Int_Tables_number   1
_chemical_formula_structural   Nb3Te8I7O
_chemical_formula_sum   'Nb12 Te32 I28 O4'
_cell_volume   3058.44485832
_cell_formula_units_Z   4
loop_
 _symmetry_equiv_pos_site_id
 _symmetry_equiv_pos_as_xyz
  1  'x, y, z'
loop_
 _atom_site_type_symbol
 _atom_site_label
 _atom_site_symmetry_multiplicity
 _atom_site_fract_x
 _atom_site_fract_y
 _atom_site_fract_z
 _atom_site_occupancy
  Nb  Nb0  1  0.816538  0.143689  0.379150  1
  Nb  Nb1  1  0.267054  0.794451  0.051202  1
  Nb  Nb2  1  0.183462  0.643689  0.120850  1
  Nb  Nb3  1  0.732946  0.294451  0.448798  1
  Nb  Nb4  1  0.203478  0.869383  0.176412  1
  Nb  Nb5  1  0.183462  0.856311  0.620850  1
  Nb  Nb6  1  0.203478  0.630617  0.676412  1
  Nb  Nb7  1  0.796522  0.130617  0.823588  1
  Nb  Nb8  1  0.267054  0.705549  0.551202  1
  Nb  Nb9  1  0.732946  0.205549  0.948798  1
  Nb  Nb10  1  0.796522  0.369383  0.323588  1
  Nb  Nb11  1  0.816538  0.356311  0.879150  1
  Te  Te12  1  0.074873  0.628922  0.244501  1
  Te  Te13  1  0.397814  0.796592  0.294832  1
  Te  Te14  1  0.385730  0.868560  0.753983  1
  Te  Te15  1  0.780656  0.136160  0.510088  1
  Te  Te16  1  0.614270  0.368560  0.746017  1
  Te  Te17  1  0.074873  0.871078  0.744501  1
  Te  Te18  1  0.925127  0.128922  0.255499  1
  Te  Te19  1  0.490572  0.615637  0.647536  1
  Te  Te20  1  0.251364  0.966655  0.072270  1
  Te  Te21  1  0.602186  0.203408  0.705168  1
  Te  Te22  1  0.614270  0.131440  0.246017  1
  Te  Te23  1  0.251364  0.533345  0.572270  1
  Te  Te24  1  0.509428  0.115637  0.852464  1
  Te  Te25  1  0.530178  0.159956  0.409201  1
  Te  Te26  1  0.397814  0.703408  0.794832  1
  Te  Te27  1  0.219344  0.863840  0.489912  1
  Te  Te28  1  0.086029  0.706270  0.784298  1
  Te  Te29  1  0.925127  0.371078  0.755499  1
  Te  Te30  1  0.780656  0.363840  0.010088  1
  Te  Te31  1  0.385730  0.631440  0.253983  1
  Te  Te32  1  0.602186  0.296592  0.205168  1
  Te  Te33  1  0.086029  0.793730  0.284298  1
  Te  Te34  1  0.748636  0.466655  0.427730  1
  Te  Te35  1  0.219344  0.636160  0.989912  1
  Te  Te36  1  0.913971  0.293730  0.215702  1
  Te  Te37  1  0.748636  0.033345  0.927730  1
  Te  Te38  1  0.530178  0.340044  0.909201  1
  Te  Te39  1  0.509428  0.384363  0.352464  1
  Te  Te40  1  0.469822  0.659956  0.090799  1
  Te  Te41  1  0.913971  0.206270  0.715702  1
  Te  Te42  1  0.469822  0.840044  0.590799  1
  Te  Te43  1  0.490572  0.884363  0.147536  1
  I  I44  1  0.117296  0.126134  0.443646  1
  I  I45  1  0.287576  0.270947  0.751208  1
  I  I46  1  0.273548  0.984602  0.284657  1
  I  I47  1  0.117296  0.373866  0.943646  1
  I  I48  1  0.224813  0.475780  0.153882  1
  I  I49  1  0.555657  0.333504  0.539257  1
  I  I50  1  0.993587  0.676720  0.460397  1
  I  I51  1  0.089147  0.422925  0.370538  1
  I  I52  1  0.775187  0.524220  0.846118  1
  I  I53  1  0.993587  0.823280  0.960397  1
  I  I54  1  0.006413  0.323280  0.539603  1
  I  I55  1  0.775187  0.975780  0.346118  1
  I  I56  1  0.712424  0.770947  0.748792  1
  I  I57  1  0.555657  0.166496  0.039257  1
  I  I58  1  0.089147  0.077075  0.870538  1
  I  I59  1  0.712424  0.729053  0.248792  1
  I  I60  1  0.444343  0.666496  0.460743  1
  I  I61  1  0.444343  0.833504  0.960743  1
  I  I62  1  0.910853  0.922925  0.129462  1
  I  I63  1  0.006413  0.176720  0.039603  1
  I  I64  1  0.287576  0.229053  0.251208  1
  I  I65  1  0.882704  0.626134  0.056354  1
  I  I66  1  0.273548  0.515398  0.784657  1
  I  I67  1  0.910853  0.577075  0.629462  1
  I  I68  1  0.726452  0.484602  0.215343  1
  I  I69  1  0.726452  0.015398  0.715343  1
  I  I70  1  0.224813  0.024220  0.653882  1
  I  I71  1  0.882704  0.873866  0.556354  1
  O  O72  1  0.178689  0.738698  0.635522  1
  O  O73  1  0.821311  0.261302  0.364478  1
  O  O74  1  0.178689  0.761302  0.135522  1
  O  O75  1  0.821311  0.238698  0.864478  1
