# generated using pymatgen
data_K(In3Au2)2
_symmetry_space_group_name_H-M   'P 1'
_cell_length_a   8.29418038
_cell_length_b   8.29418038
_cell_length_c   4.50626824
_cell_angle_alpha   90.00000000
_cell_angle_beta   90.00000000
_cell_angle_gamma   120.00000000
_symmetry_Int_Tables_number   1
_chemical_formula_structural   K(In3Au2)2
_chemical_formula_sum   'K1 In6 Au4'
_cell_volume   268.46929560
_cell_formula_units_Z   1
loop_
 _symmetry_equiv_pos_site_id
 _symmetry_equiv_pos_as_xyz
  1  'x, y, z'
loop_
 _atom_site_type_symbol
 _atom_site_label
 _atom_site_symmetry_multiplicity
 _atom_site_fract_x
 _atom_site_fract_y
 _atom_site_fract_z
 _atom_site_occupancy
  K  K0  1  0.000000  0.000000  0.000000  1
  In  In1  1  0.931325  0.465663  0.000000  1
  In  In2  1  0.196561  0.803439  0.500000  1
  In  In3  1  0.534337  0.068675  0.000000  1
  In  In4  1  0.534337  0.465663  0.000000  1
  In  In5  1  0.196561  0.393121  0.500000  1
  In  In6  1  0.606879  0.803439  0.500000  1
  Au  Au7  1  0.409322  0.204661  0.500000  1
  Au  Au8  1  0.795339  0.204661  0.500000  1
  Au  Au9  1  0.795339  0.590678  0.500000  1
  Au  Au10  1  0.333333  0.666667  0.000000  1
