# generated using pymatgen
data_Sc3(Si2Ni)2
_symmetry_space_group_name_H-M   'P 1'
_cell_length_a   3.98847172
_cell_length_b   11.67343057
_cell_length_c   11.95161661
_cell_angle_alpha   90.00000000
_cell_angle_beta   90.00000000
_cell_angle_gamma   90.00000000
_symmetry_Int_Tables_number   1
_chemical_formula_structural   Sc3(Si2Ni)2
_chemical_formula_sum   'Sc12 Si16 Ni8'
_cell_volume   556.45708304
_cell_formula_units_Z   4
loop_
 _symmetry_equiv_pos_site_id
 _symmetry_equiv_pos_as_xyz
  1  'x, y, z'
loop_
 _atom_site_type_symbol
 _atom_site_label
 _atom_site_symmetry_multiplicity
 _atom_site_fract_x
 _atom_site_fract_y
 _atom_site_fract_z
 _atom_site_occupancy
  Sc  Sc0  1  0.750000  0.980444  0.813510  1
  Sc  Sc1  1  0.250000  0.019556  0.186490  1
  Sc  Sc2  1  0.750000  0.480444  0.686490  1
  Sc  Sc3  1  0.250000  0.519556  0.313510  1
  Sc  Sc4  1  0.750000  0.752683  0.651144  1
  Sc  Sc5  1  0.250000  0.247317  0.348856  1
  Sc  Sc6  1  0.750000  0.252683  0.848856  1
  Sc  Sc7  1  0.250000  0.747317  0.151144  1
  Sc  Sc8  1  0.750000  0.695770  0.920008  1
  Sc  Sc9  1  0.250000  0.304230  0.079992  1
  Sc  Sc10  1  0.750000  0.195770  0.579992  1
  Sc  Sc11  1  0.250000  0.804230  0.420008  1
  Si  Si12  1  0.750000  0.941637  0.532255  1
  Si  Si13  1  0.250000  0.058363  0.467745  1
  Si  Si14  1  0.750000  0.441637  0.967745  1
  Si  Si15  1  0.250000  0.558363  0.032255  1
  Si  Si16  1  0.750000  0.892101  0.063798  1
  Si  Si17  1  0.250000  0.107899  0.936202  1
  Si  Si18  1  0.750000  0.392101  0.436202  1
  Si  Si19  1  0.250000  0.607899  0.563798  1
  Si  Si20  1  0.750000  0.877777  0.266838  1
  Si  Si21  1  0.250000  0.122223  0.733162  1
  Si  Si22  1  0.750000  0.377777  0.233162  1
  Si  Si23  1  0.250000  0.622223  0.766838  1
  Si  Si24  1  0.750000  0.673563  0.297670  1
  Si  Si25  1  0.250000  0.326437  0.702330  1
  Si  Si26  1  0.750000  0.173563  0.202330  1
  Si  Si27  1  0.250000  0.826437  0.797670  1
  Ni  Ni28  1  0.750000  0.550514  0.134293  1
  Ni  Ni29  1  0.250000  0.449486  0.865707  1
  Ni  Ni30  1  0.750000  0.050514  0.365707  1
  Ni  Ni31  1  0.250000  0.949486  0.634293  1
  Ni  Ni32  1  0.750000  0.590919  0.472649  1
  Ni  Ni33  1  0.250000  0.409081  0.527351  1
  Ni  Ni34  1  0.750000  0.090919  0.027351  1
  Ni  Ni35  1  0.250000  0.909081  0.972649  1
