# generated using pymatgen
data_SmSbMo2O9
_symmetry_space_group_name_H-M   'P 1'
_cell_length_a   9.83242831
_cell_length_b   9.83242831
_cell_length_c   10.99192975
_cell_angle_alpha   68.23475742
_cell_angle_beta   111.76524258
_cell_angle_gamma   84.30262542
_symmetry_Int_Tables_number   1
_chemical_formula_structural   SmSbMo2O9
_chemical_formula_sum   'Sm4 Sb4 Mo8 O36'
_cell_volume   881.33975318
_cell_formula_units_Z   4
loop_
 _symmetry_equiv_pos_site_id
 _symmetry_equiv_pos_as_xyz
  1  'x, y, z'
loop_
 _atom_site_type_symbol
 _atom_site_label
 _atom_site_symmetry_multiplicity
 _atom_site_fract_x
 _atom_site_fract_y
 _atom_site_fract_z
 _atom_site_occupancy
  Sm  Sm0  1  0.673432  0.673432  0.750000  1
  Sm  Sm1  1  0.875058  0.875058  0.250000  1
  Sm  Sm2  1  0.124942  0.124942  0.750000  1
  Sm  Sm3  1  0.326568  0.326568  0.250000  1
  Sb  Sb4  1  0.351671  0.621241  0.462860  1
  Sb  Sb5  1  0.648329  0.378759  0.537140  1
  Sb  Sb6  1  0.621241  0.351671  0.037140  1
  Sb  Sb7  1  0.378759  0.648329  0.962860  1
  Mo  Mo8  1  0.434527  0.940790  0.194534  1
  Mo  Mo9  1  0.565473  0.059210  0.805466  1
  Mo  Mo10  1  0.258938  0.951950  0.525873  1
  Mo  Mo11  1  0.951950  0.258938  0.974127  1
  Mo  Mo12  1  0.940790  0.434527  0.305466  1
  Mo  Mo13  1  0.741062  0.048050  0.474127  1
  Mo  Mo14  1  0.059210  0.565473  0.694534  1
  Mo  Mo15  1  0.048050  0.741062  0.025873  1
  O  O16  1  0.126110  0.297081  0.064502  1
  O  O17  1  0.541149  0.576269  0.901382  1
  O  O18  1  0.404264  0.779944  0.577018  1
  O  O19  1  0.576269  0.541149  0.598618  1
  O  O20  1  0.934743  0.095298  0.100593  1
  O  O21  1  0.047986  0.775554  0.175394  1
  O  O22  1  0.558207  0.909602  0.750558  1
  O  O23  1  0.693586  0.982130  0.993592  1
  O  O24  1  0.211349  0.630128  0.799581  1
  O  O25  1  0.380776  0.141262  0.775850  1
  O  O26  1  0.441793  0.090398  0.249442  1
  O  O27  1  0.982130  0.693586  0.506408  1
  O  O28  1  0.458851  0.423731  0.098618  1
  O  O29  1  0.904702  0.065257  0.600593  1
  O  O30  1  0.141262  0.380776  0.724150  1
  O  O31  1  0.297081  0.126110  0.435498  1
  O  O32  1  0.909602  0.558207  0.749442  1
  O  O33  1  0.423731  0.458851  0.401382  1
  O  O34  1  0.220056  0.595736  0.077018  1
  O  O35  1  0.873890  0.702919  0.935498  1
  O  O36  1  0.095298  0.934743  0.399407  1
  O  O37  1  0.017870  0.306414  0.493592  1
  O  O38  1  0.090398  0.441793  0.250558  1
  O  O39  1  0.779944  0.404264  0.922982  1
  O  O40  1  0.595736  0.220056  0.422982  1
  O  O41  1  0.858738  0.619224  0.275850  1
  O  O42  1  0.224446  0.952014  0.675394  1
  O  O43  1  0.369872  0.788651  0.299581  1
  O  O44  1  0.630128  0.211349  0.700419  1
  O  O45  1  0.702919  0.873890  0.564502  1
  O  O46  1  0.065257  0.904702  0.899407  1
  O  O47  1  0.619224  0.858738  0.224150  1
  O  O48  1  0.775554  0.047986  0.324606  1
  O  O49  1  0.788651  0.369872  0.200419  1
  O  O50  1  0.306414  0.017870  0.006408  1
  O  O51  1  0.952014  0.224446  0.824606  1
