# generated using pymatgen
data_CsZnPO4
_symmetry_space_group_name_H-M   'P 1'
_cell_length_a   5.49974841
_cell_length_b   9.40294422
_cell_length_c   9.50502903
_cell_angle_alpha   90.00000000
_cell_angle_beta   90.00000000
_cell_angle_gamma   90.00000000
_symmetry_Int_Tables_number   1
_chemical_formula_structural   CsZnPO4
_chemical_formula_sum   'Cs4 Zn4 P4 O16'
_cell_volume   491.54143186
_cell_formula_units_Z   4
loop_
 _symmetry_equiv_pos_site_id
 _symmetry_equiv_pos_as_xyz
  1  'x, y, z'
loop_
 _atom_site_type_symbol
 _atom_site_label
 _atom_site_symmetry_multiplicity
 _atom_site_fract_x
 _atom_site_fract_y
 _atom_site_fract_z
 _atom_site_occupancy
  Cs  Cs0  1  0.761950  0.003516  0.796538  1
  Cs  Cs1  1  0.261950  0.496484  0.296538  1
  Cs  Cs2  1  0.261950  0.996484  0.203462  1
  Cs  Cs3  1  0.761950  0.503516  0.703462  1
  Zn  Zn4  1  0.251576  0.325850  0.917363  1
  Zn  Zn5  1  0.751576  0.174150  0.417363  1
  Zn  Zn6  1  0.251576  0.825850  0.582637  1
  Zn  Zn7  1  0.751576  0.674150  0.082637  1
  P  P8  1  0.751991  0.804322  0.412354  1
  P  P9  1  0.251991  0.195678  0.587646  1
  P  P10  1  0.751991  0.304322  0.087646  1
  P  P11  1  0.251991  0.695678  0.912354  1
  O  O12  1  0.576741  0.758051  0.533230  1
  O  O13  1  0.076741  0.741949  0.033230  1
  O  O14  1  0.662285  0.234890  0.226083  1
  O  O15  1  0.576741  0.258051  0.966770  1
  O  O16  1  0.011702  0.747982  0.449145  1
  O  O17  1  0.162285  0.265110  0.726083  1
  O  O18  1  0.511702  0.252018  0.550855  1
  O  O19  1  0.011702  0.247982  0.050855  1
  O  O20  1  0.255655  0.032772  0.605252  1
  O  O21  1  0.076741  0.241949  0.466770  1
  O  O22  1  0.755655  0.467228  0.105252  1
  O  O23  1  0.755655  0.967228  0.394748  1
  O  O24  1  0.255655  0.532772  0.894748  1
  O  O25  1  0.162285  0.765110  0.773917  1
  O  O26  1  0.662285  0.734890  0.273917  1
  O  O27  1  0.511702  0.752018  0.949145  1
