# generated using pymatgen
data_KLiSO4
_symmetry_space_group_name_H-M   'P 1'
_cell_length_a   5.16844716
_cell_length_b   8.95062618
_cell_length_c   9.10292815
_cell_angle_alpha   90.00000000
_cell_angle_beta   90.00000000
_cell_angle_gamma   90.00000000
_symmetry_Int_Tables_number   1
_chemical_formula_structural   KLiSO4
_chemical_formula_sum   'K4 Li4 S4 O16'
_cell_volume   421.10908866
_cell_formula_units_Z   4
loop_
 _symmetry_equiv_pos_site_id
 _symmetry_equiv_pos_as_xyz
  1  'x, y, z'
loop_
 _atom_site_type_symbol
 _atom_site_label
 _atom_site_symmetry_multiplicity
 _atom_site_fract_x
 _atom_site_fract_y
 _atom_site_fract_z
 _atom_site_occupancy
  K  K0  1  0.733985  0.996490  0.711496  1
  K  K1  1  0.733985  0.496490  0.788504  1
  K  K2  1  0.233985  0.503510  0.211496  1
  K  K3  1  0.233985  0.003510  0.288504  1
  Li  Li4  1  0.711137  0.341975  0.389392  1
  Li  Li5  1  0.711137  0.841975  0.110608  1
  Li  Li6  1  0.211137  0.658025  0.610608  1
  Li  Li7  1  0.211137  0.158025  0.889392  1
  S  S8  1  0.207112  0.786708  0.930965  1
  S  S9  1  0.707112  0.213292  0.069035  1
  S  S10  1  0.707112  0.713292  0.430965  1
  S  S11  1  0.207112  0.286708  0.569035  1
  O  O12  1  0.929257  0.751051  0.960752  1
  O  O13  1  0.856471  0.226860  0.928602  1
  O  O14  1  0.230933  0.441018  0.628164  1
  O  O15  1  0.808804  0.821313  0.320990  1
  O  O16  1  0.429257  0.748949  0.460752  1
  O  O17  1  0.356471  0.773140  0.071398  1
  O  O18  1  0.808804  0.321313  0.179010  1
  O  O19  1  0.230933  0.941018  0.871836  1
  O  O20  1  0.356471  0.273140  0.428602  1
  O  O21  1  0.308804  0.178687  0.679010  1
  O  O22  1  0.856471  0.726860  0.571398  1
  O  O23  1  0.308804  0.678687  0.820990  1
  O  O24  1  0.929257  0.251051  0.539248  1
  O  O25  1  0.429257  0.248949  0.039248  1
  O  O26  1  0.730933  0.558982  0.371836  1
  O  O27  1  0.730933  0.058982  0.128164  1
