# generated using pymatgen
data_LiUP(H4O5)2
_symmetry_space_group_name_H-M   'P 1'
_cell_length_a   6.98057368
_cell_length_b   6.98057368
_cell_length_c   9.26482900
_cell_angle_alpha   90.00000000
_cell_angle_beta   90.00000000
_cell_angle_gamma   90.00000000
_symmetry_Int_Tables_number   1
_chemical_formula_structural   LiUP(H4O5)2
_chemical_formula_sum   'Li2 U2 P2 H16 O20'
_cell_volume   451.46037592
_cell_formula_units_Z   2
loop_
 _symmetry_equiv_pos_site_id
 _symmetry_equiv_pos_as_xyz
  1  'x, y, z'
loop_
 _atom_site_type_symbol
 _atom_site_label
 _atom_site_symmetry_multiplicity
 _atom_site_fract_x
 _atom_site_fract_y
 _atom_site_fract_z
 _atom_site_occupancy
  Li  Li0  1  0.000000  0.000000  0.500000  1
  Li  Li1  1  0.500000  0.500000  0.500000  1
  U  U2  1  0.500000  0.000000  0.098689  1
  U  U3  1  0.000000  0.500000  0.901311  1
  P  P4  1  0.000000  0.000000  0.000000  1
  P  P5  1  0.500000  0.500000  0.000000  1
  H  H6  1  0.588253  0.330222  0.728852  1
  H  H7  1  0.170263  0.353932  0.379746  1
  H  H8  1  0.646068  0.170263  0.620254  1
  H  H9  1  0.911747  0.169778  0.271148  1
  H  H10  1  0.146068  0.670263  0.379746  1
  H  H11  1  0.169778  0.088253  0.728852  1
  H  H12  1  0.830222  0.911747  0.728852  1
  H  H13  1  0.670263  0.853932  0.620254  1
  H  H14  1  0.411747  0.669778  0.728852  1
  H  H15  1  0.853932  0.329737  0.379746  1
  H  H16  1  0.329737  0.146068  0.620254  1
  H  H17  1  0.330222  0.411747  0.271148  1
  H  H18  1  0.088253  0.830222  0.271148  1
  H  H19  1  0.669778  0.588253  0.271148  1
  H  H20  1  0.353932  0.829737  0.620254  1
  H  H21  1  0.829737  0.646068  0.379746  1
  O  O22  1  0.453310  0.328246  0.100641  1
  O  O23  1  0.500000  0.000000  0.903252  1
  O  O24  1  0.171754  0.953310  0.100641  1
  O  O25  1  0.546690  0.671754  0.100641  1
  O  O26  1  0.441256  0.718393  0.631044  1
  O  O27  1  0.671754  0.453310  0.899359  1
  O  O28  1  0.781607  0.941256  0.631044  1
  O  O29  1  0.000000  0.500000  0.096748  1
  O  O30  1  0.558744  0.281607  0.631044  1
  O  O31  1  0.218393  0.058744  0.631044  1
  O  O32  1  0.828246  0.046690  0.100641  1
  O  O33  1  0.000000  0.500000  0.705492  1
  O  O34  1  0.500000  0.000000  0.294508  1
  O  O35  1  0.718393  0.558744  0.368956  1
  O  O36  1  0.941256  0.218393  0.368956  1
  O  O37  1  0.281607  0.441256  0.368956  1
  O  O38  1  0.328246  0.546690  0.899359  1
  O  O39  1  0.058744  0.781607  0.368956  1
  O  O40  1  0.953310  0.828246  0.899359  1
  O  O41  1  0.046690  0.171754  0.899359  1
