# generated using pymatgen
data_CsReBrCl3
_symmetry_space_group_name_H-M   'P 1'
_cell_length_a   10.29389718
_cell_length_b   10.29389718
_cell_length_c   11.09723222
_cell_angle_alpha   90.00000000
_cell_angle_beta   90.00000000
_cell_angle_gamma   90.43995597
_symmetry_Int_Tables_number   1
_chemical_formula_structural   CsReBrCl3
_chemical_formula_sum   'Cs6 Re6 Br6 Cl18'
_cell_volume   1175.87598956
_cell_formula_units_Z   6
loop_
 _symmetry_equiv_pos_site_id
 _symmetry_equiv_pos_as_xyz
  1  'x, y, z'
loop_
 _atom_site_type_symbol
 _atom_site_label
 _atom_site_symmetry_multiplicity
 _atom_site_fract_x
 _atom_site_fract_y
 _atom_site_fract_z
 _atom_site_occupancy
  Cs  Cs0  1  0.432793  0.796376  0.750000  1
  Cs  Cs1  1  0.004356  0.004356  0.500000  1
  Cs  Cs2  1  0.487753  0.295585  0.750000  1
  Cs  Cs3  1  0.796376  0.432793  0.250000  1
  Cs  Cs4  1  0.004356  0.004356  1.000000  1
  Cs  Cs5  1  0.295585  0.487753  0.250000  1
  Re  Re6  1  0.918067  0.634249  0.750000  1
  Re  Re7  1  0.011797  0.449107  0.638085  1
  Re  Re8  1  0.011797  0.449107  0.861915  1
  Re  Re9  1  0.449107  0.011797  0.138085  1
  Re  Re10  1  0.634249  0.918067  0.250000  1
  Re  Re11  1  0.449107  0.011797  0.361915  1
  Br  Br12  1  0.254212  0.111661  0.250000  1
  Br  Br13  1  0.639688  0.916472  0.482200  1
  Br  Br14  1  0.916472  0.639688  0.982200  1
  Br  Br15  1  0.639688  0.916472  0.017800  1
  Br  Br16  1  0.916472  0.639688  0.517800  1
  Br  Br17  1  0.111661  0.254212  0.750000  1
  Cl  Cl18  1  0.528198  0.222400  0.102666  1
  Cl  Cl19  1  0.822934  0.328688  0.895950  1
  Cl  Cl20  1  0.328688  0.822934  0.395950  1
  Cl  Cl21  1  0.063164  0.339367  0.070103  1
  Cl  Cl22  1  0.339367  0.063164  0.570103  1
  Cl  Cl23  1  0.222400  0.528198  0.602666  1
  Cl  Cl24  1  0.807518  0.863346  0.750000  1
  Cl  Cl25  1  0.222400  0.528198  0.897334  1
  Cl  Cl26  1  0.063164  0.339367  0.429897  1
  Cl  Cl27  1  0.328688  0.822934  0.104050  1
  Cl  Cl28  1  0.863346  0.807519  0.250000  1
  Cl  Cl29  1  0.098045  0.774011  0.750000  1
  Cl  Cl30  1  0.528198  0.222400  0.397334  1
  Cl  Cl31  1  0.699419  0.572044  0.750000  1
  Cl  Cl32  1  0.774011  0.098045  0.250000  1
  Cl  Cl33  1  0.339367  0.063164  0.929897  1
  Cl  Cl34  1  0.572044  0.699419  0.250000  1
  Cl  Cl35  1  0.822934  0.328688  0.604050  1
