# generated using pymatgen
data_UCl5
_symmetry_space_group_name_H-M   'P 1'
_cell_length_a   8.43125260
_cell_length_b   11.21773244
_cell_length_c   12.13970588
_cell_angle_alpha   90.00000000
_cell_angle_beta   132.94855786
_cell_angle_gamma   90.00000000
_symmetry_Int_Tables_number   1
_chemical_formula_structural   UCl5
_chemical_formula_sum   'U4 Cl20'
_cell_volume   840.41944197
_cell_formula_units_Z   4
loop_
 _symmetry_equiv_pos_site_id
 _symmetry_equiv_pos_as_xyz
  1  'x, y, z'
loop_
 _atom_site_type_symbol
 _atom_site_label
 _atom_site_symmetry_multiplicity
 _atom_site_fract_x
 _atom_site_fract_y
 _atom_site_fract_z
 _atom_site_occupancy
  U  U0  1  0.212362  0.634464  0.661430  1
  U  U1  1  0.787638  0.134464  0.838570  1
  U  U2  1  0.787638  0.365536  0.338570  1
  U  U3  1  0.212362  0.865536  0.161430  1
  Cl  Cl4  1  0.831033  0.892688  0.869337  1
  Cl  Cl5  1  0.561482  0.627234  0.926601  1
  Cl  Cl6  1  0.807742  0.355415  0.853747  1
  Cl  Cl7  1  0.831033  0.607312  0.369337  1
  Cl  Cl8  1  0.596452  0.127416  0.926993  1
  Cl  Cl9  1  0.994404  0.371500  0.260964  1
  Cl  Cl10  1  0.403548  0.627416  0.573007  1
  Cl  Cl11  1  0.005596  0.628500  0.739036  1
  Cl  Cl12  1  0.561482  0.872766  0.426601  1
  Cl  Cl13  1  0.192258  0.644585  0.146253  1
  Cl  Cl14  1  0.168967  0.107312  0.130663  1
  Cl  Cl15  1  0.438518  0.372766  0.073399  1
  Cl  Cl16  1  0.192258  0.855415  0.646253  1
  Cl  Cl17  1  0.994404  0.128500  0.760964  1
  Cl  Cl18  1  0.438518  0.127234  0.573399  1
  Cl  Cl19  1  0.005596  0.871500  0.239036  1
  Cl  Cl20  1  0.168967  0.392688  0.630663  1
  Cl  Cl21  1  0.403548  0.872584  0.073007  1
  Cl  Cl22  1  0.596452  0.372584  0.426993  1
  Cl  Cl23  1  0.807742  0.144585  0.353747  1
