# generated using pymatgen
data_Tl3(MoO3)10
_symmetry_space_group_name_H-M   'P 1'
_cell_length_a   10.40179919
_cell_length_b   10.40179919
_cell_length_c   10.45588332
_cell_angle_alpha   62.20921837
_cell_angle_beta   117.79078163
_cell_angle_gamma   136.58683193
_symmetry_Int_Tables_number   1
_chemical_formula_structural   Tl3(MoO3)10
_chemical_formula_sum   'Tl3 Mo10 O30'
_cell_volume   672.50375202
_cell_formula_units_Z   1
loop_
 _symmetry_equiv_pos_site_id
 _symmetry_equiv_pos_as_xyz
  1  'x, y, z'
loop_
 _atom_site_type_symbol
 _atom_site_label
 _atom_site_symmetry_multiplicity
 _atom_site_fract_x
 _atom_site_fract_y
 _atom_site_fract_z
 _atom_site_occupancy
  Tl  Tl0  1  0.188482  0.811518  0.740673  1
  Tl  Tl1  1  0.811518  0.188482  0.259327  1
  Tl  Tl2  1  0.500000  0.500000  0.500000  1
  Mo  Mo3  1  0.668139  0.820469  0.040349  1
  Mo  Mo4  1  0.109264  0.390122  0.657016  1
  Mo  Mo5  1  0.609878  0.890736  0.657016  1
  Mo  Mo6  1  0.331861  0.179531  0.959651  1
  Mo  Mo7  1  0.221637  0.778363  0.171867  1
  Mo  Mo8  1  0.890736  0.609878  0.342984  1
  Mo  Mo9  1  0.390122  0.109264  0.342984  1
  Mo  Mo10  1  0.820469  0.668139  0.959651  1
  Mo  Mo11  1  0.179531  0.331861  0.040349  1
  Mo  Mo12  1  0.778363  0.221637  0.828133  1
  O  O13  1  0.843078  0.156922  0.690920  1
  O  O14  1  0.838789  0.647876  0.815393  1
  O  O15  1  0.423517  0.576483  0.012637  1
  O  O16  1  0.129411  0.313888  0.558144  1
  O  O17  1  0.087141  0.912859  0.994028  1
  O  O18  1  0.244417  0.755583  0.029869  1
  O  O19  1  0.870589  0.686112  0.441856  1
  O  O20  1  0.356899  0.643101  0.672330  1
  O  O21  1  0.285821  0.203891  0.144211  1
  O  O22  1  0.796109  0.714179  0.144211  1
  O  O23  1  0.156922  0.843078  0.309080  1
  O  O24  1  0.686112  0.870589  0.558144  1
  O  O25  1  0.313888  0.129411  0.441856  1
  O  O26  1  0.714179  0.796109  0.855789  1
  O  O27  1  0.203891  0.285821  0.855789  1
  O  O28  1  0.643101  0.356899  0.327670  1
  O  O29  1  0.426168  0.058781  0.159129  1
  O  O30  1  0.573832  0.941219  0.840871  1
  O  O31  1  0.576483  0.423517  0.987363  1
  O  O32  1  0.912859  0.087141  0.005972  1
  O  O33  1  0.314248  0.685752  0.332214  1
  O  O34  1  0.685752  0.314248  0.667786  1
  O  O35  1  0.755583  0.244417  0.970131  1
  O  O36  1  0.647876  0.838789  0.184607  1
  O  O37  1  0.941219  0.573832  0.159129  1
  O  O38  1  0.161211  0.352124  0.184607  1
  O  O39  1  0.500000  0.000000  0.500000  1
  O  O40  1  0.352124  0.161211  0.815393  1
  O  O41  1  0.058781  0.426168  0.840871  1
  O  O42  1  0.000000  0.500000  0.500000  1
