# generated using pymatgen
data_LiY(MoO4)2
_symmetry_space_group_name_H-M   'P 1'
_cell_length_a   5.27624181
_cell_length_b   6.79625772
_cell_length_c   10.51420844
_cell_angle_alpha   100.91118709
_cell_angle_beta   99.45493075
_cell_angle_gamma   112.72277378
_symmetry_Int_Tables_number   1
_chemical_formula_structural   LiY(MoO4)2
_chemical_formula_sum   'Li2 Y2 Mo4 O16'
_cell_volume   329.53797246
_cell_formula_units_Z   2
loop_
 _symmetry_equiv_pos_site_id
 _symmetry_equiv_pos_as_xyz
  1  'x, y, z'
loop_
 _atom_site_type_symbol
 _atom_site_label
 _atom_site_symmetry_multiplicity
 _atom_site_fract_x
 _atom_site_fract_y
 _atom_site_fract_z
 _atom_site_occupancy
  Li  Li0  1  0.664740  0.622353  0.874257  1
  Li  Li1  1  0.335260  0.377647  0.125743  1
  Y  Y2  1  0.623646  0.770707  0.438765  1
  Y  Y3  1  0.376354  0.229293  0.561235  1
  Mo  Mo4  1  0.101721  0.846871  0.204402  1
  Mo  Mo5  1  0.898279  0.153129  0.795598  1
  Mo  Mo6  1  0.163171  0.700538  0.678950  1
  Mo  Mo7  1  0.836829  0.299462  0.321050  1
  O  O8  1  0.707778  0.503466  0.294033  1
  O  O9  1  0.980550  0.044155  0.635720  1
  O  O10  1  0.800534  0.683226  0.069113  1
  O  O11  1  0.292222  0.496534  0.705967  1
  O  O12  1  0.705127  0.320021  0.763916  1
  O  O13  1  0.199466  0.316774  0.930887  1
  O  O14  1  0.019450  0.955845  0.364280  1
  O  O15  1  0.376380  0.883248  0.586224  1
  O  O16  1  0.794856  0.563127  0.567744  1
  O  O17  1  0.876292  0.176585  0.170205  1
  O  O18  1  0.205144  0.436873  0.432256  1
  O  O19  1  0.623620  0.116752  0.413776  1
  O  O20  1  0.674909  0.924192  0.842393  1
  O  O21  1  0.294873  0.679979  0.236084  1
  O  O22  1  0.325091  0.075808  0.157607  1
  O  O23  1  0.123708  0.823415  0.829795  1
