# generated using pymatgen
data_Sr2Cu3O5
_symmetry_space_group_name_H-M   'P 1'
_cell_length_a   9.99031595
_cell_length_b   9.99031595
_cell_length_c   3.51031586
_cell_angle_alpha   90.00000000
_cell_angle_beta   90.00000000
_cell_angle_gamma   157.22588415
_symmetry_Int_Tables_number   1
_chemical_formula_structural   Sr2Cu3O5
_chemical_formula_sum   'Sr2 Cu3 O5'
_cell_volume   135.62095086
_cell_formula_units_Z   1
loop_
 _symmetry_equiv_pos_site_id
 _symmetry_equiv_pos_as_xyz
  1  'x, y, z'
loop_
 _atom_site_type_symbol
 _atom_site_label
 _atom_site_symmetry_multiplicity
 _atom_site_fract_x
 _atom_site_fract_y
 _atom_site_fract_z
 _atom_site_occupancy
  Sr  Sr0  1  0.399020  0.600980  0.500000  1
  Sr  Sr1  1  0.600980  0.399020  0.500000  1
  Cu  Cu2  1  0.800951  0.199049  0.000000  1
  Cu  Cu3  1  0.199049  0.800951  0.000000  1
  Cu  Cu4  1  0.000000  0.000000  0.000000  1
  O  O5  1  0.296884  0.703116  0.000000  1
  O  O6  1  0.703116  0.296884  0.000000  1
  O  O7  1  0.101630  0.898370  0.000000  1
  O  O8  1  0.898370  0.101630  0.000000  1
  O  O9  1  0.500000  0.500000  1.000000  1
