# generated using pymatgen
data_Sr2HoGaCu2O7
_symmetry_space_group_name_H-M   'P 1'
_cell_length_a   12.21073923
_cell_length_b   12.21073923
_cell_length_c   12.21073923
_cell_angle_alpha   154.40246698
_cell_angle_beta   153.92416289
_cell_angle_gamma   36.86377059
_symmetry_Int_Tables_number   1
_chemical_formula_structural   Sr2HoGaCu2O7
_chemical_formula_sum   'Sr4 Ho2 Ga2 Cu4 O14'
_cell_volume   345.28173880
_cell_formula_units_Z   2
loop_
 _symmetry_equiv_pos_site_id
 _symmetry_equiv_pos_as_xyz
  1  'x, y, z'
loop_
 _atom_site_type_symbol
 _atom_site_label
 _atom_site_symmetry_multiplicity
 _atom_site_fract_x
 _atom_site_fract_y
 _atom_site_fract_z
 _atom_site_occupancy
  Sr  Sr0  1  0.667351  0.650355  0.015556  1
  Sr  Sr1  1  0.332649  0.348205  0.983004  1
  Sr  Sr2  1  0.134799  0.150355  0.983004  1
  Sr  Sr3  1  0.865201  0.848205  0.015556  1
  Ho  Ho4  1  0.500000  0.500599  0.000599  1
  Ho  Ho5  1  0.000000  0.000599  0.000599  1
  Ga  Ga6  1  0.680893  0.212794  0.393687  1
  Ga  Ga7  1  0.319107  0.712794  0.531901  1
  Cu  Cu8  1  0.570333  0.072126  0.500324  1
  Cu  Cu9  1  0.429667  0.929991  0.501793  1
  Cu  Cu10  1  0.071802  0.572126  0.501793  1
  Cu  Cu11  1  0.928198  0.429991  0.500324  1
  O  O12  1  0.364848  0.360033  0.224881  1
  O  O13  1  0.635152  0.860033  0.995185  1
  O  O14  1  0.313228  0.314299  0.500726  1
  O  O15  1  0.686772  0.187498  0.001071  1
  O  O16  1  0.313573  0.814299  0.001071  1
  O  O17  1  0.686427  0.687498  0.500726  1
  O  O18  1  0.809432  0.810619  0.498603  1
  O  O19  1  0.190568  0.689170  0.001187  1
  O  O20  1  0.812016  0.310619  0.001187  1
  O  O21  1  0.187984  0.189170  0.498603  1
  O  O22  1  0.132487  0.704877  0.484622  1
  O  O23  1  0.867513  0.352135  0.572390  1
  O  O24  1  0.720255  0.204877  0.572390  1
  O  O25  1  0.279745  0.852135  0.484622  1
