# generated using pymatgen
data_Ga2S5N5Cl7
_symmetry_space_group_name_H-M   'P 1'
_cell_length_a   8.81212586
_cell_length_b   13.69674116
_cell_length_c   18.91516585
_cell_angle_alpha   90.00000000
_cell_angle_beta   113.00551159
_cell_angle_gamma   90.00000000
_symmetry_Int_Tables_number   1
_chemical_formula_structural   Ga2S5N5Cl7
_chemical_formula_sum   'Ga8 S20 N20 Cl28'
_cell_volume   2101.43731905
_cell_formula_units_Z   4
loop_
 _symmetry_equiv_pos_site_id
 _symmetry_equiv_pos_as_xyz
  1  'x, y, z'
loop_
 _atom_site_type_symbol
 _atom_site_label
 _atom_site_symmetry_multiplicity
 _atom_site_fract_x
 _atom_site_fract_y
 _atom_site_fract_z
 _atom_site_occupancy
  Ga  Ga0  1  0.939319  0.316149  0.861313  1
  Ga  Ga1  1  0.225928  0.745939  0.982001  1
  Ga  Ga2  1  0.939319  0.183851  0.361313  1
  Ga  Ga3  1  0.060681  0.816149  0.638687  1
  Ga  Ga4  1  0.774072  0.254061  0.017999  1
  Ga  Ga5  1  0.225928  0.754061  0.482001  1
  Ga  Ga6  1  0.774072  0.245939  0.517999  1
  Ga  Ga7  1  0.060681  0.683851  0.138687  1
  S  S8  1  0.356357  0.995229  0.870405  1
  S  S9  1  0.573799  0.062028  0.682798  1
  S  S10  1  0.691459  0.613394  0.767246  1
  S  S11  1  0.308541  0.113394  0.732754  1
  S  S12  1  0.691459  0.886606  0.267246  1
  S  S13  1  0.221937  0.083786  0.199795  1
  S  S14  1  0.426201  0.562028  0.817202  1
  S  S15  1  0.648454  0.855838  0.923016  1
  S  S16  1  0.778063  0.916214  0.800205  1
  S  S17  1  0.643643  0.495229  0.629595  1
  S  S18  1  0.221937  0.416214  0.699795  1
  S  S19  1  0.778063  0.583786  0.300205  1
  S  S20  1  0.351546  0.144162  0.076984  1
  S  S21  1  0.643643  0.004771  0.129595  1
  S  S22  1  0.356357  0.504771  0.370405  1
  S  S23  1  0.573799  0.437972  0.182798  1
  S  S24  1  0.308541  0.386606  0.232754  1
  S  S25  1  0.351546  0.355838  0.576984  1
  S  S26  1  0.648454  0.644162  0.423016  1
  S  S27  1  0.426201  0.937972  0.317202  1
  N  N28  1  0.588777  0.614600  0.819784  1
  N  N29  1  0.256121  0.129193  0.130956  1
  N  N30  1  0.353844  0.007789  0.246975  1
  N  N31  1  0.411223  0.114600  0.680216  1
  N  N32  1  0.511965  0.414985  0.586977  1
  N  N33  1  0.743879  0.629193  0.369044  1
  N  N34  1  0.511965  0.085015  0.086977  1
  N  N35  1  0.411223  0.385400  0.180216  1
  N  N36  1  0.387917  0.459272  0.301464  1
  N  N37  1  0.612083  0.959272  0.198536  1
  N  N38  1  0.387917  0.040728  0.801464  1
  N  N39  1  0.488035  0.914985  0.913023  1
  N  N40  1  0.256121  0.370807  0.630956  1
  N  N41  1  0.353844  0.492211  0.746975  1
  N  N42  1  0.646156  0.507789  0.253025  1
  N  N43  1  0.588777  0.885400  0.319784  1
  N  N44  1  0.488035  0.585015  0.413023  1
  N  N45  1  0.743879  0.870807  0.869044  1
  N  N46  1  0.612083  0.540728  0.698536  1
  N  N47  1  0.646156  0.992211  0.753025  1
  Cl  Cl48  1  0.536644  0.175076  0.465737  1
  Cl  Cl49  1  0.463356  0.824924  0.534263  1
  Cl  Cl50  1  0.208903  0.891391  0.024240  1
  Cl  Cl51  1  0.324214  0.694361  0.205507  1
  Cl  Cl52  1  0.033302  0.652519  0.012370  1
  Cl  Cl53  1  0.878292  0.263011  0.142822  1
  Cl  Cl54  1  0.463356  0.675076  0.034263  1
  Cl  Cl55  1  0.927458  0.817854  0.137070  1
  Cl  Cl56  1  0.950171  0.947542  0.663385  1
  Cl  Cl57  1  0.791097  0.391391  0.475760  1
  Cl  Cl58  1  0.072542  0.317854  0.362930  1
  Cl  Cl59  1  0.049829  0.052458  0.336615  1
  Cl  Cl60  1  0.878292  0.236989  0.642822  1
  Cl  Cl61  1  0.121708  0.763011  0.357178  1
  Cl  Cl62  1  0.033302  0.847481  0.512370  1
  Cl  Cl63  1  0.966698  0.347481  0.987630  1
  Cl  Cl64  1  0.072542  0.182146  0.862930  1
  Cl  Cl65  1  0.675786  0.305639  0.794493  1
  Cl  Cl66  1  0.791097  0.108609  0.975760  1
  Cl  Cl67  1  0.121708  0.736989  0.857178  1
  Cl  Cl68  1  0.324214  0.805639  0.705507  1
  Cl  Cl69  1  0.927458  0.682146  0.637070  1
  Cl  Cl70  1  0.950171  0.552458  0.163385  1
  Cl  Cl71  1  0.675786  0.194361  0.294493  1
  Cl  Cl72  1  0.049829  0.447542  0.836615  1
  Cl  Cl73  1  0.208903  0.608609  0.524240  1
  Cl  Cl74  1  0.966698  0.152519  0.487630  1
  Cl  Cl75  1  0.536644  0.324924  0.965737  1
