# generated using pymatgen
data_MnP2O7
_symmetry_space_group_name_H-M   'P 1'
_cell_length_a   6.26599096
_cell_length_b   9.66407832
_cell_length_c   10.63126987
_cell_angle_alpha   65.09296586
_cell_angle_beta   80.22776074
_cell_angle_gamma   73.64580654
_symmetry_Int_Tables_number   1
_chemical_formula_structural   MnP2O7
_chemical_formula_sum   'Mn4 P8 O28'
_cell_volume   559.30724245
_cell_formula_units_Z   4
loop_
 _symmetry_equiv_pos_site_id
 _symmetry_equiv_pos_as_xyz
  1  'x, y, z'
loop_
 _atom_site_type_symbol
 _atom_site_label
 _atom_site_symmetry_multiplicity
 _atom_site_fract_x
 _atom_site_fract_y
 _atom_site_fract_z
 _atom_site_occupancy
  Mn  Mn0  1  0.285800  0.885331  0.228157  1
  Mn  Mn1  1  0.377773  0.248305  0.250894  1
  Mn  Mn2  1  0.622227  0.751695  0.749106  1
  Mn  Mn3  1  0.714200  0.114669  0.771843  1
  P  P4  1  0.100894  0.859128  0.703179  1
  P  P5  1  0.302947  0.215769  0.971059  1
  P  P6  1  0.083065  0.618392  0.206295  1
  P  P7  1  0.410942  0.842469  0.466167  1
  P  P8  1  0.589058  0.157531  0.533833  1
  P  P9  1  0.916935  0.381608  0.793705  1
  P  P10  1  0.697053  0.784231  0.028941  1
  P  P11  1  0.899106  0.140872  0.296821  1
  O  O12  1  0.036596  0.459397  0.657176  1
  O  O13  1  0.071249  0.342130  0.924282  1
  O  O14  1  0.000381  0.015903  0.718721  1
  O  O15  1  0.062132  0.245298  0.278214  1
  O  O16  1  0.258166  0.050873  0.046380  1
  O  O17  1  0.195162  0.914204  0.542424  1
  O  O18  1  0.350072  0.727985  0.418923  1
  O  O19  1  0.437790  0.231625  0.832234  1
  O  O20  1  0.305520  0.761030  0.787463  1
  O  O21  1  0.126097  0.778318  0.176070  1
  O  O22  1  0.432979  0.978891  0.318939  1
  O  O23  1  0.400292  0.268178  0.060467  1
  O  O24  1  0.287470  0.495461  0.192344  1
  O  O25  1  0.392787  0.216165  0.448986  1
  O  O26  1  0.607213  0.783835  0.551014  1
  O  O27  1  0.712530  0.504539  0.807656  1
  O  O28  1  0.599708  0.731822  0.939533  1
  O  O29  1  0.567021  0.021109  0.681061  1
  O  O30  1  0.873903  0.221682  0.823930  1
  O  O31  1  0.694480  0.238970  0.212537  1
  O  O32  1  0.562210  0.768375  0.167766  1
  O  O33  1  0.649928  0.272015  0.581077  1
  O  O34  1  0.804838  0.085796  0.457576  1
  O  O35  1  0.741834  0.949127  0.953620  1
  O  O36  1  0.937868  0.754702  0.721786  1
  O  O37  1  0.999619  0.984097  0.281279  1
  O  O38  1  0.928751  0.657870  0.075718  1
  O  O39  1  0.963404  0.540603  0.342824  1
