# generated using pymatgen
data_K3Ta2Ag3S8
_symmetry_space_group_name_H-M   'P 1'
_cell_length_a   12.91070114
_cell_length_b   12.91070114
_cell_length_c   14.37275490
_cell_angle_alpha   61.19018903
_cell_angle_beta   118.80981097
_cell_angle_gamma   153.12253391
_symmetry_Int_Tables_number   1
_chemical_formula_structural   K3Ta2Ag3S8
_chemical_formula_sum   'K6 Ta4 Ag6 S16'
_cell_volume   940.78643768
_cell_formula_units_Z   2
loop_
 _symmetry_equiv_pos_site_id
 _symmetry_equiv_pos_as_xyz
  1  'x, y, z'
loop_
 _atom_site_type_symbol
 _atom_site_label
 _atom_site_symmetry_multiplicity
 _atom_site_fract_x
 _atom_site_fract_y
 _atom_site_fract_z
 _atom_site_occupancy
  K  K0  1  0.633140  0.238744  0.602071  1
  K  K1  1  0.000000  0.000000  0.000000  1
  K  K2  1  0.761256  0.366860  0.102071  1
  K  K3  1  0.000000  0.000000  0.500000  1
  K  K4  1  0.238744  0.633140  0.897929  1
  K  K5  1  0.366860  0.761256  0.397929  1
  Ta  Ta6  1  0.583260  0.838296  0.721298  1
  Ta  Ta7  1  0.161704  0.416740  0.221298  1
  Ta  Ta8  1  0.838296  0.583260  0.778702  1
  Ta  Ta9  1  0.416740  0.161704  0.278702  1
  Ag  Ag10  1  0.288047  0.288047  0.250000  1
  Ag  Ag11  1  0.337532  0.083851  0.786003  1
  Ag  Ag12  1  0.916149  0.662468  0.286003  1
  Ag  Ag13  1  0.083851  0.337532  0.713997  1
  Ag  Ag14  1  0.711953  0.711953  0.750000  1
  Ag  Ag15  1  0.662468  0.916149  0.213997  1
  S  S16  1  0.458142  0.551963  0.346529  1
  S  S17  1  0.223015  0.908057  0.182848  1
  S  S18  1  0.448037  0.541858  0.846529  1
  S  S19  1  0.776985  0.091943  0.817152  1
  S  S20  1  0.551963  0.458142  0.153471  1
  S  S21  1  0.291960  0.712690  0.109675  1
  S  S22  1  0.712690  0.291960  0.390325  1
  S  S23  1  0.287310  0.708040  0.609675  1
  S  S24  1  0.908057  0.223015  0.317152  1
  S  S25  1  0.181832  0.984393  0.384037  1
  S  S26  1  0.708040  0.287310  0.890325  1
  S  S27  1  0.541858  0.448037  0.653471  1
  S  S28  1  0.984393  0.181832  0.115963  1
  S  S29  1  0.091943  0.776985  0.682848  1
  S  S30  1  0.818168  0.015607  0.615963  1
  S  S31  1  0.015607  0.818168  0.884037  1
