# generated using pymatgen
data_Rb3U3Ge2O13
_symmetry_space_group_name_H-M   'P 1'
_cell_length_a   9.92373698
_cell_length_b   9.92373698
_cell_length_c   8.52547921
_cell_angle_alpha   90.00000000
_cell_angle_beta   90.00000000
_cell_angle_gamma   120.00000000
_symmetry_Int_Tables_number   1
_chemical_formula_structural   Rb3U3Ge2O13
_chemical_formula_sum   'Rb6 U6 Ge4 O26'
_cell_volume   727.10967234
_cell_formula_units_Z   2
loop_
 _symmetry_equiv_pos_site_id
 _symmetry_equiv_pos_as_xyz
  1  'x, y, z'
loop_
 _atom_site_type_symbol
 _atom_site_label
 _atom_site_symmetry_multiplicity
 _atom_site_fract_x
 _atom_site_fract_y
 _atom_site_fract_z
 _atom_site_occupancy
  Rb  Rb0  1  0.971383  0.584016  0.750000  1
  Rb  Rb1  1  0.387367  0.415984  0.250000  1
  Rb  Rb2  1  0.584016  0.971383  0.250000  1
  Rb  Rb3  1  0.415984  0.387367  0.750000  1
  Rb  Rb4  1  0.612633  0.028617  0.750000  1
  Rb  Rb5  1  0.028617  0.612633  0.250000  1
  U  U6  1  0.000000  0.237923  0.500000  1
  U  U7  1  0.000000  0.237923  0.000000  1
  U  U8  1  0.237923  0.000000  0.500000  1
  U  U9  1  0.237923  0.000000  0.000000  1
  U  U10  1  0.762077  0.762077  0.000000  1
  U  U11  1  0.762077  0.762077  0.500000  1
  Ge  Ge12  1  0.333333  0.666667  0.957075  1
  Ge  Ge13  1  0.666667  0.333333  0.042925  1
  Ge  Ge14  1  0.666667  0.333333  0.457075  1
  Ge  Ge15  1  0.333333  0.666667  0.542925  1
  O  O16  1  0.823246  0.312063  0.520833  1
  O  O17  1  0.511183  0.687937  0.479167  1
  O  O18  1  0.511183  0.687937  0.020833  1
  O  O19  1  0.488817  0.176754  0.979167  1
  O  O20  1  0.009909  0.250452  0.750000  1
  O  O21  1  0.687937  0.511183  0.520833  1
  O  O22  1  0.759458  0.749548  0.250000  1
  O  O23  1  0.666667  0.333333  0.250000  1
  O  O24  1  0.816324  0.000000  0.000000  1
  O  O25  1  0.687937  0.511183  0.979167  1
  O  O26  1  0.183676  0.183676  0.500000  1
  O  O27  1  0.000000  0.816324  0.500000  1
  O  O28  1  0.816324  0.000000  0.500000  1
  O  O29  1  0.183676  0.183676  0.000000  1
  O  O30  1  0.488817  0.176754  0.520833  1
  O  O31  1  0.312063  0.823246  0.020833  1
  O  O32  1  0.240542  0.990091  0.750000  1
  O  O33  1  0.000000  0.816324  0.000000  1
  O  O34  1  0.312063  0.823246  0.479167  1
  O  O35  1  0.333333  0.666667  0.750000  1
  O  O36  1  0.749548  0.759458  0.750000  1
  O  O37  1  0.176754  0.488817  0.479167  1
  O  O38  1  0.823246  0.312063  0.979167  1
  O  O39  1  0.250452  0.009909  0.250000  1
  O  O40  1  0.990091  0.240542  0.250000  1
  O  O41  1  0.176754  0.488817  0.020833  1
