# generated using pymatgen
data_PrSe2
_symmetry_space_group_name_H-M   'P 1'
_cell_length_a   8.48764365
_cell_length_b   4.22772978
_cell_length_c   8.61260294
_cell_angle_alpha   90.00000000
_cell_angle_beta   90.20192652
_cell_angle_gamma   90.00000000
_symmetry_Int_Tables_number   1
_chemical_formula_structural   PrSe2
_chemical_formula_sum   'Pr4 Se8'
_cell_volume   309.04810685
_cell_formula_units_Z   4
loop_
 _symmetry_equiv_pos_site_id
 _symmetry_equiv_pos_as_xyz
  1  'x, y, z'
loop_
 _atom_site_type_symbol
 _atom_site_label
 _atom_site_symmetry_multiplicity
 _atom_site_fract_x
 _atom_site_fract_y
 _atom_site_fract_z
 _atom_site_occupancy
  Pr  Pr0  1  0.626675  0.278092  0.274533  1
  Pr  Pr1  1  0.373325  0.721908  0.725467  1
  Pr  Pr2  1  0.873325  0.778092  0.725467  1
  Pr  Pr3  1  0.126675  0.221908  0.274533  1
  Se  Se4  1  0.881521  0.316635  0.997990  1
  Se  Se5  1  0.874754  0.756925  0.367742  1
  Se  Se6  1  0.381521  0.183365  0.997990  1
  Se  Se7  1  0.618479  0.816635  0.002010  1
  Se  Se8  1  0.625246  0.256925  0.632258  1
  Se  Se9  1  0.118479  0.683365  0.002010  1
  Se  Se10  1  0.374754  0.743075  0.367742  1
  Se  Se11  1  0.125246  0.243075  0.632258  1
