# generated using pymatgen
data_Ni2W3N
_symmetry_space_group_name_H-M   'P 1'
_cell_length_a   6.67986522
_cell_length_b   6.67986522
_cell_length_c   6.67986522
_cell_angle_alpha   90.00000000
_cell_angle_beta   90.00000000
_cell_angle_gamma   90.00000000
_symmetry_Int_Tables_number   1
_chemical_formula_structural   Ni2W3N
_chemical_formula_sum   'Ni8 W12 N4'
_cell_volume   298.05958974
_cell_formula_units_Z   4
loop_
 _symmetry_equiv_pos_site_id
 _symmetry_equiv_pos_as_xyz
  1  'x, y, z'
loop_
 _atom_site_type_symbol
 _atom_site_label
 _atom_site_symmetry_multiplicity
 _atom_site_fract_x
 _atom_site_fract_y
 _atom_site_fract_z
 _atom_site_occupancy
  Ni  Ni0  1  0.566207  0.566207  0.566207  1
  Ni  Ni1  1  0.816207  0.683793  0.316207  1
  Ni  Ni2  1  0.316207  0.816207  0.683793  1
  Ni  Ni3  1  0.683793  0.316207  0.816207  1
  Ni  Ni4  1  0.933793  0.433793  0.066207  1
  Ni  Ni5  1  0.066207  0.933793  0.433793  1
  Ni  Ni6  1  0.433793  0.066207  0.933793  1
  Ni  Ni7  1  0.183793  0.183793  0.183793  1
  W  W8  1  0.700362  0.950362  0.625000  1
  W  W9  1  0.950362  0.625000  0.700362  1
  W  W10  1  0.450362  0.875000  0.299638  1
  W  W11  1  0.375000  0.200362  0.549638  1
  W  W12  1  0.625000  0.700362  0.950362  1
  W  W13  1  0.299638  0.450362  0.875000  1
  W  W14  1  0.200362  0.549638  0.375000  1
  W  W15  1  0.549638  0.375000  0.200362  1
  W  W16  1  0.125000  0.799638  0.049638  1
  W  W17  1  0.049638  0.125000  0.799638  1
  W  W18  1  0.875000  0.299638  0.450362  1
  W  W19  1  0.799638  0.049638  0.125000  1
  N  N20  1  0.875000  0.875000  0.875000  1
  N  N21  1  0.125000  0.375000  0.625000  1
  N  N22  1  0.625000  0.125000  0.375000  1
  N  N23  1  0.375000  0.625000  0.125000  1
