# generated using pymatgen
data_KGe2BO6
_symmetry_space_group_name_H-M   'P 1'
_cell_length_a   4.86859624
_cell_length_b   10.33975251
_cell_length_c   10.86767044
_cell_angle_alpha   90.00000000
_cell_angle_beta   90.00000000
_cell_angle_gamma   90.00000000
_symmetry_Int_Tables_number   1
_chemical_formula_structural   KGe2BO6
_chemical_formula_sum   'K4 Ge8 B4 O24'
_cell_volume   547.07940146
_cell_formula_units_Z   4
loop_
 _symmetry_equiv_pos_site_id
 _symmetry_equiv_pos_as_xyz
  1  'x, y, z'
loop_
 _atom_site_type_symbol
 _atom_site_label
 _atom_site_symmetry_multiplicity
 _atom_site_fract_x
 _atom_site_fract_y
 _atom_site_fract_z
 _atom_site_occupancy
  K  K0  1  0.306623  0.530640  0.186573  1
  K  K1  1  0.193377  0.469360  0.686573  1
  K  K2  1  0.693377  0.030640  0.313427  1
  K  K3  1  0.806623  0.969360  0.813427  1
  Ge  Ge4  1  0.730157  0.301685  0.919562  1
  Ge  Ge5  1  0.230157  0.198315  0.080438  1
  Ge  Ge6  1  0.769843  0.698315  0.419562  1
  Ge  Ge7  1  0.799512  0.615166  0.933266  1
  Ge  Ge8  1  0.269843  0.801685  0.580438  1
  Ge  Ge9  1  0.700488  0.384834  0.433266  1
  Ge  Ge10  1  0.299512  0.884834  0.066734  1
  Ge  Ge11  1  0.200488  0.115166  0.566734  1
  B  B12  1  0.195021  0.265685  0.342498  1
  B  B13  1  0.304979  0.734315  0.842498  1
  B  B14  1  0.695021  0.234315  0.657502  1
  B  B15  1  0.804979  0.765685  0.157502  1
  O  O16  1  0.077548  0.250757  0.216452  1
  O  O17  1  0.528092  0.818726  0.465800  1
  O  O18  1  0.357077  0.858971  0.907923  1
  O  O19  1  0.005359  0.707816  0.833124  1
  O  O20  1  0.944119  0.876771  0.098250  1
  O  O21  1  0.642923  0.358971  0.592077  1
  O  O22  1  0.994641  0.207816  0.666876  1
  O  O23  1  0.922452  0.750757  0.283548  1
  O  O24  1  0.422452  0.749243  0.716452  1
  O  O25  1  0.555881  0.123229  0.598250  1
  O  O26  1  0.028092  0.681274  0.534200  1
  O  O27  1  0.505359  0.792184  0.166876  1
  O  O28  1  0.094077  0.950782  0.592100  1
  O  O29  1  0.444119  0.623229  0.901750  1
  O  O30  1  0.055881  0.376771  0.401750  1
  O  O31  1  0.142923  0.141029  0.407923  1
  O  O32  1  0.494641  0.292184  0.333124  1
  O  O33  1  0.971908  0.181274  0.965800  1
  O  O34  1  0.905923  0.450782  0.907900  1
  O  O35  1  0.857077  0.641029  0.092077  1
  O  O36  1  0.405923  0.049218  0.092100  1
  O  O37  1  0.594077  0.549218  0.407900  1
  O  O38  1  0.577548  0.249243  0.783548  1
  O  O39  1  0.471908  0.318726  0.034200  1
