# generated using pymatgen
data_Na5HfAs3
_symmetry_space_group_name_H-M   'P 1'
_cell_length_a   8.51211908
_cell_length_b   7.56578262
_cell_length_c   16.26960193
_cell_angle_alpha   90.00000000
_cell_angle_beta   121.10513232
_cell_angle_gamma   90.00000000
_symmetry_Int_Tables_number   1
_chemical_formula_structural   Na5HfAs3
_chemical_formula_sum   'Na20 Hf4 As12'
_cell_volume   897.12767976
_cell_formula_units_Z   4
loop_
 _symmetry_equiv_pos_site_id
 _symmetry_equiv_pos_as_xyz
  1  'x, y, z'
loop_
 _atom_site_type_symbol
 _atom_site_label
 _atom_site_symmetry_multiplicity
 _atom_site_fract_x
 _atom_site_fract_y
 _atom_site_fract_z
 _atom_site_occupancy
  Na  Na0  1  0.917010  0.491463  0.737493  1
  Na  Na1  1  0.082990  0.991463  0.762507  1
  Na  Na2  1  0.082990  0.508537  0.262507  1
  Na  Na3  1  0.917010  0.008537  0.237493  1
  Na  Na4  1  0.260760  0.011412  0.592794  1
  Na  Na5  1  0.739240  0.511412  0.907206  1
  Na  Na6  1  0.739240  0.988588  0.407206  1
  Na  Na7  1  0.260760  0.488588  0.092794  1
  Na  Na8  1  0.595323  0.471982  0.415192  1
  Na  Na9  1  0.404677  0.971982  0.084808  1
  Na  Na10  1  0.404677  0.528018  0.584808  1
  Na  Na11  1  0.595323  0.028018  0.915192  1
  Na  Na12  1  0.679647  0.844558  0.757227  1
  Na  Na13  1  0.320353  0.344558  0.742773  1
  Na  Na14  1  0.320353  0.155442  0.242773  1
  Na  Na15  1  0.679647  0.655442  0.257227  1
  Na  Na16  1  0.002079  0.664311  0.580763  1
  Na  Na17  1  0.997921  0.164311  0.919237  1
  Na  Na18  1  0.997921  0.335689  0.419237  1
  Na  Na19  1  0.002079  0.835689  0.080763  1
  Hf  Hf20  1  0.660672  0.142100  0.586059  1
  Hf  Hf21  1  0.339328  0.642100  0.913941  1
  Hf  Hf22  1  0.339328  0.857900  0.413941  1
  Hf  Hf23  1  0.660672  0.357900  0.086059  1
  As  As24  1  0.657837  0.793352  0.570011  1
  As  As25  1  0.342163  0.293352  0.929989  1
  As  As26  1  0.342163  0.206648  0.429989  1
  As  As27  1  0.657837  0.706648  0.070011  1
  As  As28  1  0.943792  0.257440  0.582671  1
  As  As29  1  0.056208  0.757440  0.917329  1
  As  As30  1  0.056208  0.742560  0.417329  1
  As  As31  1  0.943792  0.242560  0.082671  1
  As  As32  1  0.646434  0.237231  0.734764  1
  As  As33  1  0.353566  0.737231  0.765236  1
  As  As34  1  0.353566  0.762769  0.265236  1
  As  As35  1  0.646434  0.262769  0.234764  1
