# generated using pymatgen
data_Cs7Au5O2
_symmetry_space_group_name_H-M   'P 1'
_cell_length_a   10.60644397
_cell_length_b   10.60644397
_cell_length_c   10.60644397
_cell_angle_alpha   146.23763241
_cell_angle_beta   124.99060035
_cell_angle_gamma   66.12192454
_symmetry_Int_Tables_number   1
_chemical_formula_structural   Cs7Au5O2
_chemical_formula_sum   'Cs7 Au5 O2'
_cell_volume   536.42992091
_cell_formula_units_Z   1
loop_
 _symmetry_equiv_pos_site_id
 _symmetry_equiv_pos_as_xyz
  1  'x, y, z'
loop_
 _atom_site_type_symbol
 _atom_site_label
 _atom_site_symmetry_multiplicity
 _atom_site_fract_x
 _atom_site_fract_y
 _atom_site_fract_z
 _atom_site_occupancy
  Cs  Cs0  1  0.612732  0.832983  0.779749  1
  Cs  Cs1  1  0.789878  0.500000  0.289878  1
  Cs  Cs2  1  0.053234  0.832983  0.220251  1
  Cs  Cs3  1  0.387268  0.167017  0.220251  1
  Cs  Cs4  1  0.946766  0.167017  0.779749  1
  Cs  Cs5  1  0.210122  0.500000  0.710122  1
  Cs  Cs6  1  0.500000  1.000000  0.500000  1
  Au  Au7  1  0.649415  0.649415  0.000000  1
  Au  Au8  1  0.808966  0.308966  0.500000  1
  Au  Au9  1  0.000000  0.000000  0.000000  1
  Au  Au10  1  0.350585  0.350585  0.000000  1
  Au  Au11  1  0.191034  0.691034  0.500000  1
  O  O12  1  0.791285  1.000000  0.791285  1
  O  O13  1  0.208715  1.000000  0.208715  1
