# generated using pymatgen
data_Sm9(SbO)5
_symmetry_space_group_name_H-M   'P 1'
_cell_length_a   10.11498757
_cell_length_b   10.11498757
_cell_length_c   9.10737616
_cell_angle_alpha   90.00000000
_cell_angle_beta   90.00000000
_cell_angle_gamma   90.00000000
_symmetry_Int_Tables_number   1
_chemical_formula_structural   Sm9(SbO)5
_chemical_formula_sum   'Sm18 Sb10 O10'
_cell_volume   931.80273609
_cell_formula_units_Z   2
loop_
 _symmetry_equiv_pos_site_id
 _symmetry_equiv_pos_as_xyz
  1  'x, y, z'
loop_
 _atom_site_type_symbol
 _atom_site_label
 _atom_site_symmetry_multiplicity
 _atom_site_fract_x
 _atom_site_fract_y
 _atom_site_fract_z
 _atom_site_occupancy
  Sm  Sm0  1  0.273798  0.082036  0.001388  1
  Sm  Sm1  1  0.704729  0.395954  0.656766  1
  Sm  Sm2  1  0.295271  0.604046  0.656766  1
  Sm  Sm3  1  0.226202  0.417964  0.998612  1
  Sm  Sm4  1  0.395954  0.295271  0.343234  1
  Sm  Sm5  1  0.604046  0.704729  0.343234  1
  Sm  Sm6  1  0.582036  0.226202  0.001388  1
  Sm  Sm7  1  0.795271  0.104046  0.343234  1
  Sm  Sm8  1  0.082036  0.726202  0.998612  1
  Sm  Sm9  1  0.104046  0.204729  0.656766  1
  Sm  Sm10  1  0.917964  0.273798  0.998612  1
  Sm  Sm11  1  0.204729  0.895954  0.343234  1
  Sm  Sm12  1  0.500000  0.000000  0.669985  1
  Sm  Sm13  1  0.417964  0.773798  0.001388  1
  Sm  Sm14  1  0.773798  0.582036  0.998612  1
  Sm  Sm15  1  0.000000  0.500000  0.330015  1
  Sm  Sm16  1  0.895954  0.795271  0.656766  1
  Sm  Sm17  1  0.726202  0.917964  0.001388  1
  Sb  Sb18  1  0.303736  0.596296  0.300657  1
  Sb  Sb19  1  0.696264  0.403704  0.300657  1
  Sb  Sb20  1  0.903704  0.803736  0.300657  1
  Sb  Sb21  1  0.403704  0.303736  0.699343  1
  Sb  Sb22  1  0.096296  0.196264  0.300657  1
  Sb  Sb23  1  0.500000  0.000000  0.316249  1
  Sb  Sb24  1  0.803736  0.096296  0.699343  1
  Sb  Sb25  1  0.000000  0.500000  0.683751  1
  Sb  Sb26  1  0.596296  0.696264  0.699343  1
  Sb  Sb27  1  0.196264  0.903704  0.699343  1
  O  O28  1  0.379577  0.275257  0.088562  1
  O  O29  1  0.724743  0.379577  0.911438  1
  O  O30  1  0.620423  0.724743  0.088562  1
  O  O31  1  0.275257  0.620423  0.911438  1
  O  O32  1  0.224743  0.879577  0.088562  1
  O  O33  1  0.879577  0.775257  0.911438  1
  O  O34  1  0.000000  0.500000  0.065811  1
  O  O35  1  0.120423  0.224743  0.911438  1
  O  O36  1  0.500000  0.000000  0.934189  1
  O  O37  1  0.775257  0.120423  0.088562  1
