# generated using pymatgen
data_Ca3CuIrO6
_symmetry_space_group_name_H-M   'P 1'
_cell_length_a   6.53867688
_cell_length_b   6.53867688
_cell_length_c   6.51087737
_cell_angle_alpha   89.97241622
_cell_angle_beta   90.02758378
_cell_angle_gamma   88.81018499
_symmetry_Int_Tables_number   1
_chemical_formula_structural   Ca3CuIrO6
_chemical_formula_sum   'Ca6 Cu2 Ir2 O12'
_cell_volume   278.30788943
_cell_formula_units_Z   2
loop_
 _symmetry_equiv_pos_site_id
 _symmetry_equiv_pos_as_xyz
  1  'x, y, z'
loop_
 _atom_site_type_symbol
 _atom_site_label
 _atom_site_symmetry_multiplicity
 _atom_site_fract_x
 _atom_site_fract_y
 _atom_site_fract_z
 _atom_site_occupancy
  Ca  Ca0  1  0.596579  0.596579  0.250000  1
  Ca  Ca1  1  0.403421  0.403421  0.750000  1
  Ca  Ca2  1  0.110263  0.740072  0.382308  1
  Ca  Ca3  1  0.740072  0.110263  0.117692  1
  Ca  Ca4  1  0.889737  0.259928  0.617692  1
  Ca  Ca5  1  0.259928  0.889737  0.882308  1
  Cu  Cu6  1  0.808261  0.808261  0.750000  1
  Cu  Cu7  1  0.191739  0.191739  0.250000  1
  Ir  Ir8  1  0.000000  0.500000  0.000000  1
  Ir  Ir9  1  0.500000  0.000000  0.500000  1
  O  O10  1  0.793453  0.903841  0.455998  1
  O  O11  1  0.903841  0.793453  0.044002  1
  O  O12  1  0.206547  0.096159  0.544002  1
  O  O13  1  0.096159  0.206547  0.955998  1
  O  O14  1  0.598712  0.033441  0.792971  1
  O  O15  1  0.033441  0.598712  0.707029  1
  O  O16  1  0.401288  0.966559  0.207029  1
  O  O17  1  0.966559  0.401288  0.292971  1
  O  O18  1  0.425670  0.709161  0.565823  1
  O  O19  1  0.709161  0.425670  0.934177  1
  O  O20  1  0.574330  0.290839  0.434177  1
  O  O21  1  0.290839  0.574330  0.065823  1
