# generated using pymatgen
data_BeCl2
_symmetry_space_group_name_H-M   'P 1'
_cell_length_a   17.13752921
_cell_length_b   17.13752921
_cell_length_c   17.13752921
_cell_angle_alpha   109.47122063
_cell_angle_beta   109.47122063
_cell_angle_gamma   109.47122063
_symmetry_Int_Tables_number   1
_chemical_formula_structural   BeCl2
_chemical_formula_sum   'Be24 Cl48'
_cell_volume   3874.56305686
_cell_formula_units_Z   24
loop_
 _symmetry_equiv_pos_site_id
 _symmetry_equiv_pos_as_xyz
  1  'x, y, z'
loop_
 _atom_site_type_symbol
 _atom_site_label
 _atom_site_symmetry_multiplicity
 _atom_site_fract_x
 _atom_site_fract_y
 _atom_site_fract_z
 _atom_site_occupancy
  Be  Be0  1  0.384807  0.643970  0.124028  1
  Be  Be1  1  0.740836  0.356030  0.480058  1
  Be  Be2  1  0.384807  0.124028  0.643970  1
  Be  Be3  1  0.356030  0.480058  0.740836  1
  Be  Be4  1  0.615193  0.739222  0.259164  1
  Be  Be5  1  0.124028  0.643970  0.384807  1
  Be  Be6  1  0.875972  0.260778  0.519942  1
  Be  Be7  1  0.643970  0.124028  0.384807  1
  Be  Be8  1  0.260778  0.519942  0.875972  1
  Be  Be9  1  0.875972  0.519942  0.260778  1
  Be  Be10  1  0.615193  0.259164  0.739222  1
  Be  Be11  1  0.480058  0.740836  0.356030  1
  Be  Be12  1  0.739222  0.259164  0.615193  1
  Be  Be13  1  0.124028  0.384807  0.643970  1
  Be  Be14  1  0.519942  0.260778  0.875972  1
  Be  Be15  1  0.260778  0.875972  0.519942  1
  Be  Be16  1  0.480058  0.356030  0.740836  1
  Be  Be17  1  0.259164  0.739222  0.615193  1
  Be  Be18  1  0.643970  0.384807  0.124028  1
  Be  Be19  1  0.519942  0.875972  0.260778  1
  Be  Be20  1  0.259164  0.615193  0.739222  1
  Be  Be21  1  0.740836  0.480058  0.356030  1
  Be  Be22  1  0.739222  0.615193  0.259164  1
  Be  Be23  1  0.356030  0.740836  0.480058  1
  Cl  Cl24  1  0.630454  0.130454  0.500000  1
  Cl  Cl25  1  0.770240  0.132017  0.401760  1
  Cl  Cl26  1  0.631520  0.229760  0.361777  1
  Cl  Cl27  1  0.598240  0.368480  0.730257  1
  Cl  Cl28  1  0.500000  0.869546  0.369546  1
  Cl  Cl29  1  0.532936  1.000000  0.263901  1
  Cl  Cl30  1  0.467064  0.730965  0.467064  1
  Cl  Cl31  1  0.263901  0.532936  0.000000  1
  Cl  Cl32  1  0.361777  0.229760  0.631520  1
  Cl  Cl33  1  0.361777  0.631520  0.229760  1
  Cl  Cl34  1  0.000000  0.263901  0.532936  1
  Cl  Cl35  1  0.401760  0.132017  0.770240  1
  Cl  Cl36  1  0.467064  0.467064  0.730965  1
  Cl  Cl37  1  0.229760  0.361777  0.631520  1
  Cl  Cl38  1  0.638223  0.269743  0.867983  1
  Cl  Cl39  1  0.736099  0.269035  0.736099  1
  Cl  Cl40  1  0.770240  0.401760  0.132017  1
  Cl  Cl41  1  0.130454  0.500000  0.630454  1
  Cl  Cl42  1  0.000000  0.532936  0.263901  1
  Cl  Cl43  1  0.867983  0.269743  0.638223  1
  Cl  Cl44  1  0.401760  0.770240  0.132017  1
  Cl  Cl45  1  0.369546  0.869546  0.500000  1
  Cl  Cl46  1  0.500000  0.630454  0.130454  1
  Cl  Cl47  1  0.229760  0.631520  0.361777  1
  Cl  Cl48  1  0.532936  0.263901  0.000000  1
  Cl  Cl49  1  0.730257  0.598240  0.368480  1
  Cl  Cl50  1  0.869546  0.500000  0.369546  1
  Cl  Cl51  1  0.730257  0.368480  0.598240  1
  Cl  Cl52  1  0.369546  0.500000  0.869546  1
  Cl  Cl53  1  0.631520  0.361777  0.229760  1
  Cl  Cl54  1  0.598240  0.730257  0.368480  1
  Cl  Cl55  1  0.869546  0.369546  0.500000  1
  Cl  Cl56  1  0.269743  0.867983  0.638223  1
  Cl  Cl57  1  0.130454  0.630454  0.500000  1
  Cl  Cl58  1  0.263901  1.000000  0.532936  1
  Cl  Cl59  1  0.736099  0.736099  0.269035  1
  Cl  Cl60  1  0.132017  0.770240  0.401760  1
  Cl  Cl61  1  0.269743  0.638223  0.867983  1
  Cl  Cl62  1  0.630454  0.500000  0.130454  1
  Cl  Cl63  1  0.132017  0.401760  0.770240  1
  Cl  Cl64  1  0.638223  0.867983  0.269743  1
  Cl  Cl65  1  0.500000  0.130454  0.630454  1
  Cl  Cl66  1  0.730965  0.467064  0.467064  1
  Cl  Cl67  1  0.368480  0.598240  0.730257  1
  Cl  Cl68  1  0.269035  0.736099  0.736099  1
  Cl  Cl69  1  0.867983  0.638223  0.269743  1
  Cl  Cl70  1  0.368480  0.730257  0.598240  1
  Cl  Cl71  1  0.500000  0.369546  0.869546  1
