# generated using pymatgen
data_BF3
_symmetry_space_group_name_H-M   'P 1'
_cell_length_a   4.84553383
_cell_length_b   14.27171454
_cell_length_c   7.52756350
_cell_angle_alpha   90.00000000
_cell_angle_beta   107.55562373
_cell_angle_gamma   90.00000000
_symmetry_Int_Tables_number   1
_chemical_formula_structural   BF3
_chemical_formula_sum   'B8 F24'
_cell_volume   496.31631059
_cell_formula_units_Z   8
loop_
 _symmetry_equiv_pos_site_id
 _symmetry_equiv_pos_as_xyz
  1  'x, y, z'
loop_
 _atom_site_type_symbol
 _atom_site_label
 _atom_site_symmetry_multiplicity
 _atom_site_fract_x
 _atom_site_fract_y
 _atom_site_fract_z
 _atom_site_occupancy
  B  B0  1  0.136841  0.135836  0.766578  1
  B  B1  1  0.863159  0.635836  0.733422  1
  B  B2  1  0.476281  0.883873  0.721104  1
  B  B3  1  0.476281  0.616127  0.221104  1
  B  B4  1  0.523719  0.383873  0.778896  1
  B  B5  1  0.136841  0.364164  0.266578  1
  B  B6  1  0.523719  0.116127  0.278896  1
  B  B7  1  0.863159  0.864164  0.233422  1
  F  F8  1  0.250572  0.284103  0.230193  1
  F  F9  1  0.929061  0.363040  0.347228  1
  F  F10  1  0.070939  0.863040  0.152772  1
  F  F11  1  0.233449  0.444887  0.219860  1
  F  F12  1  0.749428  0.784103  0.269807  1
  F  F13  1  0.260689  0.853700  0.576856  1
  F  F14  1  0.739311  0.353700  0.923144  1
  F  F15  1  0.704863  0.574970  0.193669  1
  F  F16  1  0.295137  0.074970  0.306331  1
  F  F17  1  0.250572  0.215897  0.730193  1
  F  F18  1  0.460090  0.628230  0.393151  1
  F  F19  1  0.233449  0.055113  0.719860  1
  F  F20  1  0.766551  0.944887  0.280140  1
  F  F21  1  0.739311  0.146300  0.423144  1
  F  F22  1  0.070939  0.636960  0.652772  1
  F  F23  1  0.539910  0.371770  0.606849  1
  F  F24  1  0.766551  0.555113  0.780140  1
  F  F25  1  0.929061  0.136960  0.847228  1
  F  F26  1  0.539910  0.128230  0.106849  1
  F  F27  1  0.749428  0.715897  0.769807  1
  F  F28  1  0.295137  0.425030  0.806331  1
  F  F29  1  0.460090  0.871770  0.893151  1
  F  F30  1  0.260689  0.646300  0.076856  1
  F  F31  1  0.704863  0.925030  0.693669  1
