# generated using pymatgen
data_RbYbBr3
_symmetry_space_group_name_H-M   'P 1'
_cell_length_a   7.81896890
_cell_length_b   8.09213764
_cell_length_c   11.28297161
_cell_angle_alpha   90.00000000
_cell_angle_beta   90.00000000
_cell_angle_gamma   90.00000000
_symmetry_Int_Tables_number   1
_chemical_formula_structural   RbYbBr3
_chemical_formula_sum   'Rb4 Yb4 Br12'
_cell_volume   713.89812649
_cell_formula_units_Z   4
loop_
 _symmetry_equiv_pos_site_id
 _symmetry_equiv_pos_as_xyz
  1  'x, y, z'
loop_
 _atom_site_type_symbol
 _atom_site_label
 _atom_site_symmetry_multiplicity
 _atom_site_fract_x
 _atom_site_fract_y
 _atom_site_fract_z
 _atom_site_occupancy
  Rb  Rb0  1  0.484379  0.059404  0.250000  1
  Rb  Rb1  1  0.515621  0.940596  0.750000  1
  Rb  Rb2  1  0.984379  0.440596  0.750000  1
  Rb  Rb3  1  0.015621  0.559404  0.250000  1
  Yb  Yb4  1  0.500000  0.500000  0.000000  1
  Yb  Yb5  1  0.500000  0.500000  0.500000  1
  Yb  Yb6  1  0.000000  0.000000  0.000000  1
  Yb  Yb7  1  0.000000  0.000000  0.500000  1
  Br  Br8  1  0.299012  0.796160  0.460523  1
  Br  Br9  1  0.424322  0.515984  0.750000  1
  Br  Br10  1  0.575678  0.484016  0.250000  1
  Br  Br11  1  0.075678  0.015984  0.750000  1
  Br  Br12  1  0.700988  0.203840  0.539477  1
  Br  Br13  1  0.799012  0.703840  0.539477  1
  Br  Br14  1  0.924322  0.984016  0.250000  1
  Br  Br15  1  0.200988  0.296160  0.039477  1
  Br  Br16  1  0.700988  0.203840  0.960523  1
  Br  Br17  1  0.799012  0.703840  0.960523  1
  Br  Br18  1  0.299012  0.796160  0.039477  1
  Br  Br19  1  0.200988  0.296160  0.460523  1
