# generated using pymatgen
data_SrCr2O7
_symmetry_space_group_name_H-M   'P 1'
_cell_length_a   11.34101740
_cell_length_b   11.34101740
_cell_length_c   9.82832691
_cell_angle_alpha   90.00000000
_cell_angle_beta   90.00000000
_cell_angle_gamma   90.00000000
_symmetry_Int_Tables_number   1
_chemical_formula_structural   SrCr2O7
_chemical_formula_sum   'Sr8 Cr16 O56'
_cell_volume   1264.10639119
_cell_formula_units_Z   8
loop_
 _symmetry_equiv_pos_site_id
 _symmetry_equiv_pos_as_xyz
  1  'x, y, z'
loop_
 _atom_site_type_symbol
 _atom_site_label
 _atom_site_symmetry_multiplicity
 _atom_site_fract_x
 _atom_site_fract_y
 _atom_site_fract_z
 _atom_site_occupancy
  Sr  Sr0  1  0.800196  0.800196  0.000000  1
  Sr  Sr1  1  0.300196  0.699804  0.500000  1
  Sr  Sr2  1  0.199804  0.199804  0.000000  1
  Sr  Sr3  1  0.800196  0.199804  0.000000  1
  Sr  Sr4  1  0.300196  0.300196  0.500000  1
  Sr  Sr5  1  0.699804  0.699804  0.500000  1
  Sr  Sr6  1  0.699804  0.300196  0.500000  1
  Sr  Sr7  1  0.199804  0.800196  0.000000  1
  Cr  Cr8  1  0.149711  0.000000  0.304670  1
  Cr  Cr9  1  0.000000  0.149711  0.695330  1
  Cr  Cr10  1  0.500000  0.860371  0.234289  1
  Cr  Cr11  1  0.139629  0.500000  0.765711  1
  Cr  Cr12  1  0.860371  0.500000  0.765711  1
  Cr  Cr13  1  0.500000  0.350289  0.804670  1
  Cr  Cr14  1  0.360371  0.000000  0.734289  1
  Cr  Cr15  1  0.850289  0.000000  0.304670  1
  Cr  Cr16  1  0.500000  0.139629  0.234289  1
  Cr  Cr17  1  0.000000  0.850289  0.695330  1
  Cr  Cr18  1  0.639629  0.000000  0.734289  1
  Cr  Cr19  1  0.000000  0.360371  0.265711  1
  Cr  Cr20  1  0.500000  0.649711  0.804670  1
  Cr  Cr21  1  0.000000  0.639629  0.265711  1
  Cr  Cr22  1  0.350289  0.500000  0.195330  1
  Cr  Cr23  1  0.649711  0.500000  0.195330  1
  O  O24  1  0.500000  0.000000  0.316326  1
  O  O25  1  0.500000  0.344876  0.635763  1
  O  O26  1  0.616649  0.851359  0.139113  1
  O  O27  1  0.617865  0.285876  0.862899  1
  O  O28  1  0.257925  0.000000  0.855255  1
  O  O29  1  0.757925  0.500000  0.644745  1
  O  O30  1  0.382135  0.285876  0.862899  1
  O  O31  1  0.883351  0.648641  0.360887  1
  O  O32  1  0.785876  0.117865  0.362899  1
  O  O33  1  0.116649  0.648641  0.360887  1
  O  O34  1  0.000000  0.500000  0.183674  1
  O  O35  1  0.616649  0.148641  0.139113  1
  O  O36  1  0.648641  0.883351  0.639113  1
  O  O37  1  0.714124  0.617865  0.137101  1
  O  O38  1  0.617865  0.714124  0.862899  1
  O  O39  1  0.148641  0.616649  0.860887  1
  O  O40  1  0.116649  0.351359  0.360887  1
  O  O41  1  0.000000  0.155124  0.864237  1
  O  O42  1  0.882135  0.214124  0.637101  1
  O  O43  1  0.214124  0.117865  0.362899  1
  O  O44  1  0.351359  0.116649  0.639113  1
  O  O45  1  0.655124  0.500000  0.364237  1
  O  O46  1  0.382135  0.714124  0.862899  1
  O  O47  1  0.500000  0.500000  0.855284  1
  O  O48  1  0.117865  0.785876  0.637101  1
  O  O49  1  0.844876  0.000000  0.135763  1
  O  O50  1  0.500000  0.500000  0.144716  1
  O  O51  1  0.000000  0.742075  0.144745  1
  O  O52  1  0.344876  0.500000  0.364237  1
  O  O53  1  0.785876  0.882135  0.362899  1
  O  O54  1  0.851359  0.383351  0.860887  1
  O  O55  1  0.648641  0.116649  0.639113  1
  O  O56  1  0.882135  0.785876  0.637101  1
  O  O57  1  0.851359  0.616649  0.860887  1
  O  O58  1  0.383351  0.851359  0.139113  1
  O  O59  1  0.000000  0.500000  0.683674  1
  O  O60  1  0.500000  0.242075  0.355255  1
  O  O61  1  0.000000  0.257925  0.144745  1
  O  O62  1  0.000000  0.000000  0.644716  1
  O  O63  1  0.883351  0.351359  0.360887  1
  O  O64  1  0.351359  0.883351  0.639113  1
  O  O65  1  0.148641  0.383351  0.860887  1
  O  O66  1  0.714124  0.382135  0.137101  1
  O  O67  1  0.117865  0.214124  0.637101  1
  O  O68  1  0.500000  0.655124  0.635763  1
  O  O69  1  0.000000  0.000000  0.355284  1
  O  O70  1  0.000000  0.844876  0.864237  1
  O  O71  1  0.742075  0.000000  0.855255  1
  O  O72  1  0.214124  0.882135  0.362899  1
  O  O73  1  0.500000  0.000000  0.816326  1
  O  O74  1  0.383351  0.148641  0.139113  1
  O  O75  1  0.285876  0.382135  0.137101  1
  O  O76  1  0.155124  0.000000  0.135763  1
  O  O77  1  0.242075  0.500000  0.644745  1
  O  O78  1  0.285876  0.617865  0.137101  1
  O  O79  1  0.500000  0.757925  0.355255  1
