# generated using pymatgen
data_SrCeI4
_symmetry_space_group_name_H-M   'P 1'
_cell_length_a   9.09461066
_cell_length_b   9.09461066
_cell_length_c   7.49600984
_cell_angle_alpha   71.27645408
_cell_angle_beta   108.72354592
_cell_angle_gamma   69.06033146
_symmetry_Int_Tables_number   1
_chemical_formula_structural   SrCeI4
_chemical_formula_sum   'Sr2 Ce2 I8'
_cell_volume   477.26228187
_cell_formula_units_Z   2
loop_
 _symmetry_equiv_pos_site_id
 _symmetry_equiv_pos_as_xyz
  1  'x, y, z'
loop_
 _atom_site_type_symbol
 _atom_site_label
 _atom_site_symmetry_multiplicity
 _atom_site_fract_x
 _atom_site_fract_y
 _atom_site_fract_z
 _atom_site_occupancy
  Sr  Sr0  1  0.135040  0.135040  0.250000  1
  Sr  Sr1  1  0.864960  0.864960  0.750000  1
  Ce  Ce2  1  0.500095  0.500095  0.250000  1
  Ce  Ce3  1  0.499905  0.499905  0.750000  1
  I  I4  1  0.866034  0.258935  0.734089  1
  I  I5  1  0.554385  0.798386  0.410547  1
  I  I6  1  0.798386  0.554385  0.089453  1
  I  I7  1  0.201614  0.445615  0.910547  1
  I  I8  1  0.741065  0.133966  0.234089  1
  I  I9  1  0.445615  0.201614  0.589453  1
  I  I10  1  0.258935  0.866034  0.765911  1
  I  I11  1  0.133966  0.741065  0.265911  1
