# generated using pymatgen
data_K2VPO6
_symmetry_space_group_name_H-M   'P 1'
_cell_length_a   7.01653053
_cell_length_b   13.63017292
_cell_length_c   8.30956197
_cell_angle_alpha   90.00000000
_cell_angle_beta   120.41471304
_cell_angle_gamma   90.00000000
_symmetry_Int_Tables_number   1
_chemical_formula_structural   K2VPO6
_chemical_formula_sum   'K8 V4 P4 O24'
_cell_volume   685.33427583
_cell_formula_units_Z   4
loop_
 _symmetry_equiv_pos_site_id
 _symmetry_equiv_pos_as_xyz
  1  'x, y, z'
loop_
 _atom_site_type_symbol
 _atom_site_label
 _atom_site_symmetry_multiplicity
 _atom_site_fract_x
 _atom_site_fract_y
 _atom_site_fract_z
 _atom_site_occupancy
  K  K0  1  0.283256  0.581551  0.585334  1
  K  K1  1  0.088004  0.633152  0.947937  1
  K  K2  1  0.716744  0.418449  0.414666  1
  K  K3  1  0.716744  0.081551  0.914666  1
  K  K4  1  0.283256  0.918449  0.085334  1
  K  K5  1  0.911996  0.366848  0.052063  1
  K  K6  1  0.088004  0.866848  0.447937  1
  K  K7  1  0.911996  0.133152  0.552063  1
  V  V8  1  0.396470  0.200820  0.100308  1
  V  V9  1  0.603530  0.799180  0.899692  1
  V  V10  1  0.603530  0.700820  0.399692  1
  V  V11  1  0.396470  0.299180  0.600308  1
  P  P12  1  0.771801  0.622463  0.198067  1
  P  P13  1  0.771801  0.877537  0.698067  1
  P  P14  1  0.228199  0.377537  0.801933  1
  P  P15  1  0.228199  0.122463  0.301933  1
  O  O16  1  0.905390  0.529775  0.232487  1
  O  O17  1  0.905390  0.970225  0.732487  1
  O  O18  1  0.734176  0.673684  0.015991  1
  O  O19  1  0.338619  0.762516  0.793496  1
  O  O20  1  0.265824  0.173684  0.484009  1
  O  O21  1  0.265824  0.326316  0.984009  1
  O  O22  1  0.349671  0.373067  0.424900  1
  O  O23  1  0.455351  0.394409  0.808291  1
  O  O24  1  0.734176  0.826316  0.515991  1
  O  O25  1  0.122889  0.303746  0.633768  1
  O  O26  1  0.650329  0.873067  0.075100  1
  O  O27  1  0.544649  0.605591  0.191709  1
  O  O28  1  0.661381  0.262516  0.706504  1
  O  O29  1  0.661381  0.237484  0.206504  1
  O  O30  1  0.122889  0.196254  0.133768  1
  O  O31  1  0.877111  0.803746  0.866232  1
  O  O32  1  0.877111  0.696254  0.366232  1
  O  O33  1  0.544649  0.894409  0.691709  1
  O  O34  1  0.455351  0.105591  0.308291  1
  O  O35  1  0.094610  0.029775  0.267513  1
  O  O36  1  0.349671  0.126933  0.924900  1
  O  O37  1  0.650329  0.626933  0.575100  1
  O  O38  1  0.094610  0.470225  0.767513  1
  O  O39  1  0.338619  0.737484  0.293496  1
