# generated using pymatgen
data_InSb2Se4Br
_symmetry_space_group_name_H-M   'P 1'
_cell_length_a   10.85215508
_cell_length_b   10.85215508
_cell_length_c   12.43672853
_cell_angle_alpha   61.39610283
_cell_angle_beta   118.60389717
_cell_angle_gamma   158.44173992
_symmetry_Int_Tables_number   1
_chemical_formula_structural   InSb2Se4Br
_chemical_formula_sum   'In2 Sb4 Se8 Br2'
_cell_volume   469.94806195
_cell_formula_units_Z   2
loop_
 _symmetry_equiv_pos_site_id
 _symmetry_equiv_pos_as_xyz
  1  'x, y, z'
loop_
 _atom_site_type_symbol
 _atom_site_label
 _atom_site_symmetry_multiplicity
 _atom_site_fract_x
 _atom_site_fract_y
 _atom_site_fract_z
 _atom_site_occupancy
  In  In0  1  0.336702  0.663298  0.560082  1
  In  In1  1  0.663298  0.336702  0.439918  1
  Sb  Sb2  1  0.296138  0.703862  0.909662  1
  Sb  Sb3  1  0.703862  0.296138  0.090338  1
  Sb  Sb4  1  0.950980  0.049020  0.219267  1
  Sb  Sb5  1  0.049020  0.950980  0.780733  1
  Se  Se6  1  0.900701  0.099299  0.977490  1
  Se  Se7  1  0.320519  0.679481  0.139014  1
  Se  Se8  1  0.679481  0.320519  0.860986  1
  Se  Se9  1  0.537258  0.462742  0.217741  1
  Se  Se10  1  0.788744  0.211256  0.654181  1
  Se  Se11  1  0.462742  0.537258  0.782259  1
  Se  Se12  1  0.211256  0.788744  0.345819  1
  Se  Se13  1  0.099299  0.900701  0.022510  1
  Br  Br14  1  0.896728  0.103272  0.471786  1
  Br  Br15  1  0.103272  0.896728  0.528214  1
