# generated using pymatgen
data_Ba5Co5ClO13
_symmetry_space_group_name_H-M   'P 1'
_cell_length_a   5.78479268
_cell_length_b   5.78479268
_cell_length_c   24.78391236
_cell_angle_alpha   90.00000000
_cell_angle_beta   90.00000000
_cell_angle_gamma   120.00000000
_symmetry_Int_Tables_number   1
_chemical_formula_structural   Ba5Co5ClO13
_chemical_formula_sum   'Ba10 Co10 Cl2 O26'
_cell_volume   718.25075995
_cell_formula_units_Z   2
loop_
 _symmetry_equiv_pos_site_id
 _symmetry_equiv_pos_as_xyz
  1  'x, y, z'
loop_
 _atom_site_type_symbol
 _atom_site_label
 _atom_site_symmetry_multiplicity
 _atom_site_fract_x
 _atom_site_fract_y
 _atom_site_fract_z
 _atom_site_occupancy
  Ba  Ba0  1  0.333333  0.666667  0.539968  1
  Ba  Ba1  1  0.666667  0.333333  0.039968  1
  Ba  Ba2  1  0.666667  0.333333  0.460032  1
  Ba  Ba3  1  0.333333  0.666667  0.960032  1
  Ba  Ba4  1  0.333333  0.666667  0.126797  1
  Ba  Ba5  1  0.666667  0.333333  0.626797  1
  Ba  Ba6  1  0.666667  0.333333  0.873203  1
  Ba  Ba7  1  0.333333  0.666667  0.373203  1
  Ba  Ba8  1  0.000000  0.000000  0.750000  1
  Ba  Ba9  1  0.000000  0.000000  0.250000  1
  Co  Co10  1  0.666667  0.333333  0.176674  1
  Co  Co11  1  0.000000  0.000000  0.000000  1
  Co  Co12  1  0.333333  0.666667  0.676674  1
  Co  Co13  1  0.000000  0.000000  0.500000  1
  Co  Co14  1  0.666667  0.333333  0.323326  1
  Co  Co15  1  0.333333  0.666667  0.823326  1
  Co  Co16  1  0.000000  0.000000  0.896679  1
  Co  Co17  1  0.000000  0.000000  0.396679  1
  Co  Co18  1  0.000000  0.000000  0.103321  1
  Co  Co19  1  0.000000  0.000000  0.603321  1
  Cl  Cl20  1  0.666667  0.333333  0.750000  1
  Cl  Cl21  1  0.333333  0.666667  0.250000  1
  O  O22  1  0.666667  0.333333  0.250000  1
  O  O23  1  0.333333  0.666667  0.750000  1
  O  O24  1  0.148500  0.296999  0.047706  1
  O  O25  1  0.703001  0.851500  0.047706  1
  O  O26  1  0.148500  0.851500  0.047706  1
  O  O27  1  0.851500  0.148500  0.547706  1
  O  O28  1  0.851500  0.148500  0.952294  1
  O  O29  1  0.851500  0.703001  0.547706  1
  O  O30  1  0.296999  0.148500  0.547706  1
  O  O31  1  0.703001  0.851500  0.452294  1
  O  O32  1  0.148500  0.296999  0.452294  1
  O  O33  1  0.851500  0.703001  0.952294  1
  O  O34  1  0.296999  0.148500  0.952294  1
  O  O35  1  0.148500  0.851500  0.452294  1
  O  O36  1  0.837561  0.675123  0.147781  1
  O  O37  1  0.324877  0.162439  0.147781  1
  O  O38  1  0.837561  0.162439  0.147781  1
  O  O39  1  0.162439  0.837561  0.647781  1
  O  O40  1  0.162439  0.837561  0.852219  1
  O  O41  1  0.162439  0.324877  0.647781  1
  O  O42  1  0.675123  0.837561  0.647781  1
  O  O43  1  0.324877  0.162439  0.352219  1
  O  O44  1  0.837561  0.162439  0.352219  1
  O  O45  1  0.675123  0.837561  0.852219  1
  O  O46  1  0.837561  0.675123  0.352219  1
  O  O47  1  0.162439  0.324877  0.852219  1
