# generated using pymatgen
data_Sr2MnGaO5
_symmetry_space_group_name_H-M   'P 1'
_cell_length_a   8.93946234
_cell_length_b   8.93946234
_cell_length_c   8.93946234
_cell_angle_alpha   144.18079327
_cell_angle_beta   142.85705293
_cell_angle_gamma   52.55502462
_symmetry_Int_Tables_number   1
_chemical_formula_structural   Sr2MnGaO5
_chemical_formula_sum   'Sr4 Mn2 Ga2 O10'
_cell_volume   250.94712909
_cell_formula_units_Z   2
loop_
 _symmetry_equiv_pos_site_id
 _symmetry_equiv_pos_as_xyz
  1  'x, y, z'
loop_
 _atom_site_type_symbol
 _atom_site_label
 _atom_site_symmetry_multiplicity
 _atom_site_fract_x
 _atom_site_fract_y
 _atom_site_fract_z
 _atom_site_occupancy
  Sr  Sr0  1  0.870306  0.887963  0.980727  1
  Sr  Sr1  1  0.407236  0.387963  0.017657  1
  Sr  Sr2  1  0.129694  0.110421  0.017657  1
  Sr  Sr3  1  0.592764  0.610421  0.980727  1
  Mn  Mn4  1  0.500000  0.994775  0.494775  1
  Mn  Mn5  1  0.000000  0.494775  0.494775  1
  Ga  Ga6  1  0.178053  0.784362  0.462415  1
  Ga  Ga7  1  0.821947  0.284362  0.606308  1
  O  O8  1  0.119659  0.127307  0.746965  1
  O  O9  1  0.880341  0.627307  0.007648  1
  O  O10  1  0.195617  0.619372  0.525294  1
  O  O11  1  0.804383  0.329677  0.423755  1
  O  O12  1  0.594078  0.119372  0.423755  1
  O  O13  1  0.405922  0.829677  0.525294  1
  O  O14  1  0.245662  0.239667  0.499114  1
  O  O15  1  0.754338  0.253452  0.994005  1
  O  O16  1  0.759447  0.753452  0.499114  1
  O  O17  1  0.240553  0.739667  0.994005  1
