# generated using pymatgen
data_La2CO5
_symmetry_space_group_name_H-M   'P 1'
_cell_length_a   7.10283309
_cell_length_b   7.10283309
_cell_length_c   32.04561859
_cell_angle_alpha   90.00000000
_cell_angle_beta   90.00000000
_cell_angle_gamma   119.97390410
_symmetry_Int_Tables_number   1
_chemical_formula_structural   La2CO5
_chemical_formula_sum   'La24 C12 O60'
_cell_volume   1400.47916156
_cell_formula_units_Z   12
loop_
 _symmetry_equiv_pos_site_id
 _symmetry_equiv_pos_as_xyz
  1  'x, y, z'
loop_
 _atom_site_type_symbol
 _atom_site_label
 _atom_site_symmetry_multiplicity
 _atom_site_fract_x
 _atom_site_fract_y
 _atom_site_fract_z
 _atom_site_occupancy
  La  La0  1  0.986318  0.661124  0.421742  1
  La  La1  1  0.659405  0.667671  0.326929  1
  La  La2  1  0.324570  0.988439  0.672191  1
  La  La3  1  0.667671  0.659405  0.673071  1
  La  La4  1  0.330009  0.332242  0.077990  1
  La  La5  1  0.661124  0.986318  0.921742  1
  La  La6  1  0.992018  0.659031  0.576405  1
  La  La7  1  0.332242  0.330009  0.577990  1
  La  La8  1  0.330009  0.332242  0.422010  1
  La  La9  1  0.992018  0.659031  0.923595  1
  La  La10  1  0.659031  0.992018  0.423595  1
  La  La11  1  0.659405  0.667671  0.173071  1
  La  La12  1  0.995258  0.330326  0.672130  1
  La  La13  1  0.667671  0.659405  0.826929  1
  La  La14  1  0.986318  0.661124  0.078258  1
  La  La15  1  0.661124  0.986318  0.578258  1
  La  La16  1  0.659031  0.992018  0.076405  1
  La  La17  1  0.324570  0.988439  0.827809  1
  La  La18  1  0.995258  0.330326  0.827870  1
  La  La19  1  0.988439  0.324570  0.327809  1
  La  La20  1  0.330326  0.995258  0.172130  1
  La  La21  1  0.988439  0.324570  0.172191  1
  La  La22  1  0.332242  0.330009  0.922010  1
  La  La23  1  0.330326  0.995258  0.327870  1
  C  C24  1  0.380989  0.659476  0.750000  1
  C  C25  1  0.046848  0.046848  0.000000  1
  C  C26  1  0.659476  0.380989  0.250000  1
  C  C27  1  0.275515  0.657239  0.500203  1
  C  C28  1  0.274492  0.610665  0.250000  1
  C  C29  1  0.994013  0.044766  0.750000  1
  C  C30  1  0.044766  0.994013  0.250000  1
  C  C31  1  0.610665  0.274492  0.750000  1
  C  C32  1  0.657239  0.275515  0.000203  1
  C  C33  1  0.046848  0.046848  0.500000  1
  C  C34  1  0.275515  0.657239  0.999797  1
  C  C35  1  0.657239  0.275515  0.499797  1
  O  O36  1  0.993624  0.661703  0.154582  1
  O  O37  1  0.698386  0.363135  0.785534  1
  O  O38  1  0.995791  0.331198  0.404350  1
  O  O39  1  0.992754  0.322859  0.904365  1
  O  O40  1  0.661885  0.564076  0.250000  1
  O  O41  1  0.091595  0.652612  0.498515  1
  O  O42  1  0.429742  0.092361  0.750000  1
  O  O43  1  0.660435  0.659063  0.900985  1
  O  O44  1  0.658520  0.356124  0.463235  1
  O  O45  1  0.660435  0.659063  0.599015  1
  O  O46  1  0.292649  0.658123  0.714450  1
  O  O47  1  0.661703  0.993624  0.654582  1
  O  O48  1  0.326678  0.324388  0.654363  1
  O  O49  1  0.660668  0.372891  0.965780  1
  O  O50  1  0.658520  0.356124  0.036765  1
  O  O51  1  0.992754  0.322859  0.595635  1
  O  O52  1  0.091595  0.652612  0.001485  1
  O  O53  1  0.661703  0.993624  0.845418  1
  O  O54  1  0.660668  0.372891  0.534220  1
  O  O55  1  0.363135  0.698386  0.285534  1
  O  O56  1  0.993624  0.661703  0.345418  1
  O  O57  1  0.959715  0.957491  0.964476  1
  O  O58  1  0.356124  0.658520  0.536765  1
  O  O59  1  0.324388  0.326678  0.345637  1
  O  O60  1  0.957491  0.959715  0.464476  1
  O  O61  1  0.652612  0.091595  0.998515  1
  O  O62  1  0.659809  0.998475  0.150802  1
  O  O63  1  0.987674  0.223142  0.750000  1
  O  O64  1  0.372891  0.660668  0.034220  1
  O  O65  1  0.331198  0.995792  0.904350  1
  O  O66  1  0.356124  0.658520  0.963235  1
  O  O67  1  0.998475  0.659809  0.650802  1
  O  O68  1  0.659063  0.660435  0.400985  1
  O  O69  1  0.658123  0.292649  0.214450  1
  O  O70  1  0.322859  0.992754  0.404365  1
  O  O71  1  0.958166  0.997124  0.214464  1
  O  O72  1  0.223142  0.987674  0.250000  1
  O  O73  1  0.326678  0.324388  0.845637  1
  O  O74  1  0.652612  0.091595  0.501485  1
  O  O75  1  0.958166  0.997124  0.285536  1
  O  O76  1  0.322859  0.992754  0.095635  1
  O  O77  1  0.658123  0.292649  0.285550  1
  O  O78  1  0.331198  0.995792  0.595650  1
  O  O79  1  0.659063  0.660435  0.099015  1
  O  O80  1  0.959715  0.957491  0.535524  1
  O  O81  1  0.228367  0.228367  0.500000  1
  O  O82  1  0.372891  0.660668  0.465780  1
  O  O83  1  0.698386  0.363135  0.714466  1
  O  O84  1  0.092361  0.429742  0.250000  1
  O  O85  1  0.564076  0.661885  0.750000  1
  O  O86  1  0.997124  0.958166  0.785536  1
  O  O87  1  0.659809  0.998475  0.349198  1
  O  O88  1  0.957491  0.959715  0.035524  1
  O  O89  1  0.324388  0.326678  0.154363  1
  O  O90  1  0.363135  0.698386  0.214466  1
  O  O91  1  0.998475  0.659809  0.849198  1
  O  O92  1  0.292649  0.658123  0.785550  1
  O  O93  1  0.228367  0.228367  0.000000  1
  O  O94  1  0.997124  0.958166  0.714464  1
  O  O95  1  0.995791  0.331198  0.095650  1
