# generated using pymatgen
data_Pr8Sb2S15
_symmetry_space_group_name_H-M   'P 1'
_cell_length_a   15.01010138
_cell_length_b   15.01010138
_cell_length_c   15.01010138
_cell_angle_alpha   116.37616459
_cell_angle_beta   116.37616459
_cell_angle_gamma   96.40034766
_symmetry_Int_Tables_number   1
_chemical_formula_structural   Pr8Sb2S15
_chemical_formula_sum   'Pr32 Sb8 S60'
_cell_volume   2505.36149354
_cell_formula_units_Z   4
loop_
 _symmetry_equiv_pos_site_id
 _symmetry_equiv_pos_as_xyz
  1  'x, y, z'
loop_
 _atom_site_type_symbol
 _atom_site_label
 _atom_site_symmetry_multiplicity
 _atom_site_fract_x
 _atom_site_fract_y
 _atom_site_fract_z
 _atom_site_occupancy
  Pr  Pr0  1  0.392333  0.099418  0.993123  1
  Pr  Pr1  1  0.149210  0.642333  0.792915  1
  Pr  Pr2  1  0.606295  0.599418  0.707085  1
  Pr  Pr3  1  0.083793  0.910641  0.866108  1
  Pr  Pr4  1  0.649210  0.856295  0.506877  1
  Pr  Pr5  1  0.892333  0.899210  0.292915  1
  Pr  Pr6  1  0.660641  0.294534  0.326849  1
  Pr  Pr7  1  0.972036  0.042282  0.655124  1
  Pr  Pr8  1  0.780696  0.910919  0.829892  1
  Pr  Pr9  1  0.544534  0.410641  0.826849  1
  Pr  Pr10  1  0.583793  0.717685  0.173151  1
  Pr  Pr11  1  0.292282  0.722036  0.155124  1
  Pr  Pr12  1  0.967685  0.333793  0.673151  1
  Pr  Pr13  1  0.887158  0.542282  0.070247  1
  Pr  Pr14  1  0.387158  0.316912  0.344876  1
  Pr  Pr15  1  0.792282  0.637158  0.570247  1
  Pr  Pr16  1  0.044534  0.217685  0.133892  1
  Pr  Pr17  1  0.280696  0.450804  0.869777  1
  Pr  Pr18  1  0.349418  0.142333  0.493123  1
  Pr  Pr19  1  0.200804  0.831027  0.670108  1
  Pr  Pr20  1  0.467685  0.794534  0.633892  1
  Pr  Pr21  1  0.066912  0.222036  0.429753  1
  Pr  Pr22  1  0.106295  0.399210  0.006877  1
  Pr  Pr23  1  0.700804  0.030696  0.369777  1
  Pr  Pr24  1  0.849418  0.356295  0.207085  1
  Pr  Pr25  1  0.566912  0.137158  0.844876  1
  Pr  Pr26  1  0.081027  0.950804  0.170108  1
  Pr  Pr27  1  0.660919  0.331027  0.630223  1
  Pr  Pr28  1  0.160641  0.833793  0.366108  1
  Pr  Pr29  1  0.472036  0.816912  0.929753  1
  Pr  Pr30  1  0.581027  0.410919  0.130223  1
  Pr  Pr31  1  0.160919  0.530696  0.329892  1
  Sb  Sb32  1  0.814058  0.200931  0.820094  1
  Sb  Sb33  1  0.743963  0.064058  0.113126  1
  Sb  Sb34  1  0.450931  0.564058  0.320094  1
  Sb  Sb35  1  0.243963  0.130837  0.679906  1
  Sb  Sb36  1  0.880837  0.700931  0.386874  1
  Sb  Sb37  1  0.380837  0.993963  0.179906  1
  Sb  Sb38  1  0.950931  0.630837  0.886874  1
  Sb  Sb39  1  0.314058  0.493963  0.613126  1
  S  S40  1  0.172164  0.025287  0.799180  1
  S  S41  1  0.883163  0.370537  0.831981  1
  S  S42  1  0.566594  0.216112  0.695965  1
  S  S43  1  0.962947  0.375716  0.092564  1
  S  S44  1  0.775287  0.476107  0.353123  1
  S  S45  1  0.122984  0.422164  0.646877  1
  S  S46  1  0.341753  0.025564  0.609032  1
  S  S47  1  0.968974  0.582400  0.308061  1
  S  S48  1  0.462947  0.370383  0.587231  1
  S  S49  1  0.672164  0.872984  0.146877  1
  S  S50  1  0.938989  0.116047  0.490093  1
  S  S51  1  0.066594  0.370629  0.350482  1
  S  S52  1  0.275564  0.091753  0.109032  1
  S  S53  1  0.916532  0.525564  0.683811  1
  S  S54  1  0.698896  0.375954  0.009907  1
  S  S55  1  0.120537  0.788556  0.987374  1
  S  S56  1  0.226107  0.372984  0.200820  1
  S  S57  1  0.841753  0.232721  0.316189  1
  S  S58  1  0.301182  0.288556  0.668019  1
  S  S59  1  0.620537  0.633163  0.331981  1
  S  S60  1  0.866047  0.875954  0.677058  1
  S  S61  1  0.622984  0.976107  0.700820  1
  S  S62  1  0.482721  0.591753  0.816189  1
  S  S63  1  0.468974  0.160913  0.386574  1
  S  S64  1  0.249464  0.749464  0.500000  1
  S  S65  1  0.774339  0.082400  0.613426  1
  S  S66  1  0.038556  0.870537  0.487374  1
  S  S67  1  0.801182  0.133163  0.012626  1
  S  S68  1  0.620629  0.816594  0.850482  1
  S  S69  1  0.198896  0.188989  0.322942  1
  S  S70  1  0.910913  0.024339  0.191939  1
  S  S71  1  0.832400  0.718974  0.808061  1
  S  S72  1  0.982721  0.166532  0.890968  1
  S  S73  1  0.466112  0.316594  0.195965  1
  S  S74  1  0.125716  0.533152  0.912769  1
  S  S75  1  0.120629  0.270147  0.804035  1
  S  S76  1  0.726107  0.525287  0.853123  1
  S  S77  1  0.332400  0.524339  0.113426  1
  S  S78  1  0.783152  0.875716  0.412769  1
  S  S79  1  0.499464  0.499464  0.000000  1
  S  S80  1  0.125954  0.616047  0.177058  1
  S  S81  1  0.999464  0.999464  0.000000  1
  S  S82  1  0.274339  0.660913  0.691939  1
  S  S83  1  0.775564  0.666532  0.183811  1
  S  S84  1  0.966112  0.770147  0.149518  1
  S  S85  1  0.625716  0.712947  0.592564  1
  S  S86  1  0.283152  0.870383  0.907436  1
  S  S87  1  0.620383  0.212947  0.087231  1
  S  S88  1  0.416532  0.732721  0.390968  1
  S  S89  1  0.120383  0.033152  0.407436  1
  S  S90  1  0.275287  0.922164  0.299180  1
  S  S91  1  0.520147  0.870629  0.304035  1
  S  S92  1  0.366047  0.688989  0.990093  1
  S  S93  1  0.538556  0.051182  0.168019  1
  S  S94  1  0.438989  0.948896  0.822942  1
  S  S95  1  0.020147  0.716112  0.649518  1
  S  S96  1  0.749464  0.249464  0.500000  1
  S  S97  1  0.383163  0.551182  0.512626  1
  S  S98  1  0.625954  0.448896  0.509907  1
  S  S99  1  0.410913  0.218974  0.886574  1
