# generated using pymatgen
data_Cu4Se3O10
_symmetry_space_group_name_H-M   'P 1'
_cell_length_a   8.10978863
_cell_length_b   8.26835839
_cell_length_c   8.49937427
_cell_angle_alpha   77.44994428
_cell_angle_beta   65.67288159
_cell_angle_gamma   81.51058587
_symmetry_Int_Tables_number   1
_chemical_formula_structural   Cu4Se3O10
_chemical_formula_sum   'Cu8 Se6 O20'
_cell_volume   505.82667055
_cell_formula_units_Z   2
loop_
 _symmetry_equiv_pos_site_id
 _symmetry_equiv_pos_as_xyz
  1  'x, y, z'
loop_
 _atom_site_type_symbol
 _atom_site_label
 _atom_site_symmetry_multiplicity
 _atom_site_fract_x
 _atom_site_fract_y
 _atom_site_fract_z
 _atom_site_occupancy
  Cu  Cu0  1  0.678357  0.550830  0.389928  1
  Cu  Cu1  1  0.321643  0.449170  0.610072  1
  Cu  Cu2  1  0.092641  0.563345  0.260042  1
  Cu  Cu3  1  0.907359  0.436655  0.739958  1
  Cu  Cu4  1  0.513879  0.368877  0.176808  1
  Cu  Cu5  1  0.486121  0.631123  0.823192  1
  Cu  Cu6  1  0.607593  0.162365  0.486024  1
  Cu  Cu7  1  0.392407  0.837635  0.513976  1
  Se  Se8  1  0.163885  0.188971  0.470469  1
  Se  Se9  1  0.836116  0.811029  0.529531  1
  Se  Se10  1  0.943859  0.281913  0.122996  1
  Se  Se11  1  0.056141  0.718087  0.877004  1
  Se  Se12  1  0.403900  0.797535  0.160405  1
  Se  Se13  1  0.596100  0.202465  0.839595  1
  O  O14  1  0.528858  0.386317  0.398154  1
  O  O15  1  0.471142  0.613683  0.601846  1
  O  O16  1  0.144589  0.295813  0.636021  1
  O  O17  1  0.855411  0.704187  0.363979  1
  O  O18  1  0.372374  0.080166  0.423639  1
  O  O19  1  0.627626  0.919834  0.576361  1
  O  O20  1  0.239152  0.348383  0.286703  1
  O  O21  1  0.760848  0.651617  0.713297  1
  O  O22  1  0.779067  0.325995  0.036409  1
  O  O23  1  0.220933  0.674005  0.963591  1
  O  O24  1  0.908918  0.464529  0.216326  1
  O  O25  1  0.091082  0.535471  0.783674  1
  O  O26  1  0.852141  0.133681  0.302726  1
  O  O27  1  0.147859  0.866319  0.697274  1
  O  O28  1  0.519768  0.642063  0.040567  1
  O  O29  1  0.480232  0.357937  0.959433  1
  O  O30  1  0.221441  0.695039  0.330079  1
  O  O31  1  0.778559  0.304961  0.669921  1
  O  O32  1  0.542650  0.796769  0.269539  1
  O  O33  1  0.457350  0.203231  0.730461  1
