# generated using pymatgen
data_Mo2(PO4)3
_symmetry_space_group_name_H-M   'P 1'
_cell_length_a   8.71900600
_cell_length_b   8.85855266
_cell_length_c   15.00265321
_cell_angle_alpha   90.00000000
_cell_angle_beta   125.40924286
_cell_angle_gamma   90.00000000
_symmetry_Int_Tables_number   1
_chemical_formula_structural   Mo2(PO4)3
_chemical_formula_sum   'Mo8 P12 O48'
_cell_volume   944.43858954
_cell_formula_units_Z   4
loop_
 _symmetry_equiv_pos_site_id
 _symmetry_equiv_pos_as_xyz
  1  'x, y, z'
loop_
 _atom_site_type_symbol
 _atom_site_label
 _atom_site_symmetry_multiplicity
 _atom_site_fract_x
 _atom_site_fract_y
 _atom_site_fract_z
 _atom_site_occupancy
  Mo  Mo0  1  0.630641  0.466096  0.381207  1
  Mo  Mo1  1  0.369359  0.966096  0.118793  1
  Mo  Mo2  1  0.868063  0.036061  0.618899  1
  Mo  Mo3  1  0.131937  0.536061  0.881101  1
  Mo  Mo4  1  0.868063  0.463939  0.118899  1
  Mo  Mo5  1  0.131937  0.963939  0.381101  1
  Mo  Mo6  1  0.630641  0.033904  0.881207  1
  Mo  Mo7  1  0.369359  0.533904  0.618793  1
  P  P8  1  0.537621  0.750732  0.504635  1
  P  P9  1  0.252486  0.611263  0.145360  1
  P  P10  1  0.964870  0.889791  0.855668  1
  P  P11  1  0.035130  0.389791  0.644332  1
  P  P12  1  0.747514  0.111263  0.354640  1
  P  P13  1  0.462379  0.250732  0.995365  1
  P  P14  1  0.537621  0.749268  0.004635  1
  P  P15  1  0.252486  0.888737  0.645360  1
  P  P16  1  0.964870  0.610209  0.355668  1
  P  P17  1  0.035130  0.110209  0.144332  1
  P  P18  1  0.747514  0.388737  0.854640  1
  P  P19  1  0.462379  0.249268  0.495365  1
  O  O20  1  0.196539  0.108256  0.130389  1
  O  O21  1  0.480378  0.322156  0.408741  1
  O  O22  1  0.906765  0.429942  0.839268  1
  O  O23  1  0.634329  0.138521  0.565667  1
  O  O24  1  0.528862  0.643396  0.423729  1
  O  O25  1  0.292523  0.778551  0.169952  1
  O  O26  1  0.177021  0.571186  0.027199  1
  O  O27  1  0.921488  0.003806  0.765084  1
  O  O28  1  0.983287  0.729119  0.821659  1
  O  O29  1  0.719636  0.844136  0.565385  1
  O  O30  1  0.421501  0.507558  0.223067  1
  O  O31  1  0.152687  0.937525  0.960136  1
  O  O32  1  0.847313  0.437525  0.539864  1
  O  O33  1  0.578499  0.007558  0.276933  1
  O  O34  1  0.280364  0.344136  0.934615  1
  O  O35  1  0.016713  0.229119  0.678341  1
  O  O36  1  0.078512  0.503806  0.734916  1
  O  O37  1  0.822979  0.071186  0.472801  1
  O  O38  1  0.707477  0.278551  0.330048  1
  O  O39  1  0.471138  0.143396  0.076271  1
  O  O40  1  0.365671  0.638521  0.934333  1
  O  O41  1  0.519622  0.822156  0.091259  1
  O  O42  1  0.093235  0.929942  0.660732  1
  O  O43  1  0.803461  0.608256  0.369611  1
  O  O44  1  0.196539  0.391744  0.630389  1
  O  O45  1  0.906765  0.070058  0.339268  1
  O  O46  1  0.480378  0.177844  0.908741  1
  O  O47  1  0.634329  0.361479  0.065667  1
  O  O48  1  0.528862  0.856604  0.923729  1
  O  O49  1  0.292523  0.721449  0.669952  1
  O  O50  1  0.177021  0.928814  0.527199  1
  O  O51  1  0.921488  0.496194  0.265084  1
  O  O52  1  0.983287  0.770881  0.321659  1
  O  O53  1  0.719636  0.655864  0.065385  1
  O  O54  1  0.421501  0.992442  0.723067  1
  O  O55  1  0.152687  0.562475  0.460136  1
  O  O56  1  0.847313  0.062475  0.039864  1
  O  O57  1  0.578499  0.492442  0.776933  1
  O  O58  1  0.280364  0.155864  0.434615  1
  O  O59  1  0.016713  0.270881  0.178341  1
  O  O60  1  0.078512  0.996194  0.234916  1
  O  O61  1  0.822979  0.428814  0.972801  1
  O  O62  1  0.707477  0.221449  0.830048  1
  O  O63  1  0.471138  0.356604  0.576271  1
  O  O64  1  0.365671  0.861479  0.434333  1
  O  O65  1  0.093235  0.570058  0.160732  1
  O  O66  1  0.519622  0.677844  0.591259  1
  O  O67  1  0.803461  0.891744  0.869611  1
