# generated using pymatgen
data_Sc4Ge6Rh7
_symmetry_space_group_name_H-M   'P 1'
_cell_length_a   7.09761903
_cell_length_b   7.09761903
_cell_length_c   7.09761903
_cell_angle_alpha   109.47122063
_cell_angle_beta   109.47122063
_cell_angle_gamma   109.47122063
_symmetry_Int_Tables_number   1
_chemical_formula_structural   Sc4Ge6Rh7
_chemical_formula_sum   'Sc4 Ge6 Rh7'
_cell_volume   275.24292353
_cell_formula_units_Z   1
loop_
 _symmetry_equiv_pos_site_id
 _symmetry_equiv_pos_as_xyz
  1  'x, y, z'
loop_
 _atom_site_type_symbol
 _atom_site_label
 _atom_site_symmetry_multiplicity
 _atom_site_fract_x
 _atom_site_fract_y
 _atom_site_fract_z
 _atom_site_occupancy
  Sc  Sc0  1  0.500000  0.500000  0.500000  1
  Sc  Sc1  1  0.500000  1.000000  0.000000  1
  Sc  Sc2  1  1.000000  0.500000  0.000000  1
  Sc  Sc3  1  1.000000  1.000000  0.500000  1
  Ge  Ge4  1  1.000000  0.314059  0.314059  1
  Ge  Ge5  1  0.314059  1.000000  0.314059  1
  Ge  Ge6  1  0.685941  1.000000  0.685941  1
  Ge  Ge7  1  0.685941  0.685941  0.000000  1
  Ge  Ge8  1  0.314059  0.314059  0.000000  1
  Ge  Ge9  1  1.000000  0.685941  0.685941  1
  Rh  Rh10  1  0.500000  0.750000  0.250000  1
  Rh  Rh11  1  0.750000  0.500000  0.250000  1
  Rh  Rh12  1  0.250000  0.500000  0.750000  1
  Rh  Rh13  1  0.750000  0.250000  0.500000  1
  Rh  Rh14  1  0.250000  0.750000  0.500000  1
  Rh  Rh15  1  0.500000  0.250000  0.750000  1
  Rh  Rh16  1  1.000000  1.000000  0.000000  1
