# generated using pymatgen
data_Eu3Sb5O12
_symmetry_space_group_name_H-M   'P 1'
_cell_length_a   9.56791192
_cell_length_b   9.56791192
_cell_length_c   9.56791192
_cell_angle_alpha   109.47122063
_cell_angle_beta   109.47122063
_cell_angle_gamma   109.47122063
_symmetry_Int_Tables_number   1
_chemical_formula_structural   Eu3Sb5O12
_chemical_formula_sum   'Eu6 Sb10 O24'
_cell_volume   674.26344594
_cell_formula_units_Z   2
loop_
 _symmetry_equiv_pos_site_id
 _symmetry_equiv_pos_as_xyz
  1  'x, y, z'
loop_
 _atom_site_type_symbol
 _atom_site_label
 _atom_site_symmetry_multiplicity
 _atom_site_fract_x
 _atom_site_fract_y
 _atom_site_fract_z
 _atom_site_occupancy
  Eu  Eu0  1  0.500000  0.250000  0.750000  1
  Eu  Eu1  1  0.750000  0.500000  0.250000  1
  Eu  Eu2  1  0.250000  0.500000  0.750000  1
  Eu  Eu3  1  0.750000  0.250000  0.500000  1
  Eu  Eu4  1  0.250000  0.750000  0.500000  1
  Eu  Eu5  1  0.500000  0.750000  0.250000  1
  Sb  Sb6  1  0.276737  0.276737  0.000000  1
  Sb  Sb7  1  0.723263  0.723263  0.000000  1
  Sb  Sb8  1  1.000000  0.723263  0.723263  1
  Sb  Sb9  1  1.000000  0.276737  0.276737  1
  Sb  Sb10  1  0.276737  1.000000  0.276737  1
  Sb  Sb11  1  0.723263  1.000000  0.723263  1
  Sb  Sb12  1  0.502554  0.502554  0.502554  1
  Sb  Sb13  1  0.497446  1.000000  0.000000  1
  Sb  Sb14  1  0.000000  0.497446  0.000000  1
  Sb  Sb15  1  1.000000  1.000000  0.497446  1
  O  O16  1  0.796392  0.513174  0.513174  1
  O  O17  1  0.486826  1.000000  0.283218  1
  O  O18  1  0.716782  0.203608  0.716782  1
  O  O19  1  0.716782  0.716782  0.203608  1
  O  O20  1  0.486826  0.283218  0.000000  1
  O  O21  1  1.000000  0.486826  0.283218  1
  O  O22  1  1.000000  0.283218  0.486826  1
  O  O23  1  0.283218  0.486826  0.000000  1
  O  O24  1  0.283218  1.000000  0.486826  1
  O  O25  1  0.513174  0.796392  0.513174  1
  O  O26  1  0.513174  0.513174  0.796392  1
  O  O27  1  0.203608  0.716782  0.716782  1
  O  O28  1  0.470129  0.470129  0.272554  1
  O  O29  1  0.529871  0.802424  0.000000  1
  O  O30  1  0.802424  0.529871  0.000000  1
  O  O31  1  1.000000  0.802424  0.529871  1
  O  O32  1  0.727446  0.197576  0.197576  1
  O  O33  1  0.197576  0.727446  0.197576  1
  O  O34  1  0.802424  1.000000  0.529871  1
  O  O35  1  0.529871  1.000000  0.802424  1
  O  O36  1  1.000000  0.529871  0.802424  1
  O  O37  1  0.272554  0.470129  0.470129  1
  O  O38  1  0.470129  0.272554  0.470129  1
  O  O39  1  0.197576  0.197576  0.727446  1
