# generated using pymatgen
data_La14C14Cl9
_symmetry_space_group_name_H-M   'P 1'
_cell_length_a   6.97897790
_cell_length_b   30.03131623
_cell_length_c   7.82545394
_cell_angle_alpha   90.00000000
_cell_angle_beta   104.41569453
_cell_angle_gamma   90.00000000
_symmetry_Int_Tables_number   1
_chemical_formula_structural   La14C14Cl9
_chemical_formula_sum   'La28 C28 Cl18'
_cell_volume   1588.48121307
_cell_formula_units_Z   2
loop_
 _symmetry_equiv_pos_site_id
 _symmetry_equiv_pos_as_xyz
  1  'x, y, z'
loop_
 _atom_site_type_symbol
 _atom_site_label
 _atom_site_symmetry_multiplicity
 _atom_site_fract_x
 _atom_site_fract_y
 _atom_site_fract_z
 _atom_site_occupancy
  La  La0  1  0.713532  0.671246  0.843134  1
  La  La1  1  0.731909  0.829070  0.774673  1
  La  La2  1  0.504868  0.043762  0.254275  1
  La  La3  1  0.487355  0.181237  0.396208  1
  La  La4  1  0.474479  0.611150  0.386615  1
  La  La5  1  0.719279  0.530660  0.693031  1
  La  La6  1  0.495813  0.885799  0.326058  1
  La  La7  1  0.486958  0.457007  0.312434  1
  La  La8  1  0.984539  0.684568  0.461205  1
  La  La9  1  0.987547  0.252928  0.467085  1
  La  La10  1  0.720263  0.242596  0.845880  1
  La  La11  1  0.213532  0.328754  0.843134  1
  La  La12  1  0.986958  0.542993  0.312434  1
  La  La13  1  0.987355  0.818763  0.396208  1
  La  La14  1  0.487547  0.747072  0.467085  1
  La  La15  1  0.484539  0.315432  0.461205  1
  La  La16  1  0.974479  0.388850  0.386615  1
  La  La17  1  0.735281  0.103192  0.705123  1
  La  La18  1  0.739191  0.967862  0.633963  1
  La  La19  1  0.995813  0.114201  0.326058  1
  La  La20  1  0.219279  0.469340  0.693031  1
  La  La21  1  0.225562  0.603817  0.767294  1
  La  La22  1  0.231909  0.170930  0.774673  1
  La  La23  1  0.220263  0.757404  0.845880  1
  La  La24  1  0.235281  0.896808  0.705123  1
  La  La25  1  0.725562  0.396183  0.767294  1
  La  La26  1  0.004868  0.956238  0.254275  1
  La  La27  1  0.239191  0.032138  0.633963  1
  C  C28  1  0.830423  0.734632  0.698375  1
  C  C29  1  0.828967  0.304537  0.692339  1
  C  C30  1  0.377127  0.664309  0.583964  1
  C  C31  1  0.345621  0.948634  0.506503  1
  C  C32  1  0.895351  0.019516  0.403388  1
  C  C33  1  0.392189  0.835601  0.529906  1
  C  C34  1  0.321483  0.379230  0.634877  1
  C  C35  1  0.879139  0.594942  0.517502  1
  C  C36  1  0.845621  0.051366  0.506503  1
  C  C37  1  0.331925  0.808665  0.645551  1
  C  C38  1  0.330423  0.265368  0.698375  1
  C  C39  1  0.831925  0.191335  0.645551  1
  C  C40  1  0.823552  0.449078  0.570974  1
  C  C41  1  0.832914  0.879606  0.572980  1
  C  C42  1  0.891583  0.906582  0.455519  1
  C  C43  1  0.332914  0.120394  0.572980  1
  C  C44  1  0.873081  0.480331  0.463016  1
  C  C45  1  0.323552  0.550922  0.570974  1
  C  C46  1  0.877127  0.335691  0.583964  1
  C  C47  1  0.391583  0.093418  0.455519  1
  C  C48  1  0.379139  0.405058  0.517502  1
  C  C49  1  0.881535  0.766090  0.593545  1
  C  C50  1  0.395351  0.980484  0.403388  1
  C  C51  1  0.381535  0.233910  0.593545  1
  C  C52  1  0.373081  0.519669  0.463016  1
  C  C53  1  0.821483  0.620770  0.634877  1
  C  C54  1  0.328967  0.695463  0.692339  1
  C  C55  1  0.892189  0.164399  0.529906  1
  Cl  Cl56  1  0.091585  0.744132  0.194934  1
  Cl  Cl57  1  0.587507  0.689467  0.194128  1
  Cl  Cl58  1  0.112057  0.416647  0.026946  1
  Cl  Cl59  1  0.115979  0.527283  0.961161  1
  Cl  Cl60  1  0.090676  0.197032  0.135589  1
  Cl  Cl61  1  0.087507  0.310533  0.194128  1
  Cl  Cl62  1  0.612170  0.141642  0.051149  1
  Cl  Cl63  1  0.589188  0.367333  0.129419  1
  Cl  Cl64  1  0.590676  0.802968  0.135589  1
  Cl  Cl65  1  0.591585  0.255868  0.194934  1
  Cl  Cl66  1  0.136729  0.973073  0.907043  1
  Cl  Cl67  1  0.634643  0.912721  0.962792  1
  Cl  Cl68  1  0.615979  0.472717  0.961161  1
  Cl  Cl69  1  0.612057  0.583353  0.026946  1
  Cl  Cl70  1  0.134643  0.087279  0.962792  1
  Cl  Cl71  1  0.089188  0.632667  0.129419  1
  Cl  Cl72  1  0.636729  0.026927  0.907043  1
  Cl  Cl73  1  0.112170  0.858358  0.051149  1
