# generated using pymatgen
data_AsSe(IF2)3
_symmetry_space_group_name_H-M   'P 1'
_cell_length_a   8.69695221
_cell_length_b   10.47482862
_cell_length_c   12.79885887
_cell_angle_alpha   90.00000000
_cell_angle_beta   99.02901964
_cell_angle_gamma   90.00000000
_symmetry_Int_Tables_number   1
_chemical_formula_structural   AsSe(IF2)3
_chemical_formula_sum   'As4 Se4 I12 F24'
_cell_volume   1151.51683339
_cell_formula_units_Z   4
loop_
 _symmetry_equiv_pos_site_id
 _symmetry_equiv_pos_as_xyz
  1  'x, y, z'
loop_
 _atom_site_type_symbol
 _atom_site_label
 _atom_site_symmetry_multiplicity
 _atom_site_fract_x
 _atom_site_fract_y
 _atom_site_fract_z
 _atom_site_occupancy
  As  As0  1  0.802423  0.274523  0.433361  1
  As  As1  1  0.802423  0.225477  0.933361  1
  As  As2  1  0.197577  0.774523  0.066639  1
  As  As3  1  0.197577  0.725477  0.566639  1
  Se  Se4  1  0.201279  0.181233  0.198990  1
  Se  Se5  1  0.798721  0.681233  0.301010  1
  Se  Se6  1  0.201279  0.318767  0.698990  1
  Se  Se7  1  0.798721  0.818767  0.801010  1
  I  I8  1  0.790432  0.590734  0.733283  1
  I  I9  1  0.738023  0.959122  0.637713  1
  I  I10  1  0.555844  0.826854  0.889377  1
  I  I11  1  0.555844  0.673146  0.389377  1
  I  I12  1  0.209568  0.409266  0.266717  1
  I  I13  1  0.261977  0.459122  0.862287  1
  I  I14  1  0.444156  0.173146  0.110623  1
  I  I15  1  0.209568  0.090734  0.766717  1
  I  I16  1  0.444156  0.326854  0.610623  1
  I  I17  1  0.738023  0.540878  0.137713  1
  I  I18  1  0.261977  0.040878  0.362287  1
  I  I19  1  0.790432  0.909266  0.233283  1
  F  F20  1  0.154778  0.716641  0.188887  1
  F  F21  1  0.721829  0.377840  0.959209  1
  F  F22  1  0.384532  0.824513  0.127725  1
  F  F23  1  0.845222  0.283359  0.811113  1
  F  F24  1  0.758542  0.330524  0.557937  1
  F  F25  1  0.012475  0.776821  0.501919  1
  F  F26  1  0.721829  0.122160  0.459209  1
  F  F27  1  0.241458  0.669476  0.442063  1
  F  F28  1  0.241458  0.830524  0.942063  1
  F  F29  1  0.278171  0.622160  0.040791  1
  F  F30  1  0.119430  0.926284  0.090107  1
  F  F31  1  0.845222  0.216641  0.311113  1
  F  F32  1  0.880570  0.073716  0.909893  1
  F  F33  1  0.384532  0.675487  0.627725  1
  F  F34  1  0.987525  0.276821  0.998081  1
  F  F35  1  0.615468  0.175487  0.872275  1
  F  F36  1  0.154778  0.783359  0.688887  1
  F  F37  1  0.987525  0.223179  0.498081  1
  F  F38  1  0.012475  0.723179  0.001919  1
  F  F39  1  0.758542  0.169476  0.057937  1
  F  F40  1  0.278171  0.877840  0.540791  1
  F  F41  1  0.880570  0.426284  0.409893  1
  F  F42  1  0.119430  0.573716  0.590107  1
  F  F43  1  0.615468  0.324513  0.372275  1
