# generated using pymatgen
data_Ca3Fe2(SeO3)6
_symmetry_space_group_name_H-M   'P 1'
_cell_length_a   14.18355752
_cell_length_b   14.18355752
_cell_length_c   14.18355752
_cell_angle_alpha   35.49032047
_cell_angle_beta   35.49032047
_cell_angle_gamma   35.49032047
_symmetry_Int_Tables_number   1
_chemical_formula_structural   Ca3Fe2(SeO3)6
_chemical_formula_sum   'Ca6 Fe4 Se12 O36'
_cell_volume   859.44362686
_cell_formula_units_Z   2
loop_
 _symmetry_equiv_pos_site_id
 _symmetry_equiv_pos_as_xyz
  1  'x, y, z'
loop_
 _atom_site_type_symbol
 _atom_site_label
 _atom_site_symmetry_multiplicity
 _atom_site_fract_x
 _atom_site_fract_y
 _atom_site_fract_z
 _atom_site_occupancy
  Ca  Ca0  1  0.250000  0.659418  0.840582  1
  Ca  Ca1  1  0.159418  0.750000  0.340582  1
  Ca  Ca2  1  0.840582  0.250000  0.659418  1
  Ca  Ca3  1  0.659418  0.840582  0.250000  1
  Ca  Ca4  1  0.340582  0.159418  0.750000  1
  Ca  Ca5  1  0.750000  0.340582  0.159418  1
  Fe  Fe6  1  0.500000  0.500000  0.500000  1
  Fe  Fe7  1  0.750000  0.750000  0.750000  1
  Fe  Fe8  1  0.250000  0.250000  0.250000  1
  Fe  Fe9  1  0.000000  0.000000  0.000000  1
  Se  Se10  1  0.493789  0.186361  0.911273  1
  Se  Se11  1  0.088727  0.506211  0.813639  1
  Se  Se12  1  0.686361  0.993789  0.411273  1
  Se  Se13  1  0.813639  0.088727  0.506211  1
  Se  Se14  1  0.186361  0.911273  0.493789  1
  Se  Se15  1  0.588727  0.313639  0.006211  1
  Se  Se16  1  0.911273  0.493789  0.186361  1
  Se  Se17  1  0.313639  0.006211  0.588727  1
  Se  Se18  1  0.006211  0.588727  0.313639  1
  Se  Se19  1  0.993789  0.411273  0.686361  1
  Se  Se20  1  0.506211  0.813639  0.088727  1
  Se  Se21  1  0.411273  0.686361  0.993789  1
  O  O22  1  0.655864  0.001000  0.684742  1
  O  O23  1  0.499000  0.844136  0.815258  1
  O  O24  1  0.678961  0.321742  0.405758  1
  O  O25  1  0.663720  0.058884  0.951183  1
  O  O26  1  0.163720  0.451183  0.558884  1
  O  O27  1  0.094242  0.178258  0.821039  1
  O  O28  1  0.058884  0.951183  0.663720  1
  O  O29  1  0.344136  0.999000  0.315258  1
  O  O30  1  0.441116  0.836280  0.548817  1
  O  O31  1  0.684742  0.655864  0.001000  1
  O  O32  1  0.178961  0.905758  0.821742  1
  O  O33  1  0.815258  0.499000  0.844136  1
  O  O34  1  0.836280  0.548817  0.441116  1
  O  O35  1  0.001000  0.684742  0.655864  1
  O  O36  1  0.999000  0.315258  0.344136  1
  O  O37  1  0.321742  0.405758  0.678961  1
  O  O38  1  0.951183  0.663720  0.058884  1
  O  O39  1  0.844136  0.815258  0.499000  1
  O  O40  1  0.336280  0.941116  0.048817  1
  O  O41  1  0.821742  0.178961  0.905758  1
  O  O42  1  0.405758  0.678961  0.321742  1
  O  O43  1  0.178258  0.821039  0.094242  1
  O  O44  1  0.184742  0.501000  0.155864  1
  O  O45  1  0.594242  0.321039  0.678258  1
  O  O46  1  0.321039  0.678258  0.594242  1
  O  O47  1  0.451183  0.558884  0.163720  1
  O  O48  1  0.155864  0.184742  0.501000  1
  O  O49  1  0.941116  0.048817  0.336280  1
  O  O50  1  0.678258  0.594242  0.321039  1
  O  O51  1  0.548817  0.441116  0.836280  1
  O  O52  1  0.501000  0.155864  0.184742  1
  O  O53  1  0.315258  0.344136  0.999000  1
  O  O54  1  0.048817  0.336280  0.941116  1
  O  O55  1  0.558884  0.163720  0.451183  1
  O  O56  1  0.821039  0.094242  0.178258  1
  O  O57  1  0.905758  0.821742  0.178961  1
