# generated using pymatgen
data_SiO2
_symmetry_space_group_name_H-M   'P 1'
_cell_length_a   4.74710623
_cell_length_b   8.16842323
_cell_length_c   8.60041570
_cell_angle_alpha   90.00000000
_cell_angle_beta   90.00000000
_cell_angle_gamma   90.00000000
_symmetry_Int_Tables_number   1
_chemical_formula_structural   SiO2
_chemical_formula_sum   'Si8 O16'
_cell_volume   333.49292546
_cell_formula_units_Z   8
loop_
 _symmetry_equiv_pos_site_id
 _symmetry_equiv_pos_as_xyz
  1  'x, y, z'
loop_
 _atom_site_type_symbol
 _atom_site_label
 _atom_site_symmetry_multiplicity
 _atom_site_fract_x
 _atom_site_fract_y
 _atom_site_fract_z
 _atom_site_occupancy
  Si  Si0  1  0.144830  0.063037  0.158982  1
  Si  Si1  1  0.144830  0.436963  0.658982  1
  Si  Si2  1  0.644830  0.563037  0.841018  1
  Si  Si3  1  0.355170  0.436963  0.158982  1
  Si  Si4  1  0.855170  0.563037  0.341018  1
  Si  Si5  1  0.855170  0.936963  0.841018  1
  Si  Si6  1  0.644830  0.936963  0.341018  1
  Si  Si7  1  0.355170  0.063037  0.658982  1
  O  O8  1  0.585964  0.053482  0.799874  1
  O  O9  1  0.585964  0.446518  0.299873  1
  O  O10  1  0.414036  0.553482  0.700126  1
  O  O11  1  0.250000  0.250000  0.639043  1
  O  O12  1  0.085964  0.553482  0.200126  1
  O  O13  1  0.414036  0.946518  0.200126  1
  O  O14  1  0.914036  0.053482  0.299873  1
  O  O15  1  0.000000  0.500000  0.500000  1
  O  O16  1  0.750000  0.750000  0.360957  1
  O  O17  1  0.750000  0.750000  0.860957  1
  O  O18  1  0.914036  0.446518  0.799874  1
  O  O19  1  0.500000  0.500000  0.000000  1
  O  O20  1  0.250000  0.250000  0.139043  1
  O  O21  1  0.085964  0.946518  0.700126  1
  O  O22  1  0.000000  0.000000  0.000000  1
  O  O23  1  0.500000  0.000000  0.500000  1
