# generated using pymatgen
data_Rb2Sb2OF10
_symmetry_space_group_name_H-M   'P 1'
_cell_length_a   8.20323288
_cell_length_b   15.58417720
_cell_length_c   11.17474950
_cell_angle_alpha   90.00000000
_cell_angle_beta   130.24849784
_cell_angle_gamma   90.00000000
_symmetry_Int_Tables_number   1
_chemical_formula_structural   Rb2Sb2OF10
_chemical_formula_sum   'Rb8 Sb8 O4 F40'
_cell_volume   1090.36823702
_cell_formula_units_Z   4
loop_
 _symmetry_equiv_pos_site_id
 _symmetry_equiv_pos_as_xyz
  1  'x, y, z'
loop_
 _atom_site_type_symbol
 _atom_site_label
 _atom_site_symmetry_multiplicity
 _atom_site_fract_x
 _atom_site_fract_y
 _atom_site_fract_z
 _atom_site_occupancy
  Rb  Rb0  1  0.785000  0.316265  0.032243  1
  Rb  Rb1  1  0.465025  0.957012  0.171014  1
  Rb  Rb2  1  0.465025  0.542988  0.671014  1
  Rb  Rb3  1  0.534975  0.457012  0.328986  1
  Rb  Rb4  1  0.534975  0.042988  0.828986  1
  Rb  Rb5  1  0.215000  0.816265  0.467757  1
  Rb  Rb6  1  0.215000  0.683735  0.967757  1
  Rb  Rb7  1  0.785000  0.183735  0.532243  1
  Sb  Sb8  1  0.931629  0.928223  0.692698  1
  Sb  Sb9  1  0.669684  0.757137  0.952326  1
  Sb  Sb10  1  0.068371  0.071777  0.307302  1
  Sb  Sb11  1  0.330316  0.257137  0.547674  1
  Sb  Sb12  1  0.330316  0.242863  0.047674  1
  Sb  Sb13  1  0.931629  0.571777  0.192698  1
  Sb  Sb14  1  0.669684  0.742863  0.452326  1
  Sb  Sb15  1  0.068371  0.428223  0.807302  1
  O  O16  1  0.705835  0.657251  0.073612  1
  O  O17  1  0.294165  0.342749  0.926388  1
  O  O18  1  0.705835  0.842749  0.573612  1
  O  O19  1  0.294165  0.157251  0.426388  1
  F  F20  1  0.931338  0.370074  0.609812  1
  F  F21  1  0.524568  0.685610  0.514026  1
  F  F22  1  0.847112  0.514925  0.686090  1
  F  F23  1  0.397736  0.790390  0.272514  1
  F  F24  1  0.475432  0.314390  0.485974  1
  F  F25  1  0.931338  0.129926  0.109812  1
  F  F26  1  0.189212  0.496360  0.993561  1
  F  F27  1  0.810788  0.996360  0.506439  1
  F  F28  1  0.062717  0.308403  0.377770  1
  F  F29  1  0.239887  0.005190  0.279682  1
  F  F30  1  0.876907  0.373099  0.827316  1
  F  F31  1  0.810788  0.503640  0.006439  1
  F  F32  1  0.062717  0.191597  0.877770  1
  F  F33  1  0.123093  0.626901  0.172684  1
  F  F34  1  0.602264  0.209610  0.727486  1
  F  F35  1  0.207642  0.298383  0.128301  1
  F  F36  1  0.937283  0.691597  0.622230  1
  F  F37  1  0.123093  0.873099  0.672684  1
  F  F38  1  0.937283  0.808403  0.122230  1
  F  F39  1  0.602264  0.290390  0.227486  1
  F  F40  1  0.239887  0.494810  0.779682  1
  F  F41  1  0.605022  0.855842  0.823678  1
  F  F42  1  0.068662  0.629926  0.390188  1
  F  F43  1  0.397736  0.709610  0.772514  1
  F  F44  1  0.847112  0.985075  0.186090  1
  F  F45  1  0.876907  0.126901  0.327316  1
  F  F46  1  0.605022  0.644158  0.323678  1
  F  F47  1  0.792358  0.798383  0.371699  1
  F  F48  1  0.475432  0.185610  0.985974  1
  F  F49  1  0.068662  0.870074  0.890188  1
  F  F50  1  0.760113  0.505190  0.220318  1
  F  F51  1  0.207642  0.201617  0.628301  1
  F  F52  1  0.792358  0.701617  0.871699  1
  F  F53  1  0.394978  0.355842  0.676322  1
  F  F54  1  0.152888  0.485075  0.313910  1
  F  F55  1  0.152888  0.014925  0.813910  1
  F  F56  1  0.524568  0.814390  0.014026  1
  F  F57  1  0.760113  0.994810  0.720318  1
  F  F58  1  0.394978  0.144158  0.176322  1
  F  F59  1  0.189212  0.003640  0.493561  1
