# generated using pymatgen
data_Co2Mo3N
_symmetry_space_group_name_H-M   'P 1'
_cell_length_a   6.66791827
_cell_length_b   6.66791827
_cell_length_c   6.66791827
_cell_angle_alpha   90.00000000
_cell_angle_beta   90.00000000
_cell_angle_gamma   90.00000000
_symmetry_Int_Tables_number   1
_chemical_formula_structural   Co2Mo3N
_chemical_formula_sum   'Co8 Mo12 N4'
_cell_volume   296.46320807
_cell_formula_units_Z   4
loop_
 _symmetry_equiv_pos_site_id
 _symmetry_equiv_pos_as_xyz
  1  'x, y, z'
loop_
 _atom_site_type_symbol
 _atom_site_label
 _atom_site_symmetry_multiplicity
 _atom_site_fract_x
 _atom_site_fract_y
 _atom_site_fract_z
 _atom_site_occupancy
  Co  Co0  1  0.569010  0.569010  0.569010  1
  Co  Co1  1  0.819010  0.680990  0.319010  1
  Co  Co2  1  0.319010  0.819010  0.680990  1
  Co  Co3  1  0.680990  0.319010  0.819010  1
  Co  Co4  1  0.930990  0.430990  0.069010  1
  Co  Co5  1  0.069010  0.930990  0.430990  1
  Co  Co6  1  0.430990  0.069010  0.930990  1
  Co  Co7  1  0.180990  0.180990  0.180990  1
  Mo  Mo8  1  0.625000  0.701401  0.951401  1
  Mo  Mo9  1  0.875000  0.298599  0.451401  1
  Mo  Mo10  1  0.375000  0.201401  0.548599  1
  Mo  Mo11  1  0.701401  0.951401  0.625000  1
  Mo  Mo12  1  0.298599  0.451401  0.875000  1
  Mo  Mo13  1  0.548599  0.375000  0.201401  1
  Mo  Mo14  1  0.951401  0.625000  0.701401  1
  Mo  Mo15  1  0.798599  0.048599  0.125000  1
  Mo  Mo16  1  0.451401  0.875000  0.298599  1
  Mo  Mo17  1  0.048599  0.125000  0.798599  1
  Mo  Mo18  1  0.201401  0.548599  0.375000  1
  Mo  Mo19  1  0.125000  0.798599  0.048599  1
  N  N20  1  0.875000  0.875000  0.875000  1
  N  N21  1  0.125000  0.375000  0.625000  1
  N  N22  1  0.625000  0.125000  0.375000  1
  N  N23  1  0.375000  0.625000  0.125000  1
