# generated using pymatgen
data_MgVBiO5
_symmetry_space_group_name_H-M   'P 1'
_cell_length_a   5.40159254
_cell_length_b   11.71094417
_cell_length_c   8.00452742
_cell_angle_alpha   90.00000000
_cell_angle_beta   112.74655878
_cell_angle_gamma   90.00000000
_symmetry_Int_Tables_number   1
_chemical_formula_structural   MgVBiO5
_chemical_formula_sum   'Mg4 V4 Bi4 O20'
_cell_volume   466.96673090
_cell_formula_units_Z   4
loop_
 _symmetry_equiv_pos_site_id
 _symmetry_equiv_pos_as_xyz
  1  'x, y, z'
loop_
 _atom_site_type_symbol
 _atom_site_label
 _atom_site_symmetry_multiplicity
 _atom_site_fract_x
 _atom_site_fract_y
 _atom_site_fract_z
 _atom_site_occupancy
  Mg  Mg0  1  0.550383  0.078583  0.176682  1
  Mg  Mg1  1  0.449617  0.921417  0.823318  1
  Mg  Mg2  1  0.449617  0.578583  0.323318  1
  Mg  Mg3  1  0.550383  0.421417  0.676682  1
  V  V4  1  0.186551  0.351635  0.971117  1
  V  V5  1  0.813449  0.648365  0.028883  1
  V  V6  1  0.813449  0.851635  0.528883  1
  V  V7  1  0.186551  0.148365  0.471117  1
  Bi  Bi8  1  0.058569  0.904529  0.175588  1
  Bi  Bi9  1  0.941431  0.095471  0.824412  1
  Bi  Bi10  1  0.058569  0.595471  0.675588  1
  Bi  Bi11  1  0.941431  0.404529  0.324412  1
  O  O12  1  0.752274  0.927989  0.328306  1
  O  O13  1  0.296654  0.068189  0.326080  1
  O  O14  1  0.151313  0.825000  0.637066  1
  O  O15  1  0.758814  0.473125  0.514494  1
  O  O16  1  0.675341  0.714229  0.484354  1
  O  O17  1  0.675341  0.785771  0.984354  1
  O  O18  1  0.296654  0.431811  0.826080  1
  O  O19  1  0.703346  0.568189  0.173920  1
  O  O20  1  0.241186  0.526875  0.485506  1
  O  O21  1  0.247726  0.427989  0.171694  1
  O  O22  1  0.324659  0.285771  0.515646  1
  O  O23  1  0.247726  0.072011  0.671694  1
  O  O24  1  0.752274  0.572011  0.828306  1
  O  O25  1  0.324659  0.214229  0.015646  1
  O  O26  1  0.241186  0.973125  0.985506  1
  O  O27  1  0.758814  0.026875  0.014494  1
  O  O28  1  0.848687  0.175000  0.362934  1
  O  O29  1  0.703346  0.931811  0.673920  1
  O  O30  1  0.848687  0.325000  0.862934  1
  O  O31  1  0.151313  0.675000  0.137066  1
