# generated using pymatgen
data_Np(IO3)4
_symmetry_space_group_name_H-M   'P 1'
_cell_length_a   10.19078576
_cell_length_b   10.19078576
_cell_length_c   5.36558023
_cell_angle_alpha   90.00000000
_cell_angle_beta   90.00000000
_cell_angle_gamma   90.00000000
_symmetry_Int_Tables_number   1
_chemical_formula_structural   Np(IO3)4
_chemical_formula_sum   'Np2 I8 O24'
_cell_volume   557.22685190
_cell_formula_units_Z   2
loop_
 _symmetry_equiv_pos_site_id
 _symmetry_equiv_pos_as_xyz
  1  'x, y, z'
loop_
 _atom_site_type_symbol
 _atom_site_label
 _atom_site_symmetry_multiplicity
 _atom_site_fract_x
 _atom_site_fract_y
 _atom_site_fract_z
 _atom_site_occupancy
  Np  Np0  1  0.500000  0.500000  0.000000  1
  Np  Np1  1  0.000000  0.000000  0.500000  1
  I  I2  1  0.771682  0.498119  0.469299  1
  I  I3  1  0.998119  0.728318  0.969299  1
  I  I4  1  0.271682  0.998119  0.030701  1
  I  I5  1  0.728318  0.001881  0.030701  1
  I  I6  1  0.228318  0.501881  0.469299  1
  I  I7  1  0.001881  0.271682  0.969299  1
  I  I8  1  0.498119  0.228318  0.530701  1
  I  I9  1  0.501881  0.771682  0.530701  1
  O  O10  1  0.151253  0.927772  0.804667  1
  O  O11  1  0.620286  0.902455  0.495183  1
  O  O12  1  0.120286  0.402455  0.004817  1
  O  O13  1  0.402455  0.879714  0.995183  1
  O  O14  1  0.097545  0.620286  0.504817  1
  O  O15  1  0.422424  0.309416  0.802793  1
  O  O16  1  0.902455  0.379714  0.504817  1
  O  O17  1  0.809416  0.077576  0.302793  1
  O  O18  1  0.927772  0.848747  0.195333  1
  O  O19  1  0.922424  0.809416  0.697207  1
  O  O20  1  0.879714  0.597545  0.004817  1
  O  O21  1  0.348747  0.572228  0.695333  1
  O  O22  1  0.577576  0.690584  0.802793  1
  O  O23  1  0.690584  0.422424  0.197207  1
  O  O24  1  0.072228  0.151253  0.195333  1
  O  O25  1  0.309416  0.577576  0.197207  1
  O  O26  1  0.848747  0.072228  0.804667  1
  O  O27  1  0.572228  0.651253  0.304667  1
  O  O28  1  0.379714  0.097545  0.495183  1
  O  O29  1  0.597545  0.120286  0.995183  1
  O  O30  1  0.077576  0.190584  0.697207  1
  O  O31  1  0.427772  0.348747  0.304667  1
  O  O32  1  0.190584  0.922424  0.302793  1
  O  O33  1  0.651253  0.427772  0.695333  1
