# generated using pymatgen
data_LiEu2CBr3N2
_symmetry_space_group_name_H-M   'P 1'
_cell_length_a   10.33667788
_cell_length_b   10.33667788
_cell_length_c   10.33667788
_cell_angle_alpha   60.00000000
_cell_angle_beta   60.00000000
_cell_angle_gamma   60.00000000
_symmetry_Int_Tables_number   1
_chemical_formula_structural   LiEu2CBr3N2
_chemical_formula_sum   'Li4 Eu8 C4 Br12 N8'
_cell_volume   780.95848970
_cell_formula_units_Z   4
loop_
 _symmetry_equiv_pos_site_id
 _symmetry_equiv_pos_as_xyz
  1  'x, y, z'
loop_
 _atom_site_type_symbol
 _atom_site_label
 _atom_site_symmetry_multiplicity
 _atom_site_fract_x
 _atom_site_fract_y
 _atom_site_fract_z
 _atom_site_occupancy
  Li  Li0  1  0.125000  0.625000  0.125000  1
  Li  Li1  1  0.125000  0.125000  0.625000  1
  Li  Li2  1  0.625000  0.125000  0.125000  1
  Li  Li3  1  0.125000  0.125000  0.125000  1
  Eu  Eu4  1  0.846331  0.846331  0.461006  1
  Eu  Eu5  1  0.403669  0.403669  0.403669  1
  Eu  Eu6  1  0.403669  0.403669  0.788994  1
  Eu  Eu7  1  0.461006  0.846331  0.846331  1
  Eu  Eu8  1  0.788994  0.403669  0.403669  1
  Eu  Eu9  1  0.846331  0.461006  0.846331  1
  Eu  Eu10  1  0.846331  0.846331  0.846331  1
  Eu  Eu11  1  0.403669  0.788994  0.403669  1
  C  C12  1  0.625000  0.625000  0.125000  1
  C  C13  1  0.625000  0.125000  0.625000  1
  C  C14  1  0.625000  0.625000  0.625000  1
  C  C15  1  0.125000  0.625000  0.625000  1
  Br  Br16  1  0.052527  0.052527  0.447473  1
  Br  Br17  1  0.447473  0.052527  0.052527  1
  Br  Br18  1  0.197473  0.197473  0.802527  1
  Br  Br19  1  0.197473  0.802527  0.197473  1
  Br  Br20  1  0.447473  0.447473  0.052527  1
  Br  Br21  1  0.802527  0.197473  0.197473  1
  Br  Br22  1  0.197473  0.802527  0.802527  1
  Br  Br23  1  0.447473  0.052527  0.447473  1
  Br  Br24  1  0.802527  0.197473  0.802527  1
  Br  Br25  1  0.052527  0.447473  0.052527  1
  Br  Br26  1  0.802527  0.802527  0.197473  1
  Br  Br27  1  0.052527  0.447473  0.447473  1
  N  N28  1  0.576210  0.576210  0.576210  1
  N  N29  1  0.673790  0.673790  0.673790  1
  N  N30  1  0.271370  0.576210  0.576210  1
  N  N31  1  0.576210  0.271370  0.576210  1
  N  N32  1  0.673790  0.978630  0.673790  1
  N  N33  1  0.978630  0.673790  0.673790  1
  N  N34  1  0.673790  0.673790  0.978630  1
  N  N35  1  0.576210  0.576210  0.271370  1
