# generated using pymatgen
data_Ca3(SiAs2)2
_symmetry_space_group_name_H-M   'P 1'
_cell_length_a   7.19163275
_cell_length_b   17.79863649
_cell_length_c   7.32646331
_cell_angle_alpha   90.00000000
_cell_angle_beta   111.65119121
_cell_angle_gamma   90.00000000
_symmetry_Int_Tables_number   1
_chemical_formula_structural   Ca3(SiAs2)2
_chemical_formula_sum   'Ca12 Si8 As16'
_cell_volume   871.63235569
_cell_formula_units_Z   4
loop_
 _symmetry_equiv_pos_site_id
 _symmetry_equiv_pos_as_xyz
  1  'x, y, z'
loop_
 _atom_site_type_symbol
 _atom_site_label
 _atom_site_symmetry_multiplicity
 _atom_site_fract_x
 _atom_site_fract_y
 _atom_site_fract_z
 _atom_site_occupancy
  Ca  Ca0  1  0.512160  0.059491  0.254931  1
  Ca  Ca1  1  0.987840  0.559491  0.745069  1
  Ca  Ca2  1  0.487840  0.940509  0.745069  1
  Ca  Ca3  1  0.012160  0.440509  0.254931  1
  Ca  Ca4  1  0.997634  0.060010  0.738484  1
  Ca  Ca5  1  0.502366  0.560010  0.261516  1
  Ca  Ca6  1  0.002366  0.939990  0.261516  1
  Ca  Ca7  1  0.497634  0.439990  0.738484  1
  Ca  Ca8  1  0.013538  0.183901  0.218075  1
  Ca  Ca9  1  0.486462  0.683901  0.781925  1
  Ca  Ca10  1  0.986462  0.816099  0.781925  1
  Ca  Ca11  1  0.513538  0.316099  0.218075  1
  Si  Si12  1  0.079469  0.259571  0.683680  1
  Si  Si13  1  0.420531  0.759571  0.316320  1
  Si  Si14  1  0.920531  0.740429  0.316320  1
  Si  Si15  1  0.579469  0.240429  0.683680  1
  Si  Si16  1  0.029581  0.629758  0.212364  1
  Si  Si17  1  0.470419  0.129758  0.787636  1
  Si  Si18  1  0.970419  0.370242  0.787636  1
  Si  Si19  1  0.529581  0.870242  0.212364  1
  As  As20  1  0.770588  0.196641  0.494240  1
  As  As21  1  0.729412  0.696641  0.505760  1
  As  As22  1  0.229412  0.803359  0.505760  1
  As  As23  1  0.270588  0.303359  0.494240  1
  As  As24  1  0.778049  0.312944  0.962777  1
  As  As25  1  0.721951  0.812944  0.037223  1
  As  As26  1  0.221951  0.687056  0.037223  1
  As  As27  1  0.278049  0.187056  0.962777  1
  As  As28  1  0.749386  0.061350  0.992710  1
  As  As29  1  0.750614  0.561350  0.007290  1
  As  As30  1  0.250614  0.938650  0.007290  1
  As  As31  1  0.249386  0.438650  0.992710  1
  As  As32  1  0.257252  0.068026  0.500588  1
  As  As33  1  0.242748  0.568026  0.499412  1
  As  As34  1  0.742748  0.931974  0.499412  1
  As  As35  1  0.757252  0.431974  0.500588  1
