# generated using pymatgen
data_U(MoO4)2
_symmetry_space_group_name_H-M   'P 1'
_cell_length_a   4.14283575
_cell_length_b   7.45515043
_cell_length_c   20.36956204
_cell_angle_alpha   90.00000000
_cell_angle_beta   90.00000000
_cell_angle_gamma   90.00000000
_symmetry_Int_Tables_number   1
_chemical_formula_structural   U(MoO4)2
_chemical_formula_sum   'U4 Mo8 O32'
_cell_volume   629.12336944
_cell_formula_units_Z   4
loop_
 _symmetry_equiv_pos_site_id
 _symmetry_equiv_pos_as_xyz
  1  'x, y, z'
loop_
 _atom_site_type_symbol
 _atom_site_label
 _atom_site_symmetry_multiplicity
 _atom_site_fract_x
 _atom_site_fract_y
 _atom_site_fract_z
 _atom_site_occupancy
  U  U0  1  0.000000  0.500000  0.762595  1
  U  U1  1  0.000000  0.500000  0.237405  1
  U  U2  1  0.000000  0.000000  0.737405  1
  U  U3  1  0.000000  0.000000  0.262595  1
  Mo  Mo4  1  0.912144  0.251404  0.589513  1
  Mo  Mo5  1  0.912144  0.748596  0.410487  1
  Mo  Mo6  1  0.087856  0.251404  0.410487  1
  Mo  Mo7  1  0.087856  0.748596  0.589513  1
  Mo  Mo8  1  0.087856  0.248596  0.910487  1
  Mo  Mo9  1  0.087856  0.751404  0.089513  1
  Mo  Mo10  1  0.912144  0.248596  0.089513  1
  Mo  Mo11  1  0.912144  0.751404  0.910487  1
  O  O12  1  0.000000  0.500000  0.121131  1
  O  O13  1  0.000000  0.500000  0.878869  1
  O  O14  1  0.000000  0.000000  0.378869  1
  O  O15  1  0.000000  0.000000  0.621131  1
  O  O16  1  0.000000  0.313697  0.000000  1
  O  O17  1  0.000000  0.686303  0.000000  1
  O  O18  1  0.000000  0.186303  0.500000  1
  O  O19  1  0.000000  0.813697  0.500000  1
  O  O20  1  0.507612  0.250385  0.409097  1
  O  O21  1  0.507612  0.749615  0.590903  1
  O  O22  1  0.492388  0.250385  0.590903  1
  O  O23  1  0.492388  0.749615  0.409097  1
  O  O24  1  0.492388  0.249615  0.090903  1
  O  O25  1  0.492388  0.750385  0.909097  1
  O  O26  1  0.507612  0.249615  0.909097  1
  O  O27  1  0.507612  0.750385  0.090903  1
  O  O28  1  0.000000  0.500000  0.424164  1
  O  O29  1  0.000000  0.500000  0.575836  1
  O  O30  1  0.000000  0.000000  0.075836  1
  O  O31  1  0.000000  0.000000  0.924164  1
  O  O32  1  0.500000  0.500000  0.235720  1
  O  O33  1  0.500000  0.500000  0.764280  1
  O  O34  1  0.500000  0.000000  0.264280  1
  O  O35  1  0.500000  0.000000  0.735720  1
  O  O36  1  0.991701  0.710008  0.311588  1
  O  O37  1  0.991701  0.289992  0.688412  1
  O  O38  1  0.008299  0.710008  0.688412  1
  O  O39  1  0.008299  0.289992  0.311588  1
  O  O40  1  0.008299  0.789992  0.188412  1
  O  O41  1  0.008299  0.210008  0.811588  1
  O  O42  1  0.991701  0.789992  0.811588  1
  O  O43  1  0.991701  0.210008  0.188412  1
