# generated using pymatgen
data_BaMnF4
_symmetry_space_group_name_H-M   'P 1'
_cell_length_a   8.01688870
_cell_length_b   8.01688870
_cell_length_c   6.09806056
_cell_angle_alpha   90.00000000
_cell_angle_beta   90.00000000
_cell_angle_gamma   149.02801061
_symmetry_Int_Tables_number   1
_chemical_formula_structural   BaMnF4
_chemical_formula_sum   'Ba2 Mn2 F8'
_cell_volume   201.69225755
_cell_formula_units_Z   2
loop_
 _symmetry_equiv_pos_site_id
 _symmetry_equiv_pos_as_xyz
  1  'x, y, z'
loop_
 _atom_site_type_symbol
 _atom_site_label
 _atom_site_symmetry_multiplicity
 _atom_site_fract_x
 _atom_site_fract_y
 _atom_site_fract_z
 _atom_site_occupancy
  Ba  Ba0  1  0.157654  0.842346  0.053523  1
  Ba  Ba1  1  0.842346  0.157654  0.553523  1
  Mn  Mn2  1  0.583551  0.416449  0.502676  1
  Mn  Mn3  1  0.416449  0.583551  0.002676  1
  F  F4  1  0.081343  0.918657  0.475997  1
  F  F5  1  0.918657  0.081343  0.975997  1
  F  F6  1  0.537647  0.462353  0.158838  1
  F  F7  1  0.462353  0.537647  0.658838  1
  F  F8  1  0.298973  0.701027  0.808341  1
  F  F9  1  0.701027  0.298973  0.308341  1
  F  F10  1  0.335497  0.664503  0.281024  1
  F  F11  1  0.664503  0.335497  0.781024  1
