# generated using pymatgen
data_NbS2
_symmetry_space_group_name_H-M   'P 1'
_cell_length_a   22.28950494
_cell_length_b   22.16336759
_cell_length_c   3.35617864
_cell_angle_alpha   87.82086130
_cell_angle_beta   83.52536471
_cell_angle_gamma   8.65377400
_symmetry_Int_Tables_number   1
_chemical_formula_structural   NbS2
_chemical_formula_sum   'Nb1 S2'
_cell_volume   215.89258161
_cell_formula_units_Z   1
loop_
 _symmetry_equiv_pos_site_id
 _symmetry_equiv_pos_as_xyz
  1  'x, y, z'
loop_
 _atom_site_type_symbol
 _atom_site_label
 _atom_site_symmetry_multiplicity
 _atom_site_fract_x
 _atom_site_fract_y
 _atom_site_fract_z
 _atom_site_occupancy
  Nb  Nb0  1  0.070539  0.929461  0.070539  1
  S  S1  1  0.701164  0.227903  0.772097  1
  S  S2  1  0.772097  0.298836  0.701164  1
