# generated using pymatgen
data_Ga5Fe6
_symmetry_space_group_name_H-M   'P 1'
_cell_length_a   6.39304758
_cell_length_b   6.39304758
_cell_length_c   7.68878522
_cell_angle_alpha   75.66164990
_cell_angle_beta   104.33835010
_cell_angle_gamma   103.47713327
_symmetry_Int_Tables_number   1
_chemical_formula_structural   Ga5Fe6
_chemical_formula_sum   'Ga10 Fe12'
_cell_volume   289.99768588
_cell_formula_units_Z   2
loop_
 _symmetry_equiv_pos_site_id
 _symmetry_equiv_pos_as_xyz
  1  'x, y, z'
loop_
 _atom_site_type_symbol
 _atom_site_label
 _atom_site_symmetry_multiplicity
 _atom_site_fract_x
 _atom_site_fract_y
 _atom_site_fract_z
 _atom_site_occupancy
  Ga  Ga0  1  0.678478  0.321522  0.655030  1
  Ga  Ga1  1  0.158382  0.234578  0.794913  1
  Ga  Ga2  1  0.868877  0.131123  0.401402  1
  Ga  Ga3  1  0.841618  0.765422  0.205087  1
  Ga  Ga4  1  0.765422  0.841618  0.794913  1
  Ga  Ga5  1  0.377282  0.622718  0.020121  1
  Ga  Ga6  1  0.321522  0.678478  0.344970  1
  Ga  Ga7  1  0.234578  0.158382  0.205087  1
  Ga  Ga8  1  0.131123  0.868877  0.598598  1
  Ga  Ga9  1  0.622718  0.377282  0.979879  1
  Fe  Fe10  1  0.130948  0.869052  0.013193  1
  Fe  Fe11  1  0.396552  0.603448  0.690555  1
  Fe  Fe12  1  0.500000  0.000000  0.500000  1
  Fe  Fe13  1  0.279672  0.279672  0.500000  1
  Fe  Fe14  1  0.006975  0.456886  0.170142  1
  Fe  Fe15  1  0.993025  0.543114  0.829858  1
  Fe  Fe16  1  0.603448  0.396552  0.309445  1
  Fe  Fe17  1  0.543114  0.993025  0.170142  1
  Fe  Fe18  1  0.869052  0.130948  0.986807  1
  Fe  Fe19  1  0.720328  0.720328  0.500000  1
  Fe  Fe20  1  0.456886  0.006975  0.829858  1
  Fe  Fe21  1  0.000000  0.500000  0.500000  1
