# generated using pymatgen
data_Ce3Sb3Au2
_symmetry_space_group_name_H-M   'P 1'
_cell_length_a   4.65636411
_cell_length_b   4.65636411
_cell_length_c   23.78258618
_cell_angle_alpha   90.00000000
_cell_angle_beta   90.00000000
_cell_angle_gamma   120.00000000
_symmetry_Int_Tables_number   1
_chemical_formula_structural   Ce3Sb3Au2
_chemical_formula_sum   'Ce6 Sb6 Au4'
_cell_volume   446.56386473
_cell_formula_units_Z   2
loop_
 _symmetry_equiv_pos_site_id
 _symmetry_equiv_pos_as_xyz
  1  'x, y, z'
loop_
 _atom_site_type_symbol
 _atom_site_label
 _atom_site_symmetry_multiplicity
 _atom_site_fract_x
 _atom_site_fract_y
 _atom_site_fract_z
 _atom_site_occupancy
  Ce  Ce0  1  0.666667  0.333333  0.925212  1
  Ce  Ce1  1  0.333333  0.666667  0.074788  1
  Ce  Ce2  1  0.333333  0.666667  0.425212  1
  Ce  Ce3  1  0.666667  0.333333  0.574788  1
  Ce  Ce4  1  0.333333  0.666667  0.250000  1
  Ce  Ce5  1  0.666667  0.333333  0.750000  1
  Sb  Sb6  1  0.333333  0.666667  0.653086  1
  Sb  Sb7  1  0.000000  0.000000  0.500000  1
  Sb  Sb8  1  0.666667  0.333333  0.346914  1
  Sb  Sb9  1  0.333333  0.666667  0.846914  1
  Sb  Sb10  1  0.666667  0.333333  0.153086  1
  Sb  Sb11  1  0.000000  0.000000  0.000000  1
  Au  Au12  1  0.000000  0.000000  0.812940  1
  Au  Au13  1  0.000000  0.000000  0.187060  1
  Au  Au14  1  0.000000  0.000000  0.312940  1
  Au  Au15  1  0.000000  0.000000  0.687060  1
