# generated using pymatgen
data_Mn2Sb2O7
_symmetry_space_group_name_H-M   'P 1'
_cell_length_a   7.33366358
_cell_length_b   7.33366358
_cell_length_c   17.55171200
_cell_angle_alpha   90.00000000
_cell_angle_beta   90.00000000
_cell_angle_gamma   120.00000000
_symmetry_Int_Tables_number   1
_chemical_formula_structural   Mn2Sb2O7
_chemical_formula_sum   'Mn12 Sb12 O42'
_cell_volume   817.50813415
_cell_formula_units_Z   6
loop_
 _symmetry_equiv_pos_site_id
 _symmetry_equiv_pos_as_xyz
  1  'x, y, z'
loop_
 _atom_site_type_symbol
 _atom_site_label
 _atom_site_symmetry_multiplicity
 _atom_site_fract_x
 _atom_site_fract_y
 _atom_site_fract_z
 _atom_site_occupancy
  Mn  Mn0  1  0.190129  0.190129  0.500000  1
  Mn  Mn1  1  0.809871  0.000000  0.833333  1
  Mn  Mn2  1  0.363771  0.488064  0.335444  1
  Mn  Mn3  1  0.636229  0.124293  0.997889  1
  Mn  Mn4  1  0.867978  0.000000  0.333333  1
  Mn  Mn5  1  0.488064  0.363771  0.664556  1
  Mn  Mn6  1  0.124293  0.636229  0.002111  1
  Mn  Mn7  1  0.132022  0.132022  0.000000  1
  Mn  Mn8  1  0.000000  0.809871  0.166667  1
  Mn  Mn9  1  0.511936  0.875707  0.668778  1
  Mn  Mn10  1  0.000000  0.867978  0.666667  1
  Mn  Mn11  1  0.875707  0.511936  0.331222  1
  Sb  Sb12  1  0.500222  0.837728  0.170992  1
  Sb  Sb13  1  0.162272  0.662494  0.504325  1
  Sb  Sb14  1  0.837728  0.500222  0.829008  1
  Sb  Sb15  1  0.337506  0.499778  0.837658  1
  Sb  Sb16  1  0.310723  0.000000  0.333333  1
  Sb  Sb17  1  0.334173  0.000000  0.833333  1
  Sb  Sb18  1  0.689277  0.689277  0.000000  1
  Sb  Sb19  1  0.662494  0.162272  0.495675  1
  Sb  Sb20  1  0.000000  0.334173  0.166667  1
  Sb  Sb21  1  0.499778  0.337506  0.162342  1
  Sb  Sb22  1  0.000000  0.310723  0.666667  1
  Sb  Sb23  1  0.665827  0.665827  0.500000  1
  O  O24  1  0.968152  0.770458  0.531410  1
  O  O25  1  0.566289  0.826919  0.062715  1
  O  O26  1  0.058758  0.370679  0.279740  1
  O  O27  1  0.407161  0.562048  0.947416  1
  O  O28  1  0.031848  0.802306  0.801923  1
  O  O29  1  0.035579  0.851298  0.279139  1
  O  O30  1  0.173081  0.739370  0.396048  1
  O  O31  1  0.311920  0.941242  0.946407  1
  O  O32  1  0.197037  0.645210  0.142360  1
  O  O33  1  0.184281  0.148702  0.387527  1
  O  O34  1  0.551826  0.354790  0.524307  1
  O  O35  1  0.370679  0.058758  0.720260  1
  O  O36  1  0.448174  0.802963  0.809026  1
  O  O37  1  0.688080  0.629321  0.386926  1
  O  O38  1  0.739370  0.173081  0.603952  1
  O  O39  1  0.556504  0.613145  0.203384  1
  O  O40  1  0.802306  0.031848  0.198077  1
  O  O41  1  0.941242  0.311920  0.053593  1
  O  O42  1  0.845113  0.437952  0.719250  1
  O  O43  1  0.260630  0.433711  0.729382  1
  O  O44  1  0.197694  0.229542  0.135257  1
  O  O45  1  0.770458  0.968152  0.468590  1
  O  O46  1  0.802963  0.448174  0.190974  1
  O  O47  1  0.592839  0.154887  0.385917  1
  O  O48  1  0.645210  0.197037  0.857640  1
  O  O49  1  0.154887  0.592839  0.614083  1
  O  O50  1  0.433711  0.260630  0.270618  1
  O  O51  1  0.815719  0.964421  0.945806  1
  O  O52  1  0.613145  0.556504  0.796616  1
  O  O53  1  0.386855  0.943359  0.536718  1
  O  O54  1  0.943359  0.386855  0.463282  1
  O  O55  1  0.229542  0.197694  0.864743  1
  O  O56  1  0.056641  0.443496  0.870051  1
  O  O57  1  0.443496  0.056641  0.129949  1
  O  O58  1  0.826919  0.566289  0.937285  1
  O  O59  1  0.148702  0.184281  0.612473  1
  O  O60  1  0.629321  0.688080  0.613074  1
  O  O61  1  0.851298  0.035579  0.720861  1
  O  O62  1  0.354790  0.551826  0.475693  1
  O  O63  1  0.562048  0.407161  0.052584  1
  O  O64  1  0.964421  0.815719  0.054194  1
  O  O65  1  0.437952  0.845113  0.280750  1
