# generated using pymatgen
data_La3CuGeSe7
_symmetry_space_group_name_H-M   'P 1'
_cell_length_a   10.79110996
_cell_length_b   10.79110996
_cell_length_c   6.20608164
_cell_angle_alpha   90.00000000
_cell_angle_beta   90.00000000
_cell_angle_gamma   120.00000000
_symmetry_Int_Tables_number   1
_chemical_formula_structural   La3CuGeSe7
_chemical_formula_sum   'La6 Cu2 Ge2 Se14'
_cell_volume   625.86454829
_cell_formula_units_Z   2
loop_
 _symmetry_equiv_pos_site_id
 _symmetry_equiv_pos_as_xyz
  1  'x, y, z'
loop_
 _atom_site_type_symbol
 _atom_site_label
 _atom_site_symmetry_multiplicity
 _atom_site_fract_x
 _atom_site_fract_y
 _atom_site_fract_z
 _atom_site_occupancy
  La  La0  1  0.226043  0.355379  0.852460  1
  La  La1  1  0.870664  0.226043  0.352460  1
  La  La2  1  0.355379  0.129336  0.352460  1
  La  La3  1  0.644621  0.870664  0.852460  1
  La  La4  1  0.129336  0.773957  0.852460  1
  La  La5  1  0.773957  0.644621  0.352460  1
  Cu  Cu6  1  0.000000  0.000000  0.822749  1
  Cu  Cu7  1  0.000000  0.000000  0.322749  1
  Ge  Ge8  1  0.333333  0.666667  0.436730  1
  Ge  Ge9  1  0.666667  0.333333  0.936730  1
  Se  Se10  1  0.333333  0.666667  0.056389  1
  Se  Se11  1  0.666667  0.333333  0.556389  1
  Se  Se12  1  0.907887  0.160963  0.836739  1
  Se  Se13  1  0.746924  0.907887  0.336739  1
  Se  Se14  1  0.160963  0.253076  0.336739  1
  Se  Se15  1  0.839037  0.746924  0.836739  1
  Se  Se16  1  0.253076  0.092113  0.836739  1
  Se  Se17  1  0.092113  0.839037  0.336739  1
  Se  Se18  1  0.100093  0.519709  0.590478  1
  Se  Se19  1  0.580384  0.100093  0.090478  1
  Se  Se20  1  0.519709  0.419616  0.090478  1
  Se  Se21  1  0.480291  0.580384  0.590478  1
  Se  Se22  1  0.419616  0.899907  0.590478  1
  Se  Se23  1  0.899907  0.480291  0.090478  1
