# generated using pymatgen
data_Lu5Sb3
_symmetry_space_group_name_H-M   'P 1'
_cell_length_a   7.94554066
_cell_length_b   9.16377913
_cell_length_c   11.59378524
_cell_angle_alpha   90.00000000
_cell_angle_beta   90.00000000
_cell_angle_gamma   90.00000000
_symmetry_Int_Tables_number   1
_chemical_formula_structural   Lu5Sb3
_chemical_formula_sum   'Lu20 Sb12'
_cell_volume   844.15718024
_cell_formula_units_Z   4
loop_
 _symmetry_equiv_pos_site_id
 _symmetry_equiv_pos_as_xyz
  1  'x, y, z'
loop_
 _atom_site_type_symbol
 _atom_site_label
 _atom_site_symmetry_multiplicity
 _atom_site_fract_x
 _atom_site_fract_y
 _atom_site_fract_z
 _atom_site_occupancy
  Lu  Lu0  1  0.194380  0.561899  0.439338  1
  Lu  Lu1  1  0.694380  0.938101  0.060662  1
  Lu  Lu2  1  0.805620  0.061899  0.560662  1
  Lu  Lu3  1  0.305620  0.438101  0.939338  1
  Lu  Lu4  1  0.805620  0.438101  0.560662  1
  Lu  Lu5  1  0.305620  0.061899  0.939338  1
  Lu  Lu6  1  0.194380  0.938101  0.439338  1
  Lu  Lu7  1  0.694380  0.561899  0.060662  1
  Lu  Lu8  1  0.027161  0.750000  0.990321  1
  Lu  Lu9  1  0.527161  0.750000  0.509679  1
  Lu  Lu10  1  0.972839  0.250000  0.009679  1
  Lu  Lu11  1  0.472839  0.250000  0.490321  1
  Lu  Lu12  1  0.186399  0.750000  0.719026  1
  Lu  Lu13  1  0.686399  0.750000  0.780974  1
  Lu  Lu14  1  0.813601  0.250000  0.280974  1
  Lu  Lu15  1  0.313601  0.250000  0.219026  1
  Lu  Lu16  1  0.855265  0.750000  0.284953  1
  Lu  Lu17  1  0.355265  0.750000  0.215047  1
  Lu  Lu18  1  0.144735  0.250000  0.715047  1
  Lu  Lu19  1  0.644735  0.250000  0.784953  1
  Sb  Sb20  1  0.933760  0.496956  0.826403  1
  Sb  Sb21  1  0.433760  0.003044  0.673597  1
  Sb  Sb22  1  0.066240  0.996956  0.173597  1
  Sb  Sb23  1  0.566240  0.503044  0.326403  1
  Sb  Sb24  1  0.066240  0.503044  0.173597  1
  Sb  Sb25  1  0.566240  0.996956  0.326403  1
  Sb  Sb26  1  0.933760  0.003044  0.826403  1
  Sb  Sb27  1  0.433760  0.496956  0.673597  1
  Sb  Sb28  1  0.910274  0.750000  0.541133  1
  Sb  Sb29  1  0.410274  0.750000  0.958867  1
  Sb  Sb30  1  0.089726  0.250000  0.458867  1
  Sb  Sb31  1  0.589726  0.250000  0.041133  1
