# generated using pymatgen
data_Pu(IO3)4
_symmetry_space_group_name_H-M   'P 1'
_cell_length_a   10.14101468
_cell_length_b   10.14101468
_cell_length_c   5.39379049
_cell_angle_alpha   90.00000000
_cell_angle_beta   90.00000000
_cell_angle_gamma   90.00000000
_symmetry_Int_Tables_number   1
_chemical_formula_structural   Pu(IO3)4
_chemical_formula_sum   'Pu2 I8 O24'
_cell_volume   554.69837808
_cell_formula_units_Z   2
loop_
 _symmetry_equiv_pos_site_id
 _symmetry_equiv_pos_as_xyz
  1  'x, y, z'
loop_
 _atom_site_type_symbol
 _atom_site_label
 _atom_site_symmetry_multiplicity
 _atom_site_fract_x
 _atom_site_fract_y
 _atom_site_fract_z
 _atom_site_occupancy
  Pu  Pu0  1  0.500000  0.500000  0.000000  1
  Pu  Pu1  1  0.000000  0.000000  0.500000  1
  I  I2  1  0.001668  0.271537  0.969421  1
  I  I3  1  0.501668  0.771537  0.530579  1
  I  I4  1  0.498332  0.228463  0.530579  1
  I  I5  1  0.271537  0.998332  0.030579  1
  I  I6  1  0.228463  0.501668  0.469421  1
  I  I7  1  0.728463  0.001668  0.030579  1
  I  I8  1  0.771537  0.498332  0.469421  1
  I  I9  1  0.998332  0.728463  0.969421  1
  O  O10  1  0.578153  0.689393  0.800438  1
  O  O11  1  0.689393  0.421847  0.199562  1
  O  O12  1  0.903148  0.379447  0.503566  1
  O  O13  1  0.573293  0.652265  0.304343  1
  O  O14  1  0.347735  0.573293  0.695657  1
  O  O15  1  0.189393  0.921847  0.300438  1
  O  O16  1  0.152265  0.926707  0.804343  1
  O  O17  1  0.310607  0.578153  0.199562  1
  O  O18  1  0.810607  0.078153  0.300438  1
  O  O19  1  0.652265  0.426707  0.695657  1
  O  O20  1  0.596852  0.120553  0.996434  1
  O  O21  1  0.096852  0.620553  0.503566  1
  O  O22  1  0.379447  0.096852  0.496434  1
  O  O23  1  0.921847  0.810607  0.699562  1
  O  O24  1  0.078153  0.189393  0.699562  1
  O  O25  1  0.620553  0.903148  0.496434  1
  O  O26  1  0.073293  0.152265  0.195657  1
  O  O27  1  0.426707  0.347735  0.304343  1
  O  O28  1  0.120553  0.403148  0.003566  1
  O  O29  1  0.879447  0.596852  0.003566  1
  O  O30  1  0.403148  0.879447  0.996434  1
  O  O31  1  0.926707  0.847735  0.195657  1
  O  O32  1  0.421847  0.310607  0.800438  1
  O  O33  1  0.847735  0.073293  0.804343  1
