# generated using pymatgen
data_KInSnSe4
_symmetry_space_group_name_H-M   'P 1'
_cell_length_a   8.04402988
_cell_length_b   12.94545639
_cell_length_c   18.88152957
_cell_angle_alpha   90.00000000
_cell_angle_beta   98.24757452
_cell_angle_gamma   90.00000000
_symmetry_Int_Tables_number   1
_chemical_formula_structural   KInSnSe4
_chemical_formula_sum   'K8 In8 Sn8 Se32'
_cell_volume   1945.86683863
_cell_formula_units_Z   8
loop_
 _symmetry_equiv_pos_site_id
 _symmetry_equiv_pos_as_xyz
  1  'x, y, z'
loop_
 _atom_site_type_symbol
 _atom_site_label
 _atom_site_symmetry_multiplicity
 _atom_site_fract_x
 _atom_site_fract_y
 _atom_site_fract_z
 _atom_site_occupancy
  K  K0  1  0.746770  0.070389  0.320856  1
  K  K1  1  0.746770  0.429611  0.820856  1
  K  K2  1  0.264026  0.601518  0.543976  1
  K  K3  1  0.735974  0.398482  0.456024  1
  K  K4  1  0.253230  0.570389  0.179144  1
  K  K5  1  0.735974  0.101518  0.956024  1
  K  K6  1  0.253230  0.929611  0.679144  1
  K  K7  1  0.264026  0.898482  0.043976  1
  In  In8  1  0.531484  0.757050  0.842243  1
  In  In9  1  0.468516  0.257050  0.657757  1
  In  In10  1  0.962710  0.243395  0.142266  1
  In  In11  1  0.037290  0.756605  0.857734  1
  In  In12  1  0.468516  0.242950  0.157757  1
  In  In13  1  0.962710  0.256605  0.642266  1
  In  In14  1  0.037290  0.743395  0.357734  1
  In  In15  1  0.531484  0.742950  0.342243  1
  Sn  Sn16  1  0.197687  0.328386  0.984770  1
  Sn  Sn17  1  0.243784  0.295569  0.324427  1
  Sn  Sn18  1  0.802313  0.828386  0.515230  1
  Sn  Sn19  1  0.756216  0.704431  0.675573  1
  Sn  Sn20  1  0.197687  0.171614  0.484770  1
  Sn  Sn21  1  0.802313  0.671614  0.015230  1
  Sn  Sn22  1  0.243784  0.204431  0.824427  1
  Sn  Sn23  1  0.756216  0.795569  0.175573  1
  Se  Se24  1  0.533585  0.172145  0.788188  1
  Se  Se25  1  0.193483  0.397001  0.855246  1
  Se  Se26  1  0.746961  0.865106  0.045272  1
  Se  Se27  1  0.746961  0.634894  0.545272  1
  Se  Se28  1  0.193483  0.102999  0.355246  1
  Se  Se29  1  0.466415  0.827855  0.211812  1
  Se  Se30  1  0.097027  0.847361  0.480978  1
  Se  Se31  1  0.997450  0.118593  0.746113  1
  Se  Se32  1  0.710771  0.383156  0.640911  1
  Se  Se33  1  0.561360  0.904309  0.428089  1
  Se  Se34  1  0.997450  0.381407  0.246113  1
  Se  Se35  1  0.289229  0.616844  0.359089  1
  Se  Se36  1  0.466415  0.672145  0.711812  1
  Se  Se37  1  0.902973  0.152639  0.519022  1
  Se  Se38  1  0.289229  0.883156  0.859089  1
  Se  Se39  1  0.097027  0.652639  0.980978  1
  Se  Se40  1  0.216027  0.382214  0.653391  1
  Se  Se41  1  0.806517  0.897001  0.644754  1
  Se  Se42  1  0.710771  0.116844  0.140911  1
  Se  Se43  1  0.533585  0.327855  0.288188  1
  Se  Se44  1  0.561360  0.595691  0.928089  1
  Se  Se45  1  0.438640  0.095691  0.571911  1
  Se  Se46  1  0.783973  0.882214  0.846609  1
  Se  Se47  1  0.002550  0.618593  0.753887  1
  Se  Se48  1  0.253039  0.134894  0.954728  1
  Se  Se49  1  0.783973  0.617786  0.346609  1
  Se  Se50  1  0.806517  0.602999  0.144754  1
  Se  Se51  1  0.902973  0.347361  0.019022  1
  Se  Se52  1  0.253039  0.365106  0.454728  1
  Se  Se53  1  0.438640  0.404309  0.071911  1
  Se  Se54  1  0.216027  0.117786  0.153391  1
  Se  Se55  1  0.002550  0.881407  0.253887  1
