# generated using pymatgen
data_ThSe2O7
_symmetry_space_group_name_H-M   'P 1'
_cell_length_a   7.14157205
_cell_length_b   9.66736981
_cell_length_c   9.16590228
_cell_angle_alpha   90.00000000
_cell_angle_beta   103.27303569
_cell_angle_gamma   90.00000000
_symmetry_Int_Tables_number   1
_chemical_formula_structural   ThSe2O7
_chemical_formula_sum   'Th4 Se8 O28'
_cell_volume   615.91149994
_cell_formula_units_Z   4
loop_
 _symmetry_equiv_pos_site_id
 _symmetry_equiv_pos_as_xyz
  1  'x, y, z'
loop_
 _atom_site_type_symbol
 _atom_site_label
 _atom_site_symmetry_multiplicity
 _atom_site_fract_x
 _atom_site_fract_y
 _atom_site_fract_z
 _atom_site_occupancy
  Th  Th0  1  0.207770  0.460430  0.365846  1
  Th  Th1  1  0.207770  0.039570  0.865846  1
  Th  Th2  1  0.792230  0.539570  0.634154  1
  Th  Th3  1  0.792230  0.960430  0.134154  1
  Se  Se4  1  0.672188  0.595866  0.251360  1
  Se  Se5  1  0.672188  0.904134  0.751360  1
  Se  Se6  1  0.879058  0.182064  0.482486  1
  Se  Se7  1  0.120942  0.682064  0.017514  1
  Se  Se8  1  0.327812  0.404134  0.748640  1
  Se  Se9  1  0.879058  0.317936  0.982486  1
  Se  Se10  1  0.120942  0.817936  0.517514  1
  Se  Se11  1  0.327812  0.095866  0.248640  1
  O  O12  1  0.953585  0.085561  0.634918  1
  O  O13  1  0.254250  0.810188  0.974979  1
  O  O14  1  0.895961  0.940382  0.875014  1
  O  O15  1  0.550617  0.939203  0.892817  1
  O  O16  1  0.953585  0.414439  0.134918  1
  O  O17  1  0.449383  0.060797  0.107183  1
  O  O18  1  0.663110  0.773209  0.242855  1
  O  O19  1  0.254250  0.689812  0.474979  1
  O  O20  1  0.269113  0.912592  0.648260  1
  O  O21  1  0.745750  0.310188  0.525021  1
  O  O22  1  0.663110  0.726791  0.742855  1
  O  O23  1  0.336890  0.273209  0.257145  1
  O  O24  1  0.059853  0.264830  0.907574  1
  O  O25  1  0.940147  0.764830  0.592426  1
  O  O26  1  0.104039  0.059618  0.124986  1
  O  O27  1  0.745750  0.189812  0.025021  1
  O  O28  1  0.449383  0.439203  0.607183  1
  O  O29  1  0.730887  0.087408  0.351740  1
  O  O30  1  0.730887  0.412592  0.851740  1
  O  O31  1  0.895961  0.559618  0.375014  1
  O  O32  1  0.269113  0.587408  0.148260  1
  O  O33  1  0.550617  0.560797  0.392817  1
  O  O34  1  0.104039  0.440382  0.624986  1
  O  O35  1  0.046415  0.585561  0.865082  1
  O  O36  1  0.940147  0.735170  0.092426  1
  O  O37  1  0.046415  0.914439  0.365082  1
  O  O38  1  0.059853  0.235170  0.407574  1
  O  O39  1  0.336890  0.226791  0.757145  1
