# generated using pymatgen
data_Rb3NaTiO4
_symmetry_space_group_name_H-M   'P 1'
_cell_length_a   10.88538798
_cell_length_b   6.50055168
_cell_length_c   11.01420939
_cell_angle_alpha   90.00000000
_cell_angle_beta   112.64390345
_cell_angle_gamma   90.00000000
_symmetry_Int_Tables_number   1
_chemical_formula_structural   Rb3NaTiO4
_chemical_formula_sum   'Rb12 Na4 Ti4 O16'
_cell_volume   719.29888268
_cell_formula_units_Z   4
loop_
 _symmetry_equiv_pos_site_id
 _symmetry_equiv_pos_as_xyz
  1  'x, y, z'
loop_
 _atom_site_type_symbol
 _atom_site_label
 _atom_site_symmetry_multiplicity
 _atom_site_fract_x
 _atom_site_fract_y
 _atom_site_fract_z
 _atom_site_occupancy
  Rb  Rb0  1  0.038084  0.654515  0.669506  1
  Rb  Rb1  1  0.320228  0.123241  0.394459  1
  Rb  Rb2  1  0.544234  0.384508  0.689028  1
  Rb  Rb3  1  0.544234  0.115492  0.189028  1
  Rb  Rb4  1  0.038084  0.845485  0.169506  1
  Rb  Rb5  1  0.455766  0.615492  0.310972  1
  Rb  Rb6  1  0.679772  0.876759  0.605541  1
  Rb  Rb7  1  0.961916  0.154515  0.830494  1
  Rb  Rb8  1  0.679772  0.623241  0.105541  1
  Rb  Rb9  1  0.320228  0.376759  0.894459  1
  Rb  Rb10  1  0.961916  0.345485  0.330494  1
  Rb  Rb11  1  0.455766  0.884508  0.810972  1
  Na  Na12  1  0.872070  0.611931  0.891439  1
  Na  Na13  1  0.127930  0.388069  0.108561  1
  Na  Na14  1  0.872070  0.888069  0.391439  1
  Na  Na15  1  0.127930  0.111931  0.608561  1
  Ti  Ti16  1  0.758676  0.364194  0.514560  1
  Ti  Ti17  1  0.241324  0.635806  0.485440  1
  Ti  Ti18  1  0.241324  0.864194  0.985440  1
  Ti  Ti19  1  0.758676  0.135806  0.014560  1
  O  O20  1  0.208207  0.978910  0.822639  1
  O  O21  1  0.791793  0.478910  0.677361  1
  O  O22  1  0.590884  0.250509  0.954319  1
  O  O23  1  0.886959  0.161655  0.538232  1
  O  O24  1  0.409116  0.749491  0.045681  1
  O  O25  1  0.234223  0.427897  0.598299  1
  O  O26  1  0.113041  0.661655  0.961768  1
  O  O27  1  0.791793  0.021090  0.177361  1
  O  O28  1  0.409116  0.750509  0.545681  1
  O  O29  1  0.234223  0.072103  0.098299  1
  O  O30  1  0.886959  0.338345  0.038232  1
  O  O31  1  0.113041  0.838345  0.461768  1
  O  O32  1  0.765777  0.572103  0.401701  1
  O  O33  1  0.590884  0.249491  0.454319  1
  O  O34  1  0.208207  0.521090  0.322639  1
  O  O35  1  0.765777  0.927897  0.901701  1
