# generated using pymatgen
data_Te2WCl6
_symmetry_space_group_name_H-M   'P 1'
_cell_length_a   6.69974031
_cell_length_b   7.83180047
_cell_length_c   11.54732143
_cell_angle_alpha   102.23461690
_cell_angle_beta   103.92069386
_cell_angle_gamma   88.46552465
_symmetry_Int_Tables_number   1
_chemical_formula_structural   Te2WCl6
_chemical_formula_sum   'Te4 W2 Cl12'
_cell_volume   574.56022272
_cell_formula_units_Z   2
loop_
 _symmetry_equiv_pos_site_id
 _symmetry_equiv_pos_as_xyz
  1  'x, y, z'
loop_
 _atom_site_type_symbol
 _atom_site_label
 _atom_site_symmetry_multiplicity
 _atom_site_fract_x
 _atom_site_fract_y
 _atom_site_fract_z
 _atom_site_occupancy
  Te  Te0  1  0.736238  0.852041  0.494314  1
  Te  Te1  1  0.616938  0.095499  0.671937  1
  Te  Te2  1  0.263762  0.147959  0.505686  1
  Te  Te3  1  0.383062  0.904501  0.328063  1
  W  W4  1  0.791291  0.329061  0.195691  1
  W  W5  1  0.208709  0.670939  0.804309  1
  Cl  Cl6  1  0.730176  0.369597  0.391162  1
  Cl  Cl7  1  0.859316  0.288697  0.004973  1
  Cl  Cl8  1  0.878781  0.552260  0.717000  1
  Cl  Cl9  1  0.665221  0.608582  0.181554  1
  Cl  Cl10  1  0.532184  0.796632  0.887964  1
  Cl  Cl11  1  0.140684  0.711303  0.995027  1
  Cl  Cl12  1  0.079692  0.951558  0.782538  1
  Cl  Cl13  1  0.269824  0.630403  0.608838  1
  Cl  Cl14  1  0.334779  0.391418  0.818446  1
  Cl  Cl15  1  0.920308  0.048442  0.217462  1
  Cl  Cl16  1  0.467816  0.203368  0.112036  1
  Cl  Cl17  1  0.121219  0.447740  0.283000  1
