# generated using pymatgen
data_Ti4Cr3(PO4)6
_symmetry_space_group_name_H-M   'P 1'
_cell_length_a   6.45645917
_cell_length_b   8.15859362
_cell_length_c   9.55136627
_cell_angle_alpha   106.08724086
_cell_angle_beta   105.79867441
_cell_angle_gamma   102.71124092
_symmetry_Int_Tables_number   1
_chemical_formula_structural   Ti4Cr3(PO4)6
_chemical_formula_sum   'Ti4 Cr3 P6 O24'
_cell_volume   440.76486267
_cell_formula_units_Z   1
loop_
 _symmetry_equiv_pos_site_id
 _symmetry_equiv_pos_as_xyz
  1  'x, y, z'
loop_
 _atom_site_type_symbol
 _atom_site_label
 _atom_site_symmetry_multiplicity
 _atom_site_fract_x
 _atom_site_fract_y
 _atom_site_fract_z
 _atom_site_occupancy
  Ti  Ti0  1  0.030585  0.199557  0.018045  1
  Ti  Ti1  1  0.393839  0.957160  0.604025  1
  Ti  Ti2  1  0.969415  0.800443  0.981955  1
  Ti  Ti3  1  0.606161  0.042840  0.395975  1
  Cr  Cr4  1  0.271053  0.303663  0.778826  1
  Cr  Cr5  1  0.728947  0.696337  0.221174  1
  Cr  Cr6  1  0.000000  0.500000  0.500000  1
  P  P7  1  0.412669  0.743681  0.870095  1
  P  P8  1  0.782940  0.357007  0.738746  1
  P  P9  1  0.908059  0.898038  0.661702  1
  P  P10  1  0.091941  0.101962  0.338298  1
  P  P11  1  0.217060  0.642993  0.261254  1
  P  P12  1  0.587331  0.256319  0.129905  1
  O  O13  1  0.300491  0.545991  0.758285  1
  O  O14  1  0.260271  0.798395  0.962812  1
  O  O15  1  0.184185  0.445319  0.186047  1
  O  O16  1  0.124916  0.296813  0.420361  1
  O  O17  1  0.352390  0.227924  0.008826  1
  O  O18  1  0.075432  0.054691  0.163622  1
  O  O19  1  0.978476  0.302987  0.834657  1
  O  O20  1  0.297462  0.045840  0.418446  1
  O  O21  1  0.647610  0.772076  0.991174  1
  O  O22  1  0.702538  0.954160  0.581554  1
  O  O23  1  0.215333  0.692360  0.432223  1
  O  O24  1  0.699509  0.454009  0.241715  1
  O  O25  1  0.021524  0.697013  0.165343  1
  O  O26  1  0.441430  0.858623  0.768265  1
  O  O27  1  0.924568  0.945309  0.836378  1
  O  O28  1  0.784667  0.307640  0.567777  1
  O  O29  1  0.815815  0.554681  0.813953  1
  O  O30  1  0.125790  0.023702  0.659727  1
  O  O31  1  0.548564  0.238610  0.730041  1
  O  O32  1  0.874210  0.976298  0.340273  1
  O  O33  1  0.875084  0.703187  0.579639  1
  O  O34  1  0.739729  0.201605  0.037188  1
  O  O35  1  0.451436  0.761390  0.269959  1
  O  O36  1  0.558570  0.141377  0.231735  1
