# generated using pymatgen
data_ScBiO3
_symmetry_space_group_name_H-M   'P 1'
_cell_length_a   5.79552243
_cell_length_b   5.79552243
_cell_length_c   10.14259132
_cell_angle_alpha   73.79084986
_cell_angle_beta   106.20915014
_cell_angle_gamma   118.87690604
_symmetry_Int_Tables_number   1
_chemical_formula_structural   ScBiO3
_chemical_formula_sum   'Sc4 Bi4 O12'
_cell_volume   282.20101361
_cell_formula_units_Z   4
loop_
 _symmetry_equiv_pos_site_id
 _symmetry_equiv_pos_as_xyz
  1  'x, y, z'
loop_
 _atom_site_type_symbol
 _atom_site_label
 _atom_site_symmetry_multiplicity
 _atom_site_fract_x
 _atom_site_fract_y
 _atom_site_fract_z
 _atom_site_occupancy
  Sc  Sc0  1  0.000000  0.500000  0.000000  1
  Sc  Sc1  1  0.250453  0.250453  0.750000  1
  Sc  Sc2  1  0.500000  0.000000  0.500000  1
  Sc  Sc3  1  0.749547  0.749547  0.250000  1
  Bi  Bi4  1  0.953512  0.686541  0.633345  1
  Bi  Bi5  1  0.313459  0.046488  0.133345  1
  Bi  Bi6  1  0.046488  0.313459  0.366655  1
  Bi  Bi7  1  0.686541  0.953512  0.866655  1
  O  O8  1  0.117100  0.824772  0.836471  1
  O  O9  1  0.106728  0.268597  0.918708  1
  O  O10  1  0.687460  0.371619  0.363953  1
  O  O11  1  0.824772  0.117100  0.663529  1
  O  O12  1  0.371619  0.687460  0.136047  1
  O  O13  1  0.312540  0.628381  0.636047  1
  O  O14  1  0.731403  0.893272  0.418708  1
  O  O15  1  0.268597  0.106728  0.581292  1
  O  O16  1  0.882900  0.175228  0.163529  1
  O  O17  1  0.628381  0.312540  0.863953  1
  O  O18  1  0.893272  0.731403  0.081292  1
  O  O19  1  0.175228  0.882900  0.336471  1
