# generated using pymatgen
data_BaV2(P2O7)2
_symmetry_space_group_name_H-M   'P 1'
_cell_length_a   6.25977862
_cell_length_b   6.38351855
_cell_length_c   8.05077804
_cell_angle_alpha   96.32935095
_cell_angle_beta   101.36235643
_cell_angle_gamma   105.95112864
_symmetry_Int_Tables_number   1
_chemical_formula_structural   BaV2(P2O7)2
_chemical_formula_sum   'Ba1 V2 P4 O14'
_cell_volume   298.60852070
_cell_formula_units_Z   1
loop_
 _symmetry_equiv_pos_site_id
 _symmetry_equiv_pos_as_xyz
  1  'x, y, z'
loop_
 _atom_site_type_symbol
 _atom_site_label
 _atom_site_symmetry_multiplicity
 _atom_site_fract_x
 _atom_site_fract_y
 _atom_site_fract_z
 _atom_site_occupancy
  Ba  Ba0  1  0.000000  0.000000  0.000000  1
  V  V1  1  0.379981  0.693010  0.230112  1
  V  V2  1  0.620019  0.306990  0.769888  1
  P  P3  1  0.185024  0.470536  0.809311  1
  P  P4  1  0.480928  0.246241  0.333905  1
  P  P5  1  0.814976  0.529464  0.190689  1
  P  P6  1  0.519072  0.753759  0.666095  1
  O  O7  1  0.779162  0.355052  0.032625  1
  O  O8  1  0.431204  0.021925  0.219229  1
  O  O9  1  0.220838  0.644948  0.967375  1
  O  O10  1  0.937234  0.327586  0.739209  1
  O  O11  1  0.568796  0.978075  0.780771  1
  O  O12  1  0.740048  0.396230  0.339641  1
  O  O13  1  0.473645  0.232994  0.518869  1
  O  O14  1  0.685622  0.640503  0.758539  1
  O  O15  1  0.669373  0.687883  0.157973  1
  O  O16  1  0.526355  0.767006  0.481131  1
  O  O17  1  0.259952  0.603770  0.660359  1
  O  O18  1  0.330627  0.312117  0.842027  1
  O  O19  1  0.062766  0.672414  0.260791  1
  O  O20  1  0.314378  0.359497  0.241461  1
