# generated using pymatgen
data_Ba3(PS4)2
_symmetry_space_group_name_H-M   'P 1'
_cell_length_a   11.84409459
_cell_length_b   6.69420220
_cell_length_c   17.57235188
_cell_angle_alpha   90.00000000
_cell_angle_beta   90.03148264
_cell_angle_gamma   90.00000000
_symmetry_Int_Tables_number   1
_chemical_formula_structural   Ba3(PS4)2
_chemical_formula_sum   'Ba12 P8 S32'
_cell_volume   1393.25470710
_cell_formula_units_Z   4
loop_
 _symmetry_equiv_pos_site_id
 _symmetry_equiv_pos_as_xyz
  1  'x, y, z'
loop_
 _atom_site_type_symbol
 _atom_site_label
 _atom_site_symmetry_multiplicity
 _atom_site_fract_x
 _atom_site_fract_y
 _atom_site_fract_z
 _atom_site_occupancy
  Ba  Ba0  1  0.830476  0.488470  0.571832  1
  Ba  Ba1  1  0.330476  0.011530  0.571832  1
  Ba  Ba2  1  0.022677  0.041307  0.251227  1
  Ba  Ba3  1  0.839585  0.495803  0.072075  1
  Ba  Ba4  1  0.660415  0.995803  0.927925  1
  Ba  Ba5  1  0.477323  0.541307  0.748773  1
  Ba  Ba6  1  0.339585  0.004197  0.072075  1
  Ba  Ba7  1  0.160415  0.504197  0.927925  1
  Ba  Ba8  1  0.669524  0.988470  0.428168  1
  Ba  Ba9  1  0.169524  0.511530  0.428168  1
  Ba  Ba10  1  0.522677  0.458693  0.251227  1
  Ba  Ba11  1  0.977323  0.958693  0.748773  1
  P  P12  1  0.838528  0.471442  0.859534  1
  P  P13  1  0.828950  0.484253  0.359851  1
  P  P14  1  0.671050  0.984253  0.640149  1
  P  P15  1  0.328950  0.015747  0.359851  1
  P  P16  1  0.171050  0.515747  0.640149  1
  P  P17  1  0.161472  0.528558  0.140466  1
  P  P18  1  0.661472  0.971442  0.140466  1
  P  P19  1  0.338528  0.028558  0.859534  1
  S  S20  1  0.077545  0.735704  0.587721  1
  S  S21  1  0.173925  0.009097  0.413748  1
  S  S22  1  0.095299  0.271612  0.092557  1
  S  S23  1  0.406362  0.265542  0.918380  1
  S  S24  1  0.922455  0.264296  0.412279  1
  S  S25  1  0.422455  0.235704  0.412279  1
  S  S26  1  0.904701  0.728388  0.907443  1
  S  S27  1  0.577545  0.764296  0.587721  1
  S  S28  1  0.593638  0.734458  0.081620  1
  S  S29  1  0.302802  0.095148  0.249430  1
  S  S30  1  0.697198  0.904852  0.750570  1
  S  S31  1  0.673925  0.490903  0.413748  1
  S  S32  1  0.168759  0.026475  0.882937  1
  S  S33  1  0.668759  0.473525  0.882937  1
  S  S34  1  0.326075  0.509097  0.586252  1
  S  S35  1  0.826075  0.990903  0.586252  1
  S  S36  1  0.405925  0.749005  0.383814  1
  S  S37  1  0.595299  0.228388  0.092557  1
  S  S38  1  0.197198  0.595148  0.750570  1
  S  S39  1  0.094075  0.249005  0.616186  1
  S  S40  1  0.831241  0.973525  0.117063  1
  S  S41  1  0.331241  0.526475  0.117063  1
  S  S42  1  0.610168  0.946794  0.250656  1
  S  S43  1  0.905925  0.750995  0.383814  1
  S  S44  1  0.594075  0.250995  0.616186  1
  S  S45  1  0.389832  0.053206  0.749344  1
  S  S46  1  0.889832  0.446794  0.749344  1
  S  S47  1  0.404701  0.771612  0.907443  1
  S  S48  1  0.110168  0.553206  0.250656  1
  S  S49  1  0.093638  0.765542  0.081620  1
  S  S50  1  0.802802  0.404852  0.249430  1
  S  S51  1  0.906362  0.234458  0.918380  1
