# generated using pymatgen
data_BaTaF7
_symmetry_space_group_name_H-M   'P 1'
_cell_length_a   10.11344861
_cell_length_b   10.11344861
_cell_length_c   10.11344861
_cell_angle_alpha   90.00000000
_cell_angle_beta   90.00000000
_cell_angle_gamma   90.00000000
_symmetry_Int_Tables_number   1
_chemical_formula_structural   BaTaF7
_chemical_formula_sum   'Ba8 Ta8 F56'
_cell_volume   1034.42216076
_cell_formula_units_Z   8
loop_
 _symmetry_equiv_pos_site_id
 _symmetry_equiv_pos_as_xyz
  1  'x, y, z'
loop_
 _atom_site_type_symbol
 _atom_site_label
 _atom_site_symmetry_multiplicity
 _atom_site_fract_x
 _atom_site_fract_y
 _atom_site_fract_z
 _atom_site_occupancy
  Ba  Ba0  1  0.500000  0.500000  0.500000  1
  Ba  Ba1  1  0.500000  0.000000  0.500000  1
  Ba  Ba2  1  0.000000  0.500000  0.500000  1
  Ba  Ba3  1  0.500000  0.000000  0.000000  1
  Ba  Ba4  1  0.000000  0.000000  0.000000  1
  Ba  Ba5  1  0.000000  0.000000  0.500000  1
  Ba  Ba6  1  0.500000  0.500000  0.000000  1
  Ba  Ba7  1  0.000000  0.500000  0.000000  1
  Ta  Ta8  1  0.224161  0.224161  0.224161  1
  Ta  Ta9  1  0.275839  0.775839  0.724161  1
  Ta  Ta10  1  0.724161  0.224161  0.275839  1
  Ta  Ta11  1  0.775839  0.724161  0.275839  1
  Ta  Ta12  1  0.275839  0.724161  0.224161  1
  Ta  Ta13  1  0.775839  0.775839  0.775839  1
  Ta  Ta14  1  0.224161  0.275839  0.724161  1
  Ta  Ta15  1  0.724161  0.275839  0.775839  1
  F  F16  1  0.102538  0.363145  0.278650  1
  F  F17  1  0.942629  0.883073  0.741879  1
  F  F18  1  0.241879  0.557371  0.116927  1
  F  F19  1  0.721350  0.897462  0.636855  1
  F  F20  1  0.664314  0.835686  0.164314  1
  F  F21  1  0.883073  0.758121  0.442629  1
  F  F22  1  0.383073  0.741879  0.557371  1
  F  F23  1  0.616927  0.241879  0.942629  1
  F  F24  1  0.221350  0.897462  0.863145  1
  F  F25  1  0.616927  0.258121  0.442629  1
  F  F26  1  0.057371  0.116927  0.258121  1
  F  F27  1  0.363145  0.278650  0.102538  1
  F  F28  1  0.897462  0.863145  0.221350  1
  F  F29  1  0.136855  0.721350  0.602538  1
  F  F30  1  0.363145  0.221350  0.602538  1
  F  F31  1  0.335686  0.335686  0.335686  1
  F  F32  1  0.258121  0.442629  0.616927  1
  F  F33  1  0.835686  0.164314  0.664314  1
  F  F34  1  0.116927  0.241879  0.557371  1
  F  F35  1  0.741879  0.557371  0.383073  1
  F  F36  1  0.278650  0.397462  0.863145  1
  F  F37  1  0.758121  0.057371  0.383073  1
  F  F38  1  0.602538  0.363145  0.221350  1
  F  F39  1  0.741879  0.942629  0.883073  1
  F  F40  1  0.758121  0.442629  0.883073  1
  F  F41  1  0.721350  0.602538  0.136855  1
  F  F42  1  0.442629  0.616927  0.258121  1
  F  F43  1  0.102538  0.136855  0.778650  1
  F  F44  1  0.164314  0.835686  0.335686  1
  F  F45  1  0.863145  0.278650  0.397462  1
  F  F46  1  0.221350  0.602538  0.363145  1
  F  F47  1  0.164314  0.664314  0.835686  1
  F  F48  1  0.383073  0.758121  0.057371  1
  F  F49  1  0.883073  0.741879  0.942629  1
  F  F50  1  0.241879  0.942629  0.616927  1
  F  F51  1  0.602538  0.136855  0.721350  1
  F  F52  1  0.897462  0.636855  0.721350  1
  F  F53  1  0.636855  0.778650  0.397462  1
  F  F54  1  0.557371  0.116927  0.241879  1
  F  F55  1  0.778650  0.397462  0.636855  1
  F  F56  1  0.835686  0.335686  0.164314  1
  F  F57  1  0.636855  0.721350  0.897462  1
  F  F58  1  0.397462  0.863145  0.278650  1
  F  F59  1  0.664314  0.664314  0.664314  1
  F  F60  1  0.397462  0.636855  0.778650  1
  F  F61  1  0.057371  0.383073  0.758121  1
  F  F62  1  0.278650  0.102538  0.363145  1
  F  F63  1  0.442629  0.883073  0.758121  1
  F  F64  1  0.863145  0.221350  0.897462  1
  F  F65  1  0.557371  0.383073  0.741879  1
  F  F66  1  0.335686  0.164314  0.835686  1
  F  F67  1  0.258121  0.057371  0.116927  1
  F  F68  1  0.778650  0.102538  0.136855  1
  F  F69  1  0.942629  0.616927  0.241879  1
  F  F70  1  0.116927  0.258121  0.057371  1
  F  F71  1  0.136855  0.778650  0.102538  1
