# generated using pymatgen
data_TiO2
_symmetry_space_group_name_H-M   'P 1'
_cell_length_a   5.61627722
_cell_length_b   5.61627722
_cell_length_c   6.12682986
_cell_angle_alpha   90.00000000
_cell_angle_beta   90.00000000
_cell_angle_gamma   120.00000000
_symmetry_Int_Tables_number   1
_chemical_formula_structural   TiO2
_chemical_formula_sum   'Ti3 O6'
_cell_volume   167.36456954
_cell_formula_units_Z   3
loop_
 _symmetry_equiv_pos_site_id
 _symmetry_equiv_pos_as_xyz
  1  'x, y, z'
loop_
 _atom_site_type_symbol
 _atom_site_label
 _atom_site_symmetry_multiplicity
 _atom_site_fract_x
 _atom_site_fract_y
 _atom_site_fract_z
 _atom_site_occupancy
  Ti  Ti0  1  0.533273  0.533273  0.000000  1
  Ti  Ti1  1  0.000000  0.466727  0.666667  1
  Ti  Ti2  1  0.466727  0.000000  0.333333  1
  O  O3  1  0.419774  0.270987  0.212591  1
  O  O4  1  0.148787  0.729013  0.454076  1
  O  O5  1  0.851213  0.580226  0.879258  1
  O  O6  1  0.270987  0.419774  0.787409  1
  O  O7  1  0.729013  0.148787  0.545924  1
  O  O8  1  0.580226  0.851213  0.120742  1
