# generated using pymatgen
data_Na4TiAs2O9
_symmetry_space_group_name_H-M   'P 1'
_cell_length_a   8.83988743
_cell_length_b   8.83988743
_cell_length_c   7.85793980
_cell_angle_alpha   89.76576353
_cell_angle_beta   90.23423647
_cell_angle_gamma   131.46920727
_symmetry_Int_Tables_number   1
_chemical_formula_structural   Na4TiAs2O9
_chemical_formula_sum   'Na8 Ti2 As4 O18'
_cell_volume   460.10857723
_cell_formula_units_Z   2
loop_
 _symmetry_equiv_pos_site_id
 _symmetry_equiv_pos_as_xyz
  1  'x, y, z'
loop_
 _atom_site_type_symbol
 _atom_site_label
 _atom_site_symmetry_multiplicity
 _atom_site_fract_x
 _atom_site_fract_y
 _atom_site_fract_z
 _atom_site_occupancy
  Na  Na0  1  0.745046  0.745046  0.000000  1
  Na  Na1  1  0.625777  0.374223  0.721304  1
  Na  Na2  1  0.892854  0.107146  0.761615  1
  Na  Na3  1  0.107146  0.892854  0.238385  1
  Na  Na4  1  0.500000  0.000000  0.500000  1
  Na  Na5  1  0.254954  0.254954  0.000000  1
  Na  Na6  1  0.374223  0.625777  0.278696  1
  Na  Na7  1  0.000000  0.500000  0.500000  1
  Ti  Ti8  1  1.000000  0.500000  0.000000  1
  Ti  Ti9  1  0.500000  0.000000  0.000000  1
  As  As10  1  0.129486  0.870514  0.723532  1
  As  As11  1  0.387695  0.612305  0.759861  1
  As  As12  1  0.870514  0.129486  0.276468  1
  As  As13  1  0.612305  0.387695  0.240139  1
  O  O14  1  0.554289  0.841476  0.870845  1
  O  O15  1  0.507675  0.492325  0.216007  1
  O  O16  1  0.445711  0.158524  0.129155  1
  O  O17  1  0.140858  0.859142  0.509594  1
  O  O18  1  0.382037  0.017514  0.789087  1
  O  O19  1  0.982486  0.617963  0.789087  1
  O  O20  1  0.841476  0.554289  0.129155  1
  O  O21  1  0.965424  0.034576  0.183066  1
  O  O22  1  0.158524  0.445711  0.870845  1
  O  O23  1  0.241836  0.758164  0.070198  1
  O  O24  1  0.017514  0.382037  0.210913  1
  O  O25  1  0.758164  0.241836  0.929802  1
  O  O26  1  0.859142  0.140858  0.490406  1
  O  O27  1  0.492325  0.507675  0.783993  1
  O  O28  1  0.617963  0.982486  0.210913  1
  O  O29  1  0.656037  0.343963  0.436869  1
  O  O30  1  0.034576  0.965424  0.816934  1
  O  O31  1  0.343963  0.656037  0.563131  1
