# generated using pymatgen
data_K3VCO8
_symmetry_space_group_name_H-M   'P 1'
_cell_length_a   6.57163902
_cell_length_b   6.57163902
_cell_length_c   5.71178537
_cell_angle_alpha   67.36850270
_cell_angle_beta   112.63149730
_cell_angle_gamma   88.65570026
_symmetry_Int_Tables_number   1
_chemical_formula_structural   K3VCO8
_chemical_formula_sum   'K3 V1 C1 O8'
_cell_volume   205.84238522
_cell_formula_units_Z   1
loop_
 _symmetry_equiv_pos_site_id
 _symmetry_equiv_pos_as_xyz
  1  'x, y, z'
loop_
 _atom_site_type_symbol
 _atom_site_label
 _atom_site_symmetry_multiplicity
 _atom_site_fract_x
 _atom_site_fract_y
 _atom_site_fract_z
 _atom_site_occupancy
  K  K0  1  0.594331  0.405669  0.091700  1
  K  K1  1  0.351776  0.081839  0.637614  1
  K  K2  1  0.918161  0.648224  0.637614  1
  V  V3  1  0.001634  0.998366  0.002128  1
  C  C4  1  0.338328  0.661672  0.350844  1
  O  O5  1  0.246312  0.753688  0.071307  1
  O  O6  1  0.894189  0.105811  0.652997  1
  O  O7  1  0.029991  0.249674  0.091291  1
  O  O8  1  0.817995  0.767818  0.065566  1
  O  O9  1  0.232182  0.182005  0.065566  1
  O  O10  1  0.503764  0.496236  0.494733  1
  O  O11  1  0.244602  0.755398  0.457828  1
  O  O12  1  0.750326  0.970009  0.091291  1
