# generated using pymatgen
data_Dy2Cu(BO2)8
_symmetry_space_group_name_H-M   'P 1'
_cell_length_a   6.26346206
_cell_length_b   8.49037212
_cell_length_c   10.26876030
_cell_angle_alpha   90.00000000
_cell_angle_beta   90.30953721
_cell_angle_gamma   90.00000000
_symmetry_Int_Tables_number   1
_chemical_formula_structural   Dy2Cu(BO2)8
_chemical_formula_sum   'Dy4 Cu2 B16 O32'
_cell_volume   546.07570457
_cell_formula_units_Z   2
loop_
 _symmetry_equiv_pos_site_id
 _symmetry_equiv_pos_as_xyz
  1  'x, y, z'
loop_
 _atom_site_type_symbol
 _atom_site_label
 _atom_site_symmetry_multiplicity
 _atom_site_fract_x
 _atom_site_fract_y
 _atom_site_fract_z
 _atom_site_occupancy
  Dy  Dy0  1  0.495392  0.006268  0.182120  1
  Dy  Dy1  1  0.004608  0.506268  0.817880  1
  Dy  Dy2  1  0.995392  0.493732  0.182120  1
  Dy  Dy3  1  0.504608  0.993732  0.817880  1
  Cu  Cu4  1  0.000000  0.500000  0.500000  1
  Cu  Cu5  1  0.500000  0.000000  0.500000  1
  B  B6  1  0.884168  0.809225  0.618469  1
  B  B7  1  0.115832  0.190775  0.381531  1
  B  B8  1  0.615832  0.309225  0.381531  1
  B  B9  1  0.887337  0.182257  0.999899  1
  B  B10  1  0.379461  0.693311  0.373320  1
  B  B11  1  0.620539  0.306689  0.626680  1
  B  B12  1  0.494399  0.496374  0.193698  1
  B  B13  1  0.112663  0.817743  0.000101  1
  B  B14  1  0.387337  0.317743  0.999899  1
  B  B15  1  0.505601  0.503626  0.806302  1
  B  B16  1  0.879461  0.806689  0.373320  1
  B  B17  1  0.005601  0.996374  0.806302  1
  B  B18  1  0.994399  0.003626  0.193698  1
  B  B19  1  0.612663  0.682257  0.000101  1
  B  B20  1  0.384168  0.690775  0.618469  1
  B  B21  1  0.120539  0.193311  0.626680  1
  O  O22  1  0.060546  0.663441  0.007028  1
  O  O23  1  0.648200  0.409168  0.275328  1
  O  O24  1  0.350074  0.625808  0.495583  1
  O  O25  1  0.348158  0.388888  0.121262  1
  O  O26  1  0.351800  0.590832  0.724672  1
  O  O27  1  0.059002  0.342563  0.362548  1
  O  O28  1  0.649926  0.374192  0.504417  1
  O  O29  1  0.149926  0.125808  0.504417  1
  O  O30  1  0.851800  0.909168  0.724672  1
  O  O31  1  0.937215  0.654936  0.356756  1
  O  O32  1  0.358158  0.412888  0.890149  1
  O  O33  1  0.939454  0.336559  0.992972  1
  O  O34  1  0.858158  0.087112  0.890149  1
  O  O35  1  0.141842  0.912888  0.109851  1
  O  O36  1  0.848158  0.111112  0.121262  1
  O  O37  1  0.651842  0.611112  0.878738  1
  O  O38  1  0.156918  0.095323  0.734346  1
  O  O39  1  0.062785  0.345064  0.643244  1
  O  O40  1  0.439454  0.163441  0.992972  1
  O  O41  1  0.559001  0.157437  0.362548  1
  O  O42  1  0.437215  0.845064  0.356756  1
  O  O43  1  0.850074  0.874192  0.495583  1
  O  O44  1  0.560546  0.836559  0.007028  1
  O  O45  1  0.343082  0.595323  0.265654  1
  O  O46  1  0.641842  0.587112  0.109851  1
  O  O47  1  0.940998  0.657437  0.637452  1
  O  O48  1  0.151842  0.888888  0.878738  1
  O  O49  1  0.562785  0.154936  0.643244  1
  O  O50  1  0.843082  0.904677  0.265654  1
  O  O51  1  0.148200  0.090832  0.275328  1
  O  O52  1  0.440998  0.842563  0.637452  1
  O  O53  1  0.656918  0.404677  0.734346  1
