# generated using pymatgen
data_PrAl3(BO3)4
_symmetry_space_group_name_H-M   'P 1'
_cell_length_a   5.98336381
_cell_length_b   5.98336381
_cell_length_c   11.27052379
_cell_angle_alpha   81.64552648
_cell_angle_beta   98.35447352
_cell_angle_gamma   75.75488829
_symmetry_Int_Tables_number   1
_chemical_formula_structural   PrAl3(BO3)4
_chemical_formula_sum   'Pr2 Al6 B8 O24'
_cell_volume   379.97661311
_cell_formula_units_Z   2
loop_
 _symmetry_equiv_pos_site_id
 _symmetry_equiv_pos_as_xyz
  1  'x, y, z'
loop_
 _atom_site_type_symbol
 _atom_site_label
 _atom_site_symmetry_multiplicity
 _atom_site_fract_x
 _atom_site_fract_y
 _atom_site_fract_z
 _atom_site_occupancy
  Pr  Pr0  1  0.037651  0.037651  0.750000  1
  Pr  Pr1  1  0.962349  0.962349  0.250000  1
  Al  Al2  1  0.195459  0.306002  0.471551  1
  Al  Al3  1  0.589255  0.589255  0.750000  1
  Al  Al4  1  0.804541  0.693998  0.528449  1
  Al  Al5  1  0.410745  0.410745  0.250000  1
  Al  Al6  1  0.306002  0.195459  0.028449  1
  Al  Al7  1  0.693998  0.804541  0.971551  1
  B  B8  1  0.122597  0.508269  0.777912  1
  B  B9  1  0.719099  0.222804  0.494071  1
  B  B10  1  0.508269  0.122597  0.722088  1
  B  B11  1  0.280901  0.777196  0.505929  1
  B  B12  1  0.491731  0.877403  0.277912  1
  B  B13  1  0.777196  0.280901  0.994071  1
  B  B14  1  0.877403  0.491731  0.222088  1
  B  B15  1  0.222804  0.719099  0.005929  1
  O  O16  1  0.354842  0.728825  0.257136  1
  O  O17  1  0.996726  0.805047  0.939582  1
  O  O18  1  0.694215  0.817549  0.363189  1
  O  O19  1  0.897567  0.577464  0.705368  1
  O  O20  1  0.492837  0.303377  0.425384  1
  O  O21  1  0.003274  0.194953  0.060418  1
  O  O22  1  0.728825  0.354842  0.242864  1
  O  O23  1  0.182451  0.305785  0.863189  1
  O  O24  1  0.805047  0.996726  0.560418  1
  O  O25  1  0.422536  0.102433  0.205368  1
  O  O26  1  0.507163  0.696623  0.574616  1
  O  O27  1  0.645158  0.271175  0.742864  1
  O  O28  1  0.305785  0.182451  0.636811  1
  O  O29  1  0.869852  0.368150  0.504345  1
  O  O30  1  0.577464  0.897567  0.794632  1
  O  O31  1  0.303377  0.492837  0.074616  1
  O  O32  1  0.368150  0.869852  0.995655  1
  O  O33  1  0.271175  0.645158  0.757136  1
  O  O34  1  0.130148  0.631850  0.495655  1
  O  O35  1  0.696623  0.507163  0.925384  1
  O  O36  1  0.102433  0.422536  0.294632  1
  O  O37  1  0.194953  0.003274  0.439582  1
  O  O38  1  0.817549  0.694215  0.136811  1
  O  O39  1  0.631850  0.130148  0.004345  1
