# generated using pymatgen
data_Y2MoO6
_symmetry_space_group_name_H-M   'P 1'
_cell_length_a   9.99010363
_cell_length_b   9.99010363
_cell_length_c   5.42079552
_cell_angle_alpha   74.86032738
_cell_angle_beta   105.13967262
_cell_angle_gamma   112.00173581
_symmetry_Int_Tables_number   1
_chemical_formula_structural   Y2MoO6
_chemical_formula_sum   'Y8 Mo4 O24'
_cell_volume   476.06628079
_cell_formula_units_Z   4
loop_
 _symmetry_equiv_pos_site_id
 _symmetry_equiv_pos_as_xyz
  1  'x, y, z'
loop_
 _atom_site_type_symbol
 _atom_site_label
 _atom_site_symmetry_multiplicity
 _atom_site_fract_x
 _atom_site_fract_y
 _atom_site_fract_z
 _atom_site_occupancy
  Y  Y0  1  0.606692  0.606692  0.750000  1
  Y  Y1  1  0.393308  0.393308  0.250000  1
  Y  Y2  1  0.136284  0.136284  0.750000  1
  Y  Y3  1  0.863716  0.863716  0.250000  1
  Y  Y4  1  0.783719  0.447726  0.378028  1
  Y  Y5  1  0.447726  0.783719  0.121972  1
  Y  Y6  1  0.552274  0.216281  0.878028  1
  Y  Y7  1  0.216281  0.552274  0.621972  1
  Mo  Mo8  1  0.704660  0.012469  0.558976  1
  Mo  Mo9  1  0.012469  0.704660  0.941024  1
  Mo  Mo10  1  0.295340  0.987531  0.441024  1
  Mo  Mo11  1  0.987531  0.295340  0.058976  1
  O  O12  1  0.427117  0.610117  0.921939  1
  O  O13  1  0.610117  0.427117  0.578061  1
  O  O14  1  0.572883  0.389883  0.078061  1
  O  O15  1  0.389883  0.572883  0.421939  1
  O  O16  1  0.192853  0.336777  0.916981  1
  O  O17  1  0.336777  0.192853  0.583019  1
  O  O18  1  0.807147  0.663223  0.083019  1
  O  O19  1  0.663223  0.807147  0.416981  1
  O  O20  1  0.114737  0.326443  0.367948  1
  O  O21  1  0.326443  0.114737  0.132052  1
  O  O22  1  0.885263  0.673557  0.632052  1
  O  O23  1  0.673557  0.885263  0.867948  1
  O  O24  1  0.711209  0.183257  0.634535  1
  O  O25  1  0.183257  0.711209  0.865465  1
  O  O26  1  0.288791  0.816743  0.365465  1
  O  O27  1  0.816743  0.288791  0.134535  1
  O  O28  1  0.889744  0.048500  0.513976  1
  O  O29  1  0.048500  0.889744  0.986024  1
  O  O30  1  0.975703  0.431205  0.754246  1
  O  O31  1  0.951500  0.110256  0.013976  1
  O  O32  1  0.568795  0.024297  0.254246  1
  O  O33  1  0.024297  0.568795  0.245754  1
  O  O34  1  0.431205  0.975703  0.745754  1
  O  O35  1  0.110256  0.951500  0.486024  1
