# generated using pymatgen
data_Ag2Hg2(TeO4)3
_symmetry_space_group_name_H-M   'P 1'
_cell_length_a   6.58043148
_cell_length_b   6.30647439
_cell_length_c   14.52721647
_cell_angle_alpha   90.00000000
_cell_angle_beta   112.84344386
_cell_angle_gamma   90.00000000
_symmetry_Int_Tables_number   1
_chemical_formula_structural   Ag2Hg2(TeO4)3
_chemical_formula_sum   'Ag4 Hg4 Te6 O24'
_cell_volume   555.58600835
_cell_formula_units_Z   2
loop_
 _symmetry_equiv_pos_site_id
 _symmetry_equiv_pos_as_xyz
  1  'x, y, z'
loop_
 _atom_site_type_symbol
 _atom_site_label
 _atom_site_symmetry_multiplicity
 _atom_site_fract_x
 _atom_site_fract_y
 _atom_site_fract_z
 _atom_site_occupancy
  Ag  Ag0  1  0.105373  0.367339  0.289794  1
  Ag  Ag1  1  0.105373  0.132661  0.789794  1
  Ag  Ag2  1  0.894627  0.867339  0.210206  1
  Ag  Ag3  1  0.894627  0.632661  0.710206  1
  Hg  Hg4  1  0.706478  0.042032  0.900638  1
  Hg  Hg5  1  0.706478  0.457968  0.400638  1
  Hg  Hg6  1  0.293522  0.542032  0.599362  1
  Hg  Hg7  1  0.293522  0.957968  0.099362  1
  Te  Te8  1  0.590247  0.093911  0.606696  1
  Te  Te9  1  0.409753  0.593911  0.893304  1
  Te  Te10  1  0.409753  0.906089  0.393304  1
  Te  Te11  1  0.000000  0.000000  0.500000  1
  Te  Te12  1  0.590247  0.406089  0.106696  1
  Te  Te13  1  0.000000  0.500000  0.000000  1
  O  O14  1  0.999263  0.717565  0.555763  1
  O  O15  1  0.882540  0.371165  0.095000  1
  O  O16  1  0.000737  0.282435  0.444237  1
  O  O17  1  0.600470  0.384628  0.648126  1
  O  O18  1  0.999263  0.782435  0.055763  1
  O  O19  1  0.709297  0.560483  0.890952  1
  O  O20  1  0.117460  0.871165  0.405000  1
  O  O21  1  0.548617  0.813694  0.537624  1
  O  O22  1  0.736207  0.532095  0.232749  1
  O  O23  1  0.709297  0.939517  0.390952  1
  O  O24  1  0.000737  0.217565  0.944237  1
  O  O25  1  0.882540  0.128835  0.595000  1
  O  O26  1  0.290703  0.060483  0.609048  1
  O  O27  1  0.736207  0.967905  0.732749  1
  O  O28  1  0.290703  0.439517  0.109048  1
  O  O29  1  0.263793  0.032095  0.267251  1
  O  O30  1  0.548617  0.686306  0.037624  1
  O  O31  1  0.399530  0.884628  0.851874  1
  O  O32  1  0.399530  0.615372  0.351874  1
  O  O33  1  0.117460  0.628835  0.905000  1
  O  O34  1  0.451383  0.313694  0.962376  1
  O  O35  1  0.451383  0.186306  0.462376  1
  O  O36  1  0.263793  0.467905  0.767251  1
  O  O37  1  0.600470  0.115372  0.148126  1
