# generated using pymatgen
data_Sr(ReO3)3
_symmetry_space_group_name_H-M   'P 1'
_cell_length_a   9.30350166
_cell_length_b   9.33391871
_cell_length_c   9.37132444
_cell_angle_alpha   90.00000000
_cell_angle_beta   90.00000000
_cell_angle_gamma   90.00000000
_symmetry_Int_Tables_number   1
_chemical_formula_structural   Sr(ReO3)3
_chemical_formula_sum   'Sr4 Re12 O36'
_cell_volume   813.78827356
_cell_formula_units_Z   4
loop_
 _symmetry_equiv_pos_site_id
 _symmetry_equiv_pos_as_xyz
  1  'x, y, z'
loop_
 _atom_site_type_symbol
 _atom_site_label
 _atom_site_symmetry_multiplicity
 _atom_site_fract_x
 _atom_site_fract_y
 _atom_site_fract_z
 _atom_site_occupancy
  Sr  Sr0  1  0.176574  0.820647  0.821674  1
  Sr  Sr1  1  0.676574  0.679353  0.321674  1
  Sr  Sr2  1  0.176574  0.179353  0.178326  1
  Sr  Sr3  1  0.676574  0.320647  0.678326  1
  Re  Re4  1  0.863164  0.000000  0.500000  1
  Re  Re5  1  0.502280  0.005232  0.360263  1
  Re  Re6  1  0.502403  0.862414  0.001313  1
  Re  Re7  1  0.002403  0.637586  0.501313  1
  Re  Re8  1  0.363164  0.500000  0.000000  1
  Re  Re9  1  0.002280  0.505232  0.139737  1
  Re  Re10  1  0.002280  0.494768  0.860263  1
  Re  Re11  1  0.639217  0.500000  0.000000  1
  Re  Re12  1  0.002403  0.362414  0.498687  1
  Re  Re13  1  0.502403  0.137586  0.998687  1
  Re  Re14  1  0.502280  0.994768  0.639737  1
  Re  Re15  1  0.139217  0.000000  0.500000  1
  O  O16  1  0.661367  0.000000  0.000000  1
  O  O17  1  0.493840  0.862438  0.797454  1
  O  O18  1  0.295786  0.994429  0.639363  1
  O  O19  1  0.507382  0.838385  0.495282  1
  O  O20  1  0.001803  0.995384  0.663203  1
  O  O21  1  0.295786  0.005571  0.360637  1
  O  O22  1  0.502193  0.862247  0.206230  1
  O  O23  1  0.137758  0.796273  0.504592  1
  O  O24  1  0.637758  0.703727  0.004592  1
  O  O25  1  0.161367  0.500000  0.500000  1
  O  O26  1  0.860138  0.794589  0.496217  1
  O  O27  1  0.360138  0.705411  0.996217  1
  O  O28  1  0.993840  0.637562  0.297454  1
  O  O29  1  0.205385  0.497728  0.137758  1
  O  O30  1  0.501803  0.495384  0.836797  1
  O  O31  1  0.831569  0.500000  0.500000  1
  O  O32  1  0.007382  0.661615  0.995282  1
  O  O33  1  0.002193  0.362247  0.293770  1
  O  O34  1  0.205385  0.502272  0.862242  1
  O  O35  1  0.795786  0.505571  0.139363  1
  O  O36  1  0.002193  0.637753  0.706230  1
  O  O37  1  0.007382  0.338385  0.004718  1
  O  O38  1  0.501803  0.504616  0.163203  1
  O  O39  1  0.795786  0.494429  0.860637  1
  O  O40  1  0.993840  0.362438  0.702546  1
  O  O41  1  0.637758  0.296273  0.995408  1
  O  O42  1  0.137758  0.203727  0.495408  1
  O  O43  1  0.360138  0.294589  0.003783  1
  O  O44  1  0.860138  0.205411  0.503783  1
  O  O45  1  0.502193  0.137753  0.793770  1
  O  O46  1  0.705385  0.002272  0.637758  1
  O  O47  1  0.331569  0.000000  0.000000  1
  O  O48  1  0.001803  0.004616  0.336797  1
  O  O49  1  0.507382  0.161615  0.504718  1
  O  O50  1  0.705385  0.997728  0.362242  1
  O  O51  1  0.493840  0.137562  0.202546  1
