# generated using pymatgen
data_Ba(BO2)2
_symmetry_space_group_name_H-M   'P 1'
_cell_length_a   14.03686022
_cell_length_b   14.03686022
_cell_length_c   14.03686022
_cell_angle_alpha   30.25353514
_cell_angle_beta   30.25353514
_cell_angle_gamma   30.25353514
_symmetry_Int_Tables_number   1
_chemical_formula_structural   Ba(BO2)2
_chemical_formula_sum   'Ba6 B12 O24'
_cell_volume   622.10541426
_cell_formula_units_Z   6
loop_
 _symmetry_equiv_pos_site_id
 _symmetry_equiv_pos_as_xyz
  1  'x, y, z'
loop_
 _atom_site_type_symbol
 _atom_site_label
 _atom_site_symmetry_multiplicity
 _atom_site_fract_x
 _atom_site_fract_y
 _atom_site_fract_z
 _atom_site_occupancy
  Ba  Ba0  1  0.650964  0.650964  0.650964  1
  Ba  Ba1  1  0.849036  0.849036  0.849036  1
  Ba  Ba2  1  0.349036  0.349036  0.349036  1
  Ba  Ba3  1  0.150964  0.150964  0.150964  1
  Ba  Ba4  1  0.750000  0.750000  0.750000  1
  Ba  Ba5  1  0.250000  0.250000  0.250000  1
  B  B6  1  0.751304  0.138180  0.994909  1
  B  B7  1  0.994909  0.751304  0.138180  1
  B  B8  1  0.138180  0.994909  0.751304  1
  B  B9  1  0.505091  0.361820  0.748696  1
  B  B10  1  0.748696  0.505091  0.361820  1
  B  B11  1  0.361820  0.748696  0.505091  1
  B  B12  1  0.248696  0.861820  0.005091  1
  B  B13  1  0.005091  0.248696  0.861820  1
  B  B14  1  0.861820  0.005091  0.248696  1
  B  B15  1  0.494909  0.638180  0.251304  1
  B  B16  1  0.251304  0.494909  0.638180  1
  B  B17  1  0.638180  0.251304  0.494909  1
  O  O18  1  0.928097  0.164463  0.788535  1
  O  O19  1  0.788535  0.928097  0.164463  1
  O  O20  1  0.164463  0.788535  0.928097  1
  O  O21  1  0.711465  0.335537  0.571903  1
  O  O22  1  0.571903  0.711465  0.335537  1
  O  O23  1  0.335537  0.571903  0.711465  1
  O  O24  1  0.071903  0.835537  0.211465  1
  O  O25  1  0.211465  0.071903  0.835537  1
  O  O26  1  0.835537  0.211465  0.071903  1
  O  O27  1  0.288535  0.664463  0.428097  1
  O  O28  1  0.428097  0.288535  0.664463  1
  O  O29  1  0.664463  0.428097  0.288535  1
  O  O30  1  0.306702  0.024634  0.559890  1
  O  O31  1  0.559890  0.306702  0.024634  1
  O  O32  1  0.024634  0.559890  0.306702  1
  O  O33  1  0.940110  0.475366  0.193298  1
  O  O34  1  0.193298  0.940110  0.475366  1
  O  O35  1  0.475366  0.193298  0.940110  1
  O  O36  1  0.693298  0.975366  0.440110  1
  O  O37  1  0.440110  0.693298  0.975366  1
  O  O38  1  0.975366  0.440110  0.693298  1
  O  O39  1  0.059890  0.524634  0.806702  1
  O  O40  1  0.806702  0.059890  0.524634  1
  O  O41  1  0.524634  0.806702  0.059890  1
