# generated using pymatgen
data_Pr8Ga3Co
_symmetry_space_group_name_H-M   'P 1'
_cell_length_a   10.58589894
_cell_length_b   10.58589894
_cell_length_c   7.03280284
_cell_angle_alpha   90.00000000
_cell_angle_beta   90.00000000
_cell_angle_gamma   120.00000000
_symmetry_Int_Tables_number   1
_chemical_formula_structural   Pr8Ga3Co
_chemical_formula_sum   'Pr16 Ga6 Co2'
_cell_volume   682.51870983
_cell_formula_units_Z   2
loop_
 _symmetry_equiv_pos_site_id
 _symmetry_equiv_pos_as_xyz
  1  'x, y, z'
loop_
 _atom_site_type_symbol
 _atom_site_label
 _atom_site_symmetry_multiplicity
 _atom_site_fract_x
 _atom_site_fract_y
 _atom_site_fract_z
 _atom_site_occupancy
  Pr  Pr0  1  0.170399  0.829601  0.993633  1
  Pr  Pr1  1  0.340797  0.170399  0.493633  1
  Pr  Pr2  1  0.829601  0.659203  0.493633  1
  Pr  Pr3  1  0.170399  0.340797  0.993633  1
  Pr  Pr4  1  0.659203  0.829601  0.993633  1
  Pr  Pr5  1  0.829601  0.170399  0.493633  1
  Pr  Pr6  1  0.333333  0.666667  0.676392  1
  Pr  Pr7  1  0.666667  0.333333  0.176392  1
  Pr  Pr8  1  0.462450  0.537550  0.289632  1
  Pr  Pr9  1  0.924900  0.462450  0.789632  1
  Pr  Pr10  1  0.537550  0.075100  0.789632  1
  Pr  Pr11  1  0.462450  0.924900  0.289632  1
  Pr  Pr12  1  0.075100  0.537550  0.289632  1
  Pr  Pr13  1  0.537550  0.462450  0.789632  1
  Pr  Pr14  1  0.000000  0.000000  0.278269  1
  Pr  Pr15  1  0.000000  0.000000  0.778269  1
  Ga  Ga16  1  0.164493  0.835507  0.533075  1
  Ga  Ga17  1  0.328985  0.164493  0.033075  1
  Ga  Ga18  1  0.835507  0.671015  0.033075  1
  Ga  Ga19  1  0.164493  0.328985  0.533075  1
  Ga  Ga20  1  0.671015  0.835507  0.533075  1
  Ga  Ga21  1  0.835507  0.164493  0.033075  1
  Co  Co22  1  0.333333  0.666667  0.059318  1
  Co  Co23  1  0.666667  0.333333  0.559318  1
