# generated using pymatgen
data_NaY(SiO3)2
_symmetry_space_group_name_H-M   'P 1'
_cell_length_a   6.70423705
_cell_length_b   6.70423705
_cell_length_c   17.85495689
_cell_angle_alpha   83.29156963
_cell_angle_beta   96.70843037
_cell_angle_gamma   76.50844793
_symmetry_Int_Tables_number   1
_chemical_formula_structural   NaY(SiO3)2
_chemical_formula_sum   'Na6 Y6 Si12 O36'
_cell_volume   766.36140849
_cell_formula_units_Z   6
loop_
 _symmetry_equiv_pos_site_id
 _symmetry_equiv_pos_as_xyz
  1  'x, y, z'
loop_
 _atom_site_type_symbol
 _atom_site_label
 _atom_site_symmetry_multiplicity
 _atom_site_fract_x
 _atom_site_fract_y
 _atom_site_fract_z
 _atom_site_occupancy
  Na  Na0  1  0.876455  0.876455  0.250000  1
  Na  Na1  1  0.123545  0.123545  0.750000  1
  Na  Na2  1  0.005029  0.362351  0.916997  1
  Na  Na3  1  0.994971  0.637649  0.083003  1
  Na  Na4  1  0.637649  0.994971  0.416997  1
  Na  Na5  1  0.362351  0.005029  0.583003  1
  Y  Y6  1  0.607749  0.607749  0.750000  1
  Y  Y7  1  0.639467  0.265265  0.073468  1
  Y  Y8  1  0.360533  0.734735  0.926532  1
  Y  Y9  1  0.734735  0.360533  0.573468  1
  Y  Y10  1  0.265265  0.639467  0.426532  1
  Y  Y11  1  0.392251  0.392251  0.250000  1
  Si  Si12  1  0.465628  0.190775  0.898439  1
  Si  Si13  1  0.646117  0.113551  0.756938  1
  Si  Si14  1  0.886449  0.353883  0.256938  1
  Si  Si15  1  0.166712  0.178539  0.398869  1
  Si  Si16  1  0.534372  0.809225  0.101561  1
  Si  Si17  1  0.353883  0.886449  0.243062  1
  Si  Si18  1  0.178539  0.166712  0.101131  1
  Si  Si19  1  0.809225  0.534372  0.398439  1
  Si  Si20  1  0.833288  0.821461  0.601131  1
  Si  Si21  1  0.190775  0.465628  0.601561  1
  Si  Si22  1  0.113551  0.646117  0.743062  1
  Si  Si23  1  0.821461  0.833288  0.898869  1
  O  O24  1  0.290998  0.718425  0.302182  1
  O  O25  1  0.709002  0.281575  0.697818  1
  O  O26  1  0.628261  0.564623  0.451800  1
  O  O27  1  0.041424  0.723737  0.950842  1
  O  O28  1  0.281575  0.709002  0.802182  1
  O  O29  1  0.675211  0.007988  0.943272  1
  O  O30  1  0.007988  0.675211  0.556728  1
  O  O31  1  0.328581  0.318612  0.377600  1
  O  O32  1  0.274629  0.084696  0.884490  1
  O  O33  1  0.318612  0.328581  0.122400  1
  O  O34  1  0.489572  0.032724  0.277182  1
  O  O35  1  0.967276  0.510428  0.777182  1
  O  O36  1  0.725371  0.915304  0.115510  1
  O  O37  1  0.958576  0.276263  0.049158  1
  O  O38  1  0.681388  0.671419  0.877600  1
  O  O39  1  0.084696  0.274629  0.615510  1
  O  O40  1  0.564623  0.628261  0.048200  1
  O  O41  1  0.324789  0.992012  0.056728  1
  O  O42  1  0.851777  0.971069  0.818772  1
  O  O43  1  0.276263  0.958576  0.450842  1
  O  O44  1  0.435377  0.371739  0.951800  1
  O  O45  1  0.275382  0.529849  0.685102  1
  O  O46  1  0.671419  0.681388  0.622400  1
  O  O47  1  0.915304  0.725371  0.384490  1
  O  O48  1  0.529849  0.275382  0.814898  1
  O  O49  1  0.470151  0.724618  0.185102  1
  O  O50  1  0.992012  0.324789  0.443272  1
  O  O51  1  0.371739  0.435377  0.548200  1
  O  O52  1  0.723737  0.041424  0.549158  1
  O  O53  1  0.032724  0.489572  0.222818  1
  O  O54  1  0.971069  0.851777  0.681228  1
  O  O55  1  0.724618  0.470151  0.314898  1
  O  O56  1  0.028931  0.148223  0.318772  1
  O  O57  1  0.148223  0.028931  0.181228  1
  O  O58  1  0.718425  0.290998  0.197818  1
  O  O59  1  0.510428  0.967276  0.722818  1
