# generated using pymatgen
data_La3Ru3O11
_symmetry_space_group_name_H-M   'P 1'
_cell_length_a   9.54353156
_cell_length_b   9.54353156
_cell_length_c   9.54353156
_cell_angle_alpha   90.00000000
_cell_angle_beta   90.00000000
_cell_angle_gamma   90.00000000
_symmetry_Int_Tables_number   1
_chemical_formula_structural   La3Ru3O11
_chemical_formula_sum   'La12 Ru12 O44'
_cell_volume   869.21525977
_cell_formula_units_Z   4
loop_
 _symmetry_equiv_pos_site_id
 _symmetry_equiv_pos_as_xyz
  1  'x, y, z'
loop_
 _atom_site_type_symbol
 _atom_site_label
 _atom_site_symmetry_multiplicity
 _atom_site_fract_x
 _atom_site_fract_y
 _atom_site_fract_z
 _atom_site_occupancy
  La  La0  1  0.636118  0.363882  0.636118  1
  La  La1  1  0.363882  0.636118  0.636118  1
  La  La2  1  0.636118  0.636118  0.363882  1
  La  La3  1  0.363882  0.363882  0.363882  1
  La  La4  1  0.863882  0.136118  0.863882  1
  La  La5  1  0.136118  0.863882  0.863882  1
  La  La6  1  0.863882  0.863882  0.136118  1
  La  La7  1  0.136118  0.136118  0.136118  1
  La  La8  1  0.250000  0.750000  0.250000  1
  La  La9  1  0.750000  0.250000  0.250000  1
  La  La10  1  0.250000  0.250000  0.750000  1
  La  La11  1  0.750000  0.750000  0.750000  1
  Ru  Ru12  1  0.661286  0.000000  0.500000  1
  Ru  Ru13  1  0.000000  0.500000  0.661286  1
  Ru  Ru14  1  0.500000  0.661286  0.000000  1
  Ru  Ru15  1  0.000000  0.500000  0.338714  1
  Ru  Ru16  1  0.500000  0.338714  0.000000  1
  Ru  Ru17  1  0.338714  0.000000  0.500000  1
  Ru  Ru18  1  0.838714  0.500000  0.000000  1
  Ru  Ru19  1  0.500000  0.000000  0.838714  1
  Ru  Ru20  1  0.000000  0.838714  0.500000  1
  Ru  Ru21  1  0.500000  0.000000  0.161286  1
  Ru  Ru22  1  0.000000  0.161286  0.500000  1
  Ru  Ru23  1  0.161286  0.500000  0.000000  1
  O  O24  1  0.830302  0.502735  0.212110  1
  O  O25  1  0.830302  0.497265  0.787890  1
  O  O26  1  0.169698  0.502735  0.787890  1
  O  O27  1  0.497265  0.787890  0.830302  1
  O  O28  1  0.787890  0.169698  0.502735  1
  O  O29  1  0.787890  0.830302  0.497265  1
  O  O30  1  0.502735  0.212110  0.830302  1
  O  O31  1  0.212110  0.830302  0.502735  1
  O  O32  1  0.502735  0.787890  0.169698  1
  O  O33  1  0.497265  0.212110  0.169698  1
  O  O34  1  0.212110  0.169698  0.497265  1
  O  O35  1  0.169698  0.497265  0.212110  1
  O  O36  1  0.669698  0.997265  0.287890  1
  O  O37  1  0.669698  0.002735  0.712110  1
  O  O38  1  0.330302  0.997265  0.712110  1
  O  O39  1  0.002735  0.712110  0.669698  1
  O  O40  1  0.394991  0.605009  0.394991  1
  O  O41  1  0.712110  0.330302  0.997265  1
  O  O42  1  0.997265  0.287890  0.669698  1
  O  O43  1  0.287890  0.669698  0.997265  1
  O  O44  1  0.997265  0.712110  0.330302  1
  O  O45  1  0.002735  0.287890  0.330302  1
  O  O46  1  0.287890  0.330302  0.002735  1
  O  O47  1  0.330302  0.002735  0.287890  1
  O  O48  1  0.373607  0.000000  0.000000  1
  O  O49  1  0.000000  0.373607  0.000000  1
  O  O50  1  0.000000  0.000000  0.373607  1
  O  O51  1  0.000000  0.626393  0.000000  1
  O  O52  1  0.000000  0.000000  0.626393  1
  O  O53  1  0.626393  0.000000  0.000000  1
  O  O54  1  0.126393  0.500000  0.500000  1
  O  O55  1  0.500000  0.126393  0.500000  1
  O  O56  1  0.500000  0.500000  0.126393  1
  O  O57  1  0.500000  0.873607  0.500000  1
  O  O58  1  0.500000  0.500000  0.873607  1
  O  O59  1  0.873607  0.500000  0.500000  1
  O  O60  1  0.894991  0.894991  0.894991  1
  O  O61  1  0.105009  0.105009  0.894991  1
  O  O62  1  0.894991  0.105009  0.105009  1
  O  O63  1  0.105009  0.894991  0.105009  1
  O  O64  1  0.605009  0.605009  0.605009  1
  O  O65  1  0.394991  0.394991  0.605009  1
  O  O66  1  0.605009  0.394991  0.394991  1
  O  O67  1  0.712110  0.669698  0.002735  1
