# generated using pymatgen
data_Nb2Te4O13
_symmetry_space_group_name_H-M   'P 1'
_cell_length_a   7.71848829
_cell_length_b   12.96527919
_cell_length_c   13.00440435
_cell_angle_alpha   116.19756176
_cell_angle_beta   90.28873532
_cell_angle_gamma   90.20486474
_symmetry_Int_Tables_number   1
_chemical_formula_structural   Nb2Te4O13
_chemical_formula_sum   'Nb8 Te16 O52'
_cell_volume   1167.66055675
_cell_formula_units_Z   4
loop_
 _symmetry_equiv_pos_site_id
 _symmetry_equiv_pos_as_xyz
  1  'x, y, z'
loop_
 _atom_site_type_symbol
 _atom_site_label
 _atom_site_symmetry_multiplicity
 _atom_site_fract_x
 _atom_site_fract_y
 _atom_site_fract_z
 _atom_site_occupancy
  Nb  Nb0  1  0.644522  0.798106  0.962758  1
  Nb  Nb1  1  0.105681  0.296467  0.472957  1
  Nb  Nb2  1  0.856370  0.208983  0.048595  1
  Nb  Nb3  1  0.355478  0.201894  0.037242  1
  Nb  Nb4  1  0.604282  0.281017  0.464272  1
  Nb  Nb5  1  0.143630  0.791017  0.951405  1
  Nb  Nb6  1  0.894319  0.703533  0.527043  1
  Nb  Nb7  1  0.395718  0.718983  0.535728  1
  Te  Te8  1  0.446486  0.765887  0.288923  1
  Te  Te9  1  0.699274  0.547789  0.011343  1
  Te  Te10  1  0.879872  0.051175  0.240281  1
  Te  Te11  1  0.553514  0.234113  0.711077  1
  Te  Te12  1  0.621766  0.468134  0.299268  1
  Te  Te13  1  0.970814  0.268409  0.809529  1
  Te  Te14  1  0.378234  0.531866  0.700732  1
  Te  Te15  1  0.211530  0.052726  0.520348  1
  Te  Te16  1  0.120128  0.948825  0.759719  1
  Te  Te17  1  0.371718  0.015002  0.199964  1
  Te  Te18  1  0.029186  0.731591  0.190471  1
  Te  Te19  1  0.628282  0.984998  0.800036  1
  Te  Te20  1  0.124741  0.448083  0.276928  1
  Te  Te21  1  0.788470  0.947274  0.479652  1
  Te  Te22  1  0.300726  0.452211  0.988657  1
  Te  Te23  1  0.875259  0.551917  0.723072  1
  O  O24  1  0.689595  0.142138  0.328920  1
  O  O25  1  0.540263  0.512203  0.102670  1
  O  O26  1  0.386114  0.122904  0.132872  1
  O  O27  1  0.187189  0.435834  0.614682  1
  O  O28  1  0.069262  0.148612  0.324458  1
  O  O29  1  0.308364  0.361123  0.175656  1
  O  O30  1  0.879249  0.794697  0.433611  1
  O  O31  1  0.562517  0.929057  0.109272  1
  O  O32  1  0.372615  0.244971  0.436254  1
  O  O33  1  0.105307  0.691577  0.037989  1
  O  O34  1  0.894693  0.308423  0.962011  1
  O  O35  1  0.392999  0.617150  0.614492  1
  O  O36  1  0.123982  0.168187  0.005351  1
  O  O37  1  0.930738  0.851388  0.675542  1
  O  O38  1  0.374567  0.753889  0.927636  1
  O  O39  1  0.633205  0.704087  0.059127  1
  O  O40  1  0.936004  0.352210  0.190157  1
  O  O41  1  0.812811  0.564166  0.385318  1
  O  O42  1  0.124697  0.401582  0.853832  1
  O  O43  1  0.366795  0.295913  0.940873  1
  O  O44  1  0.437483  0.070943  0.890728  1
  O  O45  1  0.130810  0.880825  0.863760  1
  O  O46  1  0.125906  0.671341  0.498900  1
  O  O47  1  0.459737  0.487797  0.897330  1
  O  O48  1  0.303764  0.863014  0.251516  1
  O  O49  1  0.874094  0.328659  0.501100  1
  O  O50  1  0.635459  0.190225  0.557203  1
  O  O51  1  0.691636  0.638877  0.824344  1
  O  O52  1  0.791083  0.344250  0.769898  1
  O  O53  1  0.876018  0.831813  0.994649  1
  O  O54  1  0.821026  0.064021  0.897772  1
  O  O55  1  0.623919  0.899067  0.351206  1
  O  O56  1  0.442408  0.576919  0.378899  1
  O  O57  1  0.947063  0.994532  0.398153  1
  O  O58  1  0.869190  0.119175  0.136240  1
  O  O59  1  0.147141  0.382762  0.380085  1
  O  O60  1  0.613886  0.877096  0.867128  1
  O  O61  1  0.310405  0.857862  0.671080  1
  O  O62  1  0.208917  0.655750  0.230102  1
  O  O63  1  0.557592  0.423081  0.621101  1
  O  O64  1  0.625433  0.246111  0.072364  1
  O  O65  1  0.364541  0.809775  0.442797  1
  O  O66  1  0.607001  0.382850  0.385508  1
  O  O67  1  0.063996  0.647790  0.809843  1
  O  O68  1  0.120751  0.205303  0.566389  1
  O  O69  1  0.178974  0.935979  0.102228  1
  O  O70  1  0.376081  0.100933  0.648794  1
  O  O71  1  0.875303  0.598418  0.146168  1
  O  O72  1  0.627385  0.755029  0.563746  1
  O  O73  1  0.852859  0.617238  0.619915  1
  O  O74  1  0.696236  0.136986  0.748484  1
  O  O75  1  0.052937  0.005468  0.601847  1
