# generated using pymatgen
data_Dy12(MnC3)5
_symmetry_space_group_name_H-M   'P 1'
_cell_length_a   10.46044647
_cell_length_b   10.46044647
_cell_length_c   5.05489051
_cell_angle_alpha   90.00000000
_cell_angle_beta   90.00000000
_cell_angle_gamma   120.00000000
_symmetry_Int_Tables_number   1
_chemical_formula_structural   Dy12(MnC3)5
_chemical_formula_sum   'Dy12 Mn5 C15'
_cell_volume   479.00806746
_cell_formula_units_Z   1
loop_
 _symmetry_equiv_pos_site_id
 _symmetry_equiv_pos_as_xyz
  1  'x, y, z'
loop_
 _atom_site_type_symbol
 _atom_site_label
 _atom_site_symmetry_multiplicity
 _atom_site_fract_x
 _atom_site_fract_y
 _atom_site_fract_z
 _atom_site_occupancy
  Dy  Dy0  1  0.269075  0.455344  0.000000  1
  Dy  Dy1  1  0.186269  0.730925  0.000000  1
  Dy  Dy2  1  0.544656  0.813731  0.000000  1
  Dy  Dy3  1  0.813731  0.544656  0.000000  1
  Dy  Dy4  1  0.730925  0.186269  0.000000  1
  Dy  Dy5  1  0.455344  0.269075  0.000000  1
  Dy  Dy6  1  0.430530  0.000000  0.500000  1
  Dy  Dy7  1  0.569470  0.569470  0.500000  1
  Dy  Dy8  1  0.000000  0.430530  0.500000  1
  Dy  Dy9  1  0.794083  0.000000  0.500000  1
  Dy  Dy10  1  0.205917  0.205917  0.500000  1
  Dy  Dy11  1  0.000000  0.794083  0.500000  1
  Mn  Mn12  1  0.153597  0.000000  0.000000  1
  Mn  Mn13  1  0.846403  0.846403  0.000000  1
  Mn  Mn14  1  0.000000  0.153597  0.000000  1
  Mn  Mn15  1  0.333333  0.666667  0.500000  1
  Mn  Mn16  1  0.666667  0.333333  0.500000  1
  C  C17  1  0.282327  0.476354  0.500000  1
  C  C18  1  0.194028  0.717673  0.500000  1
  C  C19  1  0.523646  0.805972  0.500000  1
  C  C20  1  0.805972  0.523646  0.500000  1
  C  C21  1  0.717673  0.194028  0.500000  1
  C  C22  1  0.476354  0.282327  0.500000  1
  C  C23  1  0.324933  0.000000  0.000000  1
  C  C24  1  0.675067  0.675067  0.000000  1
  C  C25  1  0.000000  0.324933  0.000000  1
  C  C26  1  0.454598  0.000000  0.000000  1
  C  C27  1  0.545402  0.545402  0.000000  1
  C  C28  1  0.000000  0.454598  0.000000  1
  C  C29  1  0.799076  0.000000  0.000000  1
  C  C30  1  0.200924  0.200924  0.000000  1
  C  C31  1  0.000000  0.799076  0.000000  1
