# generated using pymatgen
data_K2PaF7
_symmetry_space_group_name_H-M   'P 1'
_cell_length_a   7.78346265
_cell_length_b   7.78346265
_cell_length_c   8.25749269
_cell_angle_alpha   58.49089816
_cell_angle_beta   121.50910184
_cell_angle_gamma   127.97361817
_symmetry_Int_Tables_number   1
_chemical_formula_structural   K2PaF7
_chemical_formula_sum   'K4 Pa2 F14'
_cell_volume   320.80849019
_cell_formula_units_Z   2
loop_
 _symmetry_equiv_pos_site_id
 _symmetry_equiv_pos_as_xyz
  1  'x, y, z'
loop_
 _atom_site_type_symbol
 _atom_site_label
 _atom_site_symmetry_multiplicity
 _atom_site_fract_x
 _atom_site_fract_y
 _atom_site_fract_z
 _atom_site_occupancy
  K  K0  1  0.332769  0.681913  0.255585  1
  K  K1  1  0.681913  0.332769  0.244415  1
  K  K2  1  0.667231  0.318087  0.744415  1
  K  K3  1  0.318087  0.667231  0.755585  1
  Pa  Pa4  1  0.024230  0.024230  0.250000  1
  Pa  Pa5  1  0.975770  0.975770  0.750000  1
  F  F6  1  0.209271  0.059237  0.564611  1
  F  F7  1  0.059237  0.209271  0.935389  1
  F  F8  1  0.790729  0.940763  0.435389  1
  F  F9  1  0.940763  0.790729  0.064611  1
  F  F10  1  0.665649  0.889946  0.068843  1
  F  F11  1  0.889946  0.665649  0.431157  1
  F  F12  1  0.334351  0.110054  0.931157  1
  F  F13  1  0.110054  0.334351  0.568843  1
  F  F14  1  0.290631  0.937812  0.354146  1
  F  F15  1  0.937812  0.290631  0.145854  1
  F  F16  1  0.709369  0.062188  0.645854  1
  F  F17  1  0.062188  0.709369  0.854146  1
  F  F18  1  0.348545  0.348545  0.250000  1
  F  F19  1  0.651455  0.651455  0.750000  1
