# generated using pymatgen
data_NbSe2SN2ClF6
_symmetry_space_group_name_H-M   'P 1'
_cell_length_a   10.67769711
_cell_length_b   8.54365698
_cell_length_c   13.71642706
_cell_angle_alpha   90.00000000
_cell_angle_beta   119.24295782
_cell_angle_gamma   90.00000000
_symmetry_Int_Tables_number   1
_chemical_formula_structural   NbSe2SN2ClF6
_chemical_formula_sum   'Nb4 Se8 S4 N8 Cl4 F24'
_cell_volume   1091.83179313
_cell_formula_units_Z   4
loop_
 _symmetry_equiv_pos_site_id
 _symmetry_equiv_pos_as_xyz
  1  'x, y, z'
loop_
 _atom_site_type_symbol
 _atom_site_label
 _atom_site_symmetry_multiplicity
 _atom_site_fract_x
 _atom_site_fract_y
 _atom_site_fract_z
 _atom_site_occupancy
  Nb  Nb0  1  0.764961  0.191110  0.677892  1
  Nb  Nb1  1  0.235039  0.808890  0.322108  1
  Nb  Nb2  1  0.235039  0.691110  0.822108  1
  Nb  Nb3  1  0.764961  0.308890  0.177892  1
  Se  Se4  1  0.301621  0.176835  0.022650  1
  Se  Se5  1  0.319170  0.095809  0.635977  1
  Se  Se6  1  0.680830  0.595809  0.864023  1
  Se  Se7  1  0.698379  0.676835  0.477350  1
  Se  Se8  1  0.301621  0.323165  0.522650  1
  Se  Se9  1  0.680830  0.904191  0.364023  1
  Se  Se10  1  0.319170  0.404191  0.135977  1
  Se  Se11  1  0.698379  0.823165  0.977350  1
  S  S12  1  0.050994  0.229318  0.049954  1
  S  S13  1  0.949006  0.729318  0.450046  1
  S  S14  1  0.050994  0.270682  0.549954  1
  S  S15  1  0.949006  0.770682  0.950046  1
  N  N16  1  0.140096  0.118289  0.610990  1
  N  N17  1  0.870638  0.624095  0.496032  1
  N  N18  1  0.859904  0.881711  0.389010  1
  N  N19  1  0.140096  0.381711  0.110990  1
  N  N20  1  0.870638  0.875905  0.996032  1
  N  N21  1  0.859904  0.618289  0.889010  1
  N  N22  1  0.129362  0.375905  0.503968  1
  N  N23  1  0.129362  0.124095  0.003968  1
  Cl  Cl24  1  0.547474  0.812292  0.186965  1
  Cl  Cl25  1  0.547474  0.687708  0.686965  1
  Cl  Cl26  1  0.452526  0.312292  0.313035  1
  Cl  Cl27  1  0.452526  0.187708  0.813035  1
  F  F28  1  0.445295  0.653294  0.897640  1
  F  F29  1  0.034021  0.763356  0.251313  1
  F  F30  1  0.205464  0.489418  0.751667  1
  F  F31  1  0.205464  0.010582  0.251667  1
  F  F32  1  0.752928  0.285189  0.801485  1
  F  F33  1  0.225196  0.594383  0.947168  1
  F  F34  1  0.247072  0.714811  0.198515  1
  F  F35  1  0.774804  0.094383  0.552832  1
  F  F36  1  0.719288  0.390821  0.600124  1
  F  F37  1  0.554705  0.153294  0.602360  1
  F  F38  1  0.280712  0.609179  0.399876  1
  F  F39  1  0.034021  0.736644  0.751313  1
  F  F40  1  0.554705  0.346706  0.102360  1
  F  F41  1  0.794536  0.989418  0.748333  1
  F  F42  1  0.719288  0.109179  0.100124  1
  F  F43  1  0.247072  0.785189  0.698515  1
  F  F44  1  0.965979  0.236644  0.748687  1
  F  F45  1  0.445295  0.846706  0.397640  1
  F  F46  1  0.794536  0.510582  0.248333  1
  F  F47  1  0.225196  0.905617  0.447168  1
  F  F48  1  0.280712  0.890821  0.899876  1
  F  F49  1  0.965979  0.263356  0.248687  1
  F  F50  1  0.774804  0.405617  0.052832  1
  F  F51  1  0.752928  0.214811  0.301485  1
