# generated using pymatgen
data_Ce4Al23Ni6
_symmetry_space_group_name_H-M   'P 1'
_cell_length_a   8.25974508
_cell_length_b   8.25974508
_cell_length_c   18.31018856
_cell_angle_alpha   67.52734122
_cell_angle_beta   112.47265878
_cell_angle_gamma   151.15134164
_symmetry_Int_Tables_number   1
_chemical_formula_structural   Ce4Al23Ni6
_chemical_formula_sum   'Ce4 Al23 Ni6'
_cell_volume   553.79668236
_cell_formula_units_Z   1
loop_
 _symmetry_equiv_pos_site_id
 _symmetry_equiv_pos_as_xyz
  1  'x, y, z'
loop_
 _atom_site_type_symbol
 _atom_site_label
 _atom_site_symmetry_multiplicity
 _atom_site_fract_x
 _atom_site_fract_y
 _atom_site_fract_z
 _atom_site_occupancy
  Ce  Ce0  1  0.734873  0.265127  0.282251  1
  Ce  Ce1  1  0.570235  0.429765  0.907302  1
  Ce  Ce2  1  0.429765  0.570235  0.092698  1
  Ce  Ce3  1  0.265127  0.734873  0.717749  1
  Al  Al4  1  0.857284  0.142716  0.642428  1
  Al  Al5  1  0.431522  0.568478  0.560623  1
  Al  Al6  1  0.917851  0.082149  0.813201  1
  Al  Al7  1  0.468132  0.531868  0.719174  1
  Al  Al8  1  0.744147  0.255853  0.453919  1
  Al  Al9  1  0.202895  0.797105  0.021555  1
  Al  Al10  1  0.910994  0.089006  0.221749  1
  Al  Al11  1  0.082149  0.917851  0.186799  1
  Al  Al12  1  0.376858  0.623142  0.904059  1
  Al  Al13  1  0.391667  0.608333  0.339246  1
  Al  Al14  1  0.568478  0.431522  0.439377  1
  Al  Al15  1  0.723229  0.276771  0.822587  1
  Al  Al16  1  0.255853  0.744147  0.546081  1
  Al  Al17  1  0.531868  0.468132  0.280826  1
  Al  Al18  1  0.000000  0.000000  0.000000  1
  Al  Al19  1  0.089006  0.910994  0.778251  1
  Al  Al20  1  0.623142  0.376858  0.095941  1
  Al  Al21  1  0.276771  0.723229  0.177413  1
  Al  Al22  1  0.797105  0.202895  0.978445  1
  Al  Al23  1  0.090152  0.909848  0.547693  1
  Al  Al24  1  0.909848  0.090152  0.452307  1
  Al  Al25  1  0.142716  0.857284  0.357572  1
  Al  Al26  1  0.608333  0.391667  0.660754  1
  Ni  Ni27  1  0.992371  0.007629  0.366671  1
  Ni  Ni28  1  0.226009  0.773991  0.897506  1
  Ni  Ni29  1  0.690455  0.309545  0.567661  1
  Ni  Ni30  1  0.773991  0.226009  0.102494  1
  Ni  Ni31  1  0.309545  0.690455  0.432339  1
  Ni  Ni32  1  0.007629  0.992371  0.633329  1
