# generated using pymatgen
data_SrLiFeF6
_symmetry_space_group_name_H-M   'P 1'
_cell_length_a   5.37315137
_cell_length_b   8.92291132
_cell_length_c   10.38543547
_cell_angle_alpha   90.00000000
_cell_angle_beta   92.17244722
_cell_angle_gamma   90.00000000
_symmetry_Int_Tables_number   1
_chemical_formula_structural   SrLiFeF6
_chemical_formula_sum   'Sr4 Li4 Fe4 F24'
_cell_volume   497.56303398
_cell_formula_units_Z   4
loop_
 _symmetry_equiv_pos_site_id
 _symmetry_equiv_pos_as_xyz
  1  'x, y, z'
loop_
 _atom_site_type_symbol
 _atom_site_label
 _atom_site_symmetry_multiplicity
 _atom_site_fract_x
 _atom_site_fract_y
 _atom_site_fract_z
 _atom_site_occupancy
  Sr  Sr0  1  0.753925  0.708375  0.503366  1
  Sr  Sr1  1  0.246075  0.208375  0.996634  1
  Sr  Sr2  1  0.753925  0.791625  0.003366  1
  Sr  Sr3  1  0.246075  0.291625  0.496634  1
  Li  Li4  1  0.713024  0.078779  0.260044  1
  Li  Li5  1  0.286976  0.578779  0.239956  1
  Li  Li6  1  0.286976  0.921221  0.739956  1
  Li  Li7  1  0.713024  0.421221  0.760044  1
  Fe  Fe8  1  0.216713  0.915303  0.259404  1
  Fe  Fe9  1  0.783287  0.415303  0.240596  1
  Fe  Fe10  1  0.216713  0.584697  0.759404  1
  Fe  Fe11  1  0.783287  0.084697  0.740596  1
  F  F12  1  0.607020  0.265052  0.139013  1
  F  F13  1  0.882975  0.255608  0.851087  1
  F  F14  1  0.084476  0.092995  0.642385  1
  F  F15  1  0.117025  0.744392  0.148913  1
  F  F16  1  0.492067  0.951667  0.140331  1
  F  F17  1  0.374519  0.418893  0.853836  1
  F  F18  1  0.625481  0.918893  0.646164  1
  F  F19  1  0.374519  0.081107  0.353836  1
  F  F20  1  0.507933  0.048333  0.859669  1
  F  F21  1  0.006380  0.038461  0.138846  1
  F  F22  1  0.084476  0.407005  0.142385  1
  F  F23  1  0.117025  0.755608  0.648913  1
  F  F24  1  0.915524  0.907005  0.357615  1
  F  F25  1  0.006380  0.461539  0.638846  1
  F  F26  1  0.625481  0.581107  0.146164  1
  F  F27  1  0.993620  0.961539  0.861154  1
  F  F28  1  0.392980  0.765052  0.360987  1
  F  F29  1  0.915524  0.592995  0.857615  1
  F  F30  1  0.993620  0.538461  0.361154  1
  F  F31  1  0.492067  0.548333  0.640331  1
  F  F32  1  0.607020  0.234948  0.639013  1
  F  F33  1  0.507933  0.451667  0.359669  1
  F  F34  1  0.882975  0.244392  0.351087  1
  F  F35  1  0.392980  0.734948  0.860987  1
