# generated using pymatgen
data_Rh2O3
_symmetry_space_group_name_H-M   'P 1'
_cell_length_a   5.57731695
_cell_length_b   5.57731695
_cell_length_c   5.57731695
_cell_angle_alpha   55.69034121
_cell_angle_beta   55.69034121
_cell_angle_gamma   55.69034121
_symmetry_Int_Tables_number   1
_chemical_formula_structural   Rh2O3
_chemical_formula_sum   'Rh4 O6'
_cell_volume   110.41122311
_cell_formula_units_Z   2
loop_
 _symmetry_equiv_pos_site_id
 _symmetry_equiv_pos_as_xyz
  1  'x, y, z'
loop_
 _atom_site_type_symbol
 _atom_site_label
 _atom_site_symmetry_multiplicity
 _atom_site_fract_x
 _atom_site_fract_y
 _atom_site_fract_z
 _atom_site_occupancy
  Rh  Rh0  1  0.650565  0.650565  0.650565  1
  Rh  Rh1  1  0.849435  0.849435  0.849435  1
  Rh  Rh2  1  0.349435  0.349435  0.349435  1
  Rh  Rh3  1  0.150565  0.150565  0.150565  1
  O  O4  1  0.049597  0.750000  0.450403  1
  O  O5  1  0.450403  0.049597  0.750000  1
  O  O6  1  0.750000  0.450403  0.049597  1
  O  O7  1  0.950403  0.250000  0.549597  1
  O  O8  1  0.549597  0.950403  0.250000  1
  O  O9  1  0.250000  0.549597  0.950403  1
