# generated using pymatgen
data_CsYSeCl2O3
_symmetry_space_group_name_H-M   'P 1'
_cell_length_a   6.71676582
_cell_length_b   7.08253442
_cell_length_c   18.17809416
_cell_angle_alpha   90.00000000
_cell_angle_beta   103.19522743
_cell_angle_gamma   90.00000000
_symmetry_Int_Tables_number   1
_chemical_formula_structural   CsYSeCl2O3
_chemical_formula_sum   'Cs4 Y4 Se4 Cl8 O12'
_cell_volume   841.93174926
_cell_formula_units_Z   4
loop_
 _symmetry_equiv_pos_site_id
 _symmetry_equiv_pos_as_xyz
  1  'x, y, z'
loop_
 _atom_site_type_symbol
 _atom_site_label
 _atom_site_symmetry_multiplicity
 _atom_site_fract_x
 _atom_site_fract_y
 _atom_site_fract_z
 _atom_site_occupancy
  Cs  Cs0  1  0.756332  0.207375  0.945124  1
  Cs  Cs1  1  0.756332  0.292625  0.445124  1
  Cs  Cs2  1  0.243668  0.707375  0.554876  1
  Cs  Cs3  1  0.243668  0.792625  0.054876  1
  Y  Y4  1  0.140192  0.325826  0.257659  1
  Y  Y5  1  0.859808  0.674174  0.742341  1
  Y  Y6  1  0.859808  0.825826  0.242341  1
  Y  Y7  1  0.140192  0.174174  0.757659  1
  Se  Se8  1  0.361552  0.821095  0.292720  1
  Se  Se9  1  0.638448  0.178905  0.707280  1
  Se  Se10  1  0.361552  0.678905  0.792720  1
  Se  Se11  1  0.638448  0.321095  0.207280  1
  Cl  Cl12  1  0.126191  0.184331  0.610273  1
  Cl  Cl13  1  0.231991  0.154637  0.908419  1
  Cl  Cl14  1  0.873809  0.684331  0.889727  1
  Cl  Cl15  1  0.768009  0.654637  0.591581  1
  Cl  Cl16  1  0.126191  0.315669  0.110273  1
  Cl  Cl17  1  0.768009  0.845363  0.091581  1
  Cl  Cl18  1  0.231991  0.345363  0.408419  1
  Cl  Cl19  1  0.873809  0.815669  0.389727  1
  O  O20  1  0.177259  0.849215  0.756066  1
  O  O21  1  0.817409  0.501215  0.234764  1
  O  O22  1  0.817409  0.998785  0.734764  1
  O  O23  1  0.182591  0.001215  0.265236  1
  O  O24  1  0.822741  0.150785  0.243934  1
  O  O25  1  0.182591  0.498785  0.765236  1
  O  O26  1  0.506715  0.829833  0.227486  1
  O  O27  1  0.506715  0.670167  0.727486  1
  O  O28  1  0.493285  0.329833  0.272514  1
  O  O29  1  0.177259  0.650785  0.256066  1
  O  O30  1  0.822741  0.349215  0.743934  1
  O  O31  1  0.493285  0.170167  0.772514  1
