# generated using pymatgen
data_RbIn3F10
_symmetry_space_group_name_H-M   'P 1'
_cell_length_a   6.94652434
_cell_length_b   7.90996135
_cell_length_c   8.42010646
_cell_angle_alpha   90.00000000
_cell_angle_beta   90.00000000
_cell_angle_gamma   90.00000000
_symmetry_Int_Tables_number   1
_chemical_formula_structural   RbIn3F10
_chemical_formula_sum   'Rb2 In6 F20'
_cell_volume   462.65739240
_cell_formula_units_Z   2
loop_
 _symmetry_equiv_pos_site_id
 _symmetry_equiv_pos_as_xyz
  1  'x, y, z'
loop_
 _atom_site_type_symbol
 _atom_site_label
 _atom_site_symmetry_multiplicity
 _atom_site_fract_x
 _atom_site_fract_y
 _atom_site_fract_z
 _atom_site_occupancy
  Rb  Rb0  1  0.990681  0.500000  0.500000  1
  Rb  Rb1  1  0.009319  0.500000  0.000000  1
  In  In2  1  0.500000  0.276505  0.750000  1
  In  In3  1  0.500000  0.735432  0.750000  1
  In  In4  1  0.500000  0.723495  0.250000  1
  In  In5  1  0.500000  0.264568  0.250000  1
  In  In6  1  0.000000  0.005001  0.750000  1
  In  In7  1  0.000000  0.994999  0.250000  1
  F  F8  1  0.195719  0.804345  0.768851  1
  F  F9  1  0.194127  0.207679  0.759415  1
  F  F10  1  0.971343  0.000000  0.000000  1
  F  F11  1  0.804281  0.804345  0.731149  1
  F  F12  1  0.804281  0.195655  0.268851  1
  F  F13  1  0.500000  0.005496  0.750000  1
  F  F14  1  0.678961  0.505561  0.760825  1
  F  F15  1  0.805873  0.792321  0.259415  1
  F  F16  1  0.499519  0.278024  0.500072  1
  F  F17  1  0.500481  0.721976  0.000072  1
  F  F18  1  0.194127  0.792321  0.240585  1
  F  F19  1  0.499519  0.721976  0.499928  1
  F  F20  1  0.805873  0.207679  0.740585  1
  F  F21  1  0.195719  0.195655  0.231149  1
  F  F22  1  0.321039  0.505561  0.739175  1
  F  F23  1  0.500481  0.278024  0.999928  1
  F  F24  1  0.500000  0.994504  0.250000  1
  F  F25  1  0.678961  0.494439  0.239175  1
  F  F26  1  0.321039  0.494439  0.260825  1
  F  F27  1  0.028657  0.000000  0.500000  1
