# generated using pymatgen
data_Cs(Zr3I7)2
_symmetry_space_group_name_H-M   'P 1'
_cell_length_a   11.12239094
_cell_length_b   11.12239094
_cell_length_c   13.35780933
_cell_angle_alpha   90.00000000
_cell_angle_beta   90.00000000
_cell_angle_gamma   93.46343374
_symmetry_Int_Tables_number   1
_chemical_formula_structural   Cs(Zr3I7)2
_chemical_formula_sum   'Cs2 Zr12 I28'
_cell_volume   1649.44413951
_cell_formula_units_Z   2
loop_
 _symmetry_equiv_pos_site_id
 _symmetry_equiv_pos_as_xyz
  1  'x, y, z'
loop_
 _atom_site_type_symbol
 _atom_site_label
 _atom_site_symmetry_multiplicity
 _atom_site_fract_x
 _atom_site_fract_y
 _atom_site_fract_z
 _atom_site_occupancy
  Cs  Cs0  1  0.000000  0.000000  0.000000  1
  Cs  Cs1  1  0.500000  0.500000  0.500000  1
  Zr  Zr2  1  0.678717  0.451991  0.885150  1
  Zr  Zr3  1  0.821283  0.048009  0.385150  1
  Zr  Zr4  1  0.951991  0.178717  0.614850  1
  Zr  Zr5  1  0.548009  0.321283  0.114850  1
  Zr  Zr6  1  0.321283  0.548009  0.114850  1
  Zr  Zr7  1  0.178717  0.951991  0.614850  1
  Zr  Zr8  1  0.048009  0.821283  0.385150  1
  Zr  Zr9  1  0.451991  0.678717  0.885150  1
  Zr  Zr10  1  0.394282  0.394282  0.922266  1
  Zr  Zr11  1  0.105718  0.105718  0.422266  1
  Zr  Zr12  1  0.894282  0.894282  0.577734  1
  Zr  Zr13  1  0.605718  0.605718  0.077734  1
  I  I14  1  0.967330  0.209079  0.260130  1
  I  I15  1  0.532670  0.290921  0.760130  1
  I  I16  1  0.709079  0.467330  0.239870  1
  I  I17  1  0.790921  0.032670  0.739870  1
  I  I18  1  0.032670  0.790921  0.739870  1
  I  I19  1  0.467330  0.709079  0.239870  1
  I  I20  1  0.290921  0.532670  0.760130  1
  I  I21  1  0.209079  0.967330  0.260130  1
  I  I22  1  0.150294  0.393483  0.006007  1
  I  I23  1  0.349706  0.106517  0.506007  1
  I  I24  1  0.893483  0.650294  0.493993  1
  I  I25  1  0.606517  0.849706  0.993993  1
  I  I26  1  0.849706  0.606517  0.993993  1
  I  I27  1  0.650294  0.893483  0.493993  1
  I  I28  1  0.106517  0.349706  0.506007  1
  I  I29  1  0.393483  0.150294  0.006007  1
  I  I30  1  0.105497  0.605497  0.250000  1
  I  I31  1  0.394503  0.894503  0.750000  1
  I  I32  1  0.894503  0.394503  0.750000  1
  I  I33  1  0.605497  0.105497  0.250000  1
  I  I34  1  0.150794  0.150794  0.758541  1
  I  I35  1  0.349206  0.349206  0.258541  1
  I  I36  1  0.650794  0.650794  0.741459  1
  I  I37  1  0.849206  0.849206  0.241459  1
  I  I38  1  0.754693  0.245307  0.000000  1
  I  I39  1  0.745307  0.254693  0.500000  1
  I  I40  1  0.245307  0.754693  1.000000  1
  I  I41  1  0.254693  0.745307  0.500000  1
