# generated using pymatgen
data_Rb2Mo9Se10
_symmetry_space_group_name_H-M   'P 1'
_cell_length_a   14.05112112
_cell_length_b   14.05112112
_cell_length_c   14.05112112
_cell_angle_alpha   40.50861419
_cell_angle_beta   40.50861419
_cell_angle_gamma   40.50861419
_symmetry_Int_Tables_number   1
_chemical_formula_structural   Rb2Mo9Se10
_chemical_formula_sum   'Rb4 Mo18 Se20'
_cell_volume   1055.69702913
_cell_formula_units_Z   2
loop_
 _symmetry_equiv_pos_site_id
 _symmetry_equiv_pos_as_xyz
  1  'x, y, z'
loop_
 _atom_site_type_symbol
 _atom_site_label
 _atom_site_symmetry_multiplicity
 _atom_site_fract_x
 _atom_site_fract_y
 _atom_site_fract_z
 _atom_site_occupancy
  Rb  Rb0  1  0.704793  0.704793  0.704793  1
  Rb  Rb1  1  0.295207  0.295207  0.295207  1
  Rb  Rb2  1  0.576374  0.576374  0.576374  1
  Rb  Rb3  1  0.423626  0.423626  0.423626  1
  Mo  Mo4  1  0.685924  0.873684  0.998669  1
  Mo  Mo5  1  0.998669  0.685924  0.873684  1
  Mo  Mo6  1  0.873684  0.998669  0.685924  1
  Mo  Mo7  1  0.314076  0.126316  0.001331  1
  Mo  Mo8  1  0.001331  0.314076  0.126316  1
  Mo  Mo9  1  0.126316  0.001331  0.314076  1
  Mo  Mo10  1  0.079451  0.895682  0.761974  1
  Mo  Mo11  1  0.761974  0.079451  0.895682  1
  Mo  Mo12  1  0.895682  0.761974  0.079451  1
  Mo  Mo13  1  0.920549  0.104318  0.238026  1
  Mo  Mo14  1  0.238026  0.920549  0.104318  1
  Mo  Mo15  1  0.104318  0.238026  0.920549  1
  Mo  Mo16  1  0.196426  0.010864  0.881759  1
  Mo  Mo17  1  0.881759  0.196426  0.010864  1
  Mo  Mo18  1  0.010864  0.881759  0.196426  1
  Mo  Mo19  1  0.803574  0.989136  0.118241  1
  Mo  Mo20  1  0.118241  0.803574  0.989136  1
  Mo  Mo21  1  0.989136  0.118241  0.803574  1
  Se  Se22  1  0.800344  0.800344  0.800344  1
  Se  Se23  1  0.199656  0.199656  0.199656  1
  Se  Se24  1  0.186517  0.817601  0.566799  1
  Se  Se25  1  0.566799  0.186517  0.817601  1
  Se  Se26  1  0.817601  0.566799  0.186517  1
  Se  Se27  1  0.813483  0.182399  0.433201  1
  Se  Se28  1  0.433201  0.813483  0.182399  1
  Se  Se29  1  0.182399  0.433201  0.813483  1
  Se  Se30  1  0.414530  0.054419  0.796944  1
  Se  Se31  1  0.796944  0.414530  0.054419  1
  Se  Se32  1  0.054419  0.796944  0.414530  1
  Se  Se33  1  0.585470  0.945581  0.203056  1
  Se  Se34  1  0.203056  0.585470  0.945581  1
  Se  Se35  1  0.945581  0.203056  0.585470  1
  Se  Se36  1  0.068122  0.320939  0.697342  1
  Se  Se37  1  0.697342  0.068122  0.320939  1
  Se  Se38  1  0.320939  0.697342  0.068122  1
  Se  Se39  1  0.931878  0.679061  0.302658  1
  Se  Se40  1  0.302658  0.931878  0.679061  1
  Se  Se41  1  0.679061  0.302658  0.931878  1
