# generated using pymatgen
data_LiCrPO4
_symmetry_space_group_name_H-M   'P 1'
_cell_length_a   5.99378565
_cell_length_b   6.50310468
_cell_length_c   9.71504428
_cell_angle_alpha   109.54515206
_cell_angle_beta   92.77376158
_cell_angle_gamma   98.83385697
_symmetry_Int_Tables_number   1
_chemical_formula_structural   LiCrPO4
_chemical_formula_sum   'Li4 Cr4 P4 O16'
_cell_volume   350.59231601
_cell_formula_units_Z   4
loop_
 _symmetry_equiv_pos_site_id
 _symmetry_equiv_pos_as_xyz
  1  'x, y, z'
loop_
 _atom_site_type_symbol
 _atom_site_label
 _atom_site_symmetry_multiplicity
 _atom_site_fract_x
 _atom_site_fract_y
 _atom_site_fract_z
 _atom_site_occupancy
  Li  Li0  1  0.418146  0.360704  0.675575  1
  Li  Li1  1  0.410020  0.832435  0.705515  1
  Li  Li2  1  0.581854  0.639296  0.324425  1
  Li  Li3  1  0.589980  0.167565  0.294485  1
  Cr  Cr4  1  0.793788  0.361987  0.927504  1
  Cr  Cr5  1  0.014936  0.900813  0.276173  1
  Cr  Cr6  1  0.206212  0.638013  0.072496  1
  Cr  Cr7  1  0.985064  0.099187  0.723827  1
  P  P8  1  0.708234  0.816307  0.986272  1
  P  P9  1  0.291766  0.183693  0.013728  1
  P  P10  1  0.845503  0.726784  0.610988  1
  P  P11  1  0.154497  0.273216  0.389012  1
  O  O12  1  0.096176  0.741373  0.669647  1
  O  O13  1  0.206867  0.941166  0.104944  1
  O  O14  1  0.730402  0.793478  0.151631  1
  O  O15  1  0.286150  0.499796  0.308002  1
  O  O16  1  0.864956  0.664344  0.961634  1
  O  O17  1  0.135044  0.335656  0.038366  1
  O  O18  1  0.190735  0.247832  0.556616  1
  O  O19  1  0.269598  0.206522  0.848369  1
  O  O20  1  0.713850  0.500204  0.691998  1
  O  O21  1  0.793133  0.058834  0.895056  1
  O  O22  1  0.536728  0.240989  0.073990  1
  O  O23  1  0.463272  0.759011  0.926010  1
  O  O24  1  0.809265  0.752168  0.443384  1
  O  O25  1  0.271232  0.088036  0.365119  1
  O  O26  1  0.728768  0.911964  0.634881  1
  O  O27  1  0.903824  0.258627  0.330353  1
