# generated using pymatgen
data_KSrB5O9
_symmetry_space_group_name_H-M   'P 1'
_cell_length_a   6.74487518
_cell_length_b   8.07329691
_cell_length_c   14.39827761
_cell_angle_alpha   90.00000000
_cell_angle_beta   93.05959969
_cell_angle_gamma   90.00000000
_symmetry_Int_Tables_number   1
_chemical_formula_structural   KSrB5O9
_chemical_formula_sum   'K4 Sr4 B20 O36'
_cell_volume   782.91728234
_cell_formula_units_Z   4
loop_
 _symmetry_equiv_pos_site_id
 _symmetry_equiv_pos_as_xyz
  1  'x, y, z'
loop_
 _atom_site_type_symbol
 _atom_site_label
 _atom_site_symmetry_multiplicity
 _atom_site_fract_x
 _atom_site_fract_y
 _atom_site_fract_z
 _atom_site_occupancy
  K  K0  1  0.501334  0.655100  0.900663  1
  K  K1  1  0.498666  0.155100  0.599337  1
  K  K2  1  0.501334  0.844900  0.400663  1
  K  K3  1  0.498666  0.344900  0.099337  1
  Sr  Sr4  1  0.922550  0.483590  0.739755  1
  Sr  Sr5  1  0.077450  0.983590  0.760245  1
  Sr  Sr6  1  0.077450  0.516410  0.260245  1
  Sr  Sr7  1  0.922550  0.016410  0.239755  1
  B  B8  1  0.060928  0.715958  0.938480  1
  B  B9  1  0.615775  0.006523  0.806192  1
  B  B10  1  0.535568  0.783837  0.672738  1
  B  B11  1  0.939072  0.284042  0.061520  1
  B  B12  1  0.192496  0.778679  0.103285  1
  B  B13  1  0.615775  0.493477  0.306192  1
  B  B14  1  0.167344  0.197565  0.434767  1
  B  B15  1  0.384225  0.506523  0.693808  1
  B  B16  1  0.167344  0.302435  0.934767  1
  B  B17  1  0.192496  0.721321  0.603285  1
  B  B18  1  0.807504  0.221321  0.896715  1
  B  B19  1  0.464432  0.216163  0.327262  1
  B  B20  1  0.939072  0.215958  0.561520  1
  B  B21  1  0.464432  0.283837  0.827262  1
  B  B22  1  0.832656  0.697565  0.065233  1
  B  B23  1  0.832656  0.802435  0.565233  1
  B  B24  1  0.807504  0.278679  0.396715  1
  B  B25  1  0.060928  0.784042  0.438480  1
  B  B26  1  0.535568  0.716163  0.172738  1
  B  B27  1  0.384225  0.993477  0.193808  1
  O  O28  1  0.444327  0.398822  0.302838  1
  O  O29  1  0.910065  0.296384  0.153003  1
  O  O30  1  0.982561  0.762959  0.630737  1
  O  O31  1  0.221543  0.548106  0.636583  1
  O  O32  1  0.126635  0.325515  0.027275  1
  O  O33  1  0.126635  0.174485  0.527275  1
  O  O34  1  0.221543  0.951894  0.136583  1
  O  O35  1  0.208219  0.767701  0.002915  1
  O  O36  1  0.639859  0.821407  0.586870  1
  O  O37  1  0.910065  0.203616  0.653003  1
  O  O38  1  0.328015  0.831938  0.657563  1
  O  O39  1  0.791781  0.232299  0.997085  1
  O  O40  1  0.089935  0.703616  0.846997  1
  O  O41  1  0.208219  0.732299  0.502915  1
  O  O42  1  0.873365  0.825515  0.472725  1
  O  O43  1  0.639859  0.678593  0.086870  1
  O  O44  1  0.017439  0.237041  0.369263  1
  O  O45  1  0.671985  0.331938  0.842437  1
  O  O46  1  0.555673  0.898822  0.197162  1
  O  O47  1  0.089935  0.796384  0.346997  1
  O  O48  1  0.360141  0.178593  0.413130  1
  O  O49  1  0.873365  0.674485  0.972725  1
  O  O50  1  0.360141  0.321407  0.913130  1
  O  O51  1  0.328015  0.668062  0.157563  1
  O  O52  1  0.555673  0.601178  0.697162  1
  O  O53  1  0.638026  0.868214  0.752890  1
  O  O54  1  0.778457  0.048106  0.863417  1
  O  O55  1  0.444327  0.101178  0.802838  1
  O  O56  1  0.361974  0.131786  0.247110  1
  O  O57  1  0.638026  0.631786  0.252890  1
  O  O58  1  0.361974  0.368214  0.747110  1
  O  O59  1  0.982561  0.737041  0.130737  1
  O  O60  1  0.791781  0.267701  0.497085  1
  O  O61  1  0.671985  0.168062  0.342437  1
  O  O62  1  0.017439  0.262959  0.869263  1
  O  O63  1  0.778457  0.451894  0.363417  1
