# generated using pymatgen
data_MoF6
_symmetry_space_group_name_H-M   'P 1'
_cell_length_a   5.21108620
_cell_length_b   9.01094829
_cell_length_c   10.07757284
_cell_angle_alpha   90.00000000
_cell_angle_beta   90.00000000
_cell_angle_gamma   90.00000000
_symmetry_Int_Tables_number   1
_chemical_formula_structural   MoF6
_chemical_formula_sum   'Mo4 F24'
_cell_volume   473.21085736
_cell_formula_units_Z   4
loop_
 _symmetry_equiv_pos_site_id
 _symmetry_equiv_pos_as_xyz
  1  'x, y, z'
loop_
 _atom_site_type_symbol
 _atom_site_label
 _atom_site_symmetry_multiplicity
 _atom_site_fract_x
 _atom_site_fract_y
 _atom_site_fract_z
 _atom_site_occupancy
  Mo  Mo0  1  0.068170  0.250000  0.866073  1
  Mo  Mo1  1  0.568170  0.750000  0.633927  1
  Mo  Mo2  1  0.931830  0.750000  0.133927  1
  Mo  Mo3  1  0.431830  0.250000  0.366073  1
  F  F4  1  0.199866  0.750000  0.010933  1
  F  F5  1  0.399490  0.896860  0.731324  1
  F  F6  1  0.100510  0.603140  0.231324  1
  F  F7  1  0.300134  0.750000  0.510933  1
  F  F8  1  0.665097  0.750000  0.258016  1
  F  F9  1  0.899490  0.396860  0.768676  1
  F  F10  1  0.165097  0.250000  0.241984  1
  F  F11  1  0.399490  0.603140  0.731324  1
  F  F12  1  0.834903  0.750000  0.758016  1
  F  F13  1  0.262058  0.103840  0.463903  1
  F  F14  1  0.600510  0.396860  0.268676  1
  F  F15  1  0.737942  0.896160  0.536097  1
  F  F16  1  0.334903  0.250000  0.741984  1
  F  F17  1  0.100510  0.896860  0.231324  1
  F  F18  1  0.262058  0.396160  0.463903  1
  F  F19  1  0.237942  0.103840  0.963903  1
  F  F20  1  0.699866  0.250000  0.489067  1
  F  F21  1  0.800134  0.250000  0.989067  1
  F  F22  1  0.899490  0.103140  0.768676  1
  F  F23  1  0.237942  0.396160  0.963903  1
  F  F24  1  0.762058  0.603840  0.036097  1
  F  F25  1  0.762058  0.896160  0.036097  1
  F  F26  1  0.737942  0.603840  0.536097  1
  F  F27  1  0.600510  0.103140  0.268676  1
