# generated using pymatgen
data_RbSO4F
_symmetry_space_group_name_H-M   'P 1'
_cell_length_a   5.63341485
_cell_length_b   5.75800070
_cell_length_c   7.75016290
_cell_angle_alpha   100.35722707
_cell_angle_beta   106.56821005
_cell_angle_gamma   93.93246696
_symmetry_Int_Tables_number   1
_chemical_formula_structural   RbSO4F
_chemical_formula_sum   'Rb2 S2 O8 F2'
_cell_volume   235.10722017
_cell_formula_units_Z   2
loop_
 _symmetry_equiv_pos_site_id
 _symmetry_equiv_pos_as_xyz
  1  'x, y, z'
loop_
 _atom_site_type_symbol
 _atom_site_label
 _atom_site_symmetry_multiplicity
 _atom_site_fract_x
 _atom_site_fract_y
 _atom_site_fract_z
 _atom_site_occupancy
  Rb  Rb0  1  0.109545  0.335476  0.241204  1
  Rb  Rb1  1  0.890455  0.664524  0.758796  1
  S  S2  1  0.383570  0.224381  0.788000  1
  S  S3  1  0.616430  0.775619  0.212000  1
  O  O4  1  0.174663  0.183360  0.858366  1
  O  O5  1  0.658987  0.626399  0.347957  1
  O  O6  1  0.367174  0.733059  0.078880  1
  O  O7  1  0.341013  0.373601  0.652043  1
  O  O8  1  0.566561  0.042911  0.314340  1
  O  O9  1  0.433439  0.957089  0.685660  1
  O  O10  1  0.825337  0.816640  0.141634  1
  O  O11  1  0.632826  0.266941  0.921120  1
  F  F12  1  0.794264  0.147295  0.473692  1
  F  F13  1  0.205736  0.852705  0.526308  1
