# generated using pymatgen
data_Yb2In13Pd6
_symmetry_space_group_name_H-M   'P 1'
_cell_length_a   8.82081528
_cell_length_b   8.82081528
_cell_length_c   13.63060919
_cell_angle_alpha   62.50901749
_cell_angle_beta   117.49098251
_cell_angle_gamma   150.84966236
_symmetry_Int_Tables_number   1
_chemical_formula_structural   Yb2In13Pd6
_chemical_formula_sum   'Yb2 In13 Pd6'
_cell_volume   454.05207132
_cell_formula_units_Z   1
loop_
 _symmetry_equiv_pos_site_id
 _symmetry_equiv_pos_as_xyz
  1  'x, y, z'
loop_
 _atom_site_type_symbol
 _atom_site_label
 _atom_site_symmetry_multiplicity
 _atom_site_fract_x
 _atom_site_fract_y
 _atom_site_fract_z
 _atom_site_occupancy
  Yb  Yb0  1  0.821634  0.178366  0.726441  1
  Yb  Yb1  1  0.178366  0.821634  0.273559  1
  In  In2  1  0.797696  0.202304  0.459903  1
  In  In3  1  0.000884  0.999116  0.671698  1
  In  In4  1  0.700672  0.299328  0.875754  1
  In  In5  1  0.511172  0.488828  0.172433  1
  In  In6  1  0.347207  0.652793  0.923693  1
  In  In7  1  0.202304  0.797696  0.540097  1
  In  In8  1  0.406874  0.593126  0.401192  1
  In  In9  1  0.999116  0.000884  0.328302  1
  In  In10  1  0.000000  0.000000  0.000000  1
  In  In11  1  0.652793  0.347207  0.076307  1
  In  In12  1  0.299328  0.700672  0.124246  1
  In  In13  1  0.593126  0.406874  0.598808  1
  In  In14  1  0.488828  0.511172  0.827567  1
  Pd  Pd15  1  0.818158  0.181842  0.264221  1
  Pd  Pd16  1  0.181842  0.818158  0.735779  1
  Pd  Pd17  1  0.116141  0.883859  0.917634  1
  Pd  Pd18  1  0.387070  0.612930  0.595917  1
  Pd  Pd19  1  0.612930  0.387070  0.404083  1
  Pd  Pd20  1  0.883859  0.116141  0.082366  1
