# generated using pymatgen
data_V2Cd(PO5)2
_symmetry_space_group_name_H-M   'P 1'
_cell_length_a   9.97730166
_cell_length_b   8.89397198
_cell_length_c   6.84780804
_cell_angle_alpha   77.45928712
_cell_angle_beta   60.47642759
_cell_angle_gamma   42.06428528
_symmetry_Int_Tables_number   1
_chemical_formula_structural   V2Cd(PO5)2
_chemical_formula_sum   'V4 Cd2 P4 O20'
_cell_volume   342.52950641
_cell_formula_units_Z   2
loop_
 _symmetry_equiv_pos_site_id
 _symmetry_equiv_pos_as_xyz
  1  'x, y, z'
loop_
 _atom_site_type_symbol
 _atom_site_label
 _atom_site_symmetry_multiplicity
 _atom_site_fract_x
 _atom_site_fract_y
 _atom_site_fract_z
 _atom_site_occupancy
  V  V0  1  0.093634  0.646083  0.635053  1
  V  V1  1  0.614947  0.624770  0.156366  1
  V  V2  1  0.625230  0.635053  0.646083  1
  V  V3  1  0.603917  0.156366  0.624770  1
  Cd  Cd4  1  0.999389  0.000611  0.000611  1
  Cd  Cd5  1  0.249389  0.250611  0.250611  1
  P  P6  1  0.202042  0.214626  0.797154  1
  P  P7  1  0.452846  0.463822  0.047958  1
  P  P8  1  0.786178  0.797154  0.214626  1
  P  P9  1  0.035374  0.047958  0.463822  1
  O  O10  1  0.344489  0.188898  0.867838  1
  O  O11  1  0.891100  0.079868  0.390066  1
  O  O12  1  0.859934  0.611034  0.358900  1
  O  O13  1  0.997359  0.696232  0.973680  1
  O  O14  1  0.690358  0.009141  0.335199  1
  O  O15  1  0.553768  0.252641  0.917271  1
  O  O16  1  0.823383  0.844394  0.672958  1
  O  O17  1  0.061102  0.905511  0.651224  1
  O  O18  1  0.659266  0.672958  0.844394  1
  O  O19  1  0.332729  0.973680  0.696232  1
  O  O20  1  0.276320  0.917271  0.252641  1
  O  O21  1  0.405606  0.426617  0.590734  1
  O  O22  1  0.598776  0.867838  0.188898  1
  O  O23  1  0.382162  0.651224  0.905511  1
  O  O24  1  0.914801  0.284698  0.559642  1
  O  O25  1  0.577042  0.590734  0.426617  1
  O  O26  1  0.638966  0.390066  0.079868  1
  O  O27  1  0.965302  0.335199  0.009141  1
  O  O28  1  0.170132  0.358900  0.611034  1
  O  O29  1  0.240859  0.559642  0.284698  1
