# generated using pymatgen
data_GdMnB4
_symmetry_space_group_name_H-M   'P 1'
_cell_length_a   3.42875635
_cell_length_b   5.93483301
_cell_length_c   11.47577916
_cell_angle_alpha   90.00000000
_cell_angle_beta   90.00000000
_cell_angle_gamma   90.00000000
_symmetry_Int_Tables_number   1
_chemical_formula_structural   GdMnB4
_chemical_formula_sum   'Gd4 Mn4 B16'
_cell_volume   233.52173604
_cell_formula_units_Z   4
loop_
 _symmetry_equiv_pos_site_id
 _symmetry_equiv_pos_as_xyz
  1  'x, y, z'
loop_
 _atom_site_type_symbol
 _atom_site_label
 _atom_site_symmetry_multiplicity
 _atom_site_fract_x
 _atom_site_fract_y
 _atom_site_fract_z
 _atom_site_occupancy
  Gd  Gd0  1  0.000000  0.874421  0.849655  1
  Gd  Gd1  1  0.000000  0.374421  0.650345  1
  Gd  Gd2  1  0.000000  0.125579  0.150345  1
  Gd  Gd3  1  0.000000  0.625579  0.349655  1
  Mn  Mn4  1  0.000000  0.372120  0.915873  1
  Mn  Mn5  1  0.000000  0.627880  0.084127  1
  Mn  Mn6  1  0.000000  0.127880  0.415873  1
  Mn  Mn7  1  0.000000  0.872120  0.584127  1
  B  B8  1  0.500000  0.719950  0.683516  1
  B  B9  1  0.500000  0.524346  0.809903  1
  B  B10  1  0.500000  0.780050  0.183516  1
  B  B11  1  0.500000  0.611588  0.954045  1
  B  B12  1  0.500000  0.024346  0.690097  1
  B  B13  1  0.500000  0.975654  0.309903  1
  B  B14  1  0.500000  0.475654  0.190097  1
  B  B15  1  0.500000  0.639137  0.532485  1
  B  B16  1  0.500000  0.360863  0.467515  1
  B  B17  1  0.500000  0.111588  0.545955  1
  B  B18  1  0.500000  0.139137  0.967515  1
  B  B19  1  0.500000  0.388412  0.045955  1
  B  B20  1  0.500000  0.860863  0.032485  1
  B  B21  1  0.500000  0.888412  0.454045  1
  B  B22  1  0.500000  0.219950  0.816484  1
  B  B23  1  0.500000  0.280050  0.316484  1
