# generated using pymatgen
data_Cs3AlAs2
_symmetry_space_group_name_H-M   'P 1'
_cell_length_a   11.64337074
_cell_length_b   8.98956854
_cell_length_c   19.76052096
_cell_angle_alpha   90.00000000
_cell_angle_beta   100.03297216
_cell_angle_gamma   90.00000000
_symmetry_Int_Tables_number   1
_chemical_formula_structural   Cs3AlAs2
_chemical_formula_sum   'Cs24 Al8 As16'
_cell_volume   2036.68226029
_cell_formula_units_Z   8
loop_
 _symmetry_equiv_pos_site_id
 _symmetry_equiv_pos_as_xyz
  1  'x, y, z'
loop_
 _atom_site_type_symbol
 _atom_site_label
 _atom_site_symmetry_multiplicity
 _atom_site_fract_x
 _atom_site_fract_y
 _atom_site_fract_z
 _atom_site_occupancy
  Cs  Cs0  1  0.624340  0.572516  0.389431  1
  Cs  Cs1  1  0.849247  0.974700  0.532069  1
  Cs  Cs2  1  0.081887  0.556226  0.742754  1
  Cs  Cs3  1  0.260407  0.589235  0.422065  1
  Cs  Cs4  1  0.918113  0.056226  0.757246  1
  Cs  Cs5  1  0.706826  0.383835  0.838972  1
  Cs  Cs6  1  0.739593  0.410765  0.577935  1
  Cs  Cs7  1  0.360889  0.254844  0.289245  1
  Cs  Cs8  1  0.639111  0.754844  0.210755  1
  Cs  Cs9  1  0.639111  0.745156  0.710755  1
  Cs  Cs10  1  0.849247  0.525300  0.032069  1
  Cs  Cs11  1  0.706826  0.116165  0.338972  1
  Cs  Cs12  1  0.081887  0.943774  0.242754  1
  Cs  Cs13  1  0.293174  0.616165  0.161028  1
  Cs  Cs14  1  0.293174  0.883835  0.661028  1
  Cs  Cs15  1  0.739593  0.089235  0.077935  1
  Cs  Cs16  1  0.375660  0.427484  0.610569  1
  Cs  Cs17  1  0.375660  0.072516  0.110569  1
  Cs  Cs18  1  0.624340  0.927484  0.889431  1
  Cs  Cs19  1  0.260407  0.910765  0.922065  1
  Cs  Cs20  1  0.360889  0.245156  0.789245  1
  Cs  Cs21  1  0.150753  0.025300  0.467931  1
  Cs  Cs22  1  0.918113  0.443774  0.257246  1
  Cs  Cs23  1  0.150753  0.474700  0.967931  1
  Al  Al24  1  0.955786  0.613095  0.445673  1
  Al  Al25  1  0.044214  0.386905  0.554327  1
  Al  Al26  1  0.462835  0.945797  0.427271  1
  Al  Al27  1  0.537165  0.054203  0.572729  1
  Al  Al28  1  0.955786  0.886905  0.945673  1
  Al  Al29  1  0.537165  0.445797  0.072729  1
  Al  Al30  1  0.462835  0.554203  0.927271  1
  Al  Al31  1  0.044214  0.113095  0.054327  1
  As  As32  1  0.056837  0.840077  0.063863  1
  As  As33  1  0.104015  0.207782  0.641071  1
  As  As34  1  0.895985  0.707782  0.858929  1
  As  As35  1  0.491819  0.293148  0.967449  1
  As  As36  1  0.598350  0.357654  0.187413  1
  As  As37  1  0.056837  0.659923  0.563863  1
  As  As38  1  0.508181  0.793148  0.532551  1
  As  As39  1  0.401650  0.642346  0.812587  1
  As  As40  1  0.943163  0.159923  0.936137  1
  As  As41  1  0.104015  0.292218  0.141071  1
  As  As42  1  0.943163  0.340077  0.436137  1
  As  As43  1  0.401650  0.857654  0.312587  1
  As  As44  1  0.598350  0.142346  0.687413  1
  As  As45  1  0.895985  0.792218  0.358929  1
  As  As46  1  0.508181  0.706852  0.032551  1
  As  As47  1  0.491819  0.206852  0.467449  1
