# generated using pymatgen
data_Sm2Co7
_symmetry_space_group_name_H-M   'P 1'
_cell_length_a   5.01705070
_cell_length_b   5.01705070
_cell_length_c   24.29386501
_cell_angle_alpha   90.00000000
_cell_angle_beta   90.00000000
_cell_angle_gamma   120.00000000
_symmetry_Int_Tables_number   1
_chemical_formula_structural   Sm2Co7
_chemical_formula_sum   'Sm8 Co28'
_cell_volume   529.57103816
_cell_formula_units_Z   4
loop_
 _symmetry_equiv_pos_site_id
 _symmetry_equiv_pos_as_xyz
  1  'x, y, z'
loop_
 _atom_site_type_symbol
 _atom_site_label
 _atom_site_symmetry_multiplicity
 _atom_site_fract_x
 _atom_site_fract_y
 _atom_site_fract_z
 _atom_site_occupancy
  Sm  Sm0  1  0.333333  0.666667  0.027853  1
  Sm  Sm1  1  0.666667  0.333333  0.527853  1
  Sm  Sm2  1  0.666667  0.333333  0.972147  1
  Sm  Sm3  1  0.333333  0.666667  0.472147  1
  Sm  Sm4  1  0.333333  0.666667  0.173046  1
  Sm  Sm5  1  0.666667  0.333333  0.673046  1
  Sm  Sm6  1  0.666667  0.333333  0.826954  1
  Sm  Sm7  1  0.333333  0.666667  0.326954  1
  Co  Co8  1  0.000000  0.000000  0.000000  1
  Co  Co9  1  0.000000  0.000000  0.500000  1
  Co  Co10  1  0.000000  0.000000  0.168133  1
  Co  Co11  1  0.000000  0.000000  0.668133  1
  Co  Co12  1  0.000000  0.000000  0.831867  1
  Co  Co13  1  0.000000  0.000000  0.331867  1
  Co  Co14  1  0.333333  0.666667  0.831501  1
  Co  Co15  1  0.666667  0.333333  0.331501  1
  Co  Co16  1  0.666667  0.333333  0.168499  1
  Co  Co17  1  0.333333  0.666667  0.668499  1
  Co  Co18  1  0.833923  0.667845  0.250000  1
  Co  Co19  1  0.166077  0.833923  0.750000  1
  Co  Co20  1  0.667845  0.833923  0.750000  1
  Co  Co21  1  0.332155  0.166077  0.250000  1
  Co  Co22  1  0.833923  0.166077  0.250000  1
  Co  Co23  1  0.166077  0.332155  0.750000  1
  Co  Co24  1  0.834136  0.668272  0.087751  1
  Co  Co25  1  0.165864  0.834136  0.587751  1
  Co  Co26  1  0.668272  0.834136  0.587751  1
  Co  Co27  1  0.331728  0.165864  0.087751  1
  Co  Co28  1  0.834136  0.165864  0.087751  1
  Co  Co29  1  0.165864  0.331728  0.912249  1
  Co  Co30  1  0.165864  0.834136  0.912249  1
  Co  Co31  1  0.165864  0.331728  0.587751  1
  Co  Co32  1  0.668272  0.834136  0.912249  1
  Co  Co33  1  0.331728  0.165864  0.412249  1
  Co  Co34  1  0.834136  0.668272  0.412249  1
  Co  Co35  1  0.834136  0.165864  0.412249  1
