# generated using pymatgen
data_LaMg(BO2)5
_symmetry_space_group_name_H-M   'P 1'
_cell_length_a   8.89872087
_cell_length_b   7.67640540
_cell_length_c   12.79646076
_cell_angle_alpha   90.00000000
_cell_angle_beta   131.82490752
_cell_angle_gamma   90.00000000
_symmetry_Int_Tables_number   1
_chemical_formula_structural   LaMg(BO2)5
_chemical_formula_sum   'La4 Mg4 B20 O40'
_cell_volume   651.38858715
_cell_formula_units_Z   4
loop_
 _symmetry_equiv_pos_site_id
 _symmetry_equiv_pos_as_xyz
  1  'x, y, z'
loop_
 _atom_site_type_symbol
 _atom_site_label
 _atom_site_symmetry_multiplicity
 _atom_site_fract_x
 _atom_site_fract_y
 _atom_site_fract_z
 _atom_site_occupancy
  La  La0  1  0.949503  0.189377  0.764766  1
  La  La1  1  0.050497  0.689377  0.735234  1
  La  La2  1  0.050497  0.810623  0.235234  1
  La  La3  1  0.949503  0.310623  0.264766  1
  Mg  Mg4  1  0.488545  0.412710  0.878956  1
  Mg  Mg5  1  0.511455  0.912710  0.621044  1
  Mg  Mg6  1  0.511455  0.587290  0.121044  1
  Mg  Mg7  1  0.488545  0.087290  0.378956  1
  B  B8  1  0.901658  0.670620  0.389114  1
  B  B9  1  0.487504  0.815106  0.915371  1
  B  B10  1  0.731325  0.466954  0.447999  1
  B  B11  1  0.512496  0.315106  0.584629  1
  B  B12  1  0.268675  0.966954  0.052001  1
  B  B13  1  0.642531  0.915645  0.230768  1
  B  B14  1  0.098342  0.170620  0.110886  1
  B  B15  1  0.098342  0.329380  0.610886  1
  B  B16  1  0.357469  0.084355  0.769232  1
  B  B17  1  0.357469  0.415645  0.269232  1
  B  B18  1  0.268675  0.533046  0.552001  1
  B  B19  1  0.841429  0.905911  0.490950  1
  B  B20  1  0.901658  0.829380  0.889114  1
  B  B21  1  0.158571  0.094089  0.509050  1
  B  B22  1  0.841429  0.594089  0.990950  1
  B  B23  1  0.512496  0.184894  0.084629  1
  B  B24  1  0.158571  0.405911  0.009050  1
  B  B25  1  0.487504  0.684894  0.415371  1
  B  B26  1  0.731325  0.033046  0.947999  1
  B  B27  1  0.642531  0.584355  0.730768  1
  O  O28  1  0.673508  0.422245  0.684678  1
  O  O29  1  0.233614  0.476721  0.645430  1
  O  O30  1  0.766386  0.523279  0.354570  1
  O  O31  1  0.968283  0.778656  0.508453  1
  O  O32  1  0.121834  0.035590  0.393602  1
  O  O33  1  0.326492  0.922245  0.815322  1
  O  O34  1  0.781811  0.776852  0.257875  1
  O  O35  1  0.318210  0.373069  0.509937  1
  O  O36  1  0.437540  0.653071  0.930722  1
  O  O37  1  0.919206  0.104043  0.086171  1
  O  O38  1  0.766386  0.976721  0.854570  1
  O  O39  1  0.218189  0.276852  0.242125  1
  O  O40  1  0.080794  0.895957  0.913829  1
  O  O41  1  0.562460  0.346929  0.069278  1
  O  O42  1  0.080794  0.604043  0.413829  1
  O  O43  1  0.031717  0.221344  0.491547  1
  O  O44  1  0.437540  0.846929  0.430722  1
  O  O45  1  0.562609  0.344926  0.375456  1
  O  O46  1  0.233614  0.023279  0.145430  1
  O  O47  1  0.968283  0.721344  0.008453  1
  O  O48  1  0.562460  0.153071  0.569278  1
  O  O49  1  0.677028  0.536620  0.859025  1
  O  O50  1  0.437391  0.844926  0.124544  1
  O  O51  1  0.437391  0.655074  0.624544  1
  O  O52  1  0.218189  0.223148  0.742125  1
  O  O53  1  0.919206  0.395957  0.586171  1
  O  O54  1  0.322972  0.036620  0.640975  1
  O  O55  1  0.562609  0.155074  0.875456  1
  O  O56  1  0.681790  0.873069  0.990063  1
  O  O57  1  0.031717  0.278656  0.991547  1
  O  O58  1  0.318210  0.126931  0.009937  1
  O  O59  1  0.322972  0.463380  0.140975  1
  O  O60  1  0.781811  0.723148  0.757875  1
  O  O61  1  0.326492  0.577755  0.315322  1
  O  O62  1  0.878166  0.535590  0.106398  1
  O  O63  1  0.681790  0.626931  0.490063  1
  O  O64  1  0.121834  0.464410  0.893602  1
  O  O65  1  0.878166  0.964410  0.606398  1
  O  O66  1  0.677028  0.963380  0.359025  1
  O  O67  1  0.673508  0.077755  0.184678  1
