# generated using pymatgen
data_PrSi2Ni
_symmetry_space_group_name_H-M   'P 1'
_cell_length_a   8.49376892
_cell_length_b   8.49376892
_cell_length_c   4.06612092
_cell_angle_alpha   90.00000000
_cell_angle_beta   90.00000000
_cell_angle_gamma   151.58631530
_symmetry_Int_Tables_number   1
_chemical_formula_structural   PrSi2Ni
_chemical_formula_sum   'Pr2 Si4 Ni2'
_cell_volume   139.58440873
_cell_formula_units_Z   2
loop_
 _symmetry_equiv_pos_site_id
 _symmetry_equiv_pos_as_xyz
  1  'x, y, z'
loop_
 _atom_site_type_symbol
 _atom_site_label
 _atom_site_symmetry_multiplicity
 _atom_site_fract_x
 _atom_site_fract_y
 _atom_site_fract_z
 _atom_site_occupancy
  Pr  Pr0  1  0.106621  0.893379  0.250000  1
  Pr  Pr1  1  0.893379  0.106621  0.750000  1
  Si  Si2  1  0.749950  0.250050  0.250000  1
  Si  Si3  1  0.250050  0.749950  0.750000  1
  Si  Si4  1  0.540953  0.459047  0.750000  1
  Si  Si5  1  0.459047  0.540953  0.250000  1
  Ni  Ni6  1  0.681715  0.318285  0.750000  1
  Ni  Ni7  1  0.318285  0.681715  0.250000  1
