# generated using pymatgen
data_Zn4As2O9
_symmetry_space_group_name_H-M   'P 1'
_cell_length_a   9.89274297
_cell_length_b   8.31613420
_cell_length_c   20.55996789
_cell_angle_alpha   90.00000000
_cell_angle_beta   117.22303919
_cell_angle_gamma   90.00000000
_symmetry_Int_Tables_number   1
_chemical_formula_structural   Zn4As2O9
_chemical_formula_sum   'Zn32 As16 O72'
_cell_volume   1504.09744247
_cell_formula_units_Z   8
loop_
 _symmetry_equiv_pos_site_id
 _symmetry_equiv_pos_as_xyz
  1  'x, y, z'
loop_
 _atom_site_type_symbol
 _atom_site_label
 _atom_site_symmetry_multiplicity
 _atom_site_fract_x
 _atom_site_fract_y
 _atom_site_fract_z
 _atom_site_occupancy
  Zn  Zn0  1  0.251422  0.443416  0.619461  1
  Zn  Zn1  1  0.746094  0.556376  0.881266  1
  Zn  Zn2  1  0.930485  0.571916  0.631799  1
  Zn  Zn3  1  0.557751  0.586155  0.609165  1
  Zn  Zn4  1  0.746094  0.943624  0.381266  1
  Zn  Zn5  1  0.281448  0.769708  0.944178  1
  Zn  Zn6  1  0.069515  0.071916  0.868201  1
  Zn  Zn7  1  0.748578  0.943416  0.880539  1
  Zn  Zn8  1  0.194386  0.682884  0.290303  1
  Zn  Zn9  1  0.924585  0.537658  0.132291  1
  Zn  Zn10  1  0.281448  0.730292  0.444178  1
  Zn  Zn11  1  0.442249  0.413845  0.390835  1
  Zn  Zn12  1  0.253906  0.443624  0.118734  1
  Zn  Zn13  1  0.194386  0.817116  0.790303  1
  Zn  Zn14  1  0.605044  0.014884  0.652488  1
  Zn  Zn15  1  0.442249  0.086155  0.890835  1
  Zn  Zn16  1  0.748578  0.556584  0.380539  1
  Zn  Zn17  1  0.394956  0.985116  0.347512  1
  Zn  Zn18  1  0.251422  0.056584  0.119461  1
  Zn  Zn19  1  0.075415  0.037658  0.367709  1
  Zn  Zn20  1  0.718552  0.269708  0.555822  1
  Zn  Zn21  1  0.805614  0.317116  0.709697  1
  Zn  Zn22  1  0.253906  0.056376  0.618734  1
  Zn  Zn23  1  0.924585  0.962342  0.632291  1
  Zn  Zn24  1  0.069515  0.428084  0.368201  1
  Zn  Zn25  1  0.718552  0.230292  0.055822  1
  Zn  Zn26  1  0.075415  0.462342  0.867709  1
  Zn  Zn27  1  0.394956  0.514884  0.847512  1
  Zn  Zn28  1  0.930485  0.928084  0.131799  1
  Zn  Zn29  1  0.605044  0.485116  0.152488  1
  Zn  Zn30  1  0.557751  0.913845  0.109165  1
  Zn  Zn31  1  0.805614  0.182884  0.209697  1
  As  As32  1  0.531426  0.243863  0.766807  1
  As  As33  1  0.955831  0.240708  0.474458  1
  As  As34  1  0.364887  0.251898  0.510946  1
  As  As35  1  0.364887  0.248102  0.010946  1
  As  As36  1  0.141576  0.246132  0.748116  1
  As  As37  1  0.044169  0.740708  0.025542  1
  As  As38  1  0.468574  0.756137  0.233193  1
  As  As39  1  0.468574  0.743863  0.733193  1
  As  As40  1  0.858424  0.753868  0.251884  1
  As  As41  1  0.858424  0.746132  0.751884  1
  As  As42  1  0.141576  0.253868  0.248116  1
  As  As43  1  0.955831  0.259292  0.974458  1
  As  As44  1  0.044169  0.759292  0.525542  1
  As  As45  1  0.635113  0.748102  0.489054  1
  As  As46  1  0.531426  0.256137  0.266807  1
  As  As47  1  0.635113  0.751898  0.989054  1
  O  O48  1  0.402667  0.088073  0.568167  1
  O  O49  1  0.940228  0.073949  0.419644  1
  O  O50  1  0.805685  0.731375  0.065848  1
  O  O51  1  0.985503  0.744033  0.212056  1
  O  O52  1  0.194315  0.268625  0.934152  1
  O  O53  1  0.774243  0.389669  0.135803  1
  O  O54  1  0.370469  0.430647  0.554558  1
  O  O55  1  0.646660  0.749085  0.308382  1
  O  O56  1  0.444330  0.589823  0.672225  1
  O  O57  1  0.940228  0.426051  0.919644  1
  O  O58  1  0.985503  0.755967  0.712056  1
  O  O59  1  0.499179  0.735456  0.520304  1
  O  O60  1  0.805685  0.768625  0.565848  1
  O  O61  1  0.868033  0.552977  0.783888  1
  O  O62  1  0.913076  0.606262  0.315962  1
  O  O63  1  0.935670  0.089666  0.920662  1
  O  O64  1  0.198430  0.726612  0.010737  1
  O  O65  1  0.315803  0.216225  0.321932  1
  O  O66  1  0.743181  0.042412  0.123113  1
  O  O67  1  0.646660  0.750915  0.808382  1
  O  O68  1  0.875757  0.752535  0.445808  1
  O  O69  1  0.194315  0.231375  0.434152  1
  O  O70  1  0.500821  0.264544  0.479696  1
  O  O71  1  0.086924  0.106262  0.184038  1
  O  O72  1  0.801570  0.226612  0.489263  1
  O  O73  1  0.256819  0.542412  0.376887  1
  O  O74  1  0.340016  0.700291  0.766443  1
  O  O75  1  0.774243  0.110331  0.635803  1
  O  O76  1  0.434627  0.576777  0.186868  1
  O  O77  1  0.659984  0.200291  0.733557  1
  O  O78  1  0.555670  0.089823  0.827775  1
  O  O79  1  0.597333  0.911927  0.431833  1
  O  O80  1  0.198430  0.773388  0.510737  1
  O  O81  1  0.684197  0.716225  0.178068  1
  O  O82  1  0.225757  0.610331  0.864197  1
  O  O83  1  0.434627  0.923223  0.686868  1
  O  O84  1  0.868033  0.947023  0.283888  1
  O  O85  1  0.743181  0.457588  0.623113  1
  O  O86  1  0.659984  0.299709  0.233557  1
  O  O87  1  0.597333  0.588073  0.931833  1
  O  O88  1  0.402667  0.411927  0.068167  1
  O  O89  1  0.913076  0.893738  0.815962  1
  O  O90  1  0.555670  0.410177  0.327775  1
  O  O91  1  0.064330  0.910334  0.079338  1
  O  O92  1  0.014497  0.244033  0.287944  1
  O  O93  1  0.225757  0.889669  0.364197  1
  O  O94  1  0.014497  0.255967  0.787944  1
  O  O95  1  0.875757  0.747465  0.945808  1
  O  O96  1  0.086924  0.393738  0.684038  1
  O  O97  1  0.370469  0.069353  0.054558  1
  O  O98  1  0.315803  0.283775  0.821932  1
  O  O99  1  0.340016  0.799709  0.266443  1
  O  O100  1  0.124243  0.252535  0.054192  1
  O  O101  1  0.131967  0.052977  0.716112  1
  O  O102  1  0.565373  0.423223  0.813132  1
  O  O103  1  0.684197  0.783775  0.678068  1
  O  O104  1  0.629531  0.569353  0.445442  1
  O  O105  1  0.064330  0.589666  0.579338  1
  O  O106  1  0.256819  0.957588  0.876887  1
  O  O107  1  0.565373  0.076777  0.313132  1
  O  O108  1  0.444330  0.910177  0.172225  1
  O  O109  1  0.629531  0.930647  0.945442  1
  O  O110  1  0.124243  0.247465  0.554192  1
  O  O111  1  0.935670  0.410334  0.420662  1
  O  O112  1  0.353340  0.250915  0.691618  1
  O  O113  1  0.499179  0.764544  0.020304  1
  O  O114  1  0.131967  0.447023  0.216112  1
  O  O115  1  0.353340  0.249085  0.191618  1
  O  O116  1  0.059772  0.926051  0.580356  1
  O  O117  1  0.059772  0.573949  0.080356  1
  O  O118  1  0.801570  0.273388  0.989263  1
  O  O119  1  0.500821  0.235456  0.979696  1
