# generated using pymatgen
data_K3CuP2S7
_symmetry_space_group_name_H-M   'P 1'
_cell_length_a   13.41185955
_cell_length_b   6.76311466
_cell_length_c   15.36449861
_cell_angle_alpha   90.00000000
_cell_angle_beta   98.58378603
_cell_angle_gamma   90.00000000
_symmetry_Int_Tables_number   1
_chemical_formula_structural   K3CuP2S7
_chemical_formula_sum   'K12 Cu4 P8 S28'
_cell_volume   1378.04058417
_cell_formula_units_Z   4
loop_
 _symmetry_equiv_pos_site_id
 _symmetry_equiv_pos_as_xyz
  1  'x, y, z'
loop_
 _atom_site_type_symbol
 _atom_site_label
 _atom_site_symmetry_multiplicity
 _atom_site_fract_x
 _atom_site_fract_y
 _atom_site_fract_z
 _atom_site_occupancy
  K  K0  1  0.903520  0.220672  0.527477  1
  K  K1  1  0.096480  0.779328  0.472523  1
  K  K2  1  0.816698  0.760454  0.699092  1
  K  K3  1  0.683302  0.260454  0.300908  1
  K  K4  1  0.842812  0.348875  0.928189  1
  K  K5  1  0.403520  0.279328  0.527477  1
  K  K6  1  0.657188  0.848875  0.071811  1
  K  K7  1  0.157188  0.651125  0.071811  1
  K  K8  1  0.183302  0.239546  0.300908  1
  K  K9  1  0.596480  0.720672  0.472523  1
  K  K10  1  0.342812  0.151125  0.928189  1
  K  K11  1  0.316698  0.739546  0.699092  1
  Cu  Cu12  1  0.433771  0.480193  0.196391  1
  Cu  Cu13  1  0.066229  0.980193  0.803609  1
  Cu  Cu14  1  0.566229  0.519807  0.803609  1
  Cu  Cu15  1  0.933771  0.019807  0.196391  1
  P  P16  1  0.331604  0.740062  0.353547  1
  P  P17  1  0.386045  0.999553  0.162611  1
  P  P18  1  0.886045  0.500447  0.162611  1
  P  P19  1  0.113955  0.499553  0.837389  1
  P  P20  1  0.168396  0.240062  0.646453  1
  P  P21  1  0.831604  0.759938  0.353547  1
  P  P22  1  0.668396  0.259938  0.646453  1
  P  P23  1  0.613955  0.000447  0.837389  1
  S  S24  1  0.913178  0.517805  0.306139  1
  S  S25  1  0.647173  0.193835  0.515829  1
  S  S26  1  0.086822  0.482195  0.693861  1
  S  S27  1  0.416989  0.735870  0.105605  1
  S  S28  1  0.083011  0.235870  0.894395  1
  S  S29  1  0.187630  0.736400  0.294594  1
  S  S30  1  0.093367  0.980444  0.664698  1
  S  S31  1  0.352827  0.806165  0.484171  1
  S  S32  1  0.147173  0.306165  0.515829  1
  S  S33  1  0.593367  0.519556  0.664698  1
  S  S34  1  0.812370  0.263600  0.705406  1
  S  S35  1  0.252655  0.600556  0.882507  1
  S  S36  1  0.505536  0.797805  0.858603  1
  S  S37  1  0.005536  0.702195  0.858603  1
  S  S38  1  0.752655  0.899444  0.882507  1
  S  S39  1  0.583011  0.264130  0.894395  1
  S  S40  1  0.312370  0.236400  0.705406  1
  S  S41  1  0.747345  0.399444  0.117493  1
  S  S42  1  0.247345  0.100556  0.117493  1
  S  S43  1  0.586822  0.017805  0.693861  1
  S  S44  1  0.687630  0.763600  0.294594  1
  S  S45  1  0.406633  0.480444  0.335302  1
  S  S46  1  0.916989  0.764130  0.105605  1
  S  S47  1  0.413178  0.982195  0.306139  1
  S  S48  1  0.906633  0.019556  0.335302  1
  S  S49  1  0.494464  0.202195  0.141397  1
  S  S50  1  0.852827  0.693835  0.484171  1
  S  S51  1  0.994464  0.297805  0.141397  1
