# generated using pymatgen
data_La4S3N2
_symmetry_space_group_name_H-M   'P 1'
_cell_length_a   4.09066204
_cell_length_b   6.64408331
_cell_length_c   15.71012350
_cell_angle_alpha   90.00000000
_cell_angle_beta   90.00000000
_cell_angle_gamma   90.00000000
_symmetry_Int_Tables_number   1
_chemical_formula_structural   La4S3N2
_chemical_formula_sum   'La8 S6 N4'
_cell_volume   426.98072394
_cell_formula_units_Z   2
loop_
 _symmetry_equiv_pos_site_id
 _symmetry_equiv_pos_as_xyz
  1  'x, y, z'
loop_
 _atom_site_type_symbol
 _atom_site_label
 _atom_site_symmetry_multiplicity
 _atom_site_fract_x
 _atom_site_fract_y
 _atom_site_fract_z
 _atom_site_occupancy
  La  La0  1  0.000000  0.270175  0.843767  1
  La  La1  1  0.500000  0.229825  0.343767  1
  La  La2  1  0.500000  0.722212  0.935254  1
  La  La3  1  0.500000  0.770175  0.656233  1
  La  La4  1  0.000000  0.222212  0.564746  1
  La  La5  1  0.000000  0.777788  0.435254  1
  La  La6  1  0.500000  0.277788  0.064746  1
  La  La7  1  0.000000  0.729825  0.156233  1
  S  S8  1  0.500000  0.224419  0.700122  1
  S  S9  1  0.000000  0.275581  0.200122  1
  S  S10  1  0.000000  0.724419  0.799878  1
  S  S11  1  0.000000  0.000000  0.000000  1
  S  S12  1  0.500000  0.775581  0.299878  1
  S  S13  1  0.500000  0.500000  0.500000  1
  N  N14  1  0.000000  0.871973  0.583984  1
  N  N15  1  0.500000  0.628027  0.083984  1
  N  N16  1  0.000000  0.128027  0.416016  1
  N  N17  1  0.500000  0.371973  0.916016  1
