# generated using pymatgen
data_Nb3SnS6
_symmetry_space_group_name_H-M   'P 1'
_cell_length_a   5.85052457
_cell_length_b   5.85052457
_cell_length_c   14.61038441
_cell_angle_alpha   90.00000000
_cell_angle_beta   90.00000000
_cell_angle_gamma   120.00000000
_symmetry_Int_Tables_number   1
_chemical_formula_structural   Nb3SnS6
_chemical_formula_sum   'Nb6 Sn2 S12'
_cell_volume   433.09372247
_cell_formula_units_Z   2
loop_
 _symmetry_equiv_pos_site_id
 _symmetry_equiv_pos_as_xyz
  1  'x, y, z'
loop_
 _atom_site_type_symbol
 _atom_site_label
 _atom_site_symmetry_multiplicity
 _atom_site_fract_x
 _atom_site_fract_y
 _atom_site_fract_z
 _atom_site_occupancy
  Nb  Nb0  1  0.333333  0.666667  0.998701  1
  Nb  Nb1  1  0.000000  0.000000  0.000000  1
  Nb  Nb2  1  0.666667  0.333333  0.001299  1
  Nb  Nb3  1  0.333333  0.666667  0.501299  1
  Nb  Nb4  1  0.000000  0.000000  0.500000  1
  Nb  Nb5  1  0.666667  0.333333  0.498701  1
  Sn  Sn6  1  0.333333  0.666667  0.250000  1
  Sn  Sn7  1  0.666667  0.333333  0.750000  1
  S  S8  1  0.666888  0.667785  0.393153  1
  S  S9  1  0.667785  0.666888  0.606847  1
  S  S10  1  0.999103  0.666888  0.893153  1
  S  S11  1  0.667785  0.000897  0.893153  1
  S  S12  1  0.666888  0.999103  0.106847  1
  S  S13  1  0.332215  0.999103  0.393153  1
  S  S14  1  0.999103  0.332215  0.606847  1
  S  S15  1  0.333112  0.000897  0.606847  1
  S  S16  1  0.000897  0.667785  0.106847  1
  S  S17  1  0.333112  0.332215  0.893153  1
  S  S18  1  0.000897  0.333112  0.393153  1
  S  S19  1  0.332215  0.333112  0.106847  1
