# generated using pymatgen
data_Na2U2Si(O4F)2
_symmetry_space_group_name_H-M   'P 1'
_cell_length_a   10.53454806
_cell_length_b   10.53454806
_cell_length_c   10.53454806
_cell_angle_alpha   141.02614364
_cell_angle_beta   141.02614364
_cell_angle_gamma   56.29850951
_symmetry_Int_Tables_number   1
_chemical_formula_structural   Na2U2Si(O4F)2
_chemical_formula_sum   'Na4 U4 Si2 O16 F4'
_cell_volume   458.84913887
_cell_formula_units_Z   2
loop_
 _symmetry_equiv_pos_site_id
 _symmetry_equiv_pos_as_xyz
  1  'x, y, z'
loop_
 _atom_site_type_symbol
 _atom_site_label
 _atom_site_symmetry_multiplicity
 _atom_site_fract_x
 _atom_site_fract_y
 _atom_site_fract_z
 _atom_site_occupancy
  Na  Na0  1  0.375000  0.125000  0.250000  1
  Na  Na1  1  0.875000  0.125000  0.250000  1
  Na  Na2  1  0.875000  0.125000  0.750000  1
  Na  Na3  1  0.875000  0.625000  0.750000  1
  U  U4  1  0.673740  0.673740  0.000000  1
  U  U5  1  0.076260  0.576260  0.500000  1
  U  U6  1  0.423740  0.923740  0.500000  1
  U  U7  1  0.326260  0.326260  0.000000  1
  Si  Si8  1  0.250000  0.750000  0.500000  1
  Si  Si9  1  0.500000  0.500000  0.000000  1
  O  O10  1  0.442456  0.619340  0.176884  1
  O  O11  1  0.369340  0.692456  0.676884  1
  O  O12  1  0.672694  0.934799  0.262105  1
  O  O13  1  0.589411  0.327306  0.262105  1
  O  O14  1  0.077306  0.839411  0.762105  1
  O  O15  1  0.380660  0.557544  0.823116  1
  O  O16  1  0.065201  0.327306  0.737895  1
  O  O17  1  0.442456  0.265573  0.823116  1
  O  O18  1  0.684799  0.922694  0.762105  1
  O  O19  1  0.015573  0.692456  0.323116  1
  O  O20  1  0.160589  0.922694  0.237895  1
  O  O21  1  0.307544  0.984427  0.676884  1
  O  O22  1  0.672694  0.410589  0.737895  1
  O  O23  1  0.307544  0.630660  0.323116  1
  O  O24  1  0.734427  0.557544  0.176884  1
  O  O25  1  0.077306  0.315201  0.237895  1
  F  F26  1  0.957275  0.457275  0.500000  1
  F  F27  1  0.542725  0.042725  0.500000  1
  F  F28  1  0.792725  0.792725  0.000000  1
  F  F29  1  0.207275  0.207275  0.000000  1
