# generated using pymatgen
data_ZrPb2F8
_symmetry_space_group_name_H-M   'P 1'
_cell_length_a   5.51727093
_cell_length_b   9.89905475
_cell_length_c   11.83574548
_cell_angle_alpha   90.00000000
_cell_angle_beta   90.00000000
_cell_angle_gamma   90.00000000
_symmetry_Int_Tables_number   1
_chemical_formula_structural   ZrPb2F8
_chemical_formula_sum   'Zr4 Pb8 F32'
_cell_volume   646.41831749
_cell_formula_units_Z   4
loop_
 _symmetry_equiv_pos_site_id
 _symmetry_equiv_pos_as_xyz
  1  'x, y, z'
loop_
 _atom_site_type_symbol
 _atom_site_label
 _atom_site_symmetry_multiplicity
 _atom_site_fract_x
 _atom_site_fract_y
 _atom_site_fract_z
 _atom_site_occupancy
  Zr  Zr0  1  0.750000  0.751826  0.869518  1
  Zr  Zr1  1  0.250000  0.248174  0.130482  1
  Zr  Zr2  1  0.750000  0.251826  0.630482  1
  Zr  Zr3  1  0.250000  0.748174  0.369518  1
  Pb  Pb4  1  0.750000  0.139842  0.923594  1
  Pb  Pb5  1  0.250000  0.860158  0.076406  1
  Pb  Pb6  1  0.750000  0.639842  0.576406  1
  Pb  Pb7  1  0.250000  0.360158  0.423594  1
  Pb  Pb8  1  0.750000  0.534915  0.152509  1
  Pb  Pb9  1  0.250000  0.465085  0.847491  1
  Pb  Pb10  1  0.750000  0.034915  0.347491  1
  Pb  Pb11  1  0.250000  0.965085  0.652509  1
  F  F12  1  0.491567  0.903248  0.874422  1
  F  F13  1  0.991567  0.096752  0.125578  1
  F  F14  1  0.008433  0.403248  0.625578  1
  F  F15  1  0.508433  0.596752  0.374422  1
  F  F16  1  0.508433  0.096752  0.125578  1
  F  F17  1  0.008433  0.903248  0.874422  1
  F  F18  1  0.991567  0.596752  0.374422  1
  F  F19  1  0.491567  0.403248  0.625578  1
  F  F20  1  0.002833  0.868944  0.467501  1
  F  F21  1  0.502833  0.131056  0.532499  1
  F  F22  1  0.497167  0.368944  0.032499  1
  F  F23  1  0.997167  0.631056  0.967501  1
  F  F24  1  0.997167  0.131056  0.532499  1
  F  F25  1  0.497167  0.868944  0.467501  1
  F  F26  1  0.502833  0.631056  0.967501  1
  F  F27  1  0.002833  0.368944  0.032499  1
  F  F28  1  0.512995  0.638012  0.760307  1
  F  F29  1  0.012995  0.361988  0.239693  1
  F  F30  1  0.987005  0.138012  0.739693  1
  F  F31  1  0.487005  0.861988  0.260307  1
  F  F32  1  0.487005  0.361988  0.239693  1
  F  F33  1  0.987005  0.638012  0.760307  1
  F  F34  1  0.012995  0.861988  0.260307  1
  F  F35  1  0.512995  0.138012  0.739693  1
  F  F36  1  0.750000  0.826016  0.041828  1
  F  F37  1  0.250000  0.173984  0.958172  1
  F  F38  1  0.750000  0.326016  0.458172  1
  F  F39  1  0.250000  0.673984  0.541828  1
  F  F40  1  0.750000  0.844027  0.696451  1
  F  F41  1  0.250000  0.155973  0.303549  1
  F  F42  1  0.750000  0.344027  0.803549  1
  F  F43  1  0.250000  0.655973  0.196451  1
