# generated using pymatgen
data_Ni18Bi3AsS16
_symmetry_space_group_name_H-M   'P 1'
_cell_length_a   9.05732888
_cell_length_b   9.05732888
_cell_length_c   9.05732888
_cell_angle_alpha   110.91960704
_cell_angle_beta   110.91960704
_cell_angle_gamma   106.61173621
_symmetry_Int_Tables_number   1
_chemical_formula_structural   Ni18Bi3AsS16
_chemical_formula_sum   'Ni18 Bi3 As1 S16'
_cell_volume   570.91520783
_cell_formula_units_Z   1
loop_
 _symmetry_equiv_pos_site_id
 _symmetry_equiv_pos_as_xyz
  1  'x, y, z'
loop_
 _atom_site_type_symbol
 _atom_site_label
 _atom_site_symmetry_multiplicity
 _atom_site_fract_x
 _atom_site_fract_y
 _atom_site_fract_z
 _atom_site_occupancy
  Ni  Ni0  1  0.235625  0.521875  0.000000  1
  Ni  Ni1  1  0.521875  0.521875  0.286250  1
  Ni  Ni2  1  0.500000  0.000000  0.500000  1
  Ni  Ni3  1  0.954690  0.954690  0.656964  1
  Ni  Ni4  1  0.702274  0.702274  0.656964  1
  Ni  Ni5  1  0.045310  0.702274  0.000000  1
  Ni  Ni6  1  0.764375  0.764375  0.286250  1
  Ni  Ni7  1  0.954690  0.297726  0.000000  1
  Ni  Ni8  1  0.478125  0.764375  0.000000  1
  Ni  Ni9  1  0.297726  0.954690  0.000000  1
  Ni  Ni10  1  0.297726  0.297726  0.343036  1
  Ni  Ni11  1  0.521875  0.235625  0.000000  1
  Ni  Ni12  1  0.764375  0.478125  0.000000  1
  Ni  Ni13  1  0.235625  0.235625  0.713750  1
  Ni  Ni14  1  0.702274  0.045310  0.000000  1
  Ni  Ni15  1  0.000000  0.500000  0.500000  1
  Ni  Ni16  1  0.478125  0.478125  0.713750  1
  Ni  Ni17  1  0.045310  0.045310  0.343036  1
  Bi  Bi18  1  0.250000  0.750000  0.500000  1
  Bi  Bi19  1  0.750000  0.250000  0.500000  1
  Bi  Bi20  1  0.000000  0.000000  0.000000  1
  As  As21  1  0.500000  0.500000  0.000000  1
  S  S22  1  0.532188  0.759476  0.772712  1
  S  S23  1  0.240524  0.013236  0.772712  1
  S  S24  1  0.347653  0.836496  0.184149  1
  S  S25  1  0.652347  0.163504  0.815851  1
  S  S26  1  0.836496  0.652347  0.488844  1
  S  S27  1  0.347653  0.163504  0.511156  1
  S  S28  1  0.836496  0.347653  0.184149  1
  S  S29  1  0.652347  0.836496  0.488844  1
  S  S30  1  0.013236  0.240524  0.772712  1
  S  S31  1  0.163504  0.652347  0.815851  1
  S  S32  1  0.240524  0.467812  0.227288  1
  S  S33  1  0.467812  0.240524  0.227288  1
  S  S34  1  0.163504  0.347653  0.511156  1
  S  S35  1  0.759476  0.532188  0.772712  1
  S  S36  1  0.986764  0.759476  0.227288  1
  S  S37  1  0.759476  0.986764  0.227288  1
