# generated using pymatgen
data_Zn3(BO3)2
_symmetry_space_group_name_H-M   'P 1'
_cell_length_a   6.45085221
_cell_length_b   8.41302574
_cell_length_c   10.12843030
_cell_angle_alpha   89.74809452
_cell_angle_beta   89.72441591
_cell_angle_gamma   72.28262647
_symmetry_Int_Tables_number   1
_chemical_formula_structural   Zn3(BO3)2
_chemical_formula_sum   'Zn12 B8 O24'
_cell_volume   523.60155471
_cell_formula_units_Z   4
loop_
 _symmetry_equiv_pos_site_id
 _symmetry_equiv_pos_as_xyz
  1  'x, y, z'
loop_
 _atom_site_type_symbol
 _atom_site_label
 _atom_site_symmetry_multiplicity
 _atom_site_fract_x
 _atom_site_fract_y
 _atom_site_fract_z
 _atom_site_occupancy
  Zn  Zn0  1  0.394064  0.932527  0.843171  1
  Zn  Zn1  1  0.021358  0.278587  0.339186  1
  Zn  Zn2  1  0.938979  0.717056  0.179315  1
  Zn  Zn3  1  0.516685  0.290068  0.417740  1
  Zn  Zn4  1  0.250287  0.598152  0.922785  1
  Zn  Zn5  1  0.978642  0.721413  0.660814  1
  Zn  Zn6  1  0.061021  0.282944  0.820685  1
  Zn  Zn7  1  0.724302  0.104938  0.676721  1
  Zn  Zn8  1  0.605936  0.067473  0.156829  1
  Zn  Zn9  1  0.483315  0.709932  0.582260  1
  Zn  Zn10  1  0.749713  0.401848  0.077215  1
  Zn  Zn11  1  0.275698  0.895062  0.323279  1
  B  B12  1  0.163258  0.066183  0.587568  1
  B  B13  1  0.163161  0.101217  0.083670  1
  B  B14  1  0.836742  0.933817  0.412432  1
  B  B15  1  0.836839  0.898783  0.916330  1
  B  B16  1  0.681521  0.586657  0.824512  1
  B  B17  1  0.318479  0.413343  0.175488  1
  B  B18  1  0.342718  0.423306  0.674201  1
  B  B19  1  0.657282  0.576694  0.325799  1
  O  O20  1  0.723363  0.593745  0.197577  1
  O  O21  1  0.331772  0.993788  0.156197  1
  O  O22  1  0.523932  0.714169  0.391129  1
  O  O23  1  0.271952  0.577558  0.611574  1
  O  O24  1  0.196273  0.551476  0.106110  1
  O  O25  1  0.276637  0.406255  0.802423  1
  O  O26  1  0.681757  0.063323  0.349844  1
  O  O27  1  0.476068  0.285831  0.608871  1
  O  O28  1  0.803727  0.448524  0.893890  1
  O  O29  1  0.260494  0.382176  0.303026  1
  O  O30  1  0.668228  0.006212  0.843803  1
  O  O31  1  0.002432  0.823255  0.339164  1
  O  O32  1  0.494163  0.689898  0.883369  1
  O  O33  1  0.728048  0.422442  0.388426  1
  O  O34  1  0.826608  0.903687  0.052841  1
  O  O35  1  0.992739  0.214756  0.148405  1
  O  O36  1  0.318243  0.936677  0.650156  1
  O  O37  1  0.829536  0.914551  0.548462  1
  O  O38  1  0.173392  0.096313  0.947159  1
  O  O39  1  0.007261  0.785244  0.851595  1
  O  O40  1  0.739506  0.617824  0.696974  1
  O  O41  1  0.170464  0.085449  0.451538  1
  O  O42  1  0.997568  0.176745  0.660836  1
  O  O43  1  0.505837  0.310102  0.116631  1
