# generated using pymatgen
data_Ba3NiIr2O9
_symmetry_space_group_name_H-M   'P 1'
_cell_length_a   5.82415887
_cell_length_b   5.82415887
_cell_length_c   14.35170975
_cell_angle_alpha   90.00000000
_cell_angle_beta   90.00000000
_cell_angle_gamma   120.00000000
_symmetry_Int_Tables_number   1
_chemical_formula_structural   Ba3NiIr2O9
_chemical_formula_sum   'Ba6 Ni2 Ir4 O18'
_cell_volume   421.60009519
_cell_formula_units_Z   2
loop_
 _symmetry_equiv_pos_site_id
 _symmetry_equiv_pos_as_xyz
  1  'x, y, z'
loop_
 _atom_site_type_symbol
 _atom_site_label
 _atom_site_symmetry_multiplicity
 _atom_site_fract_x
 _atom_site_fract_y
 _atom_site_fract_z
 _atom_site_occupancy
  Ba  Ba0  1  0.000000  0.000000  0.250000  1
  Ba  Ba1  1  0.000000  0.000000  0.750000  1
  Ba  Ba2  1  0.333333  0.666667  0.916479  1
  Ba  Ba3  1  0.666667  0.333333  0.416479  1
  Ba  Ba4  1  0.666667  0.333333  0.083521  1
  Ba  Ba5  1  0.333333  0.666667  0.583521  1
  Ni  Ni6  1  0.000000  0.000000  0.000000  1
  Ni  Ni7  1  0.000000  0.000000  0.500000  1
  Ir  Ir8  1  0.333333  0.666667  0.159667  1
  Ir  Ir9  1  0.666667  0.333333  0.659667  1
  Ir  Ir10  1  0.666667  0.333333  0.840333  1
  Ir  Ir11  1  0.333333  0.666667  0.340333  1
  O  O12  1  0.489394  0.978787  0.250000  1
  O  O13  1  0.510606  0.489394  0.750000  1
  O  O14  1  0.978787  0.489394  0.750000  1
  O  O15  1  0.021213  0.510606  0.250000  1
  O  O16  1  0.489394  0.510606  0.250000  1
  O  O17  1  0.510606  0.021213  0.750000  1
  O  O18  1  0.171951  0.343901  0.417234  1
  O  O19  1  0.828049  0.171951  0.917234  1
  O  O20  1  0.343901  0.171951  0.917234  1
  O  O21  1  0.656099  0.828049  0.417234  1
  O  O22  1  0.171951  0.828049  0.417234  1
  O  O23  1  0.828049  0.656099  0.582766  1
  O  O24  1  0.828049  0.171951  0.582766  1
  O  O25  1  0.828049  0.656099  0.917234  1
  O  O26  1  0.343901  0.171951  0.582766  1
  O  O27  1  0.656099  0.828049  0.082766  1
  O  O28  1  0.171951  0.343901  0.082766  1
  O  O29  1  0.171951  0.828049  0.082766  1
