# generated using pymatgen
data_TaPd3
_symmetry_space_group_name_H-M   'P 1'
_cell_length_a   5.56987963
_cell_length_b   5.56987963
_cell_length_c   23.41284498
_cell_angle_alpha   90.00000000
_cell_angle_beta   90.00000000
_cell_angle_gamma   120.00000000
_symmetry_Int_Tables_number   1
_chemical_formula_structural   TaPd3
_chemical_formula_sum   'Ta10 Pd30'
_cell_volume   629.03736090
_cell_formula_units_Z   10
loop_
 _symmetry_equiv_pos_site_id
 _symmetry_equiv_pos_as_xyz
  1  'x, y, z'
loop_
 _atom_site_type_symbol
 _atom_site_label
 _atom_site_symmetry_multiplicity
 _atom_site_fract_x
 _atom_site_fract_y
 _atom_site_fract_z
 _atom_site_occupancy
  Ta  Ta0  1  0.000000  0.000000  0.250000  1
  Ta  Ta1  1  0.666667  0.333333  0.456281  1
  Ta  Ta2  1  0.666667  0.333333  0.043719  1
  Ta  Ta3  1  0.666667  0.333333  0.651192  1
  Ta  Ta4  1  0.333333  0.666667  0.348808  1
  Ta  Ta5  1  0.333333  0.666667  0.956281  1
  Ta  Ta6  1  0.000000  0.000000  0.750000  1
  Ta  Ta7  1  0.333333  0.666667  0.543719  1
  Ta  Ta8  1  0.666667  0.333333  0.848808  1
  Ta  Ta9  1  0.333333  0.666667  0.151192  1
  Pd  Pd10  1  0.166786  0.833214  0.651033  1
  Pd  Pd11  1  0.336391  0.168195  0.947486  1
  Pd  Pd12  1  0.168195  0.831805  0.052514  1
  Pd  Pd13  1  0.166786  0.333571  0.848967  1
  Pd  Pd14  1  0.002113  0.501057  0.250000  1
  Pd  Pd15  1  0.663609  0.831805  0.447486  1
  Pd  Pd16  1  0.833214  0.666429  0.348967  1
  Pd  Pd17  1  0.831805  0.168195  0.552514  1
  Pd  Pd18  1  0.831805  0.663609  0.947486  1
  Pd  Pd19  1  0.168195  0.831805  0.447486  1
  Pd  Pd20  1  0.833214  0.166786  0.151033  1
  Pd  Pd21  1  0.666429  0.833214  0.848967  1
  Pd  Pd22  1  0.336391  0.168195  0.552514  1
  Pd  Pd23  1  0.333571  0.166786  0.348967  1
  Pd  Pd24  1  0.666429  0.833214  0.651033  1
  Pd  Pd25  1  0.831805  0.168195  0.947486  1
  Pd  Pd26  1  0.498943  0.997887  0.250000  1
  Pd  Pd27  1  0.501057  0.498943  0.750000  1
  Pd  Pd28  1  0.663609  0.831805  0.052514  1
  Pd  Pd29  1  0.833214  0.166786  0.348967  1
  Pd  Pd30  1  0.168195  0.336391  0.052514  1
  Pd  Pd31  1  0.831805  0.663609  0.552514  1
  Pd  Pd32  1  0.166786  0.333571  0.651033  1
  Pd  Pd33  1  0.833214  0.666429  0.151033  1
  Pd  Pd34  1  0.168195  0.336391  0.447486  1
  Pd  Pd35  1  0.997887  0.498943  0.750000  1
  Pd  Pd36  1  0.166786  0.833214  0.848967  1
  Pd  Pd37  1  0.501057  0.002113  0.750000  1
  Pd  Pd38  1  0.498943  0.501057  0.250000  1
  Pd  Pd39  1  0.333571  0.166786  0.151033  1
