# generated using pymatgen
data_Na3NiF6
_symmetry_space_group_name_H-M   'P 1'
_cell_length_a   5.51242988
_cell_length_b   5.78268353
_cell_length_c   9.63657698
_cell_angle_alpha   90.00000000
_cell_angle_beta   124.22424002
_cell_angle_gamma   90.00000000
_symmetry_Int_Tables_number   1
_chemical_formula_structural   Na3NiF6
_chemical_formula_sum   'Na6 Ni2 F12'
_cell_volume   253.99092232
_cell_formula_units_Z   2
loop_
 _symmetry_equiv_pos_site_id
 _symmetry_equiv_pos_as_xyz
  1  'x, y, z'
loop_
 _atom_site_type_symbol
 _atom_site_label
 _atom_site_symmetry_multiplicity
 _atom_site_fract_x
 _atom_site_fract_y
 _atom_site_fract_z
 _atom_site_occupancy
  Na  Na0  1  0.721247  0.559171  0.742366  1
  Na  Na1  1  0.278753  0.059171  0.757634  1
  Na  Na2  1  0.278753  0.440829  0.257634  1
  Na  Na3  1  0.721247  0.940829  0.242366  1
  Na  Na4  1  0.500000  0.500000  0.000000  1
  Na  Na5  1  0.500000  0.000000  0.500000  1
  Ni  Ni6  1  0.000000  0.500000  0.500000  1
  Ni  Ni7  1  0.000000  0.000000  0.000000  1
  F  F8  1  0.753147  0.227783  0.423763  1
  F  F9  1  0.246853  0.727783  0.076237  1
  F  F10  1  0.246853  0.772217  0.576237  1
  F  F11  1  0.753147  0.272217  0.923763  1
  F  F12  1  0.330596  0.321039  0.548788  1
  F  F13  1  0.669404  0.821039  0.951212  1
  F  F14  1  0.669404  0.678961  0.451212  1
  F  F15  1  0.330596  0.178961  0.048788  1
  F  F16  1  0.104236  0.059522  0.223321  1
  F  F17  1  0.895764  0.559522  0.276679  1
  F  F18  1  0.895764  0.940478  0.776679  1
  F  F19  1  0.104236  0.440478  0.723321  1
