# generated using pymatgen
data_LaNiSnH
_symmetry_space_group_name_H-M   'P 1'
_cell_length_a   4.45404839
_cell_length_b   7.30650831
_cell_length_c   8.67917323
_cell_angle_alpha   90.00000000
_cell_angle_beta   90.00000000
_cell_angle_gamma   90.00000000
_symmetry_Int_Tables_number   1
_chemical_formula_structural   LaNiSnH
_chemical_formula_sum   'La4 Ni4 Sn4 H4'
_cell_volume   282.45103484
_cell_formula_units_Z   4
loop_
 _symmetry_equiv_pos_site_id
 _symmetry_equiv_pos_as_xyz
  1  'x, y, z'
loop_
 _atom_site_type_symbol
 _atom_site_label
 _atom_site_symmetry_multiplicity
 _atom_site_fract_x
 _atom_site_fract_y
 _atom_site_fract_z
 _atom_site_occupancy
  La  La0  1  0.750000  0.011962  0.188801  1
  La  La1  1  0.250000  0.988038  0.811199  1
  La  La2  1  0.250000  0.488038  0.688801  1
  La  La3  1  0.750000  0.511962  0.311199  1
  Ni  Ni4  1  0.750000  0.781589  0.596261  1
  Ni  Ni5  1  0.250000  0.218411  0.403739  1
  Ni  Ni6  1  0.250000  0.718411  0.096261  1
  Ni  Ni7  1  0.750000  0.281589  0.903739  1
  Sn  Sn8  1  0.750000  0.655434  0.933892  1
  Sn  Sn9  1  0.250000  0.344566  0.066108  1
  Sn  Sn10  1  0.250000  0.844566  0.433892  1
  Sn  Sn11  1  0.750000  0.155434  0.566108  1
  H  H12  1  0.250000  0.437120  0.419080  1
  H  H13  1  0.750000  0.562880  0.580920  1
  H  H14  1  0.750000  0.062880  0.919080  1
  H  H15  1  0.250000  0.937120  0.080920  1
