# generated using pymatgen
data_SrYbSi4N7
_symmetry_space_group_name_H-M   'P 1'
_cell_length_a   6.08390603
_cell_length_b   6.08390603
_cell_length_c   9.86528177
_cell_angle_alpha   90.00000000
_cell_angle_beta   90.00000000
_cell_angle_gamma   120.00000000
_symmetry_Int_Tables_number   1
_chemical_formula_structural   SrYbSi4N7
_chemical_formula_sum   'Sr2 Yb2 Si8 N14'
_cell_volume   316.23149433
_cell_formula_units_Z   2
loop_
 _symmetry_equiv_pos_site_id
 _symmetry_equiv_pos_as_xyz
  1  'x, y, z'
loop_
 _atom_site_type_symbol
 _atom_site_label
 _atom_site_symmetry_multiplicity
 _atom_site_fract_x
 _atom_site_fract_y
 _atom_site_fract_z
 _atom_site_occupancy
  Sr  Sr0  1  0.333333  0.666667  0.369089  1
  Sr  Sr1  1  0.666667  0.333333  0.869089  1
  Yb  Yb2  1  0.666667  0.333333  0.234879  1
  Yb  Yb3  1  0.333333  0.666667  0.734879  1
  Si  Si4  1  0.000000  0.000000  0.312955  1
  Si  Si5  1  0.000000  0.000000  0.812955  1
  Si  Si6  1  0.174181  0.348361  0.047152  1
  Si  Si7  1  0.825819  0.174181  0.547152  1
  Si  Si8  1  0.348361  0.174181  0.547152  1
  Si  Si9  1  0.651639  0.825819  0.047152  1
  Si  Si10  1  0.174181  0.825819  0.047152  1
  Si  Si11  1  0.825819  0.651639  0.547152  1
  N  N12  1  0.000000  0.000000  0.124469  1
  N  N13  1  0.000000  0.000000  0.624469  1
  N  N14  1  0.023373  0.511687  0.095279  1
  N  N15  1  0.511687  0.023373  0.595279  1
  N  N16  1  0.511687  0.488313  0.595279  1
  N  N17  1  0.488313  0.511687  0.095279  1
  N  N18  1  0.488313  0.976627  0.095279  1
  N  N19  1  0.976627  0.488313  0.595279  1
  N  N20  1  0.849199  0.698398  0.374672  1
  N  N21  1  0.150801  0.849199  0.874672  1
  N  N22  1  0.698398  0.849199  0.874672  1
  N  N23  1  0.301602  0.150801  0.374672  1
  N  N24  1  0.849199  0.150801  0.374672  1
  N  N25  1  0.150801  0.301602  0.874672  1
