# generated using pymatgen
data_SrMgF4
_symmetry_space_group_name_H-M   'P 1'
_cell_length_a   7.78929860
_cell_length_b   16.80398630
_cell_length_c   8.15280088
_cell_angle_alpha   90.00000000
_cell_angle_beta   105.18642335
_cell_angle_gamma   90.00000000
_symmetry_Int_Tables_number   1
_chemical_formula_structural   SrMgF4
_chemical_formula_sum   'Sr12 Mg12 F48'
_cell_volume   1029.86474190
_cell_formula_units_Z   12
loop_
 _symmetry_equiv_pos_site_id
 _symmetry_equiv_pos_as_xyz
  1  'x, y, z'
loop_
 _atom_site_type_symbol
 _atom_site_label
 _atom_site_symmetry_multiplicity
 _atom_site_fract_x
 _atom_site_fract_y
 _atom_site_fract_z
 _atom_site_occupancy
  Sr  Sr0  1  0.160587  0.081962  0.164986  1
  Sr  Sr1  1  0.839413  0.581962  0.835014  1
  Sr  Sr2  1  0.163743  0.750000  0.166445  1
  Sr  Sr3  1  0.835844  0.915329  0.333655  1
  Sr  Sr4  1  0.156147  0.750000  0.663684  1
  Sr  Sr5  1  0.164156  0.415329  0.666345  1
  Sr  Sr6  1  0.836257  0.250000  0.833555  1
  Sr  Sr7  1  0.835844  0.584671  0.333655  1
  Sr  Sr8  1  0.160587  0.418038  0.164986  1
  Sr  Sr9  1  0.164156  0.084671  0.666345  1
  Sr  Sr10  1  0.843853  0.250000  0.336316  1
  Sr  Sr11  1  0.839413  0.918038  0.835014  1
  Mg  Mg12  1  0.324202  0.250000  0.956226  1
  Mg  Mg13  1  0.320997  0.917238  0.455241  1
  Mg  Mg14  1  0.322863  0.583295  0.955584  1
  Mg  Mg15  1  0.677137  0.083295  0.044416  1
  Mg  Mg16  1  0.671661  0.750000  0.542833  1
  Mg  Mg17  1  0.328339  0.250000  0.457167  1
  Mg  Mg18  1  0.679003  0.417238  0.544759  1
  Mg  Mg19  1  0.677137  0.416705  0.044416  1
  Mg  Mg20  1  0.679003  0.082762  0.544759  1
  Mg  Mg21  1  0.322863  0.916705  0.955584  1
  Mg  Mg22  1  0.320997  0.582762  0.455241  1
  Mg  Mg23  1  0.675798  0.750000  0.043774  1
  F  F24  1  0.872506  0.499920  0.591013  1
  F  F25  1  0.700461  0.415416  0.300099  1
  F  F26  1  0.493317  0.667544  0.490278  1
  F  F27  1  0.691694  0.750000  0.797714  1
  F  F28  1  0.875808  0.334559  0.593735  1
  F  F29  1  0.127494  0.999920  0.408987  1
  F  F30  1  0.872506  0.000080  0.591013  1
  F  F31  1  0.127638  0.834013  0.906681  1
  F  F32  1  0.707257  0.419066  0.801993  1
  F  F33  1  0.308306  0.250000  0.202286  1
  F  F34  1  0.500723  0.166541  0.992746  1
  F  F35  1  0.292743  0.919066  0.198007  1
  F  F36  1  0.499277  0.666541  0.007254  1
  F  F37  1  0.124192  0.665441  0.406265  1
  F  F38  1  0.299539  0.584584  0.699901  1
  F  F39  1  0.871481  0.832401  0.090524  1
  F  F40  1  0.127691  0.500501  0.904849  1
  F  F41  1  0.506683  0.332456  0.509722  1
  F  F42  1  0.872362  0.165987  0.093319  1
  F  F43  1  0.872362  0.334013  0.093319  1
  F  F44  1  0.867159  0.832553  0.594031  1
  F  F45  1  0.132841  0.167447  0.405969  1
  F  F46  1  0.299539  0.915416  0.699901  1
  F  F47  1  0.293553  0.250000  0.698349  1
  F  F48  1  0.128519  0.167599  0.909476  1
  F  F49  1  0.500000  0.000000  0.500000  1
  F  F50  1  0.124192  0.834559  0.406265  1
  F  F51  1  0.499277  0.833459  0.007254  1
  F  F52  1  0.132841  0.332553  0.405969  1
  F  F53  1  0.292743  0.580934  0.198007  1
  F  F54  1  0.871481  0.667599  0.090524  1
  F  F55  1  0.867159  0.667447  0.594031  1
  F  F56  1  0.128519  0.332401  0.909476  1
  F  F57  1  0.872309  0.499499  0.095151  1
  F  F58  1  0.127691  0.999499  0.904849  1
  F  F59  1  0.700461  0.084584  0.300099  1
  F  F60  1  0.707257  0.080934  0.801993  1
  F  F61  1  0.872309  0.000501  0.095151  1
  F  F62  1  0.500723  0.333459  0.992746  1
  F  F63  1  0.500000  0.500000  0.500000  1
  F  F64  1  0.493317  0.832456  0.490278  1
  F  F65  1  0.875808  0.165441  0.593735  1
  F  F66  1  0.506683  0.167544  0.509722  1
  F  F67  1  0.127638  0.665987  0.906681  1
  F  F68  1  0.706447  0.750000  0.301651  1
  F  F69  1  0.500000  0.500000  0.000000  1
  F  F70  1  0.127494  0.500080  0.408987  1
  F  F71  1  0.500000  0.000000  0.000000  1
