# generated using pymatgen
data_CoSeO4
_symmetry_space_group_name_H-M   'P 1'
_cell_length_a   4.97921887
_cell_length_b   4.97921887
_cell_length_c   6.66997657
_cell_angle_alpha   90.00000000
_cell_angle_beta   90.00000000
_cell_angle_gamma   112.61821961
_symmetry_Int_Tables_number   1
_chemical_formula_structural   CoSeO4
_chemical_formula_sum   'Co2 Se2 O8'
_cell_volume   152.64754767
_cell_formula_units_Z   2
loop_
 _symmetry_equiv_pos_site_id
 _symmetry_equiv_pos_as_xyz
  1  'x, y, z'
loop_
 _atom_site_type_symbol
 _atom_site_label
 _atom_site_symmetry_multiplicity
 _atom_site_fract_x
 _atom_site_fract_y
 _atom_site_fract_z
 _atom_site_occupancy
  Co  Co0  1  0.000000  0.000000  0.000000  1
  Co  Co1  1  0.000000  0.000000  0.500000  1
  Se  Se2  1  0.348356  0.651644  0.750000  1
  Se  Se3  1  0.651644  0.348356  0.250000  1
  O  O4  1  0.241387  0.758613  0.539015  1
  O  O5  1  0.758613  0.241387  0.460985  1
  O  O6  1  0.281365  0.221619  0.250000  1
  O  O7  1  0.718635  0.778381  0.750000  1
  O  O8  1  0.241387  0.758613  0.960985  1
  O  O9  1  0.758613  0.241387  0.039015  1
  O  O10  1  0.778381  0.718635  0.250000  1
  O  O11  1  0.221619  0.281365  0.750000  1
