# generated using pymatgen
data_K2Be2Zn2Si3O11
_symmetry_space_group_name_H-M   'P 1'
_cell_length_a   9.64579197
_cell_length_b   9.64579197
_cell_length_c   9.64579197
_cell_angle_alpha   138.54975754
_cell_angle_beta   119.26615630
_cell_angle_gamma   76.20798413
_symmetry_Int_Tables_number   1
_chemical_formula_structural   K2Be2Zn2Si3O11
_chemical_formula_sum   'K4 Be4 Zn4 Si6 O22'
_cell_volume   505.36221254
_cell_formula_units_Z   2
loop_
 _symmetry_equiv_pos_site_id
 _symmetry_equiv_pos_as_xyz
  1  'x, y, z'
loop_
 _atom_site_type_symbol
 _atom_site_label
 _atom_site_symmetry_multiplicity
 _atom_site_fract_x
 _atom_site_fract_y
 _atom_site_fract_z
 _atom_site_occupancy
  K  K0  1  0.111574  0.861574  0.750000  1
  K  K1  1  0.301333  0.551333  0.250000  1
  K  K2  1  0.888426  0.138426  0.250000  1
  K  K3  1  0.698667  0.448667  0.750000  1
  Be  Be4  1  0.500000  0.825019  0.825019  1
  Be  Be5  1  0.000000  0.174981  0.674981  1
  Be  Be6  1  0.500000  0.174981  0.174981  1
  Be  Be7  1  0.000000  0.825019  0.325019  1
  Zn  Zn8  1  0.650767  0.500000  0.150767  1
  Zn  Zn9  1  0.349233  0.000000  0.349233  1
  Zn  Zn10  1  0.650767  1.000000  0.650767  1
  Zn  Zn11  1  0.349233  0.500000  0.849233  1
  Si  Si12  1  0.723334  0.633032  0.590302  1
  Si  Si13  1  0.042731  0.633032  0.909698  1
  Si  Si14  1  0.276666  0.366967  0.409698  1
  Si  Si15  1  0.652681  0.902681  0.250000  1
  Si  Si16  1  0.347319  0.097319  0.750000  1
  Si  Si17  1  0.957269  0.366968  0.090302  1
  O  O18  1  0.424380  0.035785  0.888595  1
  O  O19  1  0.147190  0.035785  0.611405  1
  O  O20  1  0.643577  0.778094  0.764806  1
  O  O21  1  0.077595  0.327595  0.250000  1
  O  O22  1  0.230929  0.723375  0.007554  1
  O  O23  1  0.922405  0.672405  0.750000  1
  O  O24  1  0.410543  0.357595  0.947052  1
  O  O25  1  0.715821  0.723375  0.492446  1
  O  O26  1  0.284179  0.276625  0.507554  1
  O  O27  1  0.986712  0.221906  0.865483  1
  O  O28  1  0.986712  0.621229  0.264806  1
  O  O29  1  0.575620  0.964215  0.111405  1
  O  O30  1  0.643577  0.378771  0.365483  1
  O  O31  1  0.013288  0.378771  0.735194  1
  O  O32  1  0.356423  0.221906  0.235194  1
  O  O33  1  0.013288  0.778094  0.134517  1
  O  O34  1  0.589457  0.036509  0.447052  1
  O  O35  1  0.769071  0.276625  0.992446  1
  O  O36  1  0.589457  0.642405  0.052948  1
  O  O37  1  0.410543  0.963491  0.552948  1
  O  O38  1  0.852810  0.964215  0.388595  1
  O  O39  1  0.356423  0.621229  0.634517  1
