# generated using pymatgen
data_Ti5Si4
_symmetry_space_group_name_H-M   'P 1'
_cell_length_a   6.70858491
_cell_length_b   6.70858491
_cell_length_c   12.19884323
_cell_angle_alpha   90.00000000
_cell_angle_beta   90.00000000
_cell_angle_gamma   90.00000000
_symmetry_Int_Tables_number   1
_chemical_formula_structural   Ti5Si4
_chemical_formula_sum   'Ti20 Si16'
_cell_volume   549.01029967
_cell_formula_units_Z   4
loop_
 _symmetry_equiv_pos_site_id
 _symmetry_equiv_pos_as_xyz
  1  'x, y, z'
loop_
 _atom_site_type_symbol
 _atom_site_label
 _atom_site_symmetry_multiplicity
 _atom_site_fract_x
 _atom_site_fract_y
 _atom_site_fract_z
 _atom_site_occupancy
  Ti  Ti0  1  0.996076  0.148493  0.622074  1
  Ti  Ti1  1  0.351507  0.496076  0.872074  1
  Ti  Ti2  1  0.648493  0.503924  0.372074  1
  Ti  Ti3  1  0.496076  0.351507  0.127926  1
  Ti  Ti4  1  0.503924  0.648493  0.627926  1
  Ti  Ti5  1  0.003924  0.851507  0.122074  1
  Ti  Ti6  1  0.148493  0.996076  0.377926  1
  Ti  Ti7  1  0.851507  0.003924  0.877926  1
  Ti  Ti8  1  0.001574  0.346515  0.218043  1
  Ti  Ti9  1  0.153485  0.501574  0.468043  1
  Ti  Ti10  1  0.846515  0.498426  0.968043  1
  Ti  Ti11  1  0.501574  0.153485  0.531957  1
  Ti  Ti12  1  0.498426  0.846515  0.031957  1
  Ti  Ti13  1  0.998426  0.653485  0.718043  1
  Ti  Ti14  1  0.346515  0.001574  0.781957  1
  Ti  Ti15  1  0.653485  0.998426  0.281957  1
  Ti  Ti16  1  0.171738  0.171738  0.000000  1
  Ti  Ti17  1  0.328262  0.671738  0.250000  1
  Ti  Ti18  1  0.671738  0.328262  0.750000  1
  Ti  Ti19  1  0.828262  0.828262  0.500000  1
  Si  Si20  1  0.045171  0.301080  0.813457  1
  Si  Si21  1  0.198920  0.545171  0.063457  1
  Si  Si22  1  0.801080  0.454829  0.563457  1
  Si  Si23  1  0.545171  0.198920  0.936543  1
  Si  Si24  1  0.454829  0.801080  0.436543  1
  Si  Si25  1  0.954829  0.698920  0.313457  1
  Si  Si26  1  0.301080  0.045171  0.186543  1
  Si  Si27  1  0.698920  0.954829  0.686543  1
  Si  Si28  1  0.295426  0.356071  0.672867  1
  Si  Si29  1  0.143929  0.795426  0.922867  1
  Si  Si30  1  0.856071  0.204574  0.422867  1
  Si  Si31  1  0.795426  0.143929  0.077133  1
  Si  Si32  1  0.204574  0.856071  0.577133  1
  Si  Si33  1  0.704574  0.643929  0.172867  1
  Si  Si34  1  0.356071  0.295426  0.327133  1
  Si  Si35  1  0.643929  0.704574  0.827133  1
