# generated using pymatgen
data_Li6Br3N
_symmetry_space_group_name_H-M   'P 1'
_cell_length_a   14.02711293
_cell_length_b   14.02711293
_cell_length_c   14.02711293
_cell_angle_alpha   131.49090930
_cell_angle_beta   131.09615162
_cell_angle_gamma   71.34760734
_symmetry_Int_Tables_number   1
_chemical_formula_structural   Li6Br3N
_chemical_formula_sum   'Li48 Br24 N8'
_cell_volume   1524.95050414
_cell_formula_units_Z   8
loop_
 _symmetry_equiv_pos_site_id
 _symmetry_equiv_pos_as_xyz
  1  'x, y, z'
loop_
 _atom_site_type_symbol
 _atom_site_label
 _atom_site_symmetry_multiplicity
 _atom_site_fract_x
 _atom_site_fract_y
 _atom_site_fract_z
 _atom_site_occupancy
  Li  Li0  1  0.835810  0.875384  0.827388  1
  Li  Li1  1  0.049069  0.510616  0.173521  1
  Li  Li2  1  0.922271  0.141880  0.993846  1
  Li  Li3  1  0.664190  0.491578  0.039575  1
  Li  Li4  1  0.549069  0.375547  0.538452  1
  Li  Li5  1  0.014350  0.045350  0.674731  1
  Li  Li6  1  0.379452  0.833502  0.320873  1
  Li  Li7  1  0.987371  0.941421  0.820873  1
  Li  Li8  1  0.370619  0.545350  0.531000  1
  Li  Li9  1  0.148034  0.641880  0.719609  1
  Li  Li10  1  0.012629  0.058579  0.179127  1
  Li  Li11  1  0.950931  0.489384  0.826479  1
  Li  Li12  1  0.138723  0.414584  0.993224  1
  Li  Li13  1  0.512629  0.333502  0.954050  1
  Li  Li14  1  0.577729  0.571575  0.219609  1
  Li  Li15  1  0.162905  0.124453  0.673521  1
  Li  Li16  1  0.452004  0.991578  0.327388  1
  Li  Li17  1  0.985650  0.954650  0.325269  1
  Li  Li18  1  0.620548  0.166498  0.679127  1
  Li  Li19  1  0.335810  0.508422  0.960425  1
  Li  Li20  1  0.164190  0.124616  0.172612  1
  Li  Li21  1  0.921360  0.145499  0.506776  1
  Li  Li22  1  0.578640  0.085416  0.224139  1
  Li  Li23  1  0.361277  0.354501  0.275861  1
  Li  Li24  1  0.870619  0.339619  0.825269  1
  Li  Li25  1  0.514350  0.839619  0.969000  1
  Li  Li26  1  0.861277  0.585416  0.006776  1
  Li  Li27  1  0.047996  0.375384  0.539575  1
  Li  Li28  1  0.629381  0.454650  0.469000  1
  Li  Li29  1  0.351966  0.071575  0.493846  1
  Li  Li30  1  0.648034  0.928425  0.506154  1
  Li  Li31  1  0.837095  0.875547  0.326479  1
  Li  Li32  1  0.450931  0.624453  0.461548  1
  Li  Li33  1  0.129381  0.660381  0.174731  1
  Li  Li34  1  0.485650  0.160381  0.031000  1
  Li  Li35  1  0.421360  0.914584  0.775861  1
  Li  Li36  1  0.547996  0.008422  0.672612  1
  Li  Li37  1  0.077729  0.858120  0.006154  1
  Li  Li38  1  0.487371  0.666498  0.045950  1
  Li  Li39  1  0.851966  0.358120  0.280391  1
  Li  Li40  1  0.422271  0.428425  0.780391  1
  Li  Li41  1  0.337095  0.010616  0.961548  1
  Li  Li42  1  0.952004  0.624616  0.460425  1
  Li  Li43  1  0.078640  0.854501  0.493224  1
  Li  Li44  1  0.120548  0.441421  0.454050  1
  Li  Li45  1  0.638723  0.645499  0.724139  1
  Li  Li46  1  0.662905  0.989384  0.038452  1
  Li  Li47  1  0.879452  0.558579  0.545950  1
  Br  Br48  1  0.750000  0.279040  0.529040  1
  Br  Br49  1  0.135821  0.885821  0.250000  1
  Br  Br50  1  0.883972  0.140814  0.279138  1
  Br  Br51  1  0.230284  0.250000  0.480284  1
  Br  Br52  1  0.361676  0.604834  0.220862  1
  Br  Br53  1  0.386833  0.136833  0.250000  1
  Br  Br54  1  0.750000  0.779040  0.029040  1
  Br  Br55  1  0.383972  0.104834  0.743158  1
  Br  Br56  1  0.769716  0.750000  0.519716  1
  Br  Br57  1  0.638324  0.395166  0.779138  1
  Br  Br58  1  0.886833  0.636833  0.250000  1
  Br  Br59  1  0.269716  0.750000  0.019716  1
  Br  Br60  1  0.250000  0.220960  0.970960  1
  Br  Br61  1  0.635821  0.385821  0.250000  1
  Br  Br62  1  0.364179  0.614179  0.750000  1
  Br  Br63  1  0.613167  0.863167  0.750000  1
  Br  Br64  1  0.730284  0.250000  0.980284  1
  Br  Br65  1  0.138324  0.359186  0.243158  1
  Br  Br66  1  0.861676  0.640814  0.756842  1
  Br  Br67  1  0.250000  0.720960  0.470960  1
  Br  Br68  1  0.864179  0.114179  0.750000  1
  Br  Br69  1  0.113167  0.363167  0.750000  1
  Br  Br70  1  0.116028  0.859186  0.720862  1
  Br  Br71  1  0.616028  0.895166  0.256842  1
  N  N72  1  0.500000  0.000000  0.000000  1
  N  N73  1  0.500000  0.500000  0.000000  1
  N  N74  1  0.000000  0.000000  0.000000  1
  N  N75  1  0.500000  0.500000  0.500000  1
  N  N76  1  0.500000  0.000000  0.500000  1
  N  N77  1  0.000000  0.500000  0.500000  1
  N  N78  1  0.000000  0.500000  0.000000  1
  N  N79  1  0.000000  0.000000  0.500000  1
