# generated using pymatgen
data_Cs3Te17Mo15
_symmetry_space_group_name_H-M   'P 1'
_cell_length_a   10.42707694
_cell_length_b   10.42707694
_cell_length_c   21.85103658
_cell_angle_alpha   90.00000000
_cell_angle_beta   90.00000000
_cell_angle_gamma   120.00000000
_symmetry_Int_Tables_number   1
_chemical_formula_structural   Cs3Te17Mo15
_chemical_formula_sum   'Cs6 Te34 Mo30'
_cell_volume   2057.44309253
_cell_formula_units_Z   2
loop_
 _symmetry_equiv_pos_site_id
 _symmetry_equiv_pos_as_xyz
  1  'x, y, z'
loop_
 _atom_site_type_symbol
 _atom_site_label
 _atom_site_symmetry_multiplicity
 _atom_site_fract_x
 _atom_site_fract_y
 _atom_site_fract_z
 _atom_site_occupancy
  Cs  Cs0  1  0.000000  0.000000  0.860450  1
  Cs  Cs1  1  0.333333  0.666667  0.250000  1
  Cs  Cs2  1  0.000000  0.000000  0.639550  1
  Cs  Cs3  1  0.000000  0.000000  0.139550  1
  Cs  Cs4  1  0.666667  0.333333  0.750000  1
  Cs  Cs5  1  0.000000  0.000000  0.360450  1
  Te  Te6  1  0.624798  0.632168  0.642958  1
  Te  Te7  1  0.992629  0.624798  0.142958  1
  Te  Te8  1  0.375202  0.367832  0.142958  1
  Te  Te9  1  0.662845  0.961204  0.957409  1
  Te  Te10  1  0.298359  0.337155  0.542591  1
  Te  Te11  1  0.040562  0.705435  0.750000  1
  Te  Te12  1  0.666667  0.333333  0.565867  1
  Te  Te13  1  0.632168  0.007371  0.357042  1
  Te  Te14  1  0.375202  0.367832  0.357042  1
  Te  Te15  1  0.007371  0.375202  0.642958  1
  Te  Te16  1  0.038796  0.701641  0.542591  1
  Te  Te17  1  0.298359  0.337155  0.957409  1
  Te  Te18  1  0.959438  0.294565  0.250000  1
  Te  Te19  1  0.367832  0.992629  0.642958  1
  Te  Te20  1  0.705435  0.664873  0.250000  1
  Te  Te21  1  0.337155  0.038796  0.042591  1
  Te  Te22  1  0.992629  0.624798  0.357042  1
  Te  Te23  1  0.367832  0.992629  0.857042  1
  Te  Te24  1  0.664873  0.959438  0.750000  1
  Te  Te25  1  0.961204  0.298359  0.042591  1
  Te  Te26  1  0.337155  0.038796  0.457409  1
  Te  Te27  1  0.038796  0.701641  0.957409  1
  Te  Te28  1  0.333333  0.666667  0.065867  1
  Te  Te29  1  0.335127  0.040562  0.250000  1
  Te  Te30  1  0.961204  0.298359  0.457409  1
  Te  Te31  1  0.333333  0.666667  0.434133  1
  Te  Te32  1  0.666667  0.333333  0.934133  1
  Te  Te33  1  0.632168  0.007371  0.142958  1
  Te  Te34  1  0.662845  0.961204  0.542591  1
  Te  Te35  1  0.294565  0.335127  0.750000  1
  Te  Te36  1  0.007371  0.375202  0.857042  1
  Te  Te37  1  0.701641  0.662845  0.457409  1
  Te  Te38  1  0.624798  0.632168  0.857042  1
  Te  Te39  1  0.701641  0.662845  0.042591  1
  Mo  Mo40  1  0.318437  0.510126  0.643295  1
  Mo  Mo41  1  0.489874  0.808311  0.643295  1
  Mo  Mo42  1  0.350530  0.821293  0.750000  1
  Mo  Mo43  1  0.649470  0.178707  0.250000  1
  Mo  Mo44  1  0.529238  0.350530  0.250000  1
  Mo  Mo45  1  0.191689  0.681563  0.856705  1
  Mo  Mo46  1  0.510126  0.191689  0.143295  1
  Mo  Mo47  1  0.352139  0.822816  0.538036  1
  Mo  Mo48  1  0.681563  0.489874  0.143295  1
  Mo  Mo49  1  0.177184  0.529323  0.538036  1
  Mo  Mo50  1  0.529323  0.352139  0.038036  1
  Mo  Mo51  1  0.470762  0.649470  0.750000  1
  Mo  Mo52  1  0.470677  0.647861  0.961964  1
  Mo  Mo53  1  0.529323  0.352139  0.461964  1
  Mo  Mo54  1  0.647861  0.177184  0.461964  1
  Mo  Mo55  1  0.808311  0.318437  0.143295  1
  Mo  Mo56  1  0.822816  0.470677  0.038036  1
  Mo  Mo57  1  0.821293  0.470762  0.250000  1
  Mo  Mo58  1  0.681563  0.489874  0.356705  1
  Mo  Mo59  1  0.470677  0.647861  0.538036  1
  Mo  Mo60  1  0.510126  0.191689  0.356705  1
  Mo  Mo61  1  0.808311  0.318437  0.356705  1
  Mo  Mo62  1  0.177184  0.529323  0.961964  1
  Mo  Mo63  1  0.647861  0.177184  0.038036  1
  Mo  Mo64  1  0.489874  0.808311  0.856705  1
  Mo  Mo65  1  0.352139  0.822816  0.961964  1
  Mo  Mo66  1  0.178707  0.529238  0.750000  1
  Mo  Mo67  1  0.822816  0.470677  0.461964  1
  Mo  Mo68  1  0.191689  0.681563  0.643295  1
  Mo  Mo69  1  0.318437  0.510126  0.856705  1
