# generated using pymatgen
data_Nb5Ga3
_symmetry_space_group_name_H-M   'P 1'
_cell_length_a   7.75590439
_cell_length_b   7.75590439
_cell_length_c   7.75590439
_cell_angle_alpha   96.22548312
_cell_angle_beta   96.22548312
_cell_angle_gamma   141.54685618
_symmetry_Int_Tables_number   1
_chemical_formula_structural   Nb5Ga3
_chemical_formula_sum   'Nb10 Ga6'
_cell_volume   273.95229979
_cell_formula_units_Z   2
loop_
 _symmetry_equiv_pos_site_id
 _symmetry_equiv_pos_as_xyz
  1  'x, y, z'
loop_
 _atom_site_type_symbol
 _atom_site_label
 _atom_site_symmetry_multiplicity
 _atom_site_fract_x
 _atom_site_fract_y
 _atom_site_fract_z
 _atom_site_occupancy
  Nb  Nb0  1  0.250000  0.750000  0.500000  1
  Nb  Nb1  1  0.750000  0.250000  0.500000  1
  Nb  Nb2  1  0.424432  0.721660  0.146092  1
  Nb  Nb3  1  0.575568  0.278340  0.853908  1
  Nb  Nb4  1  0.924432  0.778340  0.702771  1
  Nb  Nb5  1  0.075568  0.221660  0.297229  1
  Nb  Nb6  1  0.721660  0.575568  0.297229  1
  Nb  Nb7  1  0.278340  0.424432  0.702771  1
  Nb  Nb8  1  0.778340  0.075568  0.853908  1
  Nb  Nb9  1  0.221660  0.924432  0.146092  1
  Ga  Ga10  1  0.250000  0.250000  0.000000  1
  Ga  Ga11  1  0.750000  0.750000  0.000000  1
  Ga  Ga12  1  0.334218  0.165782  0.500000  1
  Ga  Ga13  1  0.665782  0.834218  0.500000  1
  Ga  Ga14  1  0.834218  0.334218  0.168437  1
  Ga  Ga15  1  0.165782  0.665782  0.831563  1
