# generated using pymatgen
data_Na3B5SO8
_symmetry_space_group_name_H-M   'P 1'
_cell_length_a   11.07041419
_cell_length_b   6.32610095
_cell_length_c   11.62184086
_cell_angle_alpha   90.00000000
_cell_angle_beta   93.38487269
_cell_angle_gamma   90.00000000
_symmetry_Int_Tables_number   1
_chemical_formula_structural   Na3B5SO8
_chemical_formula_sum   'Na12 B20 S4 O32'
_cell_volume   812.48733990
_cell_formula_units_Z   4
loop_
 _symmetry_equiv_pos_site_id
 _symmetry_equiv_pos_as_xyz
  1  'x, y, z'
loop_
 _atom_site_type_symbol
 _atom_site_label
 _atom_site_symmetry_multiplicity
 _atom_site_fract_x
 _atom_site_fract_y
 _atom_site_fract_z
 _atom_site_occupancy
  Na  Na0  1  0.802620  0.306971  0.525111  1
  Na  Na1  1  0.697380  0.806971  0.474889  1
  Na  Na2  1  0.646535  0.922698  0.210628  1
  Na  Na3  1  0.109229  0.217310  0.979464  1
  Na  Na4  1  0.353465  0.077302  0.789372  1
  Na  Na5  1  0.390771  0.717310  0.020536  1
  Na  Na6  1  0.609229  0.282690  0.979464  1
  Na  Na7  1  0.890771  0.782690  0.020536  1
  Na  Na8  1  0.853465  0.422698  0.789372  1
  Na  Na9  1  0.197380  0.693029  0.474889  1
  Na  Na10  1  0.146535  0.577302  0.210628  1
  Na  Na11  1  0.302620  0.193029  0.525111  1
  B  B12  1  0.956074  0.987587  0.325084  1
  B  B13  1  0.672810  0.405127  0.298596  1
  B  B14  1  0.816712  0.383622  0.140535  1
  B  B15  1  0.978608  0.660616  0.622106  1
  B  B16  1  0.327190  0.594873  0.701404  1
  B  B17  1  0.683288  0.883622  0.859465  1
  B  B18  1  0.127472  0.386842  0.687709  1
  B  B19  1  0.872528  0.613158  0.312291  1
  B  B20  1  0.543926  0.487587  0.674916  1
  B  B21  1  0.021392  0.339384  0.377894  1
  B  B22  1  0.372528  0.886842  0.312291  1
  B  B23  1  0.827190  0.905127  0.701404  1
  B  B24  1  0.172810  0.094873  0.298596  1
  B  B25  1  0.627472  0.113158  0.687709  1
  B  B26  1  0.316712  0.116378  0.140535  1
  B  B27  1  0.183288  0.616378  0.859465  1
  B  B28  1  0.043926  0.012413  0.674916  1
  B  B29  1  0.521392  0.160616  0.377894  1
  B  B30  1  0.478608  0.839384  0.622106  1
  B  B31  1  0.456074  0.512413  0.325084  1
  S  S32  1  0.135647  0.751140  0.988276  1
  S  S33  1  0.864353  0.248860  0.011724  1
  S  S34  1  0.364353  0.251140  0.011724  1
  S  S35  1  0.635647  0.748860  0.988276  1
  O  O36  1  0.065509  0.820083  0.619079  1
  O  O37  1  0.266474  0.976052  0.362352  1
  O  O38  1  0.934491  0.179917  0.380921  1
  O  O39  1  0.614806  0.046294  0.809403  1
  O  O40  1  0.385194  0.953706  0.190597  1
  O  O41  1  0.710341  0.320366  0.187072  1
  O  O42  1  0.064546  0.953887  0.278194  1
  O  O43  1  0.859390  0.711743  0.632698  1
  O  O44  1  0.564546  0.546113  0.278194  1
  O  O45  1  0.638180  0.346647  0.679062  1
  O  O46  1  0.210341  0.179634  0.187072  1
  O  O47  1  0.011515  0.451714  0.622123  1
  O  O48  1  0.488485  0.951714  0.377877  1
  O  O49  1  0.511515  0.048286  0.622123  1
  O  O50  1  0.640610  0.211743  0.367302  1
  O  O51  1  0.861820  0.846647  0.320938  1
  O  O52  1  0.885194  0.546294  0.190597  1
  O  O53  1  0.138180  0.153353  0.679062  1
  O  O54  1  0.435454  0.453887  0.721806  1
  O  O55  1  0.789659  0.820366  0.812928  1
  O  O56  1  0.988485  0.548286  0.377877  1
  O  O57  1  0.766474  0.523948  0.362352  1
  O  O58  1  0.289659  0.679634  0.812928  1
  O  O59  1  0.565509  0.679917  0.619079  1
  O  O60  1  0.434491  0.320083  0.380921  1
  O  O61  1  0.114806  0.453706  0.809403  1
  O  O62  1  0.359390  0.788257  0.632698  1
  O  O63  1  0.935454  0.046113  0.721806  1
  O  O64  1  0.140610  0.288257  0.367302  1
  O  O65  1  0.733526  0.023948  0.637648  1
  O  O66  1  0.361820  0.653353  0.320938  1
  O  O67  1  0.233526  0.476052  0.637648  1
