# generated using pymatgen
data_CuMoO4
_symmetry_space_group_name_H-M   'P 1'
_cell_length_a   8.34805249
_cell_length_b   9.56229518
_cell_length_c   10.29567330
_cell_angle_alpha   90.00000000
_cell_angle_beta   124.51981970
_cell_angle_gamma   90.00000000
_symmetry_Int_Tables_number   1
_chemical_formula_structural   CuMoO4
_chemical_formula_sum   'Cu8 Mo8 O32'
_cell_volume   677.16187121
_cell_formula_units_Z   8
loop_
 _symmetry_equiv_pos_site_id
 _symmetry_equiv_pos_as_xyz
  1  'x, y, z'
loop_
 _atom_site_type_symbol
 _atom_site_label
 _atom_site_symmetry_multiplicity
 _atom_site_fract_x
 _atom_site_fract_y
 _atom_site_fract_z
 _atom_site_occupancy
  Cu  Cu0  1  0.585384  0.007393  0.263001  1
  Cu  Cu1  1  0.016520  0.498276  0.178589  1
  Cu  Cu2  1  0.414616  0.507393  0.236999  1
  Cu  Cu3  1  0.414616  0.992607  0.736999  1
  Cu  Cu4  1  0.585384  0.492607  0.763001  1
  Cu  Cu5  1  0.016520  0.001724  0.678589  1
  Cu  Cu6  1  0.983480  0.501724  0.821411  1
  Cu  Cu7  1  0.983480  0.998276  0.321411  1
  Mo  Mo8  1  0.361654  0.271475  0.907933  1
  Mo  Mo9  1  0.361654  0.228525  0.407933  1
  Mo  Mo10  1  0.638346  0.771475  0.592067  1
  Mo  Mo11  1  0.842538  0.310540  0.380016  1
  Mo  Mo12  1  0.638346  0.728525  0.092067  1
  Mo  Mo13  1  0.157462  0.810540  0.119984  1
  Mo  Mo14  1  0.842538  0.189460  0.880016  1
  Mo  Mo15  1  0.157462  0.689460  0.619984  1
  O  O16  1  0.109955  0.880151  0.257277  1
  O  O17  1  0.890045  0.380151  0.242723  1
  O  O18  1  0.473164  0.107016  0.351691  1
  O  O19  1  0.890045  0.119849  0.742723  1
  O  O20  1  0.462847  0.717230  0.398212  1
  O  O21  1  0.835272  0.109818  0.383707  1
  O  O22  1  0.740437  0.607519  0.715214  1
  O  O23  1  0.164728  0.609818  0.116293  1
  O  O24  1  0.637330  0.390937  0.367574  1
  O  O25  1  0.164728  0.890182  0.616293  1
  O  O26  1  0.259563  0.392481  0.284786  1
  O  O27  1  0.109955  0.619849  0.757277  1
  O  O28  1  0.526836  0.892984  0.648309  1
  O  O29  1  0.040256  0.148775  0.068635  1
  O  O30  1  0.462847  0.782770  0.898212  1
  O  O31  1  0.818986  0.860562  0.579493  1
  O  O32  1  0.181014  0.360562  0.920507  1
  O  O33  1  0.959744  0.851225  0.931365  1
  O  O34  1  0.181014  0.139438  0.420507  1
  O  O35  1  0.473164  0.392984  0.851691  1
  O  O36  1  0.537153  0.282770  0.601788  1
  O  O37  1  0.740437  0.892481  0.215214  1
  O  O38  1  0.959744  0.648775  0.431365  1
  O  O39  1  0.637330  0.109063  0.867574  1
  O  O40  1  0.362670  0.609063  0.632426  1
  O  O41  1  0.526836  0.607016  0.148309  1
  O  O42  1  0.040256  0.351225  0.568635  1
  O  O43  1  0.537153  0.217230  0.101788  1
  O  O44  1  0.818986  0.639438  0.079493  1
  O  O45  1  0.835272  0.390182  0.883707  1
  O  O46  1  0.259563  0.107519  0.784786  1
  O  O47  1  0.362670  0.890937  0.132426  1
