# generated using pymatgen
data_In2Ag3(PO4)3
_symmetry_space_group_name_H-M   'P 1'
_cell_length_a   9.18246914
_cell_length_b   9.18246914
_cell_length_c   6.72207537
_cell_angle_alpha   73.29227875
_cell_angle_beta   106.70772125
_cell_angle_gamma   88.91235771
_symmetry_Int_Tables_number   1
_chemical_formula_structural   In2Ag3(PO4)3
_chemical_formula_sum   'In4 Ag6 P6 O24'
_cell_volume   516.74404504
_cell_formula_units_Z   2
loop_
 _symmetry_equiv_pos_site_id
 _symmetry_equiv_pos_as_xyz
  1  'x, y, z'
loop_
 _atom_site_type_symbol
 _atom_site_label
 _atom_site_symmetry_multiplicity
 _atom_site_fract_x
 _atom_site_fract_y
 _atom_site_fract_z
 _atom_site_occupancy
  In  In0  1  0.385612  0.927401  0.153679  1
  In  In1  1  0.072599  0.614388  0.653679  1
  In  In2  1  0.927401  0.385612  0.346321  1
  In  In3  1  0.614388  0.072599  0.846321  1
  Ag  Ag4  1  0.000901  0.000901  0.250000  1
  Ag  Ag5  1  0.276910  0.276910  0.250000  1
  Ag  Ag6  1  0.999099  0.999099  0.750000  1
  Ag  Ag7  1  0.723090  0.723090  0.750000  1
  Ag  Ag8  1  0.500000  0.500000  0.500000  1
  Ag  Ag9  1  0.500000  0.500000  0.000000  1
  P  P10  1  0.731712  0.731712  0.250000  1
  P  P11  1  0.656239  0.141313  0.361014  1
  P  P12  1  0.141313  0.656239  0.138986  1
  P  P13  1  0.858687  0.343761  0.861014  1
  P  P14  1  0.343761  0.858687  0.638986  1
  P  P15  1  0.268288  0.268288  0.750000  1
  O  O16  1  0.018684  0.660885  0.920918  1
  O  O17  1  0.428947  0.250774  0.719043  1
  O  O18  1  0.250774  0.428947  0.780957  1
  O  O19  1  0.826682  0.170320  0.371196  1
  O  O20  1  0.930218  0.410962  0.671324  1
  O  O21  1  0.589038  0.069782  0.171324  1
  O  O22  1  0.251629  0.145084  0.955176  1
  O  O23  1  0.571053  0.749226  0.280957  1
  O  O24  1  0.854916  0.748371  0.455176  1
  O  O25  1  0.410962  0.930218  0.828676  1
  O  O26  1  0.981316  0.339115  0.079082  1
  O  O27  1  0.829680  0.173318  0.871196  1
  O  O28  1  0.748371  0.854916  0.044824  1
  O  O29  1  0.710260  0.439296  0.825762  1
  O  O30  1  0.749226  0.571053  0.219043  1
  O  O31  1  0.339115  0.981316  0.420918  1
  O  O32  1  0.660885  0.018684  0.579082  1
  O  O33  1  0.289740  0.560704  0.174238  1
  O  O34  1  0.069782  0.589038  0.328676  1
  O  O35  1  0.145084  0.251629  0.544824  1
  O  O36  1  0.173318  0.829680  0.628804  1
  O  O37  1  0.439296  0.710260  0.674238  1
  O  O38  1  0.170320  0.826682  0.128804  1
  O  O39  1  0.560704  0.289740  0.325762  1
