# generated using pymatgen
data_CuSb2BrO3
_symmetry_space_group_name_H-M   'P 1'
_cell_length_a   8.04508649
_cell_length_b   8.04508649
_cell_length_c   19.34685541
_cell_angle_alpha   90.00000000
_cell_angle_beta   90.00000000
_cell_angle_gamma   120.17214246
_symmetry_Int_Tables_number   1
_chemical_formula_structural   CuSb2BrO3
_chemical_formula_sum   'Cu8 Sb16 Br8 O24'
_cell_volume   1082.54634727
_cell_formula_units_Z   8
loop_
 _symmetry_equiv_pos_site_id
 _symmetry_equiv_pos_as_xyz
  1  'x, y, z'
loop_
 _atom_site_type_symbol
 _atom_site_label
 _atom_site_symmetry_multiplicity
 _atom_site_fract_x
 _atom_site_fract_y
 _atom_site_fract_z
 _atom_site_occupancy
  Cu  Cu0  1  0.767315  0.773880  0.282921  1
  Cu  Cu1  1  0.226120  0.232685  0.282921  1
  Cu  Cu2  1  0.773880  0.767315  0.782921  1
  Cu  Cu3  1  0.255869  0.744131  0.215119  1
  Cu  Cu4  1  0.755658  0.244342  0.290135  1
  Cu  Cu5  1  0.244342  0.755658  0.790135  1
  Cu  Cu6  1  0.232685  0.226120  0.782921  1
  Cu  Cu7  1  0.744131  0.255869  0.715119  1
  Sb  Sb8  1  0.432429  0.567571  0.581718  1
  Sb  Sb9  1  0.611698  0.927363  0.423398  1
  Sb  Sb10  1  0.388302  0.072637  0.923398  1
  Sb  Sb11  1  0.079970  0.920030  0.078271  1
  Sb  Sb12  1  0.072637  0.388302  0.423398  1
  Sb  Sb13  1  0.417684  0.582316  0.925709  1
  Sb  Sb14  1  0.113691  0.428093  0.081144  1
  Sb  Sb15  1  0.582316  0.417684  0.425709  1
  Sb  Sb16  1  0.567571  0.432429  0.081718  1
  Sb  Sb17  1  0.920030  0.079970  0.578271  1
  Sb  Sb18  1  0.927363  0.611698  0.923398  1
  Sb  Sb19  1  0.070910  0.929090  0.421820  1
  Sb  Sb20  1  0.929090  0.070910  0.921820  1
  Sb  Sb21  1  0.428093  0.113691  0.581144  1
  Sb  Sb22  1  0.571907  0.886309  0.081144  1
  Sb  Sb23  1  0.886309  0.571907  0.581144  1
  Br  Br24  1  0.088477  0.911523  0.727476  1
  Br  Br25  1  0.588084  0.411916  0.778458  1
  Br  Br26  1  0.415627  0.083558  0.252153  1
  Br  Br27  1  0.584373  0.916442  0.752153  1
  Br  Br28  1  0.916442  0.584373  0.252153  1
  Br  Br29  1  0.083558  0.415627  0.752153  1
  Br  Br30  1  0.911523  0.088477  0.227476  1
  Br  Br31  1  0.411916  0.588084  0.278458  1
  O  O32  1  0.044247  0.955753  0.523637  1
  O  O33  1  0.206735  0.162808  0.894347  1
  O  O34  1  0.294563  0.705437  0.110382  1
  O  O35  1  0.540803  0.835555  0.979026  1
  O  O36  1  0.203748  0.796252  0.894054  1
  O  O37  1  0.459197  0.164445  0.479026  1
  O  O38  1  0.164445  0.459197  0.979026  1
  O  O39  1  0.664414  0.710056  0.104978  1
  O  O40  1  0.042095  0.331247  0.523944  1
  O  O41  1  0.668753  0.957905  0.523944  1
  O  O42  1  0.796252  0.203748  0.394054  1
  O  O43  1  0.705437  0.294563  0.610382  1
  O  O44  1  0.710056  0.664414  0.604978  1
  O  O45  1  0.793265  0.837192  0.394347  1
  O  O46  1  0.289944  0.335586  0.104978  1
  O  O47  1  0.335586  0.289944  0.604978  1
  O  O48  1  0.955753  0.044247  0.023637  1
  O  O49  1  0.543563  0.456437  0.978353  1
  O  O50  1  0.957905  0.668753  0.023944  1
  O  O51  1  0.835555  0.540803  0.479026  1
  O  O52  1  0.331247  0.042095  0.023944  1
  O  O53  1  0.456437  0.543563  0.478353  1
  O  O54  1  0.837192  0.793265  0.894347  1
  O  O55  1  0.162808  0.206735  0.394347  1
