# generated using pymatgen
data_Na2UF6
_symmetry_space_group_name_H-M   'P 1'
_cell_length_a   6.65452258
_cell_length_b   6.65452258
_cell_length_c   6.65452258
_cell_angle_alpha   144.23793880
_cell_angle_beta   130.22060200
_cell_angle_gamma   62.79450268
_symmetry_Int_Tables_number   1
_chemical_formula_structural   Na2UF6
_chemical_formula_sum   'Na2 U1 F6'
_cell_volume   130.01717559
_cell_formula_units_Z   1
loop_
 _symmetry_equiv_pos_site_id
 _symmetry_equiv_pos_as_xyz
  1  'x, y, z'
loop_
 _atom_site_type_symbol
 _atom_site_label
 _atom_site_symmetry_multiplicity
 _atom_site_fract_x
 _atom_site_fract_y
 _atom_site_fract_z
 _atom_site_occupancy
  Na  Na0  1  0.330046  0.330046  0.000000  1
  Na  Na1  1  0.669954  0.669954  0.000000  1
  U  U2  1  0.000000  0.000000  0.000000  1
  F  F3  1  0.602594  0.846694  0.755901  1
  F  F4  1  0.397406  0.153306  0.244099  1
  F  F5  1  0.909207  0.153306  0.755901  1
  F  F6  1  0.224560  0.500000  0.724560  1
  F  F7  1  0.090793  0.846694  0.244099  1
  F  F8  1  0.775440  0.500000  0.275440  1
