# generated using pymatgen
data_K2Na3InO4
_symmetry_space_group_name_H-M   'P 1'
_cell_length_a   7.63954240
_cell_length_b   9.38156273
_cell_length_c   9.65842328
_cell_angle_alpha   90.00000000
_cell_angle_beta   90.00000000
_cell_angle_gamma   90.00000000
_symmetry_Int_Tables_number   1
_chemical_formula_structural   K2Na3InO4
_chemical_formula_sum   'K8 Na12 In4 O16'
_cell_volume   692.22736996
_cell_formula_units_Z   4
loop_
 _symmetry_equiv_pos_site_id
 _symmetry_equiv_pos_as_xyz
  1  'x, y, z'
loop_
 _atom_site_type_symbol
 _atom_site_label
 _atom_site_symmetry_multiplicity
 _atom_site_fract_x
 _atom_site_fract_y
 _atom_site_fract_z
 _atom_site_occupancy
  K  K0  1  0.000000  0.231149  0.264384  1
  K  K1  1  0.000000  0.768851  0.735616  1
  K  K2  1  0.500000  0.731149  0.235616  1
  K  K3  1  0.500000  0.268851  0.764384  1
  K  K4  1  0.745950  0.000000  0.500000  1
  K  K5  1  0.754050  0.500000  0.000000  1
  K  K6  1  0.254050  0.000000  0.500000  1
  K  K7  1  0.245950  0.500000  0.000000  1
  Na  Na8  1  0.752039  0.481768  0.349763  1
  Na  Na9  1  0.752039  0.518232  0.650237  1
  Na  Na10  1  0.747961  0.981768  0.150237  1
  Na  Na11  1  0.747961  0.018232  0.849763  1
  Na  Na12  1  0.247961  0.518232  0.650237  1
  Na  Na13  1  0.247961  0.481768  0.349763  1
  Na  Na14  1  0.252039  0.018232  0.849763  1
  Na  Na15  1  0.252039  0.981768  0.150237  1
  Na  Na16  1  0.000000  0.237475  0.926325  1
  Na  Na17  1  0.000000  0.762525  0.073675  1
  Na  Na18  1  0.500000  0.737475  0.573675  1
  Na  Na19  1  0.500000  0.262525  0.426325  1
  In  In20  1  0.500000  0.772262  0.870822  1
  In  In21  1  0.500000  0.227738  0.129178  1
  In  In22  1  0.000000  0.272262  0.629178  1
  In  In23  1  0.000000  0.727738  0.370822  1
  O  O24  1  0.500000  0.568957  0.776382  1
  O  O25  1  0.500000  0.431043  0.223618  1
  O  O26  1  0.000000  0.068957  0.723618  1
  O  O27  1  0.000000  0.931043  0.276382  1
  O  O28  1  0.767346  0.300516  0.517718  1
  O  O29  1  0.767346  0.699484  0.482282  1
  O  O30  1  0.732654  0.800516  0.982282  1
  O  O31  1  0.732654  0.199484  0.017718  1
  O  O32  1  0.232654  0.699484  0.482282  1
  O  O33  1  0.232654  0.300516  0.517718  1
  O  O34  1  0.267346  0.199484  0.017718  1
  O  O35  1  0.267346  0.800516  0.982282  1
  O  O36  1  0.000000  0.441264  0.778650  1
  O  O37  1  0.000000  0.558736  0.221350  1
  O  O38  1  0.500000  0.941264  0.721350  1
  O  O39  1  0.500000  0.058736  0.278650  1
