# generated using pymatgen
data_Yb11Ge10
_symmetry_space_group_name_H-M   'P 1'
_cell_length_a   11.56731467
_cell_length_b   11.56731467
_cell_length_c   11.56731467
_cell_angle_alpha   123.67185902
_cell_angle_beta   123.67185902
_cell_angle_gamma   83.74973410
_symmetry_Int_Tables_number   1
_chemical_formula_structural   Yb11Ge10
_chemical_formula_sum   'Yb22 Ge20'
_cell_volume   1026.98381579
_cell_formula_units_Z   2
loop_
 _symmetry_equiv_pos_site_id
 _symmetry_equiv_pos_as_xyz
  1  'x, y, z'
loop_
 _atom_site_type_symbol
 _atom_site_label
 _atom_site_symmetry_multiplicity
 _atom_site_fract_x
 _atom_site_fract_y
 _atom_site_fract_z
 _atom_site_occupancy
  Yb  Yb0  1  0.679819  0.320181  0.000000  1
  Yb  Yb1  1  0.104830  0.422590  0.317761  1
  Yb  Yb2  1  0.895170  0.212931  0.317761  1
  Yb  Yb3  1  0.072653  0.321731  0.750922  1
  Yb  Yb4  1  0.320181  0.679819  1.000000  1
  Yb  Yb5  1  0.157329  0.157329  0.000000  1
  Yb  Yb6  1  0.678269  0.429190  0.750922  1
  Yb  Yb7  1  0.320181  0.320181  0.640362  1
  Yb  Yb8  1  0.895170  0.577410  0.682239  1
  Yb  Yb9  1  0.842671  0.842671  0.000000  1
  Yb  Yb10  1  0.927347  0.678269  0.249078  1
  Yb  Yb11  1  0.104830  0.787069  0.682239  1
  Yb  Yb12  1  0.429190  0.678269  0.750922  1
  Yb  Yb13  1  0.212931  0.895170  0.317761  1
  Yb  Yb14  1  0.321731  0.570810  0.249078  1
  Yb  Yb15  1  0.577410  0.895170  0.682239  1
  Yb  Yb16  1  0.679819  0.679819  0.359638  1
  Yb  Yb17  1  0.570810  0.321731  0.249078  1
  Yb  Yb18  1  0.678269  0.927347  0.249078  1
  Yb  Yb19  1  0.422590  0.104830  0.317761  1
  Yb  Yb20  1  0.787069  0.104830  0.682239  1
  Yb  Yb21  1  0.321731  0.072653  0.750922  1
  Ge  Ge22  1  0.119374  0.500000  0.619374  1
  Ge  Ge23  1  0.117563  0.882437  1.000000  1
  Ge  Ge24  1  0.882437  0.117563  0.000000  1
  Ge  Ge25  1  0.016652  0.603840  0.000000  1
  Ge  Ge26  1  0.983348  0.983348  0.587188  1
  Ge  Ge27  1  0.603840  0.016652  0.000000  1
  Ge  Ge28  1  0.117563  0.117563  0.235126  1
  Ge  Ge29  1  0.414603  0.414603  0.000000  1
  Ge  Ge30  1  0.396160  0.983348  1.000000  1
  Ge  Ge31  1  0.882437  0.882437  0.764874  1
  Ge  Ge32  1  0.880626  0.500000  0.380626  1
  Ge  Ge33  1  0.396160  0.396160  0.412812  1
  Ge  Ge34  1  0.983348  0.396160  0.000000  1
  Ge  Ge35  1  0.016652  0.016652  0.412812  1
  Ge  Ge36  1  0.500000  0.119374  0.619374  1
  Ge  Ge37  1  0.585397  0.585397  0.000000  1
  Ge  Ge38  1  0.250000  0.750000  0.500000  1
  Ge  Ge39  1  0.603840  0.603840  0.587188  1
  Ge  Ge40  1  0.750000  0.250000  0.500000  1
  Ge  Ge41  1  0.500000  0.880626  0.380626  1
