# generated using pymatgen
data_RbAg2(AsSe2)3
_symmetry_space_group_name_H-M   'P 1'
_cell_length_a   10.16758791
_cell_length_b   7.82250230
_cell_length_c   20.30996487
_cell_angle_alpha   90.00000000
_cell_angle_beta   119.75067049
_cell_angle_gamma   90.00000000
_symmetry_Int_Tables_number   1
_chemical_formula_structural   RbAg2(AsSe2)3
_chemical_formula_sum   'Rb4 Ag8 As12 Se24'
_cell_volume   1402.45550428
_cell_formula_units_Z   4
loop_
 _symmetry_equiv_pos_site_id
 _symmetry_equiv_pos_as_xyz
  1  'x, y, z'
loop_
 _atom_site_type_symbol
 _atom_site_label
 _atom_site_symmetry_multiplicity
 _atom_site_fract_x
 _atom_site_fract_y
 _atom_site_fract_z
 _atom_site_occupancy
  Rb  Rb0  1  0.838962  0.675115  0.332377  1
  Rb  Rb1  1  0.161038  0.324885  0.667623  1
  Rb  Rb2  1  0.838962  0.824885  0.832377  1
  Rb  Rb3  1  0.161038  0.175115  0.167623  1
  Ag  Ag4  1  0.547847  0.961640  0.580778  1
  Ag  Ag5  1  0.649775  0.984979  0.999310  1
  Ag  Ag6  1  0.350225  0.484979  0.500690  1
  Ag  Ag7  1  0.452153  0.038360  0.419222  1
  Ag  Ag8  1  0.452153  0.461640  0.919222  1
  Ag  Ag9  1  0.350225  0.015021  0.000690  1
  Ag  Ag10  1  0.649775  0.515021  0.499310  1
  Ag  Ag11  1  0.547847  0.538360  0.080778  1
  As  As12  1  0.046490  0.349539  0.853380  1
  As  As13  1  0.346595  0.869662  0.776775  1
  As  As14  1  0.786588  0.118324  0.418587  1
  As  As15  1  0.213412  0.618324  0.081413  1
  As  As16  1  0.953510  0.650461  0.146620  1
  As  As17  1  0.786588  0.381676  0.918587  1
  As  As18  1  0.046490  0.150461  0.353380  1
  As  As19  1  0.653405  0.369662  0.723225  1
  As  As20  1  0.213412  0.881676  0.581413  1
  As  As21  1  0.953510  0.849539  0.646620  1
  As  As22  1  0.346595  0.630338  0.276775  1
  As  As23  1  0.653405  0.130338  0.223225  1
  Se  Se24  1  0.546285  0.749646  0.392043  1
  Se  Se25  1  0.546285  0.750354  0.892043  1
  Se  Se26  1  0.865972  0.303114  0.235626  1
  Se  Se27  1  0.134028  0.803114  0.264374  1
  Se  Se28  1  0.590215  0.220368  0.810971  1
  Se  Se29  1  0.409785  0.779632  0.189029  1
  Se  Se30  1  0.266693  0.804560  0.482767  1
  Se  Se31  1  0.268167  0.202258  0.871967  1
  Se  Se32  1  0.590215  0.279632  0.310971  1
  Se  Se33  1  0.731833  0.797742  0.128033  1
  Se  Se34  1  0.731833  0.702258  0.628033  1
  Se  Se35  1  0.733307  0.304560  0.017233  1
  Se  Se36  1  0.268167  0.297742  0.371967  1
  Se  Se37  1  0.865972  0.196886  0.735626  1
  Se  Se38  1  0.987431  0.703774  0.548653  1
  Se  Se39  1  0.012569  0.296226  0.451347  1
  Se  Se40  1  0.987431  0.796226  0.048653  1
  Se  Se41  1  0.733307  0.195440  0.517233  1
  Se  Se42  1  0.409785  0.720368  0.689029  1
  Se  Se43  1  0.012569  0.203774  0.951347  1
  Se  Se44  1  0.266693  0.695440  0.982767  1
  Se  Se45  1  0.453715  0.249646  0.107957  1
  Se  Se46  1  0.134028  0.696886  0.764374  1
  Se  Se47  1  0.453715  0.250354  0.607957  1
