# generated using pymatgen
data_Rb2CuBr3
_symmetry_space_group_name_H-M   'P 1'
_cell_length_a   4.46107407
_cell_length_b   13.33082324
_cell_length_c   13.82245816
_cell_angle_alpha   90.00000000
_cell_angle_beta   90.00000000
_cell_angle_gamma   90.00000000
_symmetry_Int_Tables_number   1
_chemical_formula_structural   Rb2CuBr3
_chemical_formula_sum   'Rb8 Cu4 Br12'
_cell_volume   822.01868251
_cell_formula_units_Z   4
loop_
 _symmetry_equiv_pos_site_id
 _symmetry_equiv_pos_as_xyz
  1  'x, y, z'
loop_
 _atom_site_type_symbol
 _atom_site_label
 _atom_site_symmetry_multiplicity
 _atom_site_fract_x
 _atom_site_fract_y
 _atom_site_fract_z
 _atom_site_occupancy
  Rb  Rb0  1  0.750000  0.987254  0.824294  1
  Rb  Rb1  1  0.250000  0.012746  0.175706  1
  Rb  Rb2  1  0.750000  0.826293  0.476186  1
  Rb  Rb3  1  0.250000  0.173707  0.523814  1
  Rb  Rb4  1  0.750000  0.487254  0.675706  1
  Rb  Rb5  1  0.250000  0.673707  0.976186  1
  Rb  Rb6  1  0.750000  0.326293  0.023814  1
  Rb  Rb7  1  0.250000  0.512746  0.324294  1
  Cu  Cu8  1  0.250000  0.755423  0.689477  1
  Cu  Cu9  1  0.250000  0.255423  0.810523  1
  Cu  Cu10  1  0.750000  0.244577  0.310523  1
  Cu  Cu11  1  0.750000  0.744577  0.189477  1
  Br  Br12  1  0.750000  0.226652  0.720336  1
  Br  Br13  1  0.250000  0.273348  0.220336  1
  Br  Br14  1  0.250000  0.433766  0.860502  1
  Br  Br15  1  0.750000  0.362350  0.447650  1
  Br  Br16  1  0.250000  0.773348  0.279664  1
  Br  Br17  1  0.750000  0.566234  0.139498  1
  Br  Br18  1  0.750000  0.066234  0.360502  1
  Br  Br19  1  0.250000  0.933766  0.639498  1
  Br  Br20  1  0.750000  0.726652  0.779664  1
  Br  Br21  1  0.250000  0.137650  0.947650  1
  Br  Br22  1  0.750000  0.862350  0.052350  1
  Br  Br23  1  0.250000  0.637650  0.552350  1
