# generated using pymatgen
data_Na6Cu9(PO4)8
_symmetry_space_group_name_H-M   'P 1'
_cell_length_a   8.92467220
_cell_length_b   9.09140152
_cell_length_c   9.44497005
_cell_angle_alpha   112.84467548
_cell_angle_beta   100.26811007
_cell_angle_gamma   102.93504790
_symmetry_Int_Tables_number   1
_chemical_formula_structural   Na6Cu9(PO4)8
_chemical_formula_sum   'Na6 Cu9 P8 O32'
_cell_volume   657.63286603
_cell_formula_units_Z   1
loop_
 _symmetry_equiv_pos_site_id
 _symmetry_equiv_pos_as_xyz
  1  'x, y, z'
loop_
 _atom_site_type_symbol
 _atom_site_label
 _atom_site_symmetry_multiplicity
 _atom_site_fract_x
 _atom_site_fract_y
 _atom_site_fract_z
 _atom_site_occupancy
  Na  Na0  1  0.647895  0.932243  0.063731  1
  Na  Na1  1  0.331155  0.310250  0.349541  1
  Na  Na2  1  0.993177  0.702800  0.258032  1
  Na  Na3  1  0.668845  0.689750  0.650459  1
  Na  Na4  1  0.006823  0.297200  0.741968  1
  Na  Na5  1  0.352105  0.067757  0.936269  1
  Cu  Cu6  1  0.803377  0.271677  0.061813  1
  Cu  Cu7  1  0.713301  0.886695  0.432354  1
  Cu  Cu8  1  0.196623  0.728323  0.938187  1
  Cu  Cu9  1  0.341095  0.699928  0.447219  1
  Cu  Cu10  1  0.000000  0.000000  0.000000  1
  Cu  Cu11  1  0.286699  0.113305  0.567646  1
  Cu  Cu12  1  0.658905  0.300072  0.552781  1
  Cu  Cu13  1  0.000000  0.500000  0.500000  1
  Cu  Cu14  1  0.500000  0.500000  0.000000  1
  P  P15  1  0.035766  0.878465  0.648528  1
  P  P16  1  0.395578  0.942420  0.289705  1
  P  P17  1  0.964234  0.121535  0.351472  1
  P  P18  1  0.604422  0.057580  0.710295  1
  P  P19  1  0.659624  0.418395  0.268189  1
  P  P20  1  0.832520  0.624522  0.907530  1
  P  P21  1  0.167480  0.375478  0.092470  1
  P  P22  1  0.340376  0.581605  0.731811  1
  O  O23  1  0.903263  0.261454  0.459105  1
  O  O24  1  0.806312  0.795632  0.928027  1
  O  O25  1  0.875577  0.944866  0.333511  1
  O  O26  1  0.442223  0.126681  0.434353  1
  O  O27  1  0.150874  0.530682  0.703830  1
  O  O28  1  0.384128  0.581816  0.581222  1
  O  O29  1  0.193688  0.204368  0.071973  1
  O  O30  1  0.927480  0.118149  0.182039  1
  O  O31  1  0.801283  0.516907  0.724472  1
  O  O32  1  0.990257  0.338802  0.000176  1
  O  O33  1  0.720142  0.177561  0.667886  1
  O  O34  1  0.279858  0.822439  0.332114  1
  O  O35  1  0.009743  0.661198  0.999824  1
  O  O36  1  0.849126  0.469318  0.296170  1
  O  O37  1  0.694889  0.055466  0.864255  1
  O  O38  1  0.305111  0.944534  0.135745  1
  O  O39  1  0.615872  0.418184  0.418778  1
  O  O40  1  0.398244  0.761451  0.876303  1
  O  O41  1  0.448525  0.099330  0.728708  1
  O  O42  1  0.198717  0.483093  0.275528  1
  O  O43  1  0.412439  0.459790  0.775198  1
  O  O44  1  0.852429  0.833648  0.576697  1
  O  O45  1  0.557777  0.873319  0.565647  1
  O  O46  1  0.274939  0.458194  0.013671  1
  O  O47  1  0.725061  0.541806  0.986329  1
  O  O48  1  0.147571  0.166352  0.423303  1
  O  O49  1  0.072520  0.881851  0.817961  1
  O  O50  1  0.551475  0.900670  0.271292  1
  O  O51  1  0.601756  0.238549  0.123697  1
  O  O52  1  0.096737  0.738546  0.540895  1
  O  O53  1  0.587561  0.540210  0.224802  1
  O  O54  1  0.124423  0.055134  0.666489  1
