# generated using pymatgen
data_Tm2TiO5
_symmetry_space_group_name_H-M   'P 1'
_cell_length_a   7.38874924
_cell_length_b   7.38874924
_cell_length_c   17.34533877
_cell_angle_alpha   88.69089947
_cell_angle_beta   91.30910053
_cell_angle_gamma   117.62944637
_symmetry_Int_Tables_number   1
_chemical_formula_structural   Tm2TiO5
_chemical_formula_sum   'Tm16 Ti8 O40'
_cell_volume   838.66103638
_cell_formula_units_Z   8
loop_
 _symmetry_equiv_pos_site_id
 _symmetry_equiv_pos_as_xyz
  1  'x, y, z'
loop_
 _atom_site_type_symbol
 _atom_site_label
 _atom_site_symmetry_multiplicity
 _atom_site_fract_x
 _atom_site_fract_y
 _atom_site_fract_z
 _atom_site_occupancy
  Tm  Tm0  1  0.993882  0.006118  0.002412  1
  Tm  Tm1  1  0.501730  0.043956  0.010817  1
  Tm  Tm2  1  0.956044  0.498270  0.010817  1
  Tm  Tm3  1  0.321108  0.147540  0.836628  1
  Tm  Tm4  1  0.840788  0.159212  0.837107  1
  Tm  Tm5  1  0.174149  0.329893  0.674702  1
  Tm  Tm6  1  0.677681  0.322319  0.658314  1
  Tm  Tm7  1  0.009224  0.461612  0.493876  1
  Tm  Tm8  1  0.852460  0.678892  0.836628  1
  Tm  Tm9  1  0.854025  0.682904  0.325984  1
  Tm  Tm10  1  0.506346  0.493654  0.495397  1
  Tm  Tm11  1  0.670107  0.825851  0.674702  1
  Tm  Tm12  1  0.675701  0.841685  0.158622  1
  Tm  Tm13  1  0.538388  0.990776  0.493876  1
  Tm  Tm14  1  0.158315  0.324299  0.158622  1
  Tm  Tm15  1  0.317096  0.145975  0.325984  1
  Ti  Ti16  1  0.474170  0.525830  0.999935  1
  Ti  Ti17  1  0.335195  0.664805  0.826060  1
  Ti  Ti18  1  0.192793  0.807207  0.667327  1
  Ti  Ti19  1  0.166333  0.833667  0.170750  1
  Ti  Ti20  1  0.335611  0.664389  0.324757  1
  Ti  Ti21  1  0.018763  0.981237  0.507067  1
  Ti  Ti22  1  0.821815  0.178185  0.327757  1
  Ti  Ti23  1  0.649165  0.350835  0.186484  1
  O  O24  1  0.360275  0.251323  0.966777  1
  O  O25  1  0.838208  0.161792  0.710872  1
  O  O26  1  0.748677  0.639725  0.966777  1
  O  O27  1  0.211639  0.384980  0.815581  1
  O  O28  1  0.348126  0.651874  0.706576  1
  O  O29  1  0.919555  0.450149  0.884957  1
  O  O30  1  0.349083  0.650917  0.432713  1
  O  O31  1  0.033083  0.564226  0.618501  1
  O  O32  1  0.615020  0.788361  0.815581  1
  O  O33  1  0.340294  0.659706  0.946155  1
  O  O34  1  0.435774  0.966917  0.618501  1
  O  O35  1  0.769143  0.607266  0.717491  1
  O  O36  1  0.549851  0.080445  0.884957  1
  O  O37  1  0.905851  0.725063  0.458514  1
  O  O38  1  0.184290  0.815710  0.787119  1
  O  O39  1  0.029408  0.970592  0.124615  1
  O  O40  1  0.630508  0.767824  0.555381  1
  O  O41  1  0.970016  0.029984  0.325199  1
  O  O42  1  0.585177  0.761426  0.282883  1
  O  O43  1  0.392734  0.230857  0.717491  1
  O  O44  1  0.043727  0.956273  0.617103  1
  O  O45  1  0.006542  0.993458  0.876550  1
  O  O46  1  0.274937  0.094149  0.458514  1
  O  O47  1  0.414161  0.910460  0.127357  1
  O  O48  1  0.232176  0.369492  0.555381  1
  O  O49  1  0.238574  0.414823  0.282883  1
  O  O50  1  0.559869  0.042347  0.368168  1
  O  O51  1  0.802372  0.197628  0.214994  1
  O  O52  1  0.876719  0.123281  0.476136  1
  O  O53  1  0.682766  0.317234  0.077118  1
  O  O54  1  0.363422  0.185598  0.197851  1
  O  O55  1  0.957653  0.440131  0.368168  1
  O  O56  1  0.089540  0.585839  0.127357  1
  O  O57  1  0.675303  0.324697  0.533205  1
  O  O58  1  0.615668  0.384332  0.303758  1
  O  O59  1  0.067758  0.296028  0.035586  1
  O  O60  1  0.814402  0.636578  0.197851  1
  O  O61  1  0.461555  0.538445  0.106345  1
  O  O62  1  0.703972  0.932242  0.035586  1
  O  O63  1  0.189225  0.810775  0.282215  1
