# generated using pymatgen
data_P2Pb3O8
_symmetry_space_group_name_H-M   'P 1'
_cell_length_a   5.54308503
_cell_length_b   5.54308503
_cell_length_c   7.58101420
_cell_angle_alpha   68.60967241
_cell_angle_beta   111.39032759
_cell_angle_gamma   118.82665515
_symmetry_Int_Tables_number   1
_chemical_formula_structural   P2Pb3O8
_chemical_formula_sum   'P2 Pb3 O8'
_cell_volume   184.84850948
_cell_formula_units_Z   1
loop_
 _symmetry_equiv_pos_site_id
 _symmetry_equiv_pos_as_xyz
  1  'x, y, z'
loop_
 _atom_site_type_symbol
 _atom_site_label
 _atom_site_symmetry_multiplicity
 _atom_site_fract_x
 _atom_site_fract_y
 _atom_site_fract_z
 _atom_site_occupancy
  P  P0  1  0.595769  0.404231  0.791721  1
  P  P1  1  0.404231  0.595769  0.208279  1
  Pb  Pb2  1  0.222056  0.777945  0.641728  1
  Pb  Pb3  1  0.777945  0.222055  0.358272  1
  Pb  Pb4  1  0.000000  0.000000  0.000000  1
  O  O5  1  0.284935  0.266084  0.283203  1
  O  O6  1  0.715065  0.733916  0.716797  1
  O  O7  1  0.266084  0.284935  0.716797  1
  O  O8  1  0.733916  0.715065  0.283203  1
  O  O9  1  0.278263  0.721737  0.288575  1
  O  O10  1  0.721737  0.278263  0.711425  1
  O  O11  1  0.675959  0.324041  0.017374  1
  O  O12  1  0.324041  0.675959  0.982626  1
