# generated using pymatgen
data_Th7Os3
_symmetry_space_group_name_H-M   'P 1'
_cell_length_a   10.03391318
_cell_length_b   10.03391318
_cell_length_c   6.34759459
_cell_angle_alpha   90.00000000
_cell_angle_beta   90.00000000
_cell_angle_gamma   120.00000000
_symmetry_Int_Tables_number   1
_chemical_formula_structural   Th7Os3
_chemical_formula_sum   'Th14 Os6'
_cell_volume   553.45267487
_cell_formula_units_Z   2
loop_
 _symmetry_equiv_pos_site_id
 _symmetry_equiv_pos_as_xyz
  1  'x, y, z'
loop_
 _atom_site_type_symbol
 _atom_site_label
 _atom_site_symmetry_multiplicity
 _atom_site_fract_x
 _atom_site_fract_y
 _atom_site_fract_z
 _atom_site_occupancy
  Th  Th0  1  0.460488  0.539512  0.300301  1
  Th  Th1  1  0.079024  0.539512  0.300301  1
  Th  Th2  1  0.920976  0.460488  0.800301  1
  Th  Th3  1  0.252486  0.126243  0.501431  1
  Th  Th4  1  0.539512  0.079024  0.800301  1
  Th  Th5  1  0.747514  0.873757  0.001431  1
  Th  Th6  1  0.666667  0.333333  0.285954  1
  Th  Th7  1  0.126243  0.873757  0.001431  1
  Th  Th8  1  0.460488  0.920976  0.300301  1
  Th  Th9  1  0.539512  0.460488  0.800301  1
  Th  Th10  1  0.873757  0.126243  0.501431  1
  Th  Th11  1  0.126243  0.252486  0.001431  1
  Th  Th12  1  0.873757  0.747514  0.501431  1
  Th  Th13  1  0.333333  0.666667  0.785954  1
  Os  Os14  1  0.812642  0.625284  0.050283  1
  Os  Os15  1  0.812642  0.187358  0.050283  1
  Os  Os16  1  0.625284  0.812642  0.550283  1
  Os  Os17  1  0.374716  0.187358  0.050283  1
  Os  Os18  1  0.187358  0.374716  0.550283  1
  Os  Os19  1  0.187358  0.812642  0.550283  1
