# generated using pymatgen
data_Sr3U(Te2O7)2
_symmetry_space_group_name_H-M   'P 1'
_cell_length_a   10.89485720
_cell_length_b   10.89485720
_cell_length_c   13.24355407
_cell_angle_alpha   86.36075675
_cell_angle_beta   93.63924325
_cell_angle_gamma   149.46795221
_symmetry_Int_Tables_number   1
_chemical_formula_structural   Sr3U(Te2O7)2
_chemical_formula_sum   'Sr6 U2 Te8 O28'
_cell_volume   796.86829716
_cell_formula_units_Z   2
loop_
 _symmetry_equiv_pos_site_id
 _symmetry_equiv_pos_as_xyz
  1  'x, y, z'
loop_
 _atom_site_type_symbol
 _atom_site_label
 _atom_site_symmetry_multiplicity
 _atom_site_fract_x
 _atom_site_fract_y
 _atom_site_fract_z
 _atom_site_occupancy
  Sr  Sr0  1  0.293855  0.172478  0.558086  1
  Sr  Sr1  1  0.827522  0.706145  0.058086  1
  Sr  Sr2  1  0.172478  0.293855  0.941914  1
  Sr  Sr3  1  0.721451  0.721451  0.750000  1
  Sr  Sr4  1  0.706145  0.827522  0.441914  1
  Sr  Sr5  1  0.278549  0.278549  0.250000  1
  U  U6  1  0.000000  0.500000  0.000000  1
  U  U7  1  0.500000  0.000000  0.500000  1
  Te  Te8  1  0.538139  0.886848  0.836483  1
  Te  Te9  1  0.825613  0.624411  0.372663  1
  Te  Te10  1  0.461861  0.113152  0.163517  1
  Te  Te11  1  0.375589  0.174387  0.872663  1
  Te  Te12  1  0.624411  0.825613  0.127337  1
  Te  Te13  1  0.113152  0.461861  0.336483  1
  Te  Te14  1  0.174387  0.375589  0.627337  1
  Te  Te15  1  0.886848  0.538139  0.663517  1
  O  O16  1  0.925421  0.740042  0.634850  1
  O  O17  1  0.723118  0.541788  0.235029  1
  O  O18  1  0.352931  0.695747  0.440876  1
  O  O19  1  0.074579  0.259958  0.365150  1
  O  O20  1  0.465636  0.545942  0.086315  1
  O  O21  1  0.695747  0.352931  0.059124  1
  O  O22  1  0.936017  0.022787  0.115811  1
  O  O23  1  0.171328  0.733916  0.595745  1
  O  O24  1  0.063983  0.977213  0.884189  1
  O  O25  1  0.534364  0.454058  0.913685  1
  O  O26  1  0.541788  0.723118  0.264971  1
  O  O27  1  0.961847  0.345968  0.103699  1
  O  O28  1  0.458212  0.276882  0.735029  1
  O  O29  1  0.345968  0.961847  0.396301  1
  O  O30  1  0.654032  0.038153  0.603699  1
  O  O31  1  0.259958  0.074579  0.134850  1
  O  O32  1  0.977213  0.063983  0.615811  1
  O  O33  1  0.647069  0.304253  0.559124  1
  O  O34  1  0.740042  0.925421  0.865150  1
  O  O35  1  0.545942  0.465636  0.413685  1
  O  O36  1  0.454058  0.534364  0.586315  1
  O  O37  1  0.304253  0.647069  0.940876  1
  O  O38  1  0.828672  0.266084  0.404255  1
  O  O39  1  0.733916  0.171328  0.904255  1
  O  O40  1  0.022787  0.936017  0.384189  1
  O  O41  1  0.266084  0.828672  0.095745  1
  O  O42  1  0.276882  0.458212  0.764971  1
  O  O43  1  0.038153  0.654032  0.896301  1
