# generated using pymatgen
data_RbBe2P3O10
_symmetry_space_group_name_H-M   'P 1'
_cell_length_a   7.57423850
_cell_length_b   7.57423850
_cell_length_c   9.03831661
_cell_angle_alpha   68.13650567
_cell_angle_beta   111.86349433
_cell_angle_gamma   108.96830105
_symmetry_Int_Tables_number   1
_chemical_formula_structural   RbBe2P3O10
_chemical_formula_sum   'Rb2 Be4 P6 O20'
_cell_volume   436.03225219
_cell_formula_units_Z   2
loop_
 _symmetry_equiv_pos_site_id
 _symmetry_equiv_pos_as_xyz
  1  'x, y, z'
loop_
 _atom_site_type_symbol
 _atom_site_label
 _atom_site_symmetry_multiplicity
 _atom_site_fract_x
 _atom_site_fract_y
 _atom_site_fract_z
 _atom_site_occupancy
  Rb  Rb0  1  0.699181  0.699181  0.250000  1
  Rb  Rb1  1  0.300819  0.300819  0.750000  1
  Be  Be2  1  0.211595  0.700317  0.936613  1
  Be  Be3  1  0.788405  0.299683  0.063387  1
  Be  Be4  1  0.700317  0.211595  0.563387  1
  Be  Be5  1  0.299683  0.788405  0.436613  1
  P  P6  1  0.502101  0.868087  0.752824  1
  P  P7  1  0.131913  0.497899  0.252824  1
  P  P8  1  0.497899  0.131913  0.247176  1
  P  P9  1  0.118790  0.118790  0.250000  1
  P  P10  1  0.881210  0.881210  0.750000  1
  P  P11  1  0.868087  0.502101  0.747176  1
  O  O12  1  0.259887  0.603266  0.135923  1
  O  O13  1  0.740113  0.396734  0.864077  1
  O  O14  1  0.603266  0.259887  0.364077  1
  O  O15  1  0.463410  0.913648  0.335650  1
  O  O16  1  0.819273  0.722077  0.652246  1
  O  O17  1  0.867238  0.078456  0.624459  1
  O  O18  1  0.722077  0.819273  0.847754  1
  O  O19  1  0.580966  0.190183  0.102548  1
  O  O20  1  0.396734  0.740113  0.635923  1
  O  O21  1  0.180727  0.277923  0.347754  1
  O  O22  1  0.086352  0.536590  0.835650  1
  O  O23  1  0.078456  0.867238  0.875541  1
  O  O24  1  0.913648  0.463410  0.164350  1
  O  O25  1  0.536590  0.086352  0.664350  1
  O  O26  1  0.190183  0.580966  0.397452  1
  O  O27  1  0.132762  0.921544  0.375541  1
  O  O28  1  0.277923  0.180727  0.152246  1
  O  O29  1  0.809817  0.419034  0.602548  1
  O  O30  1  0.419034  0.809817  0.897452  1
  O  O31  1  0.921544  0.132762  0.124459  1
