# generated using pymatgen
data_CaZnSi3O8
_symmetry_space_group_name_H-M   'P 1'
_cell_length_a   7.30417025
_cell_length_b   7.36416454
_cell_length_c   8.07487799
_cell_angle_alpha   115.78510132
_cell_angle_beta   106.45178249
_cell_angle_gamma   100.52781950
_symmetry_Int_Tables_number   1
_chemical_formula_structural   CaZnSi3O8
_chemical_formula_sum   'Ca2 Zn2 Si6 O16'
_cell_volume   350.76004521
_cell_formula_units_Z   2
loop_
 _symmetry_equiv_pos_site_id
 _symmetry_equiv_pos_as_xyz
  1  'x, y, z'
loop_
 _atom_site_type_symbol
 _atom_site_label
 _atom_site_symmetry_multiplicity
 _atom_site_fract_x
 _atom_site_fract_y
 _atom_site_fract_z
 _atom_site_occupancy
  Ca  Ca0  1  0.146237  0.045529  0.731185  1
  Ca  Ca1  1  0.853763  0.954471  0.268815  1
  Zn  Zn2  1  0.206558  0.634924  0.689180  1
  Zn  Zn3  1  0.793442  0.365076  0.310820  1
  Si  Si4  1  0.369891  0.218093  0.058039  1
  Si  Si5  1  0.691289  0.225217  0.694572  1
  Si  Si6  1  0.308711  0.774783  0.305428  1
  Si  Si7  1  0.249996  0.338851  0.328023  1
  Si  Si8  1  0.750004  0.661149  0.671977  1
  Si  Si9  1  0.630109  0.781907  0.941961  1
  O  O10  1  0.172923  0.799299  0.403944  1
  O  O11  1  0.717055  0.019743  0.909886  1
  O  O12  1  0.234932  0.587840  0.239045  1
  O  O13  1  0.554146  0.750835  0.451522  1
  O  O14  1  0.445854  0.249165  0.548478  1
  O  O15  1  0.051381  0.227289  0.371156  1
  O  O16  1  0.733417  0.656488  0.186265  1
  O  O17  1  0.266583  0.343512  0.813735  1
  O  O18  1  0.948619  0.772711  0.628844  1
  O  O19  1  0.725614  0.705891  0.836582  1
  O  O20  1  0.274386  0.294109  0.163418  1
  O  O21  1  0.383733  0.795037  0.835754  1
  O  O22  1  0.765068  0.412160  0.760955  1
  O  O23  1  0.282945  0.980257  0.090114  1
  O  O24  1  0.827077  0.200701  0.596056  1
  O  O25  1  0.616267  0.204963  0.164246  1
