# generated using pymatgen
data_Fe4As5O13
_symmetry_space_group_name_H-M   'P 1'
_cell_length_a   9.13094079
_cell_length_b   9.28883467
_cell_length_c   9.32033171
_cell_angle_alpha   94.15072716
_cell_angle_beta   115.98232010
_cell_angle_gamma   112.48111964
_symmetry_Int_Tables_number   1
_chemical_formula_structural   Fe4As5O13
_chemical_formula_sum   'Fe8 As10 O26'
_cell_volume   628.62863419
_cell_formula_units_Z   2
loop_
 _symmetry_equiv_pos_site_id
 _symmetry_equiv_pos_as_xyz
  1  'x, y, z'
loop_
 _atom_site_type_symbol
 _atom_site_label
 _atom_site_symmetry_multiplicity
 _atom_site_fract_x
 _atom_site_fract_y
 _atom_site_fract_z
 _atom_site_occupancy
  Fe  Fe0  1  0.000000  0.500000  0.000000  1
  Fe  Fe1  1  0.000000  0.500000  0.500000  1
  Fe  Fe2  1  0.738172  0.303078  0.620600  1
  Fe  Fe3  1  0.261828  0.696922  0.379400  1
  Fe  Fe4  1  0.352508  0.883609  0.803147  1
  Fe  Fe5  1  0.647492  0.116391  0.196853  1
  Fe  Fe6  1  0.469245  0.720948  0.105688  1
  Fe  Fe7  1  0.530755  0.279052  0.894312  1
  As  As8  1  0.900707  0.705112  0.697954  1
  As  As9  1  0.099293  0.294888  0.302046  1
  As  As10  1  0.159292  0.337172  0.832683  1
  As  As11  1  0.840708  0.662828  0.167317  1
  As  As12  1  0.212095  0.930908  0.095340  1
  As  As13  1  0.787905  0.069092  0.904660  1
  As  As14  1  0.533003  0.407695  0.262566  1
  As  As15  1  0.466997  0.592305  0.737434  1
  As  As16  1  0.698178  0.948987  0.459036  1
  As  As17  1  0.301822  0.051013  0.540964  1
  O  O18  1  0.095610  0.706399  0.685635  1
  O  O19  1  0.904390  0.293601  0.314365  1
  O  O20  1  0.626168  0.088654  0.962185  1
  O  O21  1  0.373832  0.911346  0.037815  1
  O  O22  1  0.007154  0.648793  0.355454  1
  O  O23  1  0.992846  0.351207  0.644546  1
  O  O24  1  0.483644  0.764298  0.363042  1
  O  O25  1  0.516356  0.235702  0.636958  1
  O  O26  1  0.260980  0.561836  0.548726  1
  O  O27  1  0.739020  0.438164  0.451274  1
  O  O28  1  0.863259  0.261886  0.854367  1
  O  O29  1  0.136741  0.738114  0.145633  1
  O  O30  1  0.290001  0.062385  0.731565  1
  O  O31  1  0.709999  0.937615  0.268435  1
  O  O32  1  0.139854  0.468298  0.220985  1
  O  O33  1  0.860146  0.531702  0.779015  1
  O  O34  1  0.781656  0.479284  0.027991  1
  O  O35  1  0.218344  0.520716  0.972009  1
  O  O36  1  0.621895  0.106525  0.417942  1
  O  O37  1  0.378105  0.893475  0.582058  1
  O  O38  1  0.366044  0.414536  0.801581  1
  O  O39  1  0.633956  0.585464  0.198419  1
  O  O40  1  0.981699  0.129273  0.110892  1
  O  O41  1  0.524127  0.256824  0.124092  1
  O  O42  1  0.018301  0.870727  0.889108  1
  O  O43  1  0.475873  0.743176  0.875908  1
