# generated using pymatgen
data_HfGaPt
_symmetry_space_group_name_H-M   'P 1'
_cell_length_a   7.17824041
_cell_length_b   7.17824041
_cell_length_c   7.06671699
_cell_angle_alpha   90.00000000
_cell_angle_beta   90.00000000
_cell_angle_gamma   120.00000000
_symmetry_Int_Tables_number   1
_chemical_formula_structural   HfGaPt
_chemical_formula_sum   'Hf6 Ga6 Pt6'
_cell_volume   315.34382398
_cell_formula_units_Z   6
loop_
 _symmetry_equiv_pos_site_id
 _symmetry_equiv_pos_as_xyz
  1  'x, y, z'
loop_
 _atom_site_type_symbol
 _atom_site_label
 _atom_site_symmetry_multiplicity
 _atom_site_fract_x
 _atom_site_fract_y
 _atom_site_fract_z
 _atom_site_occupancy
  Hf  Hf0  1  0.409594  0.385942  0.250000  1
  Hf  Hf1  1  0.590406  0.976348  0.750000  1
  Hf  Hf2  1  0.385942  0.409594  0.750000  1
  Hf  Hf3  1  0.023652  0.614058  0.750000  1
  Hf  Hf4  1  0.976348  0.590406  0.250000  1
  Hf  Hf5  1  0.614058  0.023652  0.250000  1
  Ga  Ga6  1  0.267931  0.000000  0.000000  1
  Ga  Ga7  1  0.267931  0.000000  0.500000  1
  Ga  Ga8  1  0.000000  0.267931  0.500000  1
  Ga  Ga9  1  0.000000  0.267931  0.000000  1
  Ga  Ga10  1  0.732069  0.732069  0.000000  1
  Ga  Ga11  1  0.732069  0.732069  0.500000  1
  Pt  Pt12  1  0.666667  0.333333  0.532586  1
  Pt  Pt13  1  0.000000  0.000000  0.750000  1
  Pt  Pt14  1  0.666667  0.333333  0.967414  1
  Pt  Pt15  1  0.333333  0.666667  0.032586  1
  Pt  Pt16  1  0.333333  0.666667  0.467414  1
  Pt  Pt17  1  0.000000  0.000000  0.250000  1
