# generated using pymatgen
data_Mo4O11
_symmetry_space_group_name_H-M   'P 1'
_cell_length_a   6.89605033
_cell_length_b   5.59916212
_cell_length_c   25.20770363
_cell_angle_alpha   90.00000000
_cell_angle_beta   93.89010728
_cell_angle_gamma   90.00000000
_symmetry_Int_Tables_number   1
_chemical_formula_structural   Mo4O11
_chemical_formula_sum   'Mo16 O44'
_cell_volume   971.07994159
_cell_formula_units_Z   4
loop_
 _symmetry_equiv_pos_site_id
 _symmetry_equiv_pos_as_xyz
  1  'x, y, z'
loop_
 _atom_site_type_symbol
 _atom_site_label
 _atom_site_symmetry_multiplicity
 _atom_site_fract_x
 _atom_site_fract_y
 _atom_site_fract_z
 _atom_site_occupancy
  Mo  Mo0  1  0.683251  0.221655  0.955282  1
  Mo  Mo1  1  0.339643  0.231855  0.720308  1
  Mo  Mo2  1  0.998046  0.728870  0.663523  1
  Mo  Mo3  1  0.683251  0.278345  0.455282  1
  Mo  Mo4  1  0.339643  0.268145  0.220308  1
  Mo  Mo5  1  0.316749  0.778345  0.044718  1
  Mo  Mo6  1  0.001954  0.228870  0.836477  1
  Mo  Mo7  1  0.661592  0.236114  0.601122  1
  Mo  Mo8  1  0.661592  0.263886  0.101122  1
  Mo  Mo9  1  0.316749  0.721655  0.544718  1
  Mo  Mo10  1  0.338408  0.763886  0.398878  1
  Mo  Mo11  1  0.998046  0.771130  0.163523  1
  Mo  Mo12  1  0.001954  0.271130  0.336477  1
  Mo  Mo13  1  0.660357  0.768145  0.279692  1
  Mo  Mo14  1  0.338408  0.736114  0.898878  1
  Mo  Mo15  1  0.660357  0.731855  0.779692  1
  O  O16  1  0.205759  0.003235  0.881203  1
  O  O17  1  0.860938  0.532377  0.317901  1
  O  O18  1  0.167326  0.236251  0.784102  1
  O  O19  1  0.516084  0.455244  0.938153  1
  O  O20  1  0.117833  0.765134  0.086792  1
  O  O21  1  0.438601  0.059168  0.055275  1
  O  O22  1  0.794241  0.503235  0.618797  1
  O  O23  1  0.170098  0.509100  0.877114  1
  O  O24  1  0.771978  0.244757  0.524166  1
  O  O25  1  0.832674  0.763749  0.215898  1
  O  O26  1  0.882167  0.265134  0.413208  1
  O  O27  1  0.139062  0.467623  0.682099  1
  O  O28  1  0.794241  0.996765  0.118797  1
  O  O29  1  0.561399  0.940832  0.944725  1
  O  O30  1  0.139062  0.032377  0.182099  1
  O  O31  1  0.561399  0.559168  0.444725  1
  O  O32  1  0.832674  0.736251  0.715898  1
  O  O33  1  0.507127  0.499235  0.255221  1
  O  O34  1  0.166907  0.956646  0.686732  1
  O  O35  1  0.507127  0.000765  0.755221  1
  O  O36  1  0.501939  0.726129  0.846614  1
  O  O37  1  0.483916  0.544756  0.061847  1
  O  O38  1  0.882167  0.234866  0.913208  1
  O  O39  1  0.117833  0.734866  0.586792  1
  O  O40  1  0.205759  0.496765  0.381203  1
  O  O41  1  0.833093  0.456646  0.813268  1
  O  O42  1  0.829902  0.009100  0.622886  1
  O  O43  1  0.170098  0.990900  0.377114  1
  O  O44  1  0.228022  0.755243  0.475834  1
  O  O45  1  0.492873  0.999235  0.244779  1
  O  O46  1  0.438601  0.440832  0.555275  1
  O  O47  1  0.492873  0.500765  0.744779  1
  O  O48  1  0.498061  0.273871  0.153386  1
  O  O49  1  0.771978  0.255243  0.024166  1
  O  O50  1  0.516084  0.044756  0.438153  1
  O  O51  1  0.501939  0.773871  0.346614  1
  O  O52  1  0.829902  0.490900  0.122886  1
  O  O53  1  0.498061  0.226129  0.653386  1
  O  O54  1  0.167326  0.263749  0.284102  1
  O  O55  1  0.860938  0.967623  0.817901  1
  O  O56  1  0.833093  0.043354  0.313268  1
  O  O57  1  0.483916  0.955244  0.561847  1
  O  O58  1  0.166907  0.543354  0.186732  1
  O  O59  1  0.228022  0.744757  0.975834  1
