# generated using pymatgen
data_SiO2
_symmetry_space_group_name_H-M   'P 1'
_cell_length_a   14.07355390
_cell_length_b   14.07355390
_cell_length_c   14.07355390
_cell_angle_alpha   118.68590413
_cell_angle_beta   114.98068956
_cell_angle_gamma   95.60556296
_symmetry_Int_Tables_number   1
_chemical_formula_structural   SiO2
_chemical_formula_sum   'Si36 O72'
_cell_volume   2052.35075532
_cell_formula_units_Z   36
loop_
 _symmetry_equiv_pos_site_id
 _symmetry_equiv_pos_as_xyz
  1  'x, y, z'
loop_
 _atom_site_type_symbol
 _atom_site_label
 _atom_site_symmetry_multiplicity
 _atom_site_fract_x
 _atom_site_fract_y
 _atom_site_fract_z
 _atom_site_occupancy
  Si  Si0  1  0.934893  0.869350  0.637353  1
  Si  Si1  1  0.179673  0.873894  0.707702  1
  Si  Si2  1  0.679673  0.471971  0.805779  1
  Si  Si3  1  0.166192  0.471971  0.292298  1
  Si  Si4  1  0.772633  0.101988  0.039315  1
  Si  Si5  1  0.231133  0.731133  0.500000  1
  Si  Si6  1  0.562673  0.101988  0.829355  1
  Si  Si7  1  0.065107  0.130650  0.362647  1
  Si  Si8  1  0.062673  0.733318  0.960685  1
  Si  Si9  1  0.434893  0.297540  0.565543  1
  Si  Si10  1  0.796560  0.135234  0.631876  1
  Si  Si11  1  0.703440  0.835316  0.838674  1
  Si  Si12  1  0.820327  0.126106  0.292298  1
  Si  Si13  1  0.731133  0.731133  1.000000  1
  Si  Si14  1  0.731996  0.869350  0.434457  1
  Si  Si15  1  0.565107  0.702460  0.434457  1
  Si  Si16  1  0.937327  0.266682  0.039315  1
  Si  Si17  1  0.333808  0.126106  0.805779  1
  Si  Si18  1  0.320327  0.528029  0.194221  1
  Si  Si19  1  0.503358  0.164684  0.368124  1
  Si  Si20  1  0.833808  0.528029  0.707702  1
  Si  Si21  1  0.268004  0.130650  0.565543  1
  Si  Si22  1  0.227367  0.898012  0.960685  1
  Si  Si23  1  0.996642  0.864766  0.161326  1
  Si  Si24  1  0.203440  0.864766  0.368124  1
  Si  Si25  1  0.768867  0.268867  0.500000  1
  Si  Si26  1  0.003358  0.135234  0.838674  1
  Si  Si27  1  0.768004  0.702460  0.637353  1
  Si  Si28  1  0.296560  0.164684  0.161326  1
  Si  Si29  1  0.268867  0.268867  0.000000  1
  Si  Si30  1  0.666192  0.873894  0.194221  1
  Si  Si31  1  0.437327  0.898012  0.170645  1
  Si  Si32  1  0.272633  0.733318  0.170645  1
  Si  Si33  1  0.231996  0.297540  0.362647  1
  Si  Si34  1  0.496642  0.835316  0.631876  1
  Si  Si35  1  0.727367  0.266682  0.829355  1
  O  O36  1  0.644889  0.655432  0.510543  1
  O  O37  1  0.855111  0.865654  0.510543  1
  O  O38  1  0.712924  0.848585  0.303293  1
  O  O39  1  0.923924  0.163410  0.739486  1
  O  O40  1  0.529408  0.796283  0.524381  1
  O  O41  1  0.514246  0.972581  0.698290  1
  O  O42  1  0.160791  0.591896  0.390132  1
  O  O43  1  0.029408  0.005027  0.233126  1
  O  O44  1  0.045292  0.848585  0.635661  1
  O  O45  1  0.656738  0.109650  0.952912  1
  O  O46  1  0.212924  0.409631  0.364339  1
  O  O47  1  0.722196  0.388891  0.849896  1
  O  O48  1  0.882622  0.198920  0.081542  1
  O  O49  1  0.798235  0.229340  0.390132  1
  O  O50  1  0.787076  0.590369  0.635661  1
  O  O51  1  0.749472  0.500000  0.749472  1
  O  O52  1  0.701765  0.591896  0.931105  1
  O  O53  1  0.339209  0.229340  0.931105  1
  O  O54  1  0.470592  0.203717  0.475619  1
  O  O55  1  0.201765  0.770660  0.609868  1
  O  O56  1  0.038995  0.388891  0.166695  1
  O  O57  1  0.954708  0.151415  0.364339  1
  O  O58  1  0.287076  0.151415  0.696707  1
  O  O59  1  0.277804  0.611109  0.150104  1
  O  O60  1  0.774291  0.972581  0.958335  1
  O  O61  1  0.156738  0.703826  0.047088  1
  O  O62  1  0.222196  0.872300  0.833305  1
  O  O63  1  0.132040  0.233523  0.365563  1
  O  O64  1  0.634219  0.243334  0.436752  1
  O  O65  1  0.538995  0.872300  0.150104  1
  O  O66  1  0.225709  0.027419  0.041665  1
  O  O67  1  0.014246  0.815956  0.041665  1
  O  O68  1  0.576076  0.815562  0.739486  1
  O  O69  1  0.193417  0.802533  0.436752  1
  O  O70  1  0.454708  0.590369  0.303293  1
  O  O71  1  0.343262  0.890350  0.047088  1
  O  O72  1  0.271902  0.005027  0.475619  1
  O  O73  1  0.806583  0.197467  0.563248  1
  O  O74  1  0.771902  0.796283  0.766874  1
  O  O75  1  0.985754  0.184044  0.958335  1
  O  O76  1  0.134219  0.197467  0.890885  1
  O  O77  1  0.545292  0.409631  0.696707  1
  O  O78  1  0.970592  0.994973  0.766874  1
  O  O79  1  0.365781  0.756666  0.563248  1
  O  O80  1  0.461005  0.127700  0.849896  1
  O  O81  1  0.306583  0.243334  0.109115  1
  O  O82  1  0.298235  0.408104  0.068895  1
  O  O83  1  0.423924  0.184438  0.260514  1
  O  O84  1  0.274291  0.815956  0.301710  1
  O  O85  1  0.617378  0.198920  0.816298  1
  O  O86  1  0.725709  0.184044  0.698290  1
  O  O87  1  0.865781  0.802533  0.109115  1
  O  O88  1  0.144889  0.134346  0.489457  1
  O  O89  1  0.660791  0.770660  0.068895  1
  O  O90  1  0.249472  0.000000  0.749472  1
  O  O91  1  0.693417  0.756666  0.890885  1
  O  O92  1  0.228098  0.203717  0.233126  1
  O  O93  1  0.382622  0.801080  0.183702  1
  O  O94  1  0.250528  0.500000  0.250528  1
  O  O95  1  0.632040  0.766477  0.398518  1
  O  O96  1  0.777804  0.127700  0.166695  1
  O  O97  1  0.843262  0.296174  0.952912  1
  O  O98  1  0.117378  0.801080  0.918458  1
  O  O99  1  0.961005  0.611109  0.833305  1
  O  O100  1  0.728098  0.994973  0.524381  1
  O  O101  1  0.355111  0.344568  0.489457  1
  O  O102  1  0.750528  0.000000  0.250528  1
  O  O103  1  0.867960  0.766477  0.634437  1
  O  O104  1  0.076076  0.836590  0.260514  1
  O  O105  1  0.485754  0.027419  0.301710  1
  O  O106  1  0.839209  0.408104  0.609868  1
  O  O107  1  0.367960  0.233523  0.601482  1
