# generated using pymatgen
data_Er2Co7
_symmetry_space_group_name_H-M   'P 1'
_cell_length_a   12.35086003
_cell_length_b   12.35086003
_cell_length_c   12.35086003
_cell_angle_alpha   23.06778263
_cell_angle_beta   23.06778263
_cell_angle_gamma   23.06778263
_symmetry_Int_Tables_number   1
_chemical_formula_structural   Er2Co7
_chemical_formula_sum   'Er4 Co14'
_cell_volume   253.87463456
_cell_formula_units_Z   2
loop_
 _symmetry_equiv_pos_site_id
 _symmetry_equiv_pos_as_xyz
  1  'x, y, z'
loop_
 _atom_site_type_symbol
 _atom_site_label
 _atom_site_symmetry_multiplicity
 _atom_site_fract_x
 _atom_site_fract_y
 _atom_site_fract_z
 _atom_site_occupancy
  Er  Er0  1  0.051468  0.051468  0.051468  1
  Er  Er1  1  0.851936  0.851936  0.851936  1
  Er  Er2  1  0.948532  0.948532  0.948532  1
  Er  Er3  1  0.148064  0.148064  0.148064  1
  Co  Co4  1  0.388790  0.388790  0.388790  1
  Co  Co5  1  0.611210  0.611210  0.611210  1
  Co  Co6  1  0.389726  0.389726  0.891915  1
  Co  Co7  1  0.610274  0.108085  0.610274  1
  Co  Co8  1  0.389726  0.891915  0.389726  1
  Co  Co9  1  0.891915  0.389726  0.389726  1
  Co  Co10  1  0.108085  0.610274  0.610274  1
  Co  Co11  1  0.000000  0.500000  0.500000  1
  Co  Co12  1  0.278438  0.278438  0.278438  1
  Co  Co13  1  0.500000  0.500000  0.500000  1
  Co  Co14  1  0.610274  0.610274  0.108085  1
  Co  Co15  1  0.500000  0.500000  0.000000  1
  Co  Co16  1  0.721562  0.721562  0.721562  1
  Co  Co17  1  0.500000  0.000000  0.500000  1
