# generated using pymatgen
data_Ca5V3O12F
_symmetry_space_group_name_H-M   'P 1'
_cell_length_a   7.02664023
_cell_length_b   9.86008497
_cell_length_c   9.87772187
_cell_angle_alpha   119.86716784
_cell_angle_beta   90.68101879
_cell_angle_gamma   90.20097544
_symmetry_Int_Tables_number   1
_chemical_formula_structural   Ca5V3O12F
_chemical_formula_sum   'Ca10 V6 O24 F2'
_cell_volume   593.38861239
_cell_formula_units_Z   2
loop_
 _symmetry_equiv_pos_site_id
 _symmetry_equiv_pos_as_xyz
  1  'x, y, z'
loop_
 _atom_site_type_symbol
 _atom_site_label
 _atom_site_symmetry_multiplicity
 _atom_site_fract_x
 _atom_site_fract_y
 _atom_site_fract_z
 _atom_site_occupancy
  Ca  Ca0  1  0.756100  0.765973  0.004513  1
  Ca  Ca1  1  0.997305  0.335450  0.684980  1
  Ca  Ca2  1  0.248772  0.755728  0.761432  1
  Ca  Ca3  1  0.502552  0.335291  0.653773  1
  Ca  Ca4  1  0.751228  0.244272  0.238568  1
  Ca  Ca5  1  0.243900  0.234027  0.995487  1
  Ca  Ca6  1  0.256949  0.004405  0.244659  1
  Ca  Ca7  1  0.497448  0.664709  0.346227  1
  Ca  Ca8  1  0.002695  0.664550  0.315020  1
  Ca  Ca9  1  0.743051  0.995595  0.755341  1
  V  V10  1  0.758011  0.974237  0.369605  1
  V  V11  1  0.263677  0.601096  0.972744  1
  V  V12  1  0.755051  0.629113  0.602090  1
  V  V13  1  0.736323  0.398904  0.027256  1
  V  V14  1  0.244949  0.370887  0.397910  1
  V  V15  1  0.241989  0.025763  0.630395  1
  O  O16  1  0.733880  0.870626  0.470800  1
  O  O17  1  0.956625  0.900444  0.252273  1
  O  O18  1  0.223032  0.470020  0.602277  1
  O  O19  1  0.552120  0.331359  0.094300  1
  O  O20  1  0.264936  0.395422  0.870715  1
  O  O21  1  0.230436  0.824976  0.507973  1
  O  O22  1  0.453524  0.264988  0.358832  1
  O  O23  1  0.426766  0.070726  0.763622  1
  O  O24  1  0.270243  0.684408  0.174422  1
  O  O25  1  0.546476  0.735012  0.641168  1
  O  O26  1  0.266120  0.129374  0.529200  1
  O  O27  1  0.247481  0.493067  0.318860  1
  O  O28  1  0.729757  0.315592  0.825578  1
  O  O29  1  0.735064  0.604578  0.129285  1
  O  O30  1  0.931834  0.770029  0.692332  1
  O  O31  1  0.776968  0.529980  0.397723  1
  O  O32  1  0.059621  0.657620  0.915192  1
  O  O33  1  0.068166  0.229971  0.307668  1
  O  O34  1  0.573234  0.929274  0.236378  1
  O  O35  1  0.752519  0.506933  0.681140  1
  O  O36  1  0.043375  0.099556  0.747727  1
  O  O37  1  0.940379  0.342380  0.084808  1
  O  O38  1  0.769564  0.175024  0.492027  1
  O  O39  1  0.447880  0.668641  0.905700  1
  F  F40  1  0.249140  0.995466  0.000675  1
  F  F41  1  0.750860  0.004534  0.999325  1
