# generated using pymatgen
data_Rb2Nb3Cl7O5
_symmetry_space_group_name_H-M   'P 1'
_cell_length_a   9.75144038
_cell_length_b   9.75144038
_cell_length_c   11.32404083
_cell_angle_alpha   71.34652766
_cell_angle_beta   108.65347234
_cell_angle_gamma   124.79253838
_symmetry_Int_Tables_number   1
_chemical_formula_structural   Rb2Nb3Cl7O5
_chemical_formula_sum   'Rb4 Nb6 Cl14 O10'
_cell_volume   824.69439590
_cell_formula_units_Z   2
loop_
 _symmetry_equiv_pos_site_id
 _symmetry_equiv_pos_as_xyz
  1  'x, y, z'
loop_
 _atom_site_type_symbol
 _atom_site_label
 _atom_site_symmetry_multiplicity
 _atom_site_fract_x
 _atom_site_fract_y
 _atom_site_fract_z
 _atom_site_occupancy
  Rb  Rb0  1  0.837672  0.242273  0.643926  1
  Rb  Rb1  1  0.162328  0.757727  0.356074  1
  Rb  Rb2  1  0.242273  0.837672  0.856074  1
  Rb  Rb3  1  0.757727  0.162328  0.143926  1
  Nb  Nb4  1  0.465267  0.465267  0.750000  1
  Nb  Nb5  1  0.213886  0.208898  0.473570  1
  Nb  Nb6  1  0.208898  0.213886  0.026430  1
  Nb  Nb7  1  0.791102  0.786114  0.973570  1
  Nb  Nb8  1  0.534733  0.534733  0.250000  1
  Nb  Nb9  1  0.786114  0.791102  0.526430  1
  Cl  Cl10  1  0.938253  0.639870  0.624959  1
  Cl  Cl11  1  0.061747  0.360130  0.375041  1
  Cl  Cl12  1  0.578161  0.280806  0.830876  1
  Cl  Cl13  1  0.092998  0.092998  0.250000  1
  Cl  Cl14  1  0.362560  0.056629  0.542179  1
  Cl  Cl15  1  0.056629  0.362560  0.957821  1
  Cl  Cl16  1  0.943371  0.637440  0.042179  1
  Cl  Cl17  1  0.719194  0.421839  0.330876  1
  Cl  Cl18  1  0.421839  0.719194  0.169124  1
  Cl  Cl19  1  0.360130  0.061747  0.124959  1
  Cl  Cl20  1  0.907002  0.907002  0.750000  1
  Cl  Cl21  1  0.639870  0.938253  0.875041  1
  Cl  Cl22  1  0.280806  0.578161  0.669124  1
  Cl  Cl23  1  0.637440  0.943371  0.457821  1
  O  O24  1  0.713456  0.710916  0.120872  1
  O  O25  1  0.600898  0.603868  0.625641  1
  O  O26  1  0.399102  0.396132  0.374359  1
  O  O27  1  0.710916  0.713456  0.379128  1
  O  O28  1  0.289084  0.286544  0.620872  1
  O  O29  1  0.000000  1.000000  0.500000  1
  O  O30  1  0.286544  0.289084  0.879129  1
  O  O31  1  0.396132  0.399102  0.125641  1
  O  O32  1  0.603868  0.600898  0.874359  1
  O  O33  1  0.000000  0.000000  0.000000  1
