# generated using pymatgen
data_Ba2Co2ClF7
_symmetry_space_group_name_H-M   'P 1'
_cell_length_a   7.82753106
_cell_length_b   5.87827829
_cell_length_c   9.03869599
_cell_angle_alpha   90.00000000
_cell_angle_beta   106.77664146
_cell_angle_gamma   90.00000000
_symmetry_Int_Tables_number   1
_chemical_formula_structural   Ba2Co2ClF7
_chemical_formula_sum   'Ba4 Co4 Cl2 F14'
_cell_volume   398.19063575
_cell_formula_units_Z   2
loop_
 _symmetry_equiv_pos_site_id
 _symmetry_equiv_pos_as_xyz
  1  'x, y, z'
loop_
 _atom_site_type_symbol
 _atom_site_label
 _atom_site_symmetry_multiplicity
 _atom_site_fract_x
 _atom_site_fract_y
 _atom_site_fract_z
 _atom_site_occupancy
  Ba  Ba0  1  0.697995  0.250000  0.926831  1
  Ba  Ba1  1  0.302005  0.750000  0.073169  1
  Ba  Ba2  1  0.331261  0.750000  0.587546  1
  Ba  Ba3  1  0.668739  0.250000  0.412454  1
  Co  Co4  1  0.826002  0.750000  0.733772  1
  Co  Co5  1  0.173998  0.250000  0.266228  1
  Co  Co6  1  0.182196  0.250000  0.824408  1
  Co  Co7  1  0.817804  0.750000  0.175592  1
  Cl  Cl8  1  0.117152  0.250000  0.530655  1
  Cl  Cl9  1  0.882848  0.750000  0.469345  1
  F  F10  1  0.370000  0.007363  0.839398  1
  F  F11  1  0.638596  0.997140  0.654557  1
  F  F12  1  0.745766  0.750000  0.934177  1
  F  F13  1  0.005062  0.502143  0.827780  1
  F  F14  1  0.370000  0.492637  0.839398  1
  F  F15  1  0.361404  0.002860  0.345443  1
  F  F16  1  0.638596  0.502860  0.654557  1
  F  F17  1  0.630000  0.992637  0.160602  1
  F  F18  1  0.994938  0.002143  0.172220  1
  F  F19  1  0.994938  0.497857  0.172220  1
  F  F20  1  0.630000  0.507363  0.160602  1
  F  F21  1  0.005062  0.997857  0.827780  1
  F  F22  1  0.254234  0.250000  0.065823  1
  F  F23  1  0.361404  0.497140  0.345443  1
