# generated using pymatgen
data_Er5Si4
_symmetry_space_group_name_H-M   'P 1'
_cell_length_a   7.35802888
_cell_length_b   7.63305053
_cell_length_c   14.41857179
_cell_angle_alpha   90.00000000
_cell_angle_beta   90.00000000
_cell_angle_gamma   90.00000000
_symmetry_Int_Tables_number   1
_chemical_formula_structural   Er5Si4
_chemical_formula_sum   'Er20 Si16'
_cell_volume   809.80763973
_cell_formula_units_Z   4
loop_
 _symmetry_equiv_pos_site_id
 _symmetry_equiv_pos_as_xyz
  1  'x, y, z'
loop_
 _atom_site_type_symbol
 _atom_site_label
 _atom_site_symmetry_multiplicity
 _atom_site_fract_x
 _atom_site_fract_y
 _atom_site_fract_z
 _atom_site_occupancy
  Er  Er0  1  0.029244  0.817198  0.598232  1
  Er  Er1  1  0.529244  0.682802  0.598232  1
  Er  Er2  1  0.316295  0.821009  0.123021  1
  Er  Er3  1  0.816295  0.678991  0.123021  1
  Er  Er4  1  0.853203  0.512483  0.750000  1
  Er  Er5  1  0.470756  0.317198  0.098232  1
  Er  Er6  1  0.029244  0.817198  0.901768  1
  Er  Er7  1  0.470756  0.317198  0.401768  1
  Er  Er8  1  0.646797  0.012483  0.250000  1
  Er  Er9  1  0.529244  0.682802  0.901768  1
  Er  Er10  1  0.683705  0.178991  0.876979  1
  Er  Er11  1  0.183705  0.321009  0.623021  1
  Er  Er12  1  0.183705  0.321009  0.876979  1
  Er  Er13  1  0.816295  0.678991  0.376979  1
  Er  Er14  1  0.316295  0.821009  0.376979  1
  Er  Er15  1  0.353203  0.987517  0.750000  1
  Er  Er16  1  0.683705  0.178991  0.623021  1
  Er  Er17  1  0.146797  0.487517  0.250000  1
  Er  Er18  1  0.970756  0.182802  0.098232  1
  Er  Er19  1  0.970756  0.182802  0.401768  1
  Si  Si20  1  0.646272  0.971878  0.459383  1
  Si  Si21  1  0.234135  0.628798  0.750000  1
  Si  Si22  1  0.353728  0.028122  0.540617  1
  Si  Si23  1  0.018867  0.896203  0.250000  1
  Si  Si24  1  0.734135  0.871202  0.750000  1
  Si  Si25  1  0.265865  0.128798  0.250000  1
  Si  Si26  1  0.853728  0.471878  0.540617  1
  Si  Si27  1  0.481133  0.396203  0.750000  1
  Si  Si28  1  0.146272  0.528122  0.459383  1
  Si  Si29  1  0.146272  0.528122  0.040617  1
  Si  Si30  1  0.981133  0.103797  0.750000  1
  Si  Si31  1  0.765865  0.371202  0.250000  1
  Si  Si32  1  0.353728  0.028122  0.959383  1
  Si  Si33  1  0.853728  0.471878  0.959383  1
  Si  Si34  1  0.646272  0.971878  0.040617  1
  Si  Si35  1  0.518867  0.603797  0.250000  1
