# generated using pymatgen
data_K3NaRe2O9
_symmetry_space_group_name_H-M   'P 1'
_cell_length_a   6.12574632
_cell_length_b   6.12574632
_cell_length_c   14.55116280
_cell_angle_alpha   90.00000000
_cell_angle_beta   90.00000000
_cell_angle_gamma   120.00000000
_symmetry_Int_Tables_number   1
_chemical_formula_structural   K3NaRe2O9
_chemical_formula_sum   'K6 Na2 Re4 O18'
_cell_volume   472.87499245
_cell_formula_units_Z   2
loop_
 _symmetry_equiv_pos_site_id
 _symmetry_equiv_pos_as_xyz
  1  'x, y, z'
loop_
 _atom_site_type_symbol
 _atom_site_label
 _atom_site_symmetry_multiplicity
 _atom_site_fract_x
 _atom_site_fract_y
 _atom_site_fract_z
 _atom_site_occupancy
  K  K0  1  0.000000  0.000000  0.250000  1
  K  K1  1  0.000000  0.000000  0.750000  1
  K  K2  1  0.333333  0.666667  0.116460  1
  K  K3  1  0.666667  0.333333  0.616460  1
  K  K4  1  0.666667  0.333333  0.883540  1
  K  K5  1  0.333333  0.666667  0.383540  1
  Na  Na6  1  0.000000  0.000000  0.000000  1
  Na  Na7  1  0.000000  0.000000  0.500000  1
  Re  Re8  1  0.333333  0.666667  0.850854  1
  Re  Re9  1  0.666667  0.333333  0.350854  1
  Re  Re10  1  0.666667  0.333333  0.149146  1
  Re  Re11  1  0.333333  0.666667  0.649146  1
  O  O12  1  0.530784  0.061567  0.250000  1
  O  O13  1  0.469216  0.530784  0.750000  1
  O  O14  1  0.061567  0.530784  0.750000  1
  O  O15  1  0.938433  0.469216  0.250000  1
  O  O16  1  0.530784  0.469216  0.250000  1
  O  O17  1  0.469216  0.938433  0.750000  1
  O  O18  1  0.365823  0.182911  0.093573  1
  O  O19  1  0.182911  0.365823  0.593573  1
  O  O20  1  0.182911  0.817089  0.593573  1
  O  O21  1  0.817089  0.182911  0.093573  1
  O  O22  1  0.817089  0.634177  0.093573  1
  O  O23  1  0.182911  0.817089  0.906427  1
  O  O24  1  0.634177  0.817089  0.906427  1
  O  O25  1  0.634177  0.817089  0.593573  1
  O  O26  1  0.182911  0.365823  0.906427  1
  O  O27  1  0.817089  0.634177  0.406427  1
  O  O28  1  0.817089  0.182911  0.406427  1
  O  O29  1  0.365823  0.182911  0.406427  1
