# generated using pymatgen
data_LiMo2AsO9
_symmetry_space_group_name_H-M   'P 1'
_cell_length_a   5.54373841
_cell_length_b   7.72934078
_cell_length_c   9.10571862
_cell_angle_alpha   90.00000000
_cell_angle_beta   90.00000000
_cell_angle_gamma   90.00000000
_symmetry_Int_Tables_number   1
_chemical_formula_structural   LiMo2AsO9
_chemical_formula_sum   'Li2 Mo4 As2 O18'
_cell_volume   390.17497432
_cell_formula_units_Z   2
loop_
 _symmetry_equiv_pos_site_id
 _symmetry_equiv_pos_as_xyz
  1  'x, y, z'
loop_
 _atom_site_type_symbol
 _atom_site_label
 _atom_site_symmetry_multiplicity
 _atom_site_fract_x
 _atom_site_fract_y
 _atom_site_fract_z
 _atom_site_occupancy
  Li  Li0  1  0.000000  0.500000  0.393803  1
  Li  Li1  1  0.500000  0.000000  0.606197  1
  Mo  Mo2  1  0.500000  0.209717  0.259225  1
  Mo  Mo3  1  0.500000  0.790283  0.259225  1
  Mo  Mo4  1  0.000000  0.709717  0.740775  1
  Mo  Mo5  1  0.000000  0.290283  0.740775  1
  As  As6  1  0.000000  0.000000  0.042502  1
  As  As7  1  0.500000  0.500000  0.957498  1
  O  O8  1  0.000000  0.811418  0.941389  1
  O  O9  1  0.255645  0.317839  0.333443  1
  O  O10  1  0.755645  0.182161  0.666557  1
  O  O11  1  0.244355  0.817839  0.666557  1
  O  O12  1  0.000000  0.188582  0.941389  1
  O  O13  1  0.755645  0.817839  0.666557  1
  O  O14  1  0.744355  0.682161  0.333443  1
  O  O15  1  0.244355  0.182161  0.666557  1
  O  O16  1  0.242020  0.500000  0.854924  1
  O  O17  1  0.257980  0.000000  0.145076  1
  O  O18  1  0.500000  0.000000  0.380652  1
  O  O19  1  0.744355  0.317839  0.333443  1
  O  O20  1  0.500000  0.688582  0.058611  1
  O  O21  1  0.500000  0.311418  0.058611  1
  O  O22  1  0.757980  0.500000  0.854924  1
  O  O23  1  0.000000  0.500000  0.619348  1
  O  O24  1  0.255645  0.682161  0.333443  1
  O  O25  1  0.742020  0.000000  0.145076  1
