# generated using pymatgen
data_Xe2NO2F13
_symmetry_space_group_name_H-M   'P 1'
_cell_length_a   9.13948060
_cell_length_b   9.13948060
_cell_length_c   9.02838070
_cell_angle_alpha   85.91936179
_cell_angle_beta   94.08063821
_cell_angle_gamma   128.85883726
_symmetry_Int_Tables_number   1
_chemical_formula_structural   Xe2NO2F13
_chemical_formula_sum   'Xe4 N2 O4 F26'
_cell_volume   585.41548897
_cell_formula_units_Z   2
loop_
 _symmetry_equiv_pos_site_id
 _symmetry_equiv_pos_as_xyz
  1  'x, y, z'
loop_
 _atom_site_type_symbol
 _atom_site_label
 _atom_site_symmetry_multiplicity
 _atom_site_fract_x
 _atom_site_fract_y
 _atom_site_fract_z
 _atom_site_occupancy
  Xe  Xe0  1  0.845338  0.154662  0.714763  1
  Xe  Xe1  1  0.397432  0.602568  0.226036  1
  Xe  Xe2  1  0.602568  0.397432  0.773964  1
  Xe  Xe3  1  0.154662  0.845338  0.285237  1
  N  N4  1  0.803232  0.196768  0.220354  1
  N  N5  1  0.196768  0.803232  0.779646  1
  O  O6  1  0.734394  0.265606  0.196077  1
  O  O7  1  0.872158  0.127842  0.243942  1
  O  O8  1  0.127842  0.872158  0.756058  1
  O  O9  1  0.265606  0.734394  0.803923  1
  F  F10  1  0.453086  0.872125  0.269694  1
  F  F11  1  0.733194  0.617253  0.625821  1
  F  F12  1  0.266806  0.382747  0.374179  1
  F  F13  1  0.050344  0.949656  0.154376  1
  F  F14  1  0.872125  0.453086  0.730306  1
  F  F15  1  0.784818  0.564388  0.940613  1
  F  F16  1  0.382747  0.266806  0.625821  1
  F  F17  1  0.617253  0.733194  0.374179  1
  F  F18  1  0.116423  0.388781  0.709993  1
  F  F19  1  0.930843  0.069157  0.568838  1
  F  F20  1  0.388781  0.116423  0.290007  1
  F  F21  1  0.127875  0.546914  0.269694  1
  F  F22  1  0.780203  0.219797  0.506902  1
  F  F23  1  0.190773  0.809227  0.066172  1
  F  F24  1  0.069157  0.930843  0.431162  1
  F  F25  1  0.546914  0.127875  0.730306  1
  F  F26  1  0.809227  0.190773  0.933828  1
  F  F27  1  0.949656  0.050344  0.845624  1
  F  F28  1  0.219797  0.780203  0.493098  1
  F  F29  1  0.883577  0.611219  0.290007  1
  F  F30  1  0.564388  0.784818  0.059387  1
  F  F31  1  0.435612  0.215182  0.940613  1
  F  F32  1  0.611219  0.883577  0.709993  1
  F  F33  1  0.215182  0.435612  0.059387  1
  F  F34  1  0.513453  0.486547  0.177309  1
  F  F35  1  0.486547  0.513453  0.822691  1
