# generated using pymatgen
data_Cr5(PO4)4
_symmetry_space_group_name_H-M   'P 1'
_cell_length_a   5.18984807
_cell_length_b   8.07316547
_cell_length_c   8.35015472
_cell_angle_alpha   113.63409559
_cell_angle_beta   91.71543646
_cell_angle_gamma   99.10326714
_symmetry_Int_Tables_number   1
_chemical_formula_structural   Cr5(PO4)4
_chemical_formula_sum   'Cr5 P4 O16'
_cell_volume   314.78723517
_cell_formula_units_Z   1
loop_
 _symmetry_equiv_pos_site_id
 _symmetry_equiv_pos_as_xyz
  1  'x, y, z'
loop_
 _atom_site_type_symbol
 _atom_site_label
 _atom_site_symmetry_multiplicity
 _atom_site_fract_x
 _atom_site_fract_y
 _atom_site_fract_z
 _atom_site_occupancy
  Cr  Cr0  1  0.116061  0.247961  0.765037  1
  Cr  Cr1  1  0.883939  0.752039  0.234963  1
  Cr  Cr2  1  0.000000  0.000000  0.000000  1
  Cr  Cr3  1  0.645183  0.414863  0.665302  1
  Cr  Cr4  1  0.354817  0.585137  0.334698  1
  P  P5  1  0.141839  0.198868  0.426093  1
  P  P6  1  0.858161  0.801132  0.573907  1
  P  P7  1  0.640155  0.305258  0.024058  1
  P  P8  1  0.359845  0.694742  0.975942  1
  O  O9  1  0.344369  0.235244  0.955715  1
  O  O10  1  0.655631  0.764756  0.044285  1
  O  O11  1  0.799864  0.339881  0.880975  1
  O  O12  1  0.200136  0.660119  0.119025  1
  O  O13  1  0.338001  0.170892  0.558290  1
  O  O14  1  0.661999  0.829108  0.441710  1
  O  O15  1  0.049249  0.012456  0.265224  1
  O  O16  1  0.950751  0.987544  0.734776  1
  O  O17  1  0.918258  0.254715  0.549697  1
  O  O18  1  0.081742  0.745285  0.450303  1
  O  O19  1  0.751652  0.178110  0.087574  1
  O  O20  1  0.248348  0.821890  0.912426  1
  O  O21  1  0.338743  0.500433  0.815831  1
  O  O22  1  0.661257  0.499567  0.184169  1
  O  O23  1  0.259939  0.344802  0.366969  1
  O  O24  1  0.740061  0.655198  0.633031  1
