# generated using pymatgen
data_Cs6K7
_symmetry_space_group_name_H-M   'P 1'
_cell_length_a   9.14989557
_cell_length_b   9.14989557
_cell_length_c   33.23812902
_cell_angle_alpha   90.00000000
_cell_angle_beta   90.00000000
_cell_angle_gamma   120.00000000
_symmetry_Int_Tables_number   1
_chemical_formula_structural   Cs6K7
_chemical_formula_sum   'Cs12 K14'
_cell_volume   2409.90251943
_cell_formula_units_Z   2
loop_
 _symmetry_equiv_pos_site_id
 _symmetry_equiv_pos_as_xyz
  1  'x, y, z'
loop_
 _atom_site_type_symbol
 _atom_site_label
 _atom_site_symmetry_multiplicity
 _atom_site_fract_x
 _atom_site_fract_y
 _atom_site_fract_z
 _atom_site_occupancy
  Cs  Cs0  1  0.333333  0.666667  0.976984  1
  Cs  Cs1  1  0.666667  0.333333  0.178466  1
  Cs  Cs2  1  0.333333  0.666667  0.678466  1
  Cs  Cs3  1  0.333333  0.666667  0.821534  1
  Cs  Cs4  1  0.666667  0.333333  0.023016  1
  Cs  Cs5  1  0.666667  0.333333  0.321534  1
  Cs  Cs6  1  0.333333  0.666667  0.523016  1
  Cs  Cs7  1  0.666667  0.333333  0.476984  1
  Cs  Cs8  1  0.000000  0.000000  0.250000  1
  Cs  Cs9  1  0.666667  0.333333  0.750000  1
  Cs  Cs10  1  0.000000  0.000000  0.750000  1
  Cs  Cs11  1  0.333333  0.666667  0.250000  1
  K  K12  1  0.167157  0.334315  0.385428  1
  K  K13  1  0.167157  0.832843  0.385428  1
  K  K14  1  0.665685  0.832843  0.114572  1
  K  K15  1  0.167157  0.832843  0.114572  1
  K  K16  1  0.665685  0.832843  0.385428  1
  K  K17  1  0.832843  0.167157  0.614572  1
  K  K18  1  0.334315  0.167157  0.885428  1
  K  K19  1  0.334315  0.167157  0.614572  1
  K  K20  1  0.167157  0.334315  0.114572  1
  K  K21  1  0.832843  0.167157  0.885428  1
  K  K22  1  0.832843  0.665685  0.614572  1
  K  K23  1  0.000000  0.000000  0.500000  1
  K  K24  1  0.832843  0.665685  0.885428  1
  K  K25  1  0.000000  0.000000  0.000000  1
