# generated using pymatgen
data_BaLiCoF6
_symmetry_space_group_name_H-M   'P 1'
_cell_length_a   5.62837117
_cell_length_b   10.34935225
_cell_length_c   8.54480634
_cell_angle_alpha   90.00000000
_cell_angle_beta   91.24157270
_cell_angle_gamma   90.00000000
_symmetry_Int_Tables_number   1
_chemical_formula_structural   BaLiCoF6
_chemical_formula_sum   'Ba4 Li4 Co4 F24'
_cell_volume   497.61807764
_cell_formula_units_Z   4
loop_
 _symmetry_equiv_pos_site_id
 _symmetry_equiv_pos_as_xyz
  1  'x, y, z'
loop_
 _atom_site_type_symbol
 _atom_site_label
 _atom_site_symmetry_multiplicity
 _atom_site_fract_x
 _atom_site_fract_y
 _atom_site_fract_z
 _atom_site_occupancy
  Ba  Ba0  1  0.315599  0.799135  0.996692  1
  Ba  Ba1  1  0.315599  0.700865  0.496692  1
  Ba  Ba2  1  0.684401  0.200865  0.003308  1
  Ba  Ba3  1  0.684401  0.299135  0.503308  1
  Li  Li4  1  0.232525  0.426506  0.190723  1
  Li  Li5  1  0.767475  0.926506  0.309277  1
  Li  Li6  1  0.767475  0.573494  0.809277  1
  Li  Li7  1  0.232525  0.073494  0.690723  1
  Co  Co8  1  0.777090  0.581396  0.233125  1
  Co  Co9  1  0.777090  0.918604  0.733125  1
  Co  Co10  1  0.222910  0.418604  0.766875  1
  Co  Co11  1  0.222910  0.081396  0.266875  1
  F  F12  1  0.516160  0.004694  0.182445  1
  F  F13  1  0.102449  0.869686  0.682578  1
  F  F14  1  0.897551  0.369686  0.817422  1
  F  F15  1  0.897551  0.130314  0.317422  1
  F  F16  1  0.102449  0.630314  0.182578  1
  F  F17  1  0.109186  0.598589  0.784452  1
  F  F18  1  0.890814  0.098589  0.715548  1
  F  F19  1  0.890814  0.401411  0.215548  1
  F  F20  1  0.483840  0.504694  0.317555  1
  F  F21  1  0.378251  0.244949  0.747634  1
  F  F22  1  0.516160  0.495306  0.682445  1
  F  F23  1  0.483840  0.995306  0.817555  1
  F  F24  1  0.621749  0.755051  0.252366  1
  F  F25  1  0.378251  0.255051  0.247634  1
  F  F26  1  0.865823  0.602123  0.443871  1
  F  F27  1  0.621749  0.744949  0.752366  1
  F  F28  1  0.674505  0.908800  0.525677  1
  F  F29  1  0.134177  0.102123  0.056129  1
  F  F30  1  0.134177  0.397877  0.556129  1
  F  F31  1  0.865823  0.897877  0.943871  1
  F  F32  1  0.674505  0.591200  0.025677  1
  F  F33  1  0.325495  0.091200  0.474323  1
  F  F34  1  0.325495  0.408800  0.974323  1
  F  F35  1  0.109186  0.901411  0.284452  1
