# generated using pymatgen
data_Na6Si8O19
_symmetry_space_group_name_H-M   'P 1'
_cell_length_a   4.96280613
_cell_length_b   23.75993286
_cell_length_c   15.58769463
_cell_angle_alpha   90.00000000
_cell_angle_beta   90.11515816
_cell_angle_gamma   90.00000000
_symmetry_Int_Tables_number   1
_chemical_formula_structural   Na6Si8O19
_chemical_formula_sum   'Na24 Si32 O76'
_cell_volume   1838.03395748
_cell_formula_units_Z   4
loop_
 _symmetry_equiv_pos_site_id
 _symmetry_equiv_pos_as_xyz
  1  'x, y, z'
loop_
 _atom_site_type_symbol
 _atom_site_label
 _atom_site_symmetry_multiplicity
 _atom_site_fract_x
 _atom_site_fract_y
 _atom_site_fract_z
 _atom_site_occupancy
  Na  Na0  1  0.760408  0.229058  0.492378  1
  Na  Na1  1  0.266051  0.483377  0.427607  1
  Na  Na2  1  0.760801  0.049923  0.527947  1
  Na  Na3  1  0.737193  0.400434  0.394685  1
  Na  Na4  1  0.764395  0.638872  0.956806  1
  Na  Na5  1  0.733949  0.983377  0.072393  1
  Na  Na6  1  0.239199  0.549923  0.972053  1
  Na  Na7  1  0.239592  0.729058  0.007622  1
  Na  Na8  1  0.765104  0.819949  0.032037  1
  Na  Na9  1  0.760801  0.450077  0.027947  1
  Na  Na10  1  0.262807  0.900434  0.105315  1
  Na  Na11  1  0.760408  0.270942  0.992378  1
  Na  Na12  1  0.262807  0.599566  0.605315  1
  Na  Na13  1  0.764395  0.861128  0.456806  1
  Na  Na14  1  0.239199  0.950077  0.472053  1
  Na  Na15  1  0.737193  0.099566  0.894685  1
  Na  Na16  1  0.733949  0.516623  0.572393  1
  Na  Na17  1  0.234896  0.180051  0.967963  1
  Na  Na18  1  0.239592  0.770942  0.507622  1
  Na  Na19  1  0.765104  0.680051  0.532037  1
  Na  Na20  1  0.234896  0.319949  0.467963  1
  Na  Na21  1  0.266051  0.016623  0.927607  1
  Na  Na22  1  0.235605  0.361128  0.043194  1
  Na  Na23  1  0.235605  0.138872  0.543194  1
  Si  Si24  1  0.795130  0.283998  0.747859  1
  Si  Si25  1  0.702652  0.805888  0.638081  1
  Si  Si26  1  0.198699  0.394942  0.266184  1
  Si  Si27  1  0.204870  0.716002  0.252141  1
  Si  Si28  1  0.303053  0.635455  0.411488  1
  Si  Si29  1  0.289859  0.493147  0.143373  1
  Si  Si30  1  0.289859  0.006853  0.643373  1
  Si  Si31  1  0.799557  0.566000  0.174184  1
  Si  Si32  1  0.200443  0.066000  0.325816  1
  Si  Si33  1  0.197457  0.061657  0.120117  1
  Si  Si34  1  0.799557  0.934000  0.674184  1
  Si  Si35  1  0.301723  0.658561  0.822864  1
  Si  Si36  1  0.696947  0.364545  0.588512  1
  Si  Si37  1  0.710141  0.993147  0.356627  1
  Si  Si38  1  0.710141  0.506853  0.856627  1
  Si  Si39  1  0.702652  0.694112  0.138081  1
  Si  Si40  1  0.802543  0.938343  0.879883  1
  Si  Si41  1  0.297348  0.305888  0.861919  1
  Si  Si42  1  0.801301  0.894942  0.233816  1
  Si  Si43  1  0.802543  0.561657  0.379883  1
  Si  Si44  1  0.197457  0.438343  0.620117  1
  Si  Si45  1  0.801301  0.605058  0.733816  1
  Si  Si46  1  0.698277  0.341439  0.177136  1
  Si  Si47  1  0.303053  0.864545  0.911488  1
  Si  Si48  1  0.301723  0.841439  0.322864  1
  Si  Si49  1  0.696947  0.135455  0.088512  1
  Si  Si50  1  0.698277  0.158561  0.677136  1
  Si  Si51  1  0.200443  0.434000  0.825816  1
  Si  Si52  1  0.297348  0.194112  0.361919  1
  Si  Si53  1  0.795130  0.216002  0.247859  1
  Si  Si54  1  0.198699  0.105058  0.766184  1
  Si  Si55  1  0.204870  0.783998  0.752141  1
  O  O56  1  0.764715  0.173702  0.007024  1
  O  O57  1  0.229158  0.071086  0.223321  1
  O  O58  1  0.608437  0.514535  0.140144  1
  O  O59  1  0.766524  0.957819  0.441575  1
  O  O60  1  0.620880  0.854265  0.297800  1
  O  O61  1  0.764715  0.326298  0.507024  1
  O  O62  1  0.761022  0.961121  0.264642  1
  O  O63  1  0.229791  0.222003  0.452618  1
  O  O64  1  0.229158  0.428914  0.723321  1
  O  O65  1  0.391563  0.014535  0.359856  1
  O  O66  1  0.722437  0.335213  0.683279  1
  O  O67  1  0.741537  0.608946  0.633185  1
  O  O68  1  0.229791  0.277997  0.952618  1
  O  O69  1  0.121229  0.877901  0.252498  1
  O  O70  1  0.882600  0.422588  0.592877  1
  O  O71  1  0.770842  0.571086  0.276679  1
  O  O72  1  0.770209  0.777997  0.547382  1
  O  O73  1  0.248272  0.854799  0.421997  1
  O  O74  1  0.121229  0.622099  0.752498  1
  O  O75  1  0.235285  0.673702  0.492976  1
  O  O76  1  0.892589  0.712214  0.220100  1
  O  O77  1  0.277563  0.835213  0.816721  1
  O  O78  1  0.109160  0.552166  0.144753  1
  O  O79  1  0.117400  0.577412  0.407123  1
  O  O80  1  0.248272  0.645201  0.921997  1
  O  O81  1  0.770842  0.928914  0.776679  1
  O  O82  1  0.761022  0.538879  0.764642  1
  O  O83  1  0.749825  0.274306  0.196283  1
  O  O84  1  0.712482  0.624579  0.126893  1
  O  O85  1  0.390426  0.711647  0.165290  1
  O  O86  1  0.235285  0.826298  0.992976  1
  O  O87  1  0.277563  0.664787  0.316721  1
  O  O88  1  0.383601  0.112154  0.076235  1
  O  O89  1  0.107411  0.287786  0.779900  1
  O  O90  1  0.238978  0.461121  0.235358  1
  O  O91  1  0.737967  0.999689  0.916275  1
  O  O92  1  0.258463  0.391054  0.366815  1
  O  O93  1  0.878771  0.377901  0.247502  1
  O  O94  1  0.250175  0.774306  0.303717  1
  O  O95  1  0.379120  0.354265  0.202200  1
  O  O96  1  0.878771  0.122099  0.747502  1
  O  O97  1  0.383601  0.387846  0.576235  1
  O  O98  1  0.262033  0.000311  0.083725  1
  O  O99  1  0.737967  0.500311  0.416275  1
  O  O100  1  0.250175  0.725694  0.803717  1
  O  O101  1  0.379120  0.145735  0.702200  1
  O  O102  1  0.109160  0.947834  0.644753  1
  O  O103  1  0.770209  0.722003  0.047382  1
  O  O104  1  0.616399  0.887846  0.923765  1
  O  O105  1  0.390426  0.788353  0.665290  1
  O  O106  1  0.722437  0.164787  0.183279  1
  O  O107  1  0.233476  0.457819  0.058425  1
  O  O108  1  0.882600  0.077412  0.092877  1
  O  O109  1  0.620880  0.645735  0.797800  1
  O  O110  1  0.258463  0.108946  0.866815  1
  O  O111  1  0.608437  0.985465  0.640144  1
  O  O112  1  0.751728  0.145201  0.578003  1
  O  O113  1  0.609574  0.211647  0.334710  1
  O  O114  1  0.712482  0.875421  0.626893  1
  O  O115  1  0.892589  0.787786  0.720100  1
  O  O116  1  0.287518  0.124579  0.373107  1
  O  O117  1  0.287518  0.375421  0.873107  1
  O  O118  1  0.766524  0.542181  0.941575  1
  O  O119  1  0.233476  0.042181  0.558425  1
  O  O120  1  0.751728  0.354799  0.078003  1
  O  O121  1  0.262033  0.499689  0.583725  1
  O  O122  1  0.749825  0.225694  0.696283  1
  O  O123  1  0.890840  0.447834  0.855247  1
  O  O124  1  0.741537  0.891054  0.133185  1
  O  O125  1  0.616399  0.612154  0.423765  1
  O  O126  1  0.391563  0.485465  0.859856  1
  O  O127  1  0.609574  0.288353  0.834710  1
  O  O128  1  0.107411  0.212214  0.279900  1
  O  O129  1  0.890840  0.052166  0.355247  1
  O  O130  1  0.117400  0.922588  0.907123  1
  O  O131  1  0.238978  0.038879  0.735358  1
