# generated using pymatgen
data_K2Cd2Te3
_symmetry_space_group_name_H-M   'P 1'
_cell_length_a   13.49792655
_cell_length_b   16.05139684
_cell_length_c   14.56759158
_cell_angle_alpha   90.00000000
_cell_angle_beta   94.49697601
_cell_angle_gamma   90.00000000
_symmetry_Int_Tables_number   1
_chemical_formula_structural   K2Cd2Te3
_chemical_formula_sum   'K24 Cd24 Te36'
_cell_volume   3146.50626186
_cell_formula_units_Z   12
loop_
 _symmetry_equiv_pos_site_id
 _symmetry_equiv_pos_as_xyz
  1  'x, y, z'
loop_
 _atom_site_type_symbol
 _atom_site_label
 _atom_site_symmetry_multiplicity
 _atom_site_fract_x
 _atom_site_fract_y
 _atom_site_fract_z
 _atom_site_occupancy
  K  K0  1  0.142518  0.961341  0.439352  1
  K  K1  1  0.733787  0.770281  0.732007  1
  K  K2  1  0.642832  0.024577  0.953543  1
  K  K3  1  0.980632  0.054917  0.877412  1
  K  K4  1  0.474822  0.526492  0.854766  1
  K  K5  1  0.019368  0.554917  0.622588  1
  K  K6  1  0.525178  0.473508  0.145234  1
  K  K7  1  0.525178  0.026492  0.645234  1
  K  K8  1  0.357168  0.524577  0.546457  1
  K  K9  1  0.247684  0.529618  0.233166  1
  K  K10  1  0.266213  0.229719  0.267993  1
  K  K11  1  0.142518  0.538659  0.939352  1
  K  K12  1  0.642832  0.475423  0.453543  1
  K  K13  1  0.752316  0.029618  0.266834  1
  K  K14  1  0.019368  0.945083  0.122588  1
  K  K15  1  0.266213  0.270281  0.767993  1
  K  K16  1  0.247684  0.970382  0.733166  1
  K  K17  1  0.357168  0.975423  0.046457  1
  K  K18  1  0.733787  0.729719  0.232007  1
  K  K19  1  0.752316  0.470382  0.766834  1
  K  K20  1  0.474822  0.973508  0.354766  1
  K  K21  1  0.857482  0.461341  0.060648  1
  K  K22  1  0.980632  0.445083  0.377412  1
  K  K23  1  0.857482  0.038659  0.560648  1
  Cd  Cd24  1  0.681177  0.246274  0.113475  1
  Cd  Cd25  1  0.631373  0.791308  0.980664  1
  Cd  Cd26  1  0.368627  0.291308  0.519336  1
  Cd  Cd27  1  0.681177  0.253726  0.613475  1
  Cd  Cd28  1  0.177557  0.750225  0.095463  1
  Cd  Cd29  1  0.442778  0.729844  0.681318  1
  Cd  Cd30  1  0.137655  0.309447  0.009124  1
  Cd  Cd31  1  0.557222  0.270156  0.318682  1
  Cd  Cd32  1  0.442778  0.770156  0.181318  1
  Cd  Cd33  1  0.008395  0.290707  0.677169  1
  Cd  Cd34  1  0.557222  0.229844  0.818682  1
  Cd  Cd35  1  0.008395  0.209293  0.177169  1
  Cd  Cd36  1  0.822443  0.249775  0.904537  1
  Cd  Cd37  1  0.177557  0.749775  0.595463  1
  Cd  Cd38  1  0.862345  0.809447  0.490876  1
  Cd  Cd39  1  0.137655  0.190553  0.509124  1
  Cd  Cd40  1  0.991605  0.709293  0.322831  1
  Cd  Cd41  1  0.991605  0.790707  0.822831  1
  Cd  Cd42  1  0.318823  0.746274  0.386525  1
  Cd  Cd43  1  0.822443  0.250225  0.404537  1
  Cd  Cd44  1  0.631373  0.708692  0.480664  1
  Cd  Cd45  1  0.368627  0.208692  0.019336  1
  Cd  Cd46  1  0.318823  0.753726  0.886525  1
  Cd  Cd47  1  0.862345  0.690553  0.990876  1
  Te  Te48  1  0.509946  0.155085  0.167501  1
  Te  Te49  1  0.067497  0.122625  0.674693  1
  Te  Te50  1  0.262249  0.861530  0.238495  1
  Te  Te51  1  0.584724  0.888969  0.137678  1
  Te  Te52  1  0.670274  0.879462  0.516933  1
  Te  Te53  1  0.843920  0.139885  0.067092  1
  Te  Te54  1  0.670274  0.620538  0.016933  1
  Te  Te55  1  0.415276  0.111031  0.862322  1
  Te  Te56  1  0.156080  0.860115  0.932908  1
  Te  Te57  1  0.835430  0.634393  0.439947  1
  Te  Te58  1  0.509946  0.344915  0.667501  1
  Te  Te59  1  0.262249  0.638470  0.738495  1
  Te  Te60  1  0.584724  0.611031  0.637678  1
  Te  Te61  1  0.648135  0.347614  0.949552  1
  Te  Te62  1  0.490054  0.844915  0.832499  1
  Te  Te63  1  0.164570  0.365607  0.560053  1
  Te  Te64  1  0.013574  0.648773  0.137348  1
  Te  Te65  1  0.490054  0.655085  0.332499  1
  Te  Te66  1  0.835430  0.865607  0.939947  1
  Te  Te67  1  0.737751  0.361530  0.261505  1
  Te  Te68  1  0.415276  0.388969  0.362322  1
  Te  Te69  1  0.648135  0.152386  0.449552  1
  Te  Te70  1  0.932503  0.877375  0.325307  1
  Te  Te71  1  0.932503  0.622625  0.825307  1
  Te  Te72  1  0.067497  0.377375  0.174693  1
  Te  Te73  1  0.843920  0.360115  0.567092  1
  Te  Te74  1  0.329726  0.379462  0.983067  1
  Te  Te75  1  0.329726  0.120538  0.483067  1
  Te  Te76  1  0.351865  0.652386  0.050448  1
  Te  Te77  1  0.986426  0.351227  0.862652  1
  Te  Te78  1  0.351865  0.847614  0.550448  1
  Te  Te79  1  0.156080  0.639885  0.432908  1
  Te  Te80  1  0.986426  0.148773  0.362652  1
  Te  Te81  1  0.164570  0.134393  0.060053  1
  Te  Te82  1  0.737751  0.138470  0.761505  1
  Te  Te83  1  0.013574  0.851227  0.637348  1
