# generated using pymatgen
data_Ce3Ta(ClO2)3
_symmetry_space_group_name_H-M   'P 1'
_cell_length_a   9.32175206
_cell_length_b   9.32175206
_cell_length_c   5.41006117
_cell_angle_alpha   90.00000000
_cell_angle_beta   90.00000000
_cell_angle_gamma   120.00000000
_symmetry_Int_Tables_number   1
_chemical_formula_structural   Ce3Ta(ClO2)3
_chemical_formula_sum   'Ce6 Ta2 Cl6 O12'
_cell_volume   407.12512195
_cell_formula_units_Z   2
loop_
 _symmetry_equiv_pos_site_id
 _symmetry_equiv_pos_as_xyz
  1  'x, y, z'
loop_
 _atom_site_type_symbol
 _atom_site_label
 _atom_site_symmetry_multiplicity
 _atom_site_fract_x
 _atom_site_fract_y
 _atom_site_fract_z
 _atom_site_occupancy
  Ce  Ce0  1  0.589145  0.679591  0.750000  1
  Ce  Ce1  1  0.090447  0.410855  0.750000  1
  Ce  Ce2  1  0.410855  0.320409  0.250000  1
  Ce  Ce3  1  0.320409  0.909553  0.750000  1
  Ce  Ce4  1  0.909553  0.589145  0.250000  1
  Ce  Ce5  1  0.679591  0.090447  0.250000  1
  Ta  Ta6  1  0.666667  0.333333  0.750000  1
  Ta  Ta7  1  0.333333  0.666667  0.250000  1
  Cl  Cl8  1  0.947923  0.759049  0.750000  1
  Cl  Cl9  1  0.240951  0.188875  0.750000  1
  Cl  Cl10  1  0.052077  0.240951  0.250000  1
  Cl  Cl11  1  0.188875  0.947923  0.250000  1
  Cl  Cl12  1  0.811125  0.052077  0.750000  1
  Cl  Cl13  1  0.759049  0.811125  0.250000  1
  O  O14  1  0.634605  0.479354  0.988574  1
  O  O15  1  0.844749  0.365395  0.511426  1
  O  O16  1  0.479354  0.844749  0.011426  1
  O  O17  1  0.520646  0.155251  0.511426  1
  O  O18  1  0.479354  0.844749  0.488574  1
  O  O19  1  0.155251  0.634605  0.488574  1
  O  O20  1  0.365395  0.520646  0.488574  1
  O  O21  1  0.155251  0.634605  0.011426  1
  O  O22  1  0.520646  0.155251  0.988574  1
  O  O23  1  0.634605  0.479354  0.511426  1
  O  O24  1  0.844749  0.365395  0.988574  1
  O  O25  1  0.365395  0.520646  0.011426  1
