# generated using pymatgen
data_Hf2Al4C5
_symmetry_space_group_name_H-M   'P 1'
_cell_length_a   13.75145337
_cell_length_b   13.75145337
_cell_length_c   13.75145337
_cell_angle_alpha   13.94469498
_cell_angle_beta   13.94469498
_cell_angle_gamma   13.94469498
_symmetry_Int_Tables_number   1
_chemical_formula_structural   Hf2Al4C5
_chemical_formula_sum   'Hf2 Al4 C5'
_cell_volume   131.43030793
_cell_formula_units_Z   1
loop_
 _symmetry_equiv_pos_site_id
 _symmetry_equiv_pos_as_xyz
  1  'x, y, z'
loop_
 _atom_site_type_symbol
 _atom_site_label
 _atom_site_symmetry_multiplicity
 _atom_site_fract_x
 _atom_site_fract_y
 _atom_site_fract_z
 _atom_site_occupancy
  Hf  Hf0  1  0.634048  0.634048  0.634048  1
  Hf  Hf1  1  0.365952  0.365952  0.365952  1
  Al  Al2  1  0.088496  0.088496  0.088496  1
  Al  Al3  1  0.810625  0.810625  0.810625  1
  Al  Al4  1  0.189375  0.189375  0.189375  1
  Al  Al5  1  0.911504  0.911504  0.911504  1
  C  C6  1  0.732577  0.732577  0.732577  1
  C  C7  1  0.267423  0.267423  0.267423  1
  C  C8  1  0.000000  0.000000  0.000000  1
  C  C9  1  0.864002  0.864002  0.864002  1
  C  C10  1  0.135998  0.135998  0.135998  1
