# generated using pymatgen
data_Ce2Ga12Cu
_symmetry_space_group_name_H-M   'P 1'
_cell_length_a   6.14748239
_cell_length_b   6.14748239
_cell_length_c   15.32526217
_cell_angle_alpha   90.00000000
_cell_angle_beta   90.00000000
_cell_angle_gamma   90.00000000
_symmetry_Int_Tables_number   1
_chemical_formula_structural   Ce2Ga12Cu
_chemical_formula_sum   'Ce4 Ga24 Cu2'
_cell_volume   579.16525425
_cell_formula_units_Z   2
loop_
 _symmetry_equiv_pos_site_id
 _symmetry_equiv_pos_as_xyz
  1  'x, y, z'
loop_
 _atom_site_type_symbol
 _atom_site_label
 _atom_site_symmetry_multiplicity
 _atom_site_fract_x
 _atom_site_fract_y
 _atom_site_fract_z
 _atom_site_occupancy
  Ce  Ce0  1  0.000000  0.500000  0.756489  1
  Ce  Ce1  1  0.500000  0.000000  0.756489  1
  Ce  Ce2  1  0.000000  0.500000  0.243511  1
  Ce  Ce3  1  0.500000  0.000000  0.243511  1
  Ga  Ga4  1  0.671102  0.171102  0.428250  1
  Ga  Ga5  1  0.671102  0.828898  0.571750  1
  Ga  Ga6  1  0.171102  0.671102  0.571750  1
  Ga  Ga7  1  0.828898  0.328898  0.571750  1
  Ga  Ga8  1  0.500000  0.500000  0.181477  1
  Ga  Ga9  1  0.500000  0.500000  0.818523  1
  Ga  Ga10  1  0.000000  0.000000  0.818523  1
  Ga  Ga11  1  0.000000  0.000000  0.181477  1
  Ga  Ga12  1  0.500000  0.500000  0.341121  1
  Ga  Ga13  1  0.500000  0.500000  0.658879  1
  Ga  Ga14  1  0.000000  0.000000  0.658879  1
  Ga  Ga15  1  0.000000  0.000000  0.341121  1
  Ga  Ga16  1  0.250255  0.750255  0.913778  1
  Ga  Ga17  1  0.249745  0.250255  0.913778  1
  Ga  Ga18  1  0.750255  0.749745  0.913778  1
  Ga  Ga19  1  0.250255  0.249745  0.086222  1
  Ga  Ga20  1  0.749745  0.750255  0.086222  1
  Ga  Ga21  1  0.749745  0.249745  0.913778  1
  Ga  Ga22  1  0.750255  0.250255  0.086222  1
  Ga  Ga23  1  0.249745  0.749745  0.086222  1
  Ga  Ga24  1  0.328898  0.828898  0.428250  1
  Ga  Ga25  1  0.171102  0.328898  0.428250  1
  Ga  Ga26  1  0.828898  0.671102  0.428250  1
  Ga  Ga27  1  0.328898  0.171102  0.571750  1
  Cu  Cu28  1  0.500000  0.000000  0.000000  1
  Cu  Cu29  1  0.000000  0.500000  0.000000  1
