# generated using pymatgen
data_LiMnP2O7
_symmetry_space_group_name_H-M   'P 1'
_cell_length_a   8.15044989
_cell_length_b   8.15044989
_cell_length_c   8.77240723
_cell_angle_alpha   69.73109455
_cell_angle_beta   110.26890545
_cell_angle_gamma   144.43358647
_symmetry_Int_Tables_number   1
_chemical_formula_structural   LiMnP2O7
_chemical_formula_sum   'Li2 Mn2 P4 O14'
_cell_volume   315.72666054
_cell_formula_units_Z   2
loop_
 _symmetry_equiv_pos_site_id
 _symmetry_equiv_pos_as_xyz
  1  'x, y, z'
loop_
 _atom_site_type_symbol
 _atom_site_label
 _atom_site_symmetry_multiplicity
 _atom_site_fract_x
 _atom_site_fract_y
 _atom_site_fract_z
 _atom_site_occupancy
  Li  Li0  1  0.467902  0.867962  0.955305  1
  Li  Li1  1  0.132038  0.532098  0.455305  1
  Mn  Mn2  1  0.513073  0.508365  0.004027  1
  Mn  Mn3  1  0.491635  0.486927  0.504027  1
  P  P4  1  0.034675  0.228991  0.191525  1
  P  P5  1  0.771009  0.965325  0.691525  1
  P  P6  1  0.963086  0.762976  0.805666  1
  P  P7  1  0.237024  0.036914  0.305666  1
  O  O8  1  0.178616  0.371521  0.351061  1
  O  O9  1  0.552341  0.737830  0.568587  1
  O  O10  1  0.762606  0.109324  0.123682  1
  O  O11  1  0.119983  0.765303  0.360620  1
  O  O12  1  0.234697  0.880017  0.860620  1
  O  O13  1  0.035380  0.033392  0.745050  1
  O  O14  1  0.764915  0.578021  0.939452  1
  O  O15  1  0.890676  0.237394  0.623682  1
  O  O16  1  0.421979  0.235085  0.439452  1
  O  O17  1  0.262170  0.447659  0.068587  1
  O  O18  1  0.799801  0.608900  0.650755  1
  O  O19  1  0.966608  0.964620  0.245050  1
  O  O20  1  0.391100  0.200199  0.150755  1
  O  O21  1  0.628479  0.821384  0.851061  1
