# generated using pymatgen
data_ReP(Cl2O)3
_symmetry_space_group_name_H-M   'P 1'
_cell_length_a   6.57914577
_cell_length_b   12.92678173
_cell_length_c   14.20479785
_cell_angle_alpha   90.00000000
_cell_angle_beta   99.82832712
_cell_angle_gamma   90.00000000
_symmetry_Int_Tables_number   1
_chemical_formula_structural   ReP(Cl2O)3
_chemical_formula_sum   'Re4 P4 Cl24 O12'
_cell_volume   1190.34781429
_cell_formula_units_Z   4
loop_
 _symmetry_equiv_pos_site_id
 _symmetry_equiv_pos_as_xyz
  1  'x, y, z'
loop_
 _atom_site_type_symbol
 _atom_site_label
 _atom_site_symmetry_multiplicity
 _atom_site_fract_x
 _atom_site_fract_y
 _atom_site_fract_z
 _atom_site_occupancy
  Re  Re0  1  0.384212  0.707538  0.497662  1
  Re  Re1  1  0.615788  0.292462  0.502338  1
  Re  Re2  1  0.384212  0.792462  0.997662  1
  Re  Re3  1  0.615788  0.207538  0.002338  1
  P  P4  1  0.093448  0.900970  0.326836  1
  P  P5  1  0.906552  0.099030  0.673164  1
  P  P6  1  0.093448  0.599030  0.826836  1
  P  P7  1  0.906552  0.400970  0.173164  1
  Cl  Cl8  1  0.091366  0.982439  0.652377  1
  Cl  Cl9  1  0.642702  0.668805  0.009446  1
  Cl  Cl10  1  0.076244  0.308587  0.267554  1
  Cl  Cl11  1  0.696857  0.036697  0.742296  1
  Cl  Cl12  1  0.923756  0.691413  0.732446  1
  Cl  Cl13  1  0.923756  0.808587  0.232446  1
  Cl  Cl14  1  0.545236  0.185603  0.160433  1
  Cl  Cl15  1  0.303143  0.963303  0.257704  1
  Cl  Cl16  1  0.908634  0.482439  0.847623  1
  Cl  Cl17  1  0.076244  0.191413  0.767554  1
  Cl  Cl18  1  0.908634  0.017561  0.347623  1
  Cl  Cl19  1  0.357298  0.168805  0.490554  1
  Cl  Cl20  1  0.915226  0.381387  0.557798  1
  Cl  Cl21  1  0.642702  0.831195  0.509446  1
  Cl  Cl22  1  0.696857  0.463303  0.242296  1
  Cl  Cl23  1  0.454764  0.685603  0.339567  1
  Cl  Cl24  1  0.084774  0.618613  0.442202  1
  Cl  Cl25  1  0.303143  0.536697  0.757704  1
  Cl  Cl26  1  0.545236  0.314397  0.660433  1
  Cl  Cl27  1  0.454764  0.814397  0.839567  1
  Cl  Cl28  1  0.091366  0.517561  0.152377  1
  Cl  Cl29  1  0.084774  0.881387  0.942202  1
  Cl  Cl30  1  0.915226  0.118613  0.057798  1
  Cl  Cl31  1  0.357298  0.331195  0.990554  1
  O  O32  1  0.285034  0.737131  0.090765  1
  O  O33  1  0.714966  0.262869  0.909235  1
  O  O34  1  0.817627  0.150214  0.581917  1
  O  O35  1  0.817627  0.349786  0.081917  1
  O  O36  1  0.182373  0.849786  0.418083  1
  O  O37  1  0.470815  0.107147  0.949284  1
  O  O38  1  0.529185  0.607147  0.550716  1
  O  O39  1  0.470815  0.392853  0.449284  1
  O  O40  1  0.182373  0.650214  0.918083  1
  O  O41  1  0.285034  0.762869  0.590765  1
  O  O42  1  0.529185  0.892853  0.050716  1
  O  O43  1  0.714966  0.237131  0.409235  1
