# generated using pymatgen
data_Rb2U(SiO3)4
_symmetry_space_group_name_H-M   'P 1'
_cell_length_a   6.91623088
_cell_length_b   8.49451490
_cell_length_c   11.37573289
_cell_angle_alpha   107.00343523
_cell_angle_beta   88.78800787
_cell_angle_gamma   102.73599007
_symmetry_Int_Tables_number   1
_chemical_formula_structural   Rb2U(SiO3)4
_chemical_formula_sum   'Rb4 U2 Si8 O24'
_cell_volume   622.71320691
_cell_formula_units_Z   2
loop_
 _symmetry_equiv_pos_site_id
 _symmetry_equiv_pos_as_xyz
  1  'x, y, z'
loop_
 _atom_site_type_symbol
 _atom_site_label
 _atom_site_symmetry_multiplicity
 _atom_site_fract_x
 _atom_site_fract_y
 _atom_site_fract_z
 _atom_site_occupancy
  Rb  Rb0  1  0.196266  0.309580  0.994534  1
  Rb  Rb1  1  0.822784  0.729569  0.646174  1
  Rb  Rb2  1  0.803734  0.690420  0.005466  1
  Rb  Rb3  1  0.177216  0.270431  0.353826  1
  U  U4  1  0.324635  0.717474  0.826055  1
  U  U5  1  0.675365  0.282526  0.173945  1
  Si  Si6  1  0.301055  0.757175  0.516249  1
  Si  Si7  1  0.325310  0.137999  0.625388  1
  Si  Si8  1  0.382238  0.868267  0.166869  1
  Si  Si9  1  0.030336  0.677757  0.287513  1
  Si  Si10  1  0.969664  0.322243  0.712487  1
  Si  Si11  1  0.698945  0.242825  0.483751  1
  Si  Si12  1  0.674690  0.862001  0.374612  1
  Si  Si13  1  0.617762  0.131733  0.833131  1
  O  O14  1  0.059892  0.495203  0.818261  1
  O  O15  1  0.556591  0.826496  0.244506  1
  O  O16  1  0.424946  0.068736  0.181310  1
  O  O17  1  0.940108  0.504797  0.181739  1
  O  O18  1  0.575054  0.931264  0.818690  1
  O  O19  1  0.491727  0.417373  0.203375  1
  O  O20  1  0.377282  0.748505  0.026621  1
  O  O21  1  0.467354  0.202178  0.523686  1
  O  O22  1  0.854119  0.764616  0.358881  1
  O  O23  1  0.840217  0.358409  0.606880  1
  O  O24  1  0.227236  0.936398  0.565563  1
  O  O25  1  0.772764  0.063602  0.434437  1
  O  O26  1  0.622718  0.251495  0.973379  1
  O  O27  1  0.145881  0.235384  0.641119  1
  O  O28  1  0.443409  0.173504  0.755494  1
  O  O29  1  0.831777  0.180521  0.769187  1
  O  O30  1  0.721881  0.339514  0.381057  1
  O  O31  1  0.532646  0.797822  0.476314  1
  O  O32  1  0.856313  0.144291  0.141545  1
  O  O33  1  0.159783  0.641591  0.393120  1
  O  O34  1  0.143687  0.855709  0.858455  1
  O  O35  1  0.508273  0.582627  0.796625  1
  O  O36  1  0.168223  0.819479  0.230813  1
  O  O37  1  0.278119  0.660486  0.618943  1
