# generated using pymatgen
data_Ba(GaPt)2
_symmetry_space_group_name_H-M   'P 1'
_cell_length_a   8.47081211
_cell_length_b   6.47047401
_cell_length_c   8.68634454
_cell_angle_alpha   90.00000000
_cell_angle_beta   97.83110126
_cell_angle_gamma   90.00000000
_symmetry_Int_Tables_number   1
_chemical_formula_structural   Ba(GaPt)2
_chemical_formula_sum   'Ba4 Ga8 Pt8'
_cell_volume   471.65992097
_cell_formula_units_Z   4
loop_
 _symmetry_equiv_pos_site_id
 _symmetry_equiv_pos_as_xyz
  1  'x, y, z'
loop_
 _atom_site_type_symbol
 _atom_site_label
 _atom_site_symmetry_multiplicity
 _atom_site_fract_x
 _atom_site_fract_y
 _atom_site_fract_z
 _atom_site_occupancy
  Ba  Ba0  1  0.002171  0.890372  0.233755  1
  Ba  Ba1  1  0.497829  0.390372  0.766245  1
  Ba  Ba2  1  0.502171  0.609628  0.233755  1
  Ba  Ba3  1  0.997829  0.109628  0.766245  1
  Ga  Ga4  1  0.308092  0.845926  0.559977  1
  Ga  Ga5  1  0.374211  0.078613  0.075947  1
  Ga  Ga6  1  0.808092  0.654074  0.559977  1
  Ga  Ga7  1  0.691908  0.154074  0.440023  1
  Ga  Ga8  1  0.125789  0.578613  0.924053  1
  Ga  Ga9  1  0.625789  0.921387  0.924053  1
  Ga  Ga10  1  0.191908  0.345926  0.440023  1
  Ga  Ga11  1  0.874211  0.421387  0.075947  1
  Pt  Pt12  1  0.604901  0.904486  0.627200  1
  Pt  Pt13  1  0.395099  0.095514  0.372800  1
  Pt  Pt14  1  0.673427  0.169484  0.146401  1
  Pt  Pt15  1  0.895099  0.404486  0.372800  1
  Pt  Pt16  1  0.173427  0.330516  0.146401  1
  Pt  Pt17  1  0.326573  0.830516  0.853599  1
  Pt  Pt18  1  0.826573  0.669484  0.853599  1
  Pt  Pt19  1  0.104901  0.595514  0.627200  1
