# generated using pymatgen
data_KAl(SiO3)2
_symmetry_space_group_name_H-M   'P 1'
_cell_length_a   11.65217390
_cell_length_b   11.65217390
_cell_length_c   11.65217390
_cell_angle_alpha   111.20788067
_cell_angle_beta   111.20788067
_cell_angle_gamma   106.05109023
_symmetry_Int_Tables_number   1
_chemical_formula_structural   KAl(SiO3)2
_chemical_formula_sum   'K8 Al8 Si16 O48'
_cell_volume   1214.63484932
_cell_formula_units_Z   8
loop_
 _symmetry_equiv_pos_site_id
 _symmetry_equiv_pos_as_xyz
  1  'x, y, z'
loop_
 _atom_site_type_symbol
 _atom_site_label
 _atom_site_symmetry_multiplicity
 _atom_site_fract_x
 _atom_site_fract_y
 _atom_site_fract_z
 _atom_site_occupancy
  K  K0  1  0.118025  0.596401  0.737720  1
  K  K1  1  0.619695  0.881975  0.478376  1
  K  K2  1  0.130305  0.368025  0.021624  1
  K  K3  1  0.346401  0.108681  0.978376  1
  K  K4  1  0.858681  0.380305  0.262280  1
  K  K5  1  0.891319  0.869695  0.237720  1
  K  K6  1  0.631975  0.653599  0.762280  1
  K  K7  1  0.403599  0.141319  0.521624  1
  Al  Al8  1  0.672037  0.142050  0.808042  1
  Al  Al9  1  0.136004  0.327963  0.470013  1
  Al  Al10  1  0.892050  0.584009  0.970013  1
  Al  Al11  1  0.857950  0.665991  0.529987  1
  Al  Al12  1  0.334009  0.863996  0.191958  1
  Al  Al13  1  0.415991  0.386005  0.308042  1
  Al  Al14  1  0.077963  0.107950  0.691958  1
  Al  Al15  1  0.613996  0.922037  0.029987  1
  Si  Si16  1  0.928403  0.935873  0.785264  1
  Si  Si17  1  0.685873  0.400609  0.507470  1
  Si  Si18  1  0.599391  0.106861  0.285264  1
  Si  Si19  1  0.152059  0.853023  0.590983  1
  Si  Si20  1  0.821597  0.314127  0.714736  1
  Si  Si21  1  0.150609  0.143139  0.214736  1
  Si  Si22  1  0.262040  0.561076  0.409017  1
  Si  Si23  1  0.487960  0.688924  0.090983  1
  Si  Si24  1  0.146977  0.737960  0.299036  1
  Si  Si25  1  0.438924  0.847941  0.700964  1
  Si  Si26  1  0.064127  0.849391  0.992530  1
  Si  Si27  1  0.311076  0.402059  0.799036  1
  Si  Si28  1  0.597941  0.396977  0.909017  1
  Si  Si29  1  0.893139  0.178403  0.492530  1
  Si  Si30  1  0.603023  0.512040  0.200964  1
  Si  Si31  1  0.856861  0.071597  0.007470  1
  O  O32  1  0.830206  0.537847  0.578136  1
  O  O33  1  0.514545  0.842566  0.843748  1
  O  O34  1  0.357924  0.550882  0.936748  1
  O  O35  1  0.091214  0.972851  0.142891  1
  O  O36  1  0.027149  0.170041  0.118364  1
  O  O37  1  0.420797  0.764545  0.171979  1
  O  O38  1  0.998818  0.670797  0.156252  1
  O  O39  1  0.919794  0.712153  0.921864  1
  O  O40  1  0.051677  0.908786  0.881636  1
  O  O41  1  0.828445  0.802663  0.621578  1
  O  O42  1  0.287847  0.209710  0.207641  1
  O  O43  1  0.329203  0.485455  0.328021  1
  O  O44  1  0.790290  0.997931  0.078136  1
  O  O45  1  0.959710  0.252069  0.421864  1
  O  O46  1  0.157434  0.001182  0.671979  1
  O  O47  1  0.276374  0.845619  0.307152  1
  O  O48  1  0.578824  0.642076  0.192957  1
  O  O49  1  0.030778  0.723626  0.569245  1
  O  O50  1  0.392076  0.699118  0.563252  1
  O  O51  1  0.747931  0.169794  0.707641  1
  O  O52  1  0.235455  0.407434  0.656252  1
  O  O53  1  0.751182  0.579203  0.343748  1
  O  O54  1  0.197337  0.818915  0.025782  1
  O  O55  1  0.722851  0.079959  0.381636  1
  O  O56  1  0.449118  0.385867  0.807043  1
  O  O57  1  0.002069  0.080206  0.792359  1
  O  O58  1  0.592566  0.248818  0.828021  1
  O  O59  1  0.698323  0.341214  0.618364  1
  O  O60  1  0.154381  0.461533  0.430755  1
  O  O61  1  0.658786  0.277149  0.357109  1
  O  O62  1  0.829959  0.948323  0.857109  1
  O  O63  1  0.793133  0.171555  0.974218  1
  O  O64  1  0.473626  0.404381  0.192848  1
  O  O65  1  0.920041  0.301677  0.642891  1
  O  O66  1  0.211533  0.280778  0.807152  1
  O  O67  1  0.135867  0.828824  0.436748  1
  O  O68  1  0.921555  0.447337  0.878422  1
  O  O69  1  0.552663  0.431085  0.474218  1
  O  O70  1  0.462153  0.040290  0.292359  1
  O  O71  1  0.614133  0.421176  0.063252  1
  O  O72  1  0.171176  0.607924  0.307043  1
  O  O73  1  0.300882  0.864133  0.692957  1
  O  O74  1  0.595619  0.788467  0.069245  1
  O  O75  1  0.538467  0.969222  0.692848  1
  O  O76  1  0.956867  0.078445  0.525782  1
  O  O77  1  0.719222  0.526374  0.930755  1
  O  O78  1  0.181085  0.206867  0.378422  1
  O  O79  1  0.568915  0.043133  0.121578  1
