# generated using pymatgen
data_Rb2Hg(BSe)9
_symmetry_space_group_name_H-M   'P 1'
_cell_length_a   9.97428807
_cell_length_b   10.75113995
_cell_length_c   11.31842535
_cell_angle_alpha   100.14275226
_cell_angle_beta   90.63083281
_cell_angle_gamma   116.28968855
_symmetry_Int_Tables_number   1
_chemical_formula_structural   Rb2Hg(BSe)9
_chemical_formula_sum   'Rb4 Hg2 B18 Se18'
_cell_volume   1065.72249731
_cell_formula_units_Z   2
loop_
 _symmetry_equiv_pos_site_id
 _symmetry_equiv_pos_as_xyz
  1  'x, y, z'
loop_
 _atom_site_type_symbol
 _atom_site_label
 _atom_site_symmetry_multiplicity
 _atom_site_fract_x
 _atom_site_fract_y
 _atom_site_fract_z
 _atom_site_occupancy
  Rb  Rb0  1  0.791542  0.174355  0.001590  1
  Rb  Rb1  1  0.208458  0.825645  0.998410  1
  Rb  Rb2  1  0.175505  0.344155  0.504242  1
  Rb  Rb3  1  0.824495  0.655845  0.495758  1
  Hg  Hg4  1  0.325260  0.318493  0.074700  1
  Hg  Hg5  1  0.674740  0.681507  0.925300  1
  B  B6  1  0.515708  0.163287  0.551780  1
  B  B7  1  0.484292  0.836713  0.448220  1
  B  B8  1  0.662111  0.120013  0.586389  1
  B  B9  1  0.337889  0.879987  0.413611  1
  B  B10  1  0.486065  0.042111  0.647951  1
  B  B11  1  0.513935  0.957889  0.352049  1
  B  B12  1  0.339070  0.008273  0.538580  1
  B  B13  1  0.660930  0.991727  0.461420  1
  B  B14  1  0.423541  0.064044  0.406341  1
  B  B15  1  0.576459  0.935956  0.593659  1
  B  B16  1  0.621218  0.132027  0.436149  1
  B  B17  1  0.378782  0.867973  0.563851  1
  B  B18  1  0.751159  0.414860  0.713996  1
  B  B19  1  0.248841  0.585140  0.286004  1
  B  B20  1  0.251382  0.086821  0.779549  1
  B  B21  1  0.748618  0.913179  0.220451  1
  B  B22  1  0.569964  0.284423  0.260696  1
  B  B23  1  0.430036  0.715577  0.739304  1
  Se  Se24  1  0.556392  0.362405  0.626819  1
  Se  Se25  1  0.443608  0.637595  0.373181  1
  Se  Se26  1  0.838893  0.279767  0.694249  1
  Se  Se27  1  0.161107  0.720233  0.305751  1
  Se  Se28  1  0.447349  0.094696  0.819328  1
  Se  Se29  1  0.552651  0.905304  0.180672  1
  Se  Se30  1  0.163350  0.028547  0.609554  1
  Se  Se31  1  0.836650  0.971453  0.390446  1
  Se  Se32  1  0.363249  0.157044  0.290129  1
  Se  Se33  1  0.636751  0.842956  0.709871  1
  Se  Se34  1  0.743956  0.287227  0.347927  1
  Se  Se35  1  0.256044  0.712773  0.652073  1
  Se  Se36  1  0.868914  0.601250  0.813924  1
  Se  Se37  1  0.131086  0.398750  0.186076  1
  Se  Se38  1  0.129910  0.121801  0.900960  1
  Se  Se39  1  0.870090  0.878199  0.099040  1
  Se  Se40  1  0.607965  0.406782  0.144532  1
  Se  Se41  1  0.392035  0.593218  0.855468  1
