# generated using pymatgen
data_Co(PO3)3
_symmetry_space_group_name_H-M   'P 1'
_cell_length_a   8.24664534
_cell_length_b   8.39420405
_cell_length_c   8.39984123
_cell_angle_alpha   90.00000000
_cell_angle_beta   90.00000000
_cell_angle_gamma   90.00000000
_symmetry_Int_Tables_number   1
_chemical_formula_structural   Co(PO3)3
_chemical_formula_sum   'Co4 P12 O36'
_cell_volume   581.47080848
_cell_formula_units_Z   4
loop_
 _symmetry_equiv_pos_site_id
 _symmetry_equiv_pos_as_xyz
  1  'x, y, z'
loop_
 _atom_site_type_symbol
 _atom_site_label
 _atom_site_symmetry_multiplicity
 _atom_site_fract_x
 _atom_site_fract_y
 _atom_site_fract_z
 _atom_site_occupancy
  Co  Co0  1  0.133519  0.855107  0.148064  1
  Co  Co1  1  0.866481  0.355107  0.351936  1
  Co  Co2  1  0.633519  0.644893  0.851936  1
  Co  Co3  1  0.366481  0.144893  0.648064  1
  P  P4  1  0.326519  0.512861  0.692522  1
  P  P5  1  0.966958  0.819315  0.816772  1
  P  P6  1  0.826519  0.987139  0.307478  1
  P  P7  1  0.173481  0.487139  0.192522  1
  P  P8  1  0.210875  0.812623  0.549397  1
  P  P9  1  0.673481  0.012861  0.807478  1
  P  P10  1  0.466958  0.680685  0.183228  1
  P  P11  1  0.533042  0.180685  0.316772  1
  P  P12  1  0.033042  0.319315  0.683228  1
  P  P13  1  0.710875  0.687377  0.450603  1
  P  P14  1  0.289125  0.187377  0.049397  1
  P  P15  1  0.789125  0.312623  0.950603  1
  O  O16  1  0.088142  0.630530  0.125948  1
  O  O17  1  0.159938  0.847332  0.382594  1
  O  O18  1  0.356988  0.532166  0.239953  1
  O  O19  1  0.321801  0.920486  0.642571  1
  O  O20  1  0.639275  0.315383  0.373927  1
  O  O21  1  0.143012  0.467834  0.739953  1
  O  O22  1  0.394753  0.130695  0.423437  1
  O  O23  1  0.856988  0.967834  0.760047  1
  O  O24  1  0.953011  0.276865  0.850935  1
  O  O25  1  0.605247  0.630695  0.076563  1
  O  O26  1  0.206393  0.361965  0.051310  1
  O  O27  1  0.453011  0.223135  0.149065  1
  O  O28  1  0.821801  0.579514  0.357429  1
  O  O29  1  0.598010  0.098272  0.667291  1
  O  O30  1  0.293607  0.638035  0.551310  1
  O  O31  1  0.360725  0.815383  0.126073  1
  O  O32  1  0.901990  0.901728  0.167291  1
  O  O33  1  0.098010  0.401728  0.332709  1
  O  O34  1  0.860725  0.684617  0.873927  1
  O  O35  1  0.894753  0.369305  0.576563  1
  O  O36  1  0.659938  0.652668  0.617406  1
  O  O37  1  0.178199  0.079514  0.142571  1
  O  O38  1  0.340062  0.152668  0.882594  1
  O  O39  1  0.706393  0.138035  0.948690  1
  O  O40  1  0.546989  0.723135  0.350935  1
  O  O41  1  0.840062  0.347332  0.117406  1
  O  O42  1  0.046989  0.776865  0.649065  1
  O  O43  1  0.911858  0.130530  0.374052  1
  O  O44  1  0.401990  0.598272  0.832709  1
  O  O45  1  0.793607  0.861965  0.448690  1
  O  O46  1  0.139275  0.184617  0.626073  1
  O  O47  1  0.588142  0.869470  0.874052  1
  O  O48  1  0.643012  0.032166  0.260047  1
  O  O49  1  0.105247  0.869305  0.923437  1
  O  O50  1  0.678199  0.420486  0.857429  1
  O  O51  1  0.411858  0.369470  0.625948  1
