# generated using pymatgen
data_CsDyI3
_symmetry_space_group_name_H-M   'P 1'
_cell_length_a   8.42865458
_cell_length_b   8.68355303
_cell_length_c   12.18684581
_cell_angle_alpha   90.00000000
_cell_angle_beta   90.00000000
_cell_angle_gamma   90.00000000
_symmetry_Int_Tables_number   1
_chemical_formula_structural   CsDyI3
_chemical_formula_sum   'Cs4 Dy4 I12'
_cell_volume   891.96339804
_cell_formula_units_Z   4
loop_
 _symmetry_equiv_pos_site_id
 _symmetry_equiv_pos_as_xyz
  1  'x, y, z'
loop_
 _atom_site_type_symbol
 _atom_site_label
 _atom_site_symmetry_multiplicity
 _atom_site_fract_x
 _atom_site_fract_y
 _atom_site_fract_z
 _atom_site_occupancy
  Cs  Cs0  1  0.982170  0.944234  0.250000  1
  Cs  Cs1  1  0.482170  0.555766  0.750000  1
  Cs  Cs2  1  0.517830  0.444234  0.250000  1
  Cs  Cs3  1  0.017830  0.055766  0.750000  1
  Dy  Dy4  1  0.500000  0.000000  0.000000  1
  Dy  Dy5  1  0.000000  0.500000  0.000000  1
  Dy  Dy6  1  0.000000  0.500000  0.500000  1
  Dy  Dy7  1  0.500000  0.000000  0.500000  1
  I  I8  1  0.039004  0.496540  0.250000  1
  I  I9  1  0.539004  0.003460  0.750000  1
  I  I10  1  0.460996  0.996540  0.250000  1
  I  I11  1  0.960996  0.503460  0.750000  1
  I  I12  1  0.784685  0.217216  0.019743  1
  I  I13  1  0.284685  0.282784  0.980257  1
  I  I14  1  0.715315  0.717216  0.480257  1
  I  I15  1  0.215315  0.782784  0.519743  1
  I  I16  1  0.215315  0.782784  0.980257  1
  I  I17  1  0.715315  0.717216  0.019743  1
  I  I18  1  0.284685  0.282784  0.519743  1
  I  I19  1  0.784685  0.217216  0.480257  1
