# generated using pymatgen
data_Zr9(NiP2)2
_symmetry_space_group_name_H-M   'P 1'
_cell_length_a   12.06831791
_cell_length_b   12.06831791
_cell_length_c   3.70537906
_cell_angle_alpha   90.00000000
_cell_angle_beta   90.00000000
_cell_angle_gamma   90.00000000
_symmetry_Int_Tables_number   1
_chemical_formula_structural   Zr9(NiP2)2
_chemical_formula_sum   'Zr18 Ni4 P8'
_cell_volume   539.66732897
_cell_formula_units_Z   2
loop_
 _symmetry_equiv_pos_site_id
 _symmetry_equiv_pos_as_xyz
  1  'x, y, z'
loop_
 _atom_site_type_symbol
 _atom_site_label
 _atom_site_symmetry_multiplicity
 _atom_site_fract_x
 _atom_site_fract_y
 _atom_site_fract_z
 _atom_site_occupancy
  Zr  Zr0  1  0.000000  0.000000  0.000000  1
  Zr  Zr1  1  0.500000  0.500000  0.000000  1
  Zr  Zr2  1  0.102473  0.181170  0.500000  1
  Zr  Zr3  1  0.181170  0.897527  0.500000  1
  Zr  Zr4  1  0.818830  0.102473  0.500000  1
  Zr  Zr5  1  0.897527  0.818830  0.500000  1
  Zr  Zr6  1  0.397527  0.681170  0.500000  1
  Zr  Zr7  1  0.602473  0.318830  0.500000  1
  Zr  Zr8  1  0.681170  0.602473  0.500000  1
  Zr  Zr9  1  0.318830  0.397527  0.500000  1
  Zr  Zr10  1  0.095726  0.404274  0.000000  1
  Zr  Zr11  1  0.404274  0.904274  0.000000  1
  Zr  Zr12  1  0.595726  0.095726  0.000000  1
  Zr  Zr13  1  0.904274  0.595726  0.000000  1
  Zr  Zr14  1  0.380417  0.119583  0.500000  1
  Zr  Zr15  1  0.119583  0.619583  0.500000  1
  Zr  Zr16  1  0.880417  0.380417  0.500000  1
  Zr  Zr17  1  0.619583  0.880417  0.500000  1
  Ni  Ni18  1  0.253849  0.246151  0.000000  1
  Ni  Ni19  1  0.246151  0.746151  0.000000  1
  Ni  Ni20  1  0.753849  0.253849  0.000000  1
  Ni  Ni21  1  0.746151  0.753849  0.000000  1
  P  P22  1  0.224381  0.056680  0.000000  1
  P  P23  1  0.056680  0.775619  0.000000  1
  P  P24  1  0.943320  0.224381  0.000000  1
  P  P25  1  0.775619  0.943320  0.000000  1
  P  P26  1  0.275619  0.556680  0.000000  1
  P  P27  1  0.724381  0.443320  0.000000  1
  P  P28  1  0.556680  0.724381  0.000000  1
  P  P29  1  0.443320  0.275619  0.000000  1
