# generated using pymatgen
data_GaCuS2
_symmetry_space_group_name_H-M   'P 1'
_cell_length_a   6.53254723
_cell_length_b   6.53254723
_cell_length_c   6.53254723
_cell_angle_alpha   131.46489162
_cell_angle_beta   131.46489162
_cell_angle_gamma   71.07549684
_symmetry_Int_Tables_number   1
_chemical_formula_structural   GaCuS2
_chemical_formula_sum   'Ga2 Cu2 S4'
_cell_volume   153.27426976
_cell_formula_units_Z   2
loop_
 _symmetry_equiv_pos_site_id
 _symmetry_equiv_pos_as_xyz
  1  'x, y, z'
loop_
 _atom_site_type_symbol
 _atom_site_label
 _atom_site_symmetry_multiplicity
 _atom_site_fract_x
 _atom_site_fract_y
 _atom_site_fract_z
 _atom_site_occupancy
  Ga  Ga0  1  0.500000  0.500000  0.000000  1
  Ga  Ga1  1  0.250000  0.750000  0.500000  1
  Cu  Cu2  1  0.000000  0.000000  1.000000  1
  Cu  Cu3  1  0.750000  0.250000  0.500000  1
  S  S4  1  0.875000  0.374340  0.999340  1
  S  S5  1  0.375000  0.875660  0.000660  1
  S  S6  1  0.124340  0.125000  0.499340  1
  S  S7  1  0.625660  0.625000  0.500660  1
