# generated using pymatgen
data_CdI2
_symmetry_space_group_name_H-M   'P 1'
_cell_length_a   22.17028623
_cell_length_b   22.17028623
_cell_length_c   22.17028623
_cell_angle_alpha   11.21394310
_cell_angle_beta   11.21394310
_cell_angle_gamma   11.21394310
_symmetry_Int_Tables_number   1
_chemical_formula_structural   CdI2
_chemical_formula_sum   'Cd3 I6'
_cell_volume   358.05319670
_cell_formula_units_Z   3
loop_
 _symmetry_equiv_pos_site_id
 _symmetry_equiv_pos_as_xyz
  1  'x, y, z'
loop_
 _atom_site_type_symbol
 _atom_site_label
 _atom_site_symmetry_multiplicity
 _atom_site_fract_x
 _atom_site_fract_y
 _atom_site_fract_z
 _atom_site_occupancy
  Cd  Cd0  1  0.444450  0.444450  0.444450  1
  Cd  Cd1  1  0.000000  0.000000  0.000000  1
  Cd  Cd2  1  0.555550  0.555550  0.555550  1
  I  I3  1  0.359482  0.359482  0.359482  1
  I  I4  1  0.640518  0.640518  0.640518  1
  I  I5  1  0.137266  0.137266  0.137266  1
  I  I6  1  0.862734  0.862734  0.862734  1
  I  I7  1  0.248362  0.248362  0.248362  1
  I  I8  1  0.751638  0.751638  0.751638  1
