# generated using pymatgen
data_SmZnPO
_symmetry_space_group_name_H-M   'P 1'
_cell_length_a   10.54629271
_cell_length_b   10.54629271
_cell_length_c   10.54629271
_cell_angle_alpha   21.66478106
_cell_angle_beta   21.66478106
_cell_angle_gamma   21.66478106
_symmetry_Int_Tables_number   1
_chemical_formula_structural   SmZnPO
_chemical_formula_sum   'Sm2 Zn2 P2 O2'
_cell_volume   140.09992934
_cell_formula_units_Z   2
loop_
 _symmetry_equiv_pos_site_id
 _symmetry_equiv_pos_as_xyz
  1  'x, y, z'
loop_
 _atom_site_type_symbol
 _atom_site_label
 _atom_site_symmetry_multiplicity
 _atom_site_fract_x
 _atom_site_fract_y
 _atom_site_fract_z
 _atom_site_occupancy
  Sm  Sm0  1  0.619297  0.619297  0.619297  1
  Sm  Sm1  1  0.380703  0.380703  0.380703  1
  Zn  Zn2  1  0.803710  0.803710  0.803710  1
  Zn  Zn3  1  0.196290  0.196290  0.196290  1
  P  P4  1  0.886822  0.886822  0.886822  1
  P  P5  1  0.113178  0.113178  0.113178  1
  O  O6  1  0.305191  0.305191  0.305191  1
  O  O7  1  0.694809  0.694809  0.694809  1
