# generated using pymatgen
data_Cs2LiF3
_symmetry_space_group_name_H-M   'P 1'
_cell_length_a   11.04901750
_cell_length_b   11.04901750
_cell_length_c   6.19181485
_cell_angle_alpha   90.00000000
_cell_angle_beta   90.00000000
_cell_angle_gamma   159.83620252
_symmetry_Int_Tables_number   1
_chemical_formula_structural   Cs2LiF3
_chemical_formula_sum   'Cs4 Li2 F6'
_cell_volume   260.56317889
_cell_formula_units_Z   2
loop_
 _symmetry_equiv_pos_site_id
 _symmetry_equiv_pos_as_xyz
  1  'x, y, z'
loop_
 _atom_site_type_symbol
 _atom_site_label
 _atom_site_symmetry_multiplicity
 _atom_site_fract_x
 _atom_site_fract_y
 _atom_site_fract_z
 _atom_site_occupancy
  Cs  Cs0  1  0.798396  0.201604  0.750000  1
  Cs  Cs1  1  0.201604  0.798396  0.250000  1
  Cs  Cs2  1  0.415783  0.584217  0.250000  1
  Cs  Cs3  1  0.584217  0.415783  0.750000  1
  Li  Li4  1  0.952810  0.047190  0.750000  1
  Li  Li5  1  0.047190  0.952810  0.250000  1
  F  F6  1  0.591159  0.408841  0.250000  1
  F  F7  1  0.000000  0.000000  0.000000  1
  F  F8  1  0.197665  0.802335  0.750000  1
  F  F9  1  0.408841  0.591159  0.750000  1
  F  F10  1  0.000000  0.000000  0.500000  1
  F  F11  1  0.802335  0.197665  0.250000  1
