# generated using pymatgen
data_Sb4RuC6(O3F11)2
_symmetry_space_group_name_H-M   'P 1'
_cell_length_a   9.99189137
_cell_length_b   12.78376824
_cell_length_c   11.81301536
_cell_angle_alpha   90.00000000
_cell_angle_beta   121.45962759
_cell_angle_gamma   90.00000000
_symmetry_Int_Tables_number   1
_chemical_formula_structural   Sb4RuC6(O3F11)2
_chemical_formula_sum   'Sb8 Ru2 C12 O12 F44'
_cell_volume   1287.12441135
_cell_formula_units_Z   2
loop_
 _symmetry_equiv_pos_site_id
 _symmetry_equiv_pos_as_xyz
  1  'x, y, z'
loop_
 _atom_site_type_symbol
 _atom_site_label
 _atom_site_symmetry_multiplicity
 _atom_site_fract_x
 _atom_site_fract_y
 _atom_site_fract_z
 _atom_site_occupancy
  Sb  Sb0  1  0.600167  0.299785  0.003511  1
  Sb  Sb1  1  0.399833  0.799785  0.496489  1
  Sb  Sb2  1  0.241250  0.131622  0.726526  1
  Sb  Sb3  1  0.758750  0.631622  0.773474  1
  Sb  Sb4  1  0.600167  0.200215  0.503511  1
  Sb  Sb5  1  0.241250  0.368378  0.226526  1
  Sb  Sb6  1  0.758750  0.868378  0.273474  1
  Sb  Sb7  1  0.399833  0.700215  0.996489  1
  Ru  Ru8  1  0.000000  0.000000  0.000000  1
  Ru  Ru9  1  0.000000  0.500000  0.500000  1
  C  C10  1  0.769557  0.523086  0.426211  1
  C  C11  1  0.970146  0.553315  0.327545  1
  C  C12  1  0.950035  0.146687  0.926452  1
  C  C13  1  0.230443  0.476914  0.573789  1
  C  C14  1  0.049965  0.646687  0.573548  1
  C  C15  1  0.029854  0.446685  0.672455  1
  C  C16  1  0.950035  0.353313  0.426452  1
  C  C17  1  0.230443  0.023086  0.073789  1
  C  C18  1  0.029854  0.053315  0.172455  1
  C  C19  1  0.769557  0.976914  0.926211  1
  C  C20  1  0.970146  0.946685  0.827545  1
  C  C21  1  0.049965  0.853313  0.073548  1
  O  O22  1  0.082064  0.771164  0.116114  1
  O  O23  1  0.917936  0.271164  0.383886  1
  O  O24  1  0.082064  0.728836  0.616114  1
  O  O25  1  0.361548  0.033486  0.118623  1
  O  O26  1  0.361548  0.466514  0.618623  1
  O  O27  1  0.047883  0.416804  0.770007  1
  O  O28  1  0.917936  0.228836  0.883886  1
  O  O29  1  0.952117  0.583196  0.229993  1
  O  O30  1  0.638452  0.533486  0.381377  1
  O  O31  1  0.952117  0.916804  0.729993  1
  O  O32  1  0.638452  0.966514  0.881377  1
  O  O33  1  0.047883  0.083196  0.270007  1
  F  F34  1  0.465137  0.733792  0.389959  1
  F  F35  1  0.702403  0.995564  0.175688  1
  F  F36  1  0.582273  0.615197  0.079330  1
  F  F37  1  0.535989  0.684203  0.637060  1
  F  F38  1  0.794267  0.729918  0.347438  1
  F  F39  1  0.034509  0.089200  0.598754  1
  F  F40  1  0.205733  0.270082  0.652562  1
  F  F41  1  0.348274  0.652492  0.120602  1
  F  F42  1  0.535989  0.815797  0.137060  1
  F  F43  1  0.034509  0.410800  0.098754  1
  F  F44  1  0.821690  0.681782  0.655181  1
  F  F45  1  0.731212  0.396070  0.140620  1
  F  F46  1  0.205733  0.229918  0.152562  1
  F  F47  1  0.668361  0.911034  0.371902  1
  F  F48  1  0.763793  0.302599  0.558796  1
  F  F49  1  0.821690  0.818218  0.155181  1
  F  F50  1  0.731212  0.103930  0.640620  1
  F  F51  1  0.965491  0.910800  0.401246  1
  F  F52  1  0.417727  0.115197  0.420670  1
  F  F53  1  0.582273  0.884803  0.579330  1
  F  F54  1  0.464011  0.184203  0.862940  1
  F  F55  1  0.236207  0.802599  0.941204  1
  F  F56  1  0.702403  0.504436  0.675688  1
  F  F57  1  0.297597  0.495564  0.324312  1
  F  F58  1  0.178310  0.318218  0.344819  1
  F  F59  1  0.465137  0.766208  0.889959  1
  F  F60  1  0.331639  0.411034  0.128098  1
  F  F61  1  0.794267  0.770082  0.847438  1
  F  F62  1  0.763793  0.197401  0.058796  1
  F  F63  1  0.668361  0.588966  0.871902  1
  F  F64  1  0.651726  0.152492  0.379398  1
  F  F65  1  0.534863  0.233792  0.110041  1
  F  F66  1  0.297597  0.004436  0.824312  1
  F  F67  1  0.965491  0.589200  0.901246  1
  F  F68  1  0.236207  0.697401  0.441204  1
  F  F69  1  0.464011  0.315797  0.362940  1
  F  F70  1  0.331639  0.088966  0.628098  1
  F  F71  1  0.268788  0.603930  0.859380  1
  F  F72  1  0.534863  0.266208  0.610041  1
  F  F73  1  0.178310  0.181782  0.844819  1
  F  F74  1  0.268788  0.896070  0.359380  1
  F  F75  1  0.651726  0.347508  0.879398  1
  F  F76  1  0.417727  0.384803  0.920670  1
  F  F77  1  0.348274  0.847508  0.620602  1
