# generated using pymatgen
data_Rb2NaAl2(PO4)3
_symmetry_space_group_name_H-M   'P 1'
_cell_length_a   4.91172369
_cell_length_b   8.33589842
_cell_length_c   28.72906255
_cell_angle_alpha   90.00000000
_cell_angle_beta   90.49704144
_cell_angle_gamma   90.00000000
_symmetry_Int_Tables_number   1
_chemical_formula_structural   Rb2NaAl2(PO4)3
_chemical_formula_sum   'Rb8 Na4 Al8 P12 O48'
_cell_volume   1176.22783920
_cell_formula_units_Z   4
loop_
 _symmetry_equiv_pos_site_id
 _symmetry_equiv_pos_as_xyz
  1  'x, y, z'
loop_
 _atom_site_type_symbol
 _atom_site_label
 _atom_site_symmetry_multiplicity
 _atom_site_fract_x
 _atom_site_fract_y
 _atom_site_fract_z
 _atom_site_occupancy
  Rb  Rb0  1  0.262734  0.479194  0.170927  1
  Rb  Rb1  1  0.272810  0.143498  0.047525  1
  Rb  Rb2  1  0.737266  0.520806  0.829073  1
  Rb  Rb3  1  0.262734  0.020806  0.670927  1
  Rb  Rb4  1  0.272810  0.356502  0.547525  1
  Rb  Rb5  1  0.727190  0.856502  0.952475  1
  Rb  Rb6  1  0.737266  0.979194  0.329073  1
  Rb  Rb7  1  0.727190  0.643498  0.452475  1
  Na  Na8  1  0.221453  0.551977  0.953080  1
  Na  Na9  1  0.778547  0.448023  0.046920  1
  Na  Na10  1  0.778547  0.051977  0.546920  1
  Na  Na11  1  0.221453  0.948023  0.453080  1
  Al  Al12  1  0.267275  0.030427  0.207617  1
  Al  Al13  1  0.189123  0.185615  0.895410  1
  Al  Al14  1  0.810877  0.685615  0.604590  1
  Al  Al15  1  0.732725  0.530427  0.292383  1
  Al  Al16  1  0.267275  0.469573  0.707617  1
  Al  Al17  1  0.732725  0.969573  0.792383  1
  Al  Al18  1  0.810877  0.814385  0.104590  1
  Al  Al19  1  0.189123  0.314385  0.395410  1
  P  P20  1  0.242854  0.839725  0.856697  1
  P  P21  1  0.757146  0.160275  0.143303  1
  P  P22  1  0.301547  0.692564  0.048322  1
  P  P23  1  0.757146  0.339725  0.643303  1
  P  P24  1  0.242854  0.660275  0.356697  1
  P  P25  1  0.773912  0.715084  0.709060  1
  P  P26  1  0.226088  0.284916  0.290940  1
  P  P27  1  0.698453  0.307436  0.951678  1
  P  P28  1  0.301547  0.807436  0.548322  1
  P  P29  1  0.773912  0.784916  0.209060  1
  P  P30  1  0.698453  0.192564  0.451678  1
  P  P31  1  0.226088  0.215084  0.790940  1
  O  O32  1  0.146172  0.752395  0.092960  1
  O  O33  1  0.245167  0.373269  0.763563  1
  O  O34  1  0.578467  0.589010  0.728197  1
  O  O35  1  0.222406  0.710073  0.505324  1
  O  O36  1  0.245167  0.126731  0.263563  1
  O  O37  1  0.853828  0.252395  0.407040  1
  O  O38  1  0.767166  0.178513  0.618649  1
  O  O39  1  0.578467  0.910990  0.228197  1
  O  O40  1  0.927250  0.343200  0.291798  1
  O  O41  1  0.735356  0.488656  0.957732  1
  O  O42  1  0.534533  0.628365  0.337805  1
  O  O43  1  0.146172  0.747605  0.592960  1
  O  O44  1  0.264644  0.988656  0.542268  1
  O  O45  1  0.613641  0.726289  0.059910  1
  O  O46  1  0.853828  0.247605  0.907040  1
  O  O47  1  0.694563  0.737181  0.157771  1
  O  O48  1  0.305437  0.262819  0.842229  1
  O  O49  1  0.754833  0.873269  0.736437  1
  O  O50  1  0.754833  0.626731  0.236437  1
  O  O51  1  0.969222  0.354282  0.682574  1
  O  O52  1  0.421533  0.410990  0.271803  1
  O  O53  1  0.694563  0.762819  0.657771  1
  O  O54  1  0.465467  0.371635  0.662195  1
  O  O55  1  0.232834  0.678513  0.881351  1
  O  O56  1  0.386359  0.273711  0.940090  1
  O  O57  1  0.030778  0.645718  0.317426  1
  O  O58  1  0.222406  0.789927  0.005324  1
  O  O59  1  0.232834  0.821487  0.381351  1
  O  O60  1  0.777594  0.210073  0.994676  1
  O  O61  1  0.807108  0.475161  0.604976  1
  O  O62  1  0.927250  0.156800  0.791798  1
  O  O63  1  0.072750  0.656800  0.708202  1
  O  O64  1  0.807108  0.024839  0.104976  1
  O  O65  1  0.767166  0.321487  0.118649  1
  O  O66  1  0.305437  0.237181  0.342229  1
  O  O67  1  0.735356  0.011344  0.457732  1
  O  O68  1  0.386359  0.226289  0.440090  1
  O  O69  1  0.777594  0.289927  0.494676  1
  O  O70  1  0.534533  0.871635  0.837805  1
  O  O71  1  0.613641  0.773711  0.559910  1
  O  O72  1  0.421533  0.089010  0.771803  1
  O  O73  1  0.072750  0.843200  0.208202  1
  O  O74  1  0.192892  0.975161  0.895024  1
  O  O75  1  0.192892  0.524839  0.395024  1
  O  O76  1  0.264644  0.511344  0.042268  1
  O  O77  1  0.465467  0.128365  0.162195  1
  O  O78  1  0.030778  0.854282  0.817426  1
  O  O79  1  0.969222  0.145718  0.182574  1
