# generated using pymatgen
data_ZrCoF6
_symmetry_space_group_name_H-M   'P 1'
_cell_length_a   5.73127762
_cell_length_b   5.73127762
_cell_length_c   5.73127762
_cell_angle_alpha   59.25766163
_cell_angle_beta   59.25766163
_cell_angle_gamma   59.25766163
_symmetry_Int_Tables_number   1
_chemical_formula_structural   ZrCoF6
_chemical_formula_sum   'Zr1 Co1 F6'
_cell_volume   130.86809395
_cell_formula_units_Z   1
loop_
 _symmetry_equiv_pos_site_id
 _symmetry_equiv_pos_as_xyz
  1  'x, y, z'
loop_
 _atom_site_type_symbol
 _atom_site_label
 _atom_site_symmetry_multiplicity
 _atom_site_fract_x
 _atom_site_fract_y
 _atom_site_fract_z
 _atom_site_occupancy
  Zr  Zr0  1  0.500000  0.500000  0.500000  1
  Co  Co1  1  0.000000  0.000000  0.000000  1
  F  F2  1  0.749341  0.190231  0.309900  1
  F  F3  1  0.190231  0.309900  0.749341  1
  F  F4  1  0.690100  0.250659  0.809769  1
  F  F5  1  0.809769  0.690100  0.250659  1
  F  F6  1  0.250659  0.809769  0.690100  1
  F  F7  1  0.309900  0.749341  0.190231  1
