# generated using pymatgen
data_CsSiTe3
_symmetry_space_group_name_H-M   'P 1'
_cell_length_a   8.35938295
_cell_length_b   8.35938295
_cell_length_c   13.68171968
_cell_angle_alpha   84.54448202
_cell_angle_beta   95.45551798
_cell_angle_gamma   62.37759436
_symmetry_Int_Tables_number   1
_chemical_formula_structural   CsSiTe3
_chemical_formula_sum   'Cs4 Si4 Te12'
_cell_volume   832.70035884
_cell_formula_units_Z   4
loop_
 _symmetry_equiv_pos_site_id
 _symmetry_equiv_pos_as_xyz
  1  'x, y, z'
loop_
 _atom_site_type_symbol
 _atom_site_label
 _atom_site_symmetry_multiplicity
 _atom_site_fract_x
 _atom_site_fract_y
 _atom_site_fract_z
 _atom_site_occupancy
  Cs  Cs0  1  0.776966  0.723978  0.189516  1
  Cs  Cs1  1  0.341242  0.479749  0.413029  1
  Cs  Cs2  1  0.276022  0.223034  0.689516  1
  Cs  Cs3  1  0.520251  0.658758  0.913029  1
  Si  Si4  1  0.943321  0.169175  0.388692  1
  Si  Si5  1  0.100333  0.048731  0.132605  1
  Si  Si6  1  0.951269  0.899667  0.632605  1
  Si  Si7  1  0.830825  0.056679  0.888692  1
  Te  Te8  1  0.802265  0.206783  0.205036  1
  Te  Te9  1  0.313307  0.142118  0.224616  1
  Te  Te10  1  0.846655  0.457803  0.454791  1
  Te  Te11  1  0.295706  0.968269  0.415185  1
  Te  Te12  1  0.542197  0.153345  0.954791  1
  Te  Te13  1  0.231969  0.712498  0.132861  1
  Te  Te14  1  0.793217  0.197735  0.705036  1
  Te  Te15  1  0.287502  0.768031  0.632861  1
  Te  Te16  1  0.857882  0.686693  0.724616  1
  Te  Te17  1  0.028626  0.199284  0.951569  1
  Te  Te18  1  0.800716  0.971374  0.451569  1
  Te  Te19  1  0.031731  0.704294  0.915185  1
