# generated using pymatgen
data_LaGaO3
_symmetry_space_group_name_H-M   'P 1'
_cell_length_a   5.56003901
_cell_length_b   5.56003901
_cell_length_c   5.56003901
_cell_angle_alpha   120.24077762
_cell_angle_beta   119.59639037
_cell_angle_gamma   90.14197827
_symmetry_Int_Tables_number   1
_chemical_formula_structural   LaGaO3
_chemical_formula_sum   'La2 Ga2 O6'
_cell_volume   121.68416732
_cell_formula_units_Z   2
loop_
 _symmetry_equiv_pos_site_id
 _symmetry_equiv_pos_as_xyz
  1  'x, y, z'
loop_
 _atom_site_type_symbol
 _atom_site_label
 _atom_site_symmetry_multiplicity
 _atom_site_fract_x
 _atom_site_fract_y
 _atom_site_fract_z
 _atom_site_occupancy
  La  La0  1  0.741288  0.750000  0.991288  1
  La  La1  1  0.258712  0.250000  0.008712  1
  Ga  Ga2  1  0.000000  0.500000  0.500000  1
  Ga  Ga3  1  0.500000  0.000000  0.500000  1
  O  O4  1  0.704738  0.704738  0.500000  1
  O  O5  1  0.295262  0.295262  0.500000  1
  O  O6  1  0.704738  0.204738  0.000000  1
  O  O7  1  0.295262  0.795262  1.000000  1
  O  O8  1  0.831628  0.250000  0.581628  1
  O  O9  1  0.168372  0.750000  0.418372  1
