# generated using pymatgen
data_La2RuO5
_symmetry_space_group_name_H-M   'P 1'
_cell_length_a   7.93366521
_cell_length_b   5.91487614
_cell_length_c   9.30671119
_cell_angle_alpha   90.00000000
_cell_angle_beta   100.42412487
_cell_angle_gamma   90.00000000
_symmetry_Int_Tables_number   1
_chemical_formula_structural   La2RuO5
_chemical_formula_sum   'La8 Ru4 O20'
_cell_volume   429.52464084
_cell_formula_units_Z   4
loop_
 _symmetry_equiv_pos_site_id
 _symmetry_equiv_pos_as_xyz
  1  'x, y, z'
loop_
 _atom_site_type_symbol
 _atom_site_label
 _atom_site_symmetry_multiplicity
 _atom_site_fract_x
 _atom_site_fract_y
 _atom_site_fract_z
 _atom_site_occupancy
  La  La0  1  0.378528  0.261825  0.555368  1
  La  La1  1  0.121472  0.761825  0.444632  1
  La  La2  1  0.621472  0.738175  0.444632  1
  La  La3  1  0.878528  0.238175  0.555368  1
  La  La4  1  0.964738  0.748971  0.823277  1
  La  La5  1  0.535262  0.248971  0.176723  1
  La  La6  1  0.035262  0.251029  0.176723  1
  La  La7  1  0.464738  0.751029  0.823277  1
  Ru  Ru8  1  0.212244  0.254584  0.854904  1
  Ru  Ru9  1  0.287756  0.754584  0.145096  1
  Ru  Ru10  1  0.787756  0.745416  0.145096  1
  Ru  Ru11  1  0.712244  0.245416  0.854904  1
  O  O12  1  0.897654  0.839579  0.574260  1
  O  O13  1  0.602346  0.339579  0.425740  1
  O  O14  1  0.102346  0.160421  0.425740  1
  O  O15  1  0.397654  0.660421  0.574260  1
  O  O16  1  0.038049  0.838380  0.148239  1
  O  O17  1  0.461951  0.338380  0.851761  1
  O  O18  1  0.961951  0.161620  0.851761  1
  O  O19  1  0.538049  0.661620  0.148239  1
  O  O20  1  0.203795  0.546586  0.973919  1
  O  O21  1  0.296205  0.046586  0.026081  1
  O  O22  1  0.796205  0.453414  0.026081  1
  O  O23  1  0.703795  0.953414  0.973919  1
  O  O24  1  0.726825  0.512490  0.727863  1
  O  O25  1  0.773175  0.012490  0.272137  1
  O  O26  1  0.273175  0.487510  0.272137  1
  O  O27  1  0.226825  0.987510  0.727863  1
  O  O28  1  0.624297  0.040731  0.684674  1
  O  O29  1  0.875703  0.540731  0.315326  1
  O  O30  1  0.375703  0.959269  0.315326  1
  O  O31  1  0.124297  0.459269  0.684674  1
