# generated using pymatgen
data_CdCu2(BO3)2
_symmetry_space_group_name_H-M   'P 1'
_cell_length_a   3.56526551
_cell_length_b   15.24658513
_cell_length_c   9.51937647
_cell_angle_alpha   90.00000000
_cell_angle_beta   95.64897062
_cell_angle_gamma   90.00000000
_symmetry_Int_Tables_number   1
_chemical_formula_structural   CdCu2(BO3)2
_chemical_formula_sum   'Cd4 Cu8 B8 O24'
_cell_volume   514.94249376
_cell_formula_units_Z   4
loop_
 _symmetry_equiv_pos_site_id
 _symmetry_equiv_pos_as_xyz
  1  'x, y, z'
loop_
 _atom_site_type_symbol
 _atom_site_label
 _atom_site_symmetry_multiplicity
 _atom_site_fract_x
 _atom_site_fract_y
 _atom_site_fract_z
 _atom_site_occupancy
  Cd  Cd0  1  0.787533  0.133120  0.613821  1
  Cd  Cd1  1  0.212467  0.633120  0.886179  1
  Cd  Cd2  1  0.787533  0.366880  0.113821  1
  Cd  Cd3  1  0.212467  0.866880  0.386179  1
  Cu  Cu4  1  0.312616  0.040980  0.862393  1
  Cu  Cu5  1  0.312616  0.459020  0.362393  1
  Cu  Cu6  1  0.687384  0.540980  0.637607  1
  Cu  Cu7  1  0.687384  0.959020  0.137607  1
  Cu  Cu8  1  0.680310  0.753521  0.635623  1
  Cu  Cu9  1  0.319690  0.253521  0.864377  1
  Cu  Cu10  1  0.680310  0.746479  0.135623  1
  Cu  Cu11  1  0.319690  0.246479  0.364377  1
  B  B12  1  0.788208  0.348962  0.580237  1
  B  B13  1  0.108303  0.088357  0.314692  1
  B  B14  1  0.788208  0.151038  0.080237  1
  B  B15  1  0.211792  0.651038  0.419763  1
  B  B16  1  0.108303  0.411643  0.814692  1
  B  B17  1  0.891697  0.911643  0.685308  1
  B  B18  1  0.211792  0.848962  0.919763  1
  B  B19  1  0.891697  0.588357  0.185308  1
  O  O20  1  0.282262  0.124475  0.436873  1
  O  O21  1  0.680866  0.850931  0.237355  1
  O  O22  1  0.282262  0.375525  0.936873  1
  O  O23  1  0.319134  0.350931  0.262645  1
  O  O24  1  0.040327  0.497241  0.789521  1
  O  O25  1  0.732844  0.228308  0.009991  1
  O  O26  1  0.267156  0.728308  0.490009  1
  O  O27  1  0.959673  0.997241  0.710479  1
  O  O28  1  0.717738  0.875525  0.563127  1
  O  O29  1  0.680866  0.649069  0.737355  1
  O  O30  1  0.999880  0.844538  0.785620  1
  O  O31  1  0.319134  0.149069  0.762645  1
  O  O32  1  0.345830  0.929219  0.968281  1
  O  O33  1  0.040327  0.002759  0.289521  1
  O  O34  1  0.267156  0.771692  0.990009  1
  O  O35  1  0.999880  0.655462  0.285620  1
  O  O36  1  0.000120  0.344538  0.714380  1
  O  O37  1  0.717738  0.624475  0.063127  1
  O  O38  1  0.345830  0.570781  0.468281  1
  O  O39  1  0.732844  0.271692  0.509991  1
  O  O40  1  0.654170  0.429219  0.531719  1
  O  O41  1  0.654170  0.070781  0.031719  1
  O  O42  1  0.000120  0.155462  0.214380  1
  O  O43  1  0.959673  0.502759  0.210479  1
