# generated using pymatgen
data_Al2CuSi2O7F2
_symmetry_space_group_name_H-M   'P 1'
_cell_length_a   4.82309899
_cell_length_b   8.96850795
_cell_length_c   14.19470607
_cell_angle_alpha   90.00000000
_cell_angle_beta   90.00000000
_cell_angle_gamma   90.00000000
_symmetry_Int_Tables_number   1
_chemical_formula_structural   Al2CuSi2O7F2
_chemical_formula_sum   'Al8 Cu4 Si8 O28 F8'
_cell_volume   614.00622898
_cell_formula_units_Z   4
loop_
 _symmetry_equiv_pos_site_id
 _symmetry_equiv_pos_as_xyz
  1  'x, y, z'
loop_
 _atom_site_type_symbol
 _atom_site_label
 _atom_site_symmetry_multiplicity
 _atom_site_fract_x
 _atom_site_fract_y
 _atom_site_fract_z
 _atom_site_occupancy
  Al  Al0  1  0.095949  0.368910  0.450176  1
  Al  Al1  1  0.404051  0.868910  0.049824  1
  Al  Al2  1  0.595949  0.131090  0.950176  1
  Al  Al3  1  0.404051  0.868910  0.450176  1
  Al  Al4  1  0.904051  0.631090  0.549824  1
  Al  Al5  1  0.904051  0.631090  0.950176  1
  Al  Al6  1  0.595949  0.131090  0.549824  1
  Al  Al7  1  0.095949  0.368910  0.049824  1
  Cu  Cu8  1  0.359862  0.854563  0.250000  1
  Cu  Cu9  1  0.859862  0.645437  0.750000  1
  Cu  Cu10  1  0.140138  0.354563  0.250000  1
  Cu  Cu11  1  0.640138  0.145437  0.750000  1
  Si  Si12  1  0.594924  0.561773  0.353616  1
  Si  Si13  1  0.905076  0.061773  0.353616  1
  Si  Si14  1  0.094924  0.938227  0.853616  1
  Si  Si15  1  0.405076  0.438227  0.853616  1
  Si  Si16  1  0.405076  0.438227  0.646384  1
  Si  Si17  1  0.905076  0.061773  0.146384  1
  Si  Si18  1  0.094924  0.938227  0.646384  1
  Si  Si19  1  0.594924  0.561773  0.146384  1
  O  O20  1  0.259092  0.474167  0.750000  1
  O  O21  1  0.031652  0.757446  0.853908  1
  O  O22  1  0.531652  0.742554  0.353908  1
  O  O23  1  0.468348  0.257446  0.646092  1
  O  O24  1  0.805442  0.034820  0.856787  1
  O  O25  1  0.694558  0.534820  0.856787  1
  O  O26  1  0.194558  0.965180  0.143213  1
  O  O27  1  0.694558  0.534820  0.643213  1
  O  O28  1  0.805442  0.034820  0.643213  1
  O  O29  1  0.968348  0.242554  0.146092  1
  O  O30  1  0.468348  0.257446  0.853908  1
  O  O31  1  0.301513  0.985867  0.941328  1
  O  O32  1  0.698487  0.014133  0.058672  1
  O  O33  1  0.305442  0.465180  0.356787  1
  O  O34  1  0.301513  0.985867  0.558672  1
  O  O35  1  0.801513  0.514133  0.441328  1
  O  O36  1  0.240908  0.974167  0.750000  1
  O  O37  1  0.198487  0.485867  0.558672  1
  O  O38  1  0.198487  0.485867  0.941328  1
  O  O39  1  0.801513  0.514133  0.058672  1
  O  O40  1  0.740908  0.525833  0.250000  1
  O  O41  1  0.305442  0.465180  0.143213  1
  O  O42  1  0.698487  0.014133  0.441328  1
  O  O43  1  0.968348  0.242554  0.353908  1
  O  O44  1  0.031652  0.757446  0.646092  1
  O  O45  1  0.194558  0.965180  0.356787  1
  O  O46  1  0.759092  0.025833  0.250000  1
  O  O47  1  0.531652  0.742554  0.146092  1
  F  F48  1  0.894369  0.253892  0.531172  1
  F  F49  1  0.605631  0.753892  0.531172  1
  F  F50  1  0.105631  0.746108  0.031172  1
  F  F51  1  0.394369  0.246108  0.031172  1
  F  F52  1  0.105631  0.746108  0.468828  1
  F  F53  1  0.894369  0.253892  0.968828  1
  F  F54  1  0.605631  0.753892  0.968828  1
  F  F55  1  0.394369  0.246108  0.468828  1
