# generated using pymatgen
data_Re3Se4Cl
_symmetry_space_group_name_H-M   'P 1'
_cell_length_a   6.70080286
_cell_length_b   6.74862614
_cell_length_c   9.21517037
_cell_angle_alpha   102.92992632
_cell_angle_beta   109.21039042
_cell_angle_gamma   86.20145143
_symmetry_Int_Tables_number   1
_chemical_formula_structural   Re3Se4Cl
_chemical_formula_sum   'Re6 Se8 Cl2'
_cell_volume   383.52662921
_cell_formula_units_Z   2
loop_
 _symmetry_equiv_pos_site_id
 _symmetry_equiv_pos_as_xyz
  1  'x, y, z'
loop_
 _atom_site_type_symbol
 _atom_site_label
 _atom_site_symmetry_multiplicity
 _atom_site_fract_x
 _atom_site_fract_y
 _atom_site_fract_z
 _atom_site_occupancy
  Re  Re0  1  0.105910  0.246007  0.535436  1
  Re  Re1  1  0.153174  0.626175  0.710497  1
  Re  Re2  1  0.846826  0.373825  0.289503  1
  Re  Re3  1  0.228644  0.538714  0.434616  1
  Re  Re4  1  0.894090  0.753993  0.464564  1
  Re  Re5  1  0.771356  0.461286  0.565384  1
  Se  Se6  1  0.176358  0.177118  0.274397  1
  Se  Se7  1  0.823642  0.822882  0.725603  1
  Se  Se8  1  0.471297  0.405000  0.684179  1
  Se  Se9  1  0.280700  0.897544  0.604607  1
  Se  Se10  1  0.719300  0.102456  0.395393  1
  Se  Se11  1  0.528703  0.595000  0.315821  1
  Se  Se12  1  0.968046  0.663040  0.203878  1
  Se  Se13  1  0.031954  0.336960  0.796122  1
  Cl  Cl14  1  0.658048  0.218063  0.026969  1
  Cl  Cl15  1  0.341952  0.781937  0.973031  1
