# generated using pymatgen
data_Ba4CeMn3O12
_symmetry_space_group_name_H-M   'P 1'
_cell_length_a   10.32576610
_cell_length_b   10.32576610
_cell_length_c   10.32576610
_cell_angle_alpha   33.13733938
_cell_angle_beta   33.13733938
_cell_angle_gamma   33.13733938
_symmetry_Int_Tables_number   1
_chemical_formula_structural   Ba4CeMn3O12
_chemical_formula_sum   'Ba4 Ce1 Mn3 O12'
_cell_volume   292.83753348
_cell_formula_units_Z   1
loop_
 _symmetry_equiv_pos_site_id
 _symmetry_equiv_pos_as_xyz
  1  'x, y, z'
loop_
 _atom_site_type_symbol
 _atom_site_label
 _atom_site_symmetry_multiplicity
 _atom_site_fract_x
 _atom_site_fract_y
 _atom_site_fract_z
 _atom_site_occupancy
  Ba  Ba0  1  0.718513  0.718513  0.718513  1
  Ba  Ba1  1  0.869166  0.869166  0.869166  1
  Ba  Ba2  1  0.281487  0.281487  0.281487  1
  Ba  Ba3  1  0.130834  0.130834  0.130834  1
  Ce  Ce4  1  0.000000  0.000000  0.000000  1
  Mn  Mn5  1  0.587460  0.587460  0.587460  1
  Mn  Mn6  1  0.412540  0.412540  0.412540  1
  Mn  Mn7  1  0.500000  0.500000  0.500000  1
  O  O8  1  0.220517  0.692302  0.220517  1
  O  O9  1  0.779483  0.307698  0.779483  1
  O  O10  1  0.220517  0.220517  0.692302  1
  O  O11  1  0.164853  0.604367  0.604367  1
  O  O12  1  0.779483  0.779483  0.307698  1
  O  O13  1  0.604367  0.604367  0.164853  1
  O  O14  1  0.604367  0.164853  0.604367  1
  O  O15  1  0.395633  0.395633  0.835147  1
  O  O16  1  0.395633  0.835147  0.395633  1
  O  O17  1  0.692302  0.220517  0.220517  1
  O  O18  1  0.835147  0.395633  0.395633  1
  O  O19  1  0.307698  0.779483  0.779483  1
