# generated using pymatgen
data_BaBi6(PO5)4
_symmetry_space_group_name_H-M   'P 1'
_cell_length_a   7.14766406
_cell_length_b   7.80564190
_cell_length_c   9.27921529
_cell_angle_alpha   107.35319530
_cell_angle_beta   92.37456057
_cell_angle_gamma   111.75214035
_symmetry_Int_Tables_number   1
_chemical_formula_structural   BaBi6(PO5)4
_chemical_formula_sum   'Ba1 Bi6 P4 O20'
_cell_volume   452.16476841
_cell_formula_units_Z   1
loop_
 _symmetry_equiv_pos_site_id
 _symmetry_equiv_pos_as_xyz
  1  'x, y, z'
loop_
 _atom_site_type_symbol
 _atom_site_label
 _atom_site_symmetry_multiplicity
 _atom_site_fract_x
 _atom_site_fract_y
 _atom_site_fract_z
 _atom_site_occupancy
  Ba  Ba0  1  0.000000  0.500000  0.000000  1
  Bi  Bi1  1  0.441780  0.296583  0.090178  1
  Bi  Bi2  1  0.558220  0.703417  0.909822  1
  Bi  Bi3  1  0.798373  0.806464  0.327155  1
  Bi  Bi4  1  0.201627  0.193536  0.672845  1
  Bi  Bi5  1  0.673563  0.380122  0.490682  1
  Bi  Bi6  1  0.326437  0.619878  0.509318  1
  P  P7  1  0.646405  0.095014  0.738181  1
  P  P8  1  0.958691  0.230288  0.249007  1
  P  P9  1  0.041309  0.769712  0.750993  1
  P  P10  1  0.353595  0.904986  0.261819  1
  O  O11  1  0.636226  0.167786  0.911081  1
  O  O12  1  0.867315  0.679652  0.835574  1
  O  O13  1  0.954570  0.713434  0.578064  1
  O  O14  1  0.197606  0.673177  0.756503  1
  O  O15  1  0.363774  0.832214  0.088919  1
  O  O16  1  0.512721  0.870264  0.357805  1
  O  O17  1  0.802394  0.326823  0.243497  1
  O  O18  1  0.854689  0.003450  0.173648  1
  O  O19  1  0.444803  0.472608  0.636837  1
  O  O20  1  0.671819  0.597459  0.098523  1
  O  O21  1  0.603379  0.872542  0.684523  1
  O  O22  1  0.862040  0.213759  0.711447  1
  O  O23  1  0.045430  0.286566  0.421936  1
  O  O24  1  0.132685  0.320348  0.164426  1
  O  O25  1  0.145311  0.996550  0.826352  1
  O  O26  1  0.137960  0.786241  0.288553  1
  O  O27  1  0.328181  0.402541  0.901477  1
  O  O28  1  0.396621  0.127458  0.315477  1
  O  O29  1  0.487279  0.129736  0.642195  1
  O  O30  1  0.555197  0.527392  0.363163  1
