# generated using pymatgen
data_Sr2B2O5
_symmetry_space_group_name_H-M   'P 1'
_cell_length_a   7.83006084
_cell_length_b   5.39232876
_cell_length_c   12.05489206
_cell_angle_alpha   90.00000000
_cell_angle_beta   92.02492360
_cell_angle_gamma   90.00000000
_symmetry_Int_Tables_number   1
_chemical_formula_structural   Sr2B2O5
_chemical_formula_sum   'Sr8 B8 O20'
_cell_volume   508.66697930
_cell_formula_units_Z   4
loop_
 _symmetry_equiv_pos_site_id
 _symmetry_equiv_pos_as_xyz
  1  'x, y, z'
loop_
 _atom_site_type_symbol
 _atom_site_label
 _atom_site_symmetry_multiplicity
 _atom_site_fract_x
 _atom_site_fract_y
 _atom_site_fract_z
 _atom_site_occupancy
  Sr  Sr0  1  0.117208  0.946695  0.866969  1
  Sr  Sr1  1  0.882792  0.446695  0.633031  1
  Sr  Sr2  1  0.882792  0.053305  0.133031  1
  Sr  Sr3  1  0.117208  0.553305  0.366969  1
  Sr  Sr4  1  0.622547  0.909034  0.839366  1
  Sr  Sr5  1  0.377453  0.409034  0.660634  1
  Sr  Sr6  1  0.377453  0.090966  0.160634  1
  Sr  Sr7  1  0.622547  0.590966  0.339366  1
  B  B8  1  0.836989  0.450489  0.915665  1
  B  B9  1  0.163011  0.950489  0.584335  1
  B  B10  1  0.163011  0.549511  0.084335  1
  B  B11  1  0.836989  0.049511  0.415665  1
  B  B12  1  0.660205  0.571597  0.095699  1
  B  B13  1  0.339795  0.071597  0.404301  1
  B  B14  1  0.339795  0.428403  0.904301  1
  B  B15  1  0.660205  0.928403  0.595699  1
  O  O16  1  0.355422  0.850667  0.350937  1
  O  O17  1  0.644578  0.350667  0.149063  1
  O  O18  1  0.644578  0.149333  0.649063  1
  O  O19  1  0.355422  0.649333  0.850937  1
  O  O20  1  0.610331  0.790492  0.142388  1
  O  O21  1  0.389669  0.290492  0.357612  1
  O  O22  1  0.389669  0.209508  0.857612  1
  O  O23  1  0.610331  0.709508  0.642388  1
  O  O24  1  0.898679  0.909241  0.331041  1
  O  O25  1  0.101321  0.409241  0.168959  1
  O  O26  1  0.101321  0.090759  0.668959  1
  O  O27  1  0.898679  0.590759  0.831041  1
  O  O28  1  0.853370  0.300486  0.428621  1
  O  O29  1  0.146630  0.800486  0.071379  1
  O  O30  1  0.146630  0.699514  0.571379  1
  O  O31  1  0.853370  0.199514  0.928621  1
  O  O32  1  0.742010  0.900013  0.492257  1
  O  O33  1  0.257990  0.400013  0.007743  1
  O  O34  1  0.257990  0.099987  0.507743  1
  O  O35  1  0.742010  0.599987  0.992257  1
