# generated using pymatgen
data_Na3Dy(Si2O5)3
_symmetry_space_group_name_H-M   'P 1'
_cell_length_a   11.65177073
_cell_length_b   11.65177073
_cell_length_c   10.63756731
_cell_angle_alpha   90.00000000
_cell_angle_beta   90.00000000
_cell_angle_gamma   101.14408748
_symmetry_Int_Tables_number   1
_chemical_formula_structural   Na3Dy(Si2O5)3
_chemical_formula_sum   'Na12 Dy4 Si24 O60'
_cell_volume   1416.96472214
_cell_formula_units_Z   4
loop_
 _symmetry_equiv_pos_site_id
 _symmetry_equiv_pos_as_xyz
  1  'x, y, z'
loop_
 _atom_site_type_symbol
 _atom_site_label
 _atom_site_symmetry_multiplicity
 _atom_site_fract_x
 _atom_site_fract_y
 _atom_site_fract_z
 _atom_site_occupancy
  Na  Na0  1  0.427805  0.572195  0.750477  1
  Na  Na1  1  0.261822  0.261822  0.000000  1
  Na  Na2  1  0.972966  0.527034  0.750000  1
  Na  Na3  1  0.027034  0.472966  0.250000  1
  Na  Na4  1  0.927805  0.072195  0.749523  1
  Na  Na5  1  0.472966  0.027034  0.750000  1
  Na  Na6  1  0.761822  0.761822  0.500000  1
  Na  Na7  1  0.527034  0.972966  0.250000  1
  Na  Na8  1  0.738178  0.738178  1.000000  1
  Na  Na9  1  0.072195  0.927805  0.250477  1
  Na  Na10  1  0.572195  0.427805  0.249523  1
  Na  Na11  1  0.238178  0.238178  0.500000  1
  Dy  Dy12  1  0.839938  0.660062  0.250000  1
  Dy  Dy13  1  0.660062  0.839938  0.750000  1
  Dy  Dy14  1  0.339938  0.160062  0.250000  1
  Dy  Dy15  1  0.160062  0.339938  0.750000  1
  Si  Si16  1  0.191794  0.027746  0.700313  1
  Si  Si17  1  0.472254  0.308206  0.799687  1
  Si  Si18  1  0.971690  0.241774  0.020112  1
  Si  Si19  1  0.758226  0.028310  0.020112  1
  Si  Si20  1  0.027746  0.191794  0.299687  1
  Si  Si21  1  0.916436  0.296516  0.534012  1
  Si  Si22  1  0.471690  0.741774  0.479888  1
  Si  Si23  1  0.808206  0.972254  0.299687  1
  Si  Si24  1  0.703484  0.083564  0.534012  1
  Si  Si25  1  0.241774  0.971690  0.979888  1
  Si  Si26  1  0.296516  0.916436  0.465988  1
  Si  Si27  1  0.028310  0.758226  0.979888  1
  Si  Si28  1  0.741774  0.471690  0.520112  1
  Si  Si29  1  0.691794  0.527746  0.799687  1
  Si  Si30  1  0.203484  0.583564  0.965988  1
  Si  Si31  1  0.972254  0.808206  0.700313  1
  Si  Si32  1  0.083564  0.703484  0.465988  1
  Si  Si33  1  0.583564  0.203484  0.034012  1
  Si  Si34  1  0.796516  0.416436  0.034012  1
  Si  Si35  1  0.416436  0.796516  0.965988  1
  Si  Si36  1  0.308206  0.472254  0.200313  1
  Si  Si37  1  0.527746  0.691794  0.200313  1
  Si  Si38  1  0.258226  0.528310  0.479888  1
  Si  Si39  1  0.528310  0.258226  0.520112  1
  O  O40  1  0.578069  0.750902  0.575808  1
  O  O41  1  0.889527  0.110473  0.008180  1
  O  O42  1  0.890608  0.338164  0.986388  1
  O  O43  1  0.156042  0.152606  0.681530  1
  O  O44  1  0.152606  0.156042  0.318470  1
  O  O45  1  0.265265  0.015287  0.831474  1
  O  O46  1  0.341088  0.989371  0.342282  1
  O  O47  1  0.250902  0.078069  0.075808  1
  O  O48  1  0.921932  0.749098  0.075808  1
  O  O49  1  0.652606  0.656042  0.181530  1
  O  O50  1  0.280471  0.000289  0.588101  1
  O  O51  1  0.571594  0.428406  0.797640  1
  O  O52  1  0.750902  0.578069  0.424192  1
  O  O53  1  0.609392  0.161836  0.486388  1
  O  O54  1  0.109392  0.661836  0.013612  1
  O  O55  1  0.390608  0.838164  0.513612  1
  O  O56  1  0.610473  0.389527  0.508180  1
  O  O57  1  0.832519  0.167481  0.563329  1
  O  O58  1  0.489371  0.841088  0.842282  1
  O  O59  1  0.484713  0.234735  0.668526  1
  O  O60  1  0.719529  0.999711  0.411899  1
  O  O61  1  0.000289  0.280471  0.411899  1
  O  O62  1  0.984713  0.734735  0.831474  1
  O  O63  1  0.249098  0.421931  0.575808  1
  O  O64  1  0.158912  0.510629  0.842282  1
  O  O65  1  0.847394  0.843958  0.681530  1
  O  O66  1  0.765265  0.515287  0.668526  1
  O  O67  1  0.347394  0.343958  0.818470  1
  O  O68  1  0.015287  0.265265  0.168526  1
  O  O69  1  0.234735  0.484713  0.331474  1
  O  O70  1  0.389527  0.610473  0.491820  1
  O  O71  1  0.421932  0.249098  0.424192  1
  O  O72  1  0.515287  0.765265  0.331474  1
  O  O73  1  0.780471  0.500289  0.911899  1
  O  O74  1  0.428406  0.571594  0.202360  1
  O  O75  1  0.343958  0.347394  0.181530  1
  O  O76  1  0.161836  0.609392  0.513612  1
  O  O77  1  0.838164  0.390608  0.486388  1
  O  O78  1  0.010629  0.658912  0.342282  1
  O  O79  1  0.667481  0.332519  0.063329  1
  O  O80  1  0.078069  0.250902  0.924192  1
  O  O81  1  0.658912  0.010629  0.657718  1
  O  O82  1  0.499711  0.219529  0.911899  1
  O  O83  1  0.167481  0.832519  0.436671  1
  O  O84  1  0.989371  0.341088  0.657718  1
  O  O85  1  0.338164  0.890608  0.013612  1
  O  O86  1  0.661836  0.109392  0.986388  1
  O  O87  1  0.071594  0.928406  0.702360  1
  O  O88  1  0.332519  0.667481  0.936671  1
  O  O89  1  0.219529  0.499711  0.088101  1
  O  O90  1  0.110473  0.889527  0.991820  1
  O  O91  1  0.999711  0.719529  0.588101  1
  O  O92  1  0.510629  0.158912  0.157718  1
  O  O93  1  0.749098  0.921931  0.924192  1
  O  O94  1  0.734735  0.984713  0.168526  1
  O  O95  1  0.841088  0.489371  0.157718  1
  O  O96  1  0.500289  0.780471  0.088101  1
  O  O97  1  0.843958  0.847394  0.318470  1
  O  O98  1  0.656042  0.652606  0.818470  1
  O  O99  1  0.928406  0.071594  0.297640  1
