# generated using pymatgen
data_ZnAsHPbO5
_symmetry_space_group_name_H-M   'P 1'
_cell_length_a   6.19840447
_cell_length_b   7.81000467
_cell_length_c   9.47579290
_cell_angle_alpha   90.00000000
_cell_angle_beta   90.00000000
_cell_angle_gamma   90.00000000
_symmetry_Int_Tables_number   1
_chemical_formula_structural   ZnAsHPbO5
_chemical_formula_sum   'Zn4 As4 H4 Pb4 O20'
_cell_volume   458.71903939
_cell_formula_units_Z   4
loop_
 _symmetry_equiv_pos_site_id
 _symmetry_equiv_pos_as_xyz
  1  'x, y, z'
loop_
 _atom_site_type_symbol
 _atom_site_label
 _atom_site_symmetry_multiplicity
 _atom_site_fract_x
 _atom_site_fract_y
 _atom_site_fract_z
 _atom_site_occupancy
  Zn  Zn0  1  0.230865  0.229655  0.512473  1
  Zn  Zn1  1  0.730865  0.270345  0.487527  1
  Zn  Zn2  1  0.769135  0.729655  0.987527  1
  Zn  Zn3  1  0.269135  0.770345  0.012473  1
  As  As4  1  0.986124  0.376964  0.814759  1
  As  As5  1  0.486124  0.123036  0.185241  1
  As  As6  1  0.013876  0.876964  0.685241  1
  As  As7  1  0.513876  0.623036  0.314759  1
  H  H8  1  0.511856  0.004299  0.510551  1
  H  H9  1  0.011856  0.495701  0.489449  1
  H  H10  1  0.488144  0.504299  0.989449  1
  H  H11  1  0.988144  0.995701  0.010551  1
  Pb  Pb12  1  0.033625  0.368680  0.171447  1
  Pb  Pb13  1  0.533625  0.131320  0.828553  1
  Pb  Pb14  1  0.966375  0.868680  0.328553  1
  Pb  Pb15  1  0.466375  0.631320  0.671447  1
  O  O16  1  0.492657  0.446383  0.426252  1
  O  O17  1  0.992657  0.053617  0.573748  1
  O  O18  1  0.507343  0.946383  0.073748  1
  O  O19  1  0.007343  0.553617  0.926252  1
  O  O20  1  0.438685  0.295807  0.076613  1
  O  O21  1  0.938685  0.204193  0.923387  1
  O  O22  1  0.561315  0.795807  0.423387  1
  O  O23  1  0.061315  0.704193  0.576613  1
  O  O24  1  0.727497  0.142714  0.278018  1
  O  O25  1  0.227497  0.357286  0.721982  1
  O  O26  1  0.272503  0.642714  0.221982  1
  O  O27  1  0.772503  0.857286  0.778018  1
  O  O28  1  0.739294  0.611425  0.205624  1
  O  O29  1  0.239294  0.888575  0.794376  1
  O  O30  1  0.260706  0.111425  0.294376  1
  O  O31  1  0.760706  0.388575  0.705624  1
  O  O32  1  0.504521  0.114550  0.562121  1
  O  O33  1  0.004521  0.385450  0.437879  1
  O  O34  1  0.495479  0.614550  0.937879  1
  O  O35  1  0.995479  0.885450  0.062121  1
