# generated using pymatgen
data_Tm2Mn3Si5
_symmetry_space_group_name_H-M   'P 1'
_cell_length_a   10.52898960
_cell_length_b   10.52898960
_cell_length_c   5.36936182
_cell_angle_alpha   90.00000000
_cell_angle_beta   90.00000000
_cell_angle_gamma   90.00000000
_symmetry_Int_Tables_number   1
_chemical_formula_structural   Tm2Mn3Si5
_chemical_formula_sum   'Tm8 Mn12 Si20'
_cell_volume   595.24542173
_cell_formula_units_Z   4
loop_
 _symmetry_equiv_pos_site_id
 _symmetry_equiv_pos_as_xyz
  1  'x, y, z'
loop_
 _atom_site_type_symbol
 _atom_site_label
 _atom_site_symmetry_multiplicity
 _atom_site_fract_x
 _atom_site_fract_y
 _atom_site_fract_z
 _atom_site_occupancy
  Tm  Tm0  1  0.236126  0.076065  0.000000  1
  Tm  Tm1  1  0.076065  0.763874  0.000000  1
  Tm  Tm2  1  0.923935  0.236126  0.000000  1
  Tm  Tm3  1  0.763874  0.923935  0.000000  1
  Tm  Tm4  1  0.263874  0.576065  0.500000  1
  Tm  Tm5  1  0.736126  0.423935  0.500000  1
  Tm  Tm6  1  0.576065  0.736126  0.500000  1
  Tm  Tm7  1  0.423935  0.263874  0.500000  1
  Mn  Mn8  1  0.500000  0.000000  0.250000  1
  Mn  Mn9  1  0.000000  0.500000  0.250000  1
  Mn  Mn10  1  0.500000  0.000000  0.750000  1
  Mn  Mn11  1  0.000000  0.500000  0.750000  1
  Mn  Mn12  1  0.354078  0.378574  0.000000  1
  Mn  Mn13  1  0.378574  0.645922  0.000000  1
  Mn  Mn14  1  0.621426  0.354078  0.000000  1
  Mn  Mn15  1  0.645922  0.621426  0.000000  1
  Mn  Mn16  1  0.145922  0.878574  0.500000  1
  Mn  Mn17  1  0.854078  0.121426  0.500000  1
  Mn  Mn18  1  0.878574  0.854078  0.500000  1
  Mn  Mn19  1  0.121426  0.145922  0.500000  1
  Si  Si20  1  0.000000  0.000000  0.255404  1
  Si  Si21  1  0.500000  0.500000  0.244596  1
  Si  Si22  1  0.000000  0.000000  0.744596  1
  Si  Si23  1  0.500000  0.500000  0.755404  1
  Si  Si24  1  0.674497  0.174497  0.250000  1
  Si  Si25  1  0.174497  0.325503  0.250000  1
  Si  Si26  1  0.825503  0.674497  0.250000  1
  Si  Si27  1  0.325503  0.825503  0.250000  1
  Si  Si28  1  0.325503  0.825503  0.750000  1
  Si  Si29  1  0.825503  0.674497  0.750000  1
  Si  Si30  1  0.174497  0.325503  0.750000  1
  Si  Si31  1  0.674497  0.174497  0.750000  1
  Si  Si32  1  0.474530  0.185569  0.000000  1
  Si  Si33  1  0.185569  0.525470  0.000000  1
  Si  Si34  1  0.814431  0.474530  0.000000  1
  Si  Si35  1  0.525470  0.814431  0.000000  1
  Si  Si36  1  0.025470  0.685569  0.500000  1
  Si  Si37  1  0.974530  0.314431  0.500000  1
  Si  Si38  1  0.685569  0.974530  0.500000  1
  Si  Si39  1  0.314431  0.025470  0.500000  1
