# generated using pymatgen
data_Na7Fe4(PO4)6
_symmetry_space_group_name_H-M   'P 1'
_cell_length_a   9.89609555
_cell_length_b   9.89609555
_cell_length_c   9.89609555
_cell_angle_alpha   86.67408962
_cell_angle_beta   86.67408962
_cell_angle_gamma   86.67408962
_symmetry_Int_Tables_number   1
_chemical_formula_structural   Na7Fe4(PO4)6
_chemical_formula_sum   'Na14 Fe8 P12 O48'
_cell_volume   964.43625131
_cell_formula_units_Z   2
loop_
 _symmetry_equiv_pos_site_id
 _symmetry_equiv_pos_as_xyz
  1  'x, y, z'
loop_
 _atom_site_type_symbol
 _atom_site_label
 _atom_site_symmetry_multiplicity
 _atom_site_fract_x
 _atom_site_fract_y
 _atom_site_fract_z
 _atom_site_occupancy
  Na  Na0  1  0.467279  0.651233  0.217271  1
  Na  Na1  1  0.532721  0.348767  0.782729  1
  Na  Na2  1  0.348767  0.782729  0.532721  1
  Na  Na3  1  0.717271  0.151233  0.967279  1
  Na  Na4  1  0.217271  0.467279  0.651233  1
  Na  Na5  1  0.651233  0.217271  0.467279  1
  Na  Na6  1  0.782729  0.532721  0.348767  1
  Na  Na7  1  0.848767  0.032721  0.282729  1
  Na  Na8  1  0.500000  0.500000  0.500000  1
  Na  Na9  1  0.032721  0.282729  0.848767  1
  Na  Na10  1  0.282729  0.848767  0.032721  1
  Na  Na11  1  0.151233  0.967279  0.717271  1
  Na  Na12  1  0.967279  0.717271  0.151233  1
  Na  Na13  1  0.000000  0.000000  0.000000  1
  Fe  Fe14  1  0.250000  0.471633  0.028367  1
  Fe  Fe15  1  0.750000  0.528367  0.971633  1
  Fe  Fe16  1  0.028367  0.250000  0.471633  1
  Fe  Fe17  1  0.971633  0.750000  0.528367  1
  Fe  Fe18  1  0.471633  0.028367  0.250000  1
  Fe  Fe19  1  0.750000  0.750000  0.750000  1
  Fe  Fe20  1  0.528367  0.971633  0.750000  1
  Fe  Fe21  1  0.250000  0.250000  0.250000  1
  P  P22  1  0.172553  0.550960  0.343626  1
  P  P23  1  0.449040  0.656374  0.827447  1
  P  P24  1  0.343626  0.172553  0.550960  1
  P  P25  1  0.843626  0.050960  0.672553  1
  P  P26  1  0.550960  0.343626  0.172553  1
  P  P27  1  0.949040  0.327447  0.156374  1
  P  P28  1  0.327447  0.156374  0.949040  1
  P  P29  1  0.827447  0.449040  0.656374  1
  P  P30  1  0.050960  0.672553  0.843626  1
  P  P31  1  0.672553  0.843626  0.050960  1
  P  P32  1  0.656374  0.827447  0.449040  1
  P  P33  1  0.156374  0.949040  0.327447  1
  O  O34  1  0.030528  0.614834  0.388371  1
  O  O35  1  0.578399  0.711788  0.402267  1
  O  O36  1  0.168231  0.391787  0.375133  1
  O  O37  1  0.391787  0.375133  0.168231  1
  O  O38  1  0.693605  0.688357  0.085588  1
  O  O39  1  0.921601  0.097733  0.788212  1
  O  O40  1  0.078399  0.902267  0.211788  1
  O  O41  1  0.530528  0.888371  0.114834  1
  O  O42  1  0.969472  0.385166  0.611629  1
  O  O43  1  0.388371  0.030528  0.614834  1
  O  O44  1  0.385166  0.611629  0.969472  1
  O  O45  1  0.193605  0.585588  0.188357  1
  O  O46  1  0.124867  0.108213  0.331769  1
  O  O47  1  0.085588  0.693605  0.688357  1
  O  O48  1  0.811643  0.806395  0.414412  1
  O  O49  1  0.788212  0.921601  0.097733  1
  O  O50  1  0.806395  0.414412  0.811643  1
  O  O51  1  0.306395  0.311643  0.914412  1
  O  O52  1  0.469472  0.111629  0.885166  1
  O  O53  1  0.211788  0.078399  0.902267  1
  O  O54  1  0.311643  0.914412  0.306395  1
  O  O55  1  0.711788  0.402267  0.578399  1
  O  O56  1  0.885166  0.469472  0.111629  1
  O  O57  1  0.624867  0.831769  0.608213  1
  O  O58  1  0.614834  0.388371  0.030528  1
  O  O59  1  0.608213  0.624867  0.831769  1
  O  O60  1  0.331769  0.124867  0.108213  1
  O  O61  1  0.114834  0.530528  0.888371  1
  O  O62  1  0.108213  0.331769  0.124867  1
  O  O63  1  0.111629  0.885166  0.469472  1
  O  O64  1  0.902267  0.211788  0.078399  1
  O  O65  1  0.914412  0.306395  0.311643  1
  O  O66  1  0.288212  0.597733  0.421601  1
  O  O67  1  0.888371  0.114834  0.530528  1
  O  O68  1  0.831769  0.608213  0.624867  1
  O  O69  1  0.421601  0.288212  0.597733  1
  O  O70  1  0.097733  0.788212  0.921601  1
  O  O71  1  0.597733  0.421601  0.288212  1
  O  O72  1  0.402267  0.578399  0.711788  1
  O  O73  1  0.875133  0.891787  0.668231  1
  O  O74  1  0.585588  0.188357  0.193605  1
  O  O75  1  0.688357  0.085588  0.693605  1
  O  O76  1  0.611629  0.969472  0.385166  1
  O  O77  1  0.375133  0.168231  0.391787  1
  O  O78  1  0.414412  0.811643  0.806395  1
  O  O79  1  0.188357  0.193605  0.585588  1
  O  O80  1  0.891787  0.668231  0.875133  1
  O  O81  1  0.668231  0.875133  0.891787  1
