# generated using pymatgen
data_VTeO4
_symmetry_space_group_name_H-M   'P 1'
_cell_length_a   4.58696569
_cell_length_b   13.68001878
_cell_length_c   5.48638085
_cell_angle_alpha   90.00000000
_cell_angle_beta   91.04700642
_cell_angle_gamma   90.00000000
_symmetry_Int_Tables_number   1
_chemical_formula_structural   VTeO4
_chemical_formula_sum   'V4 Te4 O16'
_cell_volume   344.21169462
_cell_formula_units_Z   4
loop_
 _symmetry_equiv_pos_site_id
 _symmetry_equiv_pos_as_xyz
  1  'x, y, z'
loop_
 _atom_site_type_symbol
 _atom_site_label
 _atom_site_symmetry_multiplicity
 _atom_site_fract_x
 _atom_site_fract_y
 _atom_site_fract_z
 _atom_site_occupancy
  V  V0  1  0.678689  0.660757  0.166069  1
  V  V1  1  0.321311  0.339243  0.833931  1
  V  V2  1  0.321311  0.160757  0.333931  1
  V  V3  1  0.678689  0.839243  0.666069  1
  Te  Te4  1  0.961258  0.390157  0.356092  1
  Te  Te5  1  0.961258  0.109843  0.856092  1
  Te  Te6  1  0.038742  0.890157  0.143908  1
  Te  Te7  1  0.038742  0.609843  0.643908  1
  O  O8  1  0.830750  0.547896  0.367712  1
  O  O9  1  0.245826  0.418233  0.124671  1
  O  O10  1  0.317616  0.665983  0.179377  1
  O  O11  1  0.812841  0.776946  0.983277  1
  O  O12  1  0.187159  0.223054  0.016723  1
  O  O13  1  0.169250  0.452104  0.632288  1
  O  O14  1  0.812841  0.723054  0.483277  1
  O  O15  1  0.187159  0.276946  0.516723  1
  O  O16  1  0.754174  0.918233  0.375329  1
  O  O17  1  0.245826  0.081767  0.624671  1
  O  O18  1  0.682384  0.334017  0.820623  1
  O  O19  1  0.682384  0.165983  0.320623  1
  O  O20  1  0.830750  0.952104  0.867712  1
  O  O21  1  0.317616  0.834017  0.679377  1
  O  O22  1  0.169250  0.047896  0.132288  1
  O  O23  1  0.754174  0.581767  0.875329  1
