# generated using pymatgen
data_Ba3ZnIr2O9
_symmetry_space_group_name_H-M   'P 1'
_cell_length_a   5.85980252
_cell_length_b   5.85980252
_cell_length_c   14.47813832
_cell_angle_alpha   90.00000000
_cell_angle_beta   90.00000000
_cell_angle_gamma   120.00000000
_symmetry_Int_Tables_number   1
_chemical_formula_structural   Ba3ZnIr2O9
_chemical_formula_sum   'Ba6 Zn2 Ir4 O18'
_cell_volume   430.53584278
_cell_formula_units_Z   2
loop_
 _symmetry_equiv_pos_site_id
 _symmetry_equiv_pos_as_xyz
  1  'x, y, z'
loop_
 _atom_site_type_symbol
 _atom_site_label
 _atom_site_symmetry_multiplicity
 _atom_site_fract_x
 _atom_site_fract_y
 _atom_site_fract_z
 _atom_site_occupancy
  Ba  Ba0  1  0.333333  0.666667  0.912786  1
  Ba  Ba1  1  0.666667  0.333333  0.087214  1
  Ba  Ba2  1  0.000000  0.000000  0.250000  1
  Ba  Ba3  1  0.333333  0.666667  0.587214  1
  Ba  Ba4  1  0.666667  0.333333  0.412786  1
  Ba  Ba5  1  0.000000  0.000000  0.750000  1
  Zn  Zn6  1  0.000000  0.000000  0.000000  1
  Zn  Zn7  1  0.000000  0.000000  0.500000  1
  Ir  Ir8  1  0.333333  0.666667  0.343411  1
  Ir  Ir9  1  0.666667  0.333333  0.656589  1
  Ir  Ir10  1  0.333333  0.666667  0.156589  1
  Ir  Ir11  1  0.666667  0.333333  0.843411  1
  O  O12  1  0.514955  0.485045  0.750000  1
  O  O13  1  0.657768  0.828884  0.082855  1
  O  O14  1  0.171116  0.342232  0.082855  1
  O  O15  1  0.485045  0.970089  0.250000  1
  O  O16  1  0.657768  0.828884  0.417145  1
  O  O17  1  0.828884  0.657768  0.582855  1
  O  O18  1  0.342232  0.171116  0.917145  1
  O  O19  1  0.514955  0.029911  0.750000  1
  O  O20  1  0.171116  0.828884  0.417145  1
  O  O21  1  0.828884  0.171116  0.582855  1
  O  O22  1  0.828884  0.171116  0.917145  1
  O  O23  1  0.171116  0.342232  0.417145  1
  O  O24  1  0.342232  0.171116  0.582855  1
  O  O25  1  0.970089  0.485045  0.750000  1
  O  O26  1  0.828884  0.657768  0.917145  1
  O  O27  1  0.171116  0.828884  0.082855  1
  O  O28  1  0.029911  0.514955  0.250000  1
  O  O29  1  0.485045  0.514955  0.250000  1
