# generated using pymatgen
data_Ba2Si3O8
_symmetry_space_group_name_H-M   'P 1'
_cell_length_a   12.64446567
_cell_length_b   4.74572745
_cell_length_c   14.15737911
_cell_angle_alpha   90.00000000
_cell_angle_beta   93.48894884
_cell_angle_gamma   90.00000000
_symmetry_Int_Tables_number   1
_chemical_formula_structural   Ba2Si3O8
_chemical_formula_sum   'Ba8 Si12 O32'
_cell_volume   847.96992343
_cell_formula_units_Z   4
loop_
 _symmetry_equiv_pos_site_id
 _symmetry_equiv_pos_as_xyz
  1  'x, y, z'
loop_
 _atom_site_type_symbol
 _atom_site_label
 _atom_site_symmetry_multiplicity
 _atom_site_fract_x
 _atom_site_fract_y
 _atom_site_fract_z
 _atom_site_occupancy
  Ba  Ba0  1  0.144504  0.289668  0.968859  1
  Ba  Ba1  1  0.581929  0.264736  0.610979  1
  Ba  Ba2  1  0.582481  0.305842  0.111213  1
  Ba  Ba3  1  0.418071  0.764736  0.389021  1
  Ba  Ba4  1  0.143099  0.304462  0.466055  1
  Ba  Ba5  1  0.417519  0.805842  0.888787  1
  Ba  Ba6  1  0.855496  0.789668  0.031141  1
  Ba  Ba7  1  0.856901  0.804462  0.533945  1
  Si  Si8  1  0.650993  0.239352  0.889429  1
  Si  Si9  1  0.274292  0.232113  0.223430  1
  Si  Si10  1  0.725708  0.732113  0.776570  1
  Si  Si11  1  0.276998  0.331695  0.723779  1
  Si  Si12  1  0.023388  0.234431  0.187359  1
  Si  Si13  1  0.349007  0.739352  0.110571  1
  Si  Si14  1  0.030400  0.236512  0.688119  1
  Si  Si15  1  0.349813  0.833228  0.610658  1
  Si  Si16  1  0.969600  0.736512  0.311881  1
  Si  Si17  1  0.976612  0.734431  0.812641  1
  Si  Si18  1  0.650187  0.333228  0.389342  1
  Si  Si19  1  0.723002  0.831695  0.276221  1
  O  O20  1  0.469788  0.804434  0.085035  1
  O  O21  1  0.713445  0.811922  0.666931  1
  O  O22  1  0.349609  0.405235  0.150811  1
  O  O23  1  0.158161  0.274368  0.671593  1
  O  O24  1  0.688855  0.163139  0.293308  1
  O  O25  1  0.035133  0.812114  0.912296  1
  O  O26  1  0.265769  0.810936  0.520230  1
  O  O27  1  0.734311  0.281487  0.979459  1
  O  O28  1  0.640779  0.660715  0.343291  1
  O  O29  1  0.469303  0.756640  0.584153  1
  O  O30  1  0.006472  0.904308  0.715764  1
  O  O31  1  0.841839  0.774368  0.328407  1
  O  O32  1  0.033174  0.814040  0.409537  1
  O  O33  1  0.995919  0.903522  0.213707  1
  O  O34  1  0.265689  0.781487  0.020541  1
  O  O35  1  0.311145  0.663139  0.706692  1
  O  O36  1  0.734231  0.310936  0.479770  1
  O  O37  1  0.530212  0.304434  0.914965  1
  O  O38  1  0.685042  0.404374  0.790884  1
  O  O39  1  0.152336  0.261009  0.175270  1
  O  O40  1  0.966826  0.314040  0.590463  1
  O  O41  1  0.004081  0.403522  0.786293  1
  O  O42  1  0.847664  0.761009  0.824730  1
  O  O43  1  0.650391  0.905235  0.849189  1
  O  O44  1  0.287096  0.265617  0.834522  1
  O  O45  1  0.993528  0.404308  0.284236  1
  O  O46  1  0.964867  0.312114  0.087704  1
  O  O47  1  0.530697  0.256640  0.415847  1
  O  O48  1  0.286555  0.311922  0.333069  1
  O  O49  1  0.359221  0.160715  0.656709  1
  O  O50  1  0.314958  0.904374  0.209116  1
  O  O51  1  0.712904  0.765617  0.165478  1
