# generated using pymatgen
data_Yb11InSb9
_symmetry_space_group_name_H-M   'P 1'
_cell_length_a   12.03995430
_cell_length_b   12.03995430
_cell_length_c   12.03995430
_cell_angle_alpha   120.92599866
_cell_angle_beta   117.49199275
_cell_angle_gamma   91.40072321
_symmetry_Int_Tables_number   1
_chemical_formula_structural   Yb11InSb9
_chemical_formula_sum   'Yb22 In2 Sb18'
_cell_volume   1247.11695299
_cell_formula_units_Z   2
loop_
 _symmetry_equiv_pos_site_id
 _symmetry_equiv_pos_as_xyz
  1  'x, y, z'
loop_
 _atom_site_type_symbol
 _atom_site_label
 _atom_site_symmetry_multiplicity
 _atom_site_fract_x
 _atom_site_fract_y
 _atom_site_fract_z
 _atom_site_occupancy
  Yb  Yb0  1  0.936933  0.228796  0.848430  1
  Yb  Yb1  1  0.173858  0.663886  0.839298  1
  Yb  Yb2  1  0.380365  0.088503  0.151570  1
  Yb  Yb3  1  0.173794  0.673794  0.500000  1
  Yb  Yb4  1  0.183431  0.312750  0.236572  1
  Yb  Yb5  1  0.430315  0.185916  0.873867  1
  Yb  Yb6  1  0.568751  0.426956  0.313664  1
  Yb  Yb7  1  0.436933  0.588503  0.708137  1
  Yb  Yb8  1  0.113292  0.255087  0.686336  1
  Yb  Yb9  1  0.930315  0.056448  0.244399  1
  Yb  Yb10  1  0.880365  0.728796  0.291863  1
  Yb  Yb11  1  0.812049  0.685916  0.755601  1
  Yb  Yb12  1  0.324589  0.163886  0.490028  1
  Yb  Yb13  1  0.076178  0.946859  0.763428  1
  Yb  Yb14  1  0.576178  0.812750  0.129319  1
  Yb  Yb15  1  0.824589  0.334560  0.160702  1
  Yb  Yb16  1  0.673794  0.173794  0.500000  1
  Yb  Yb17  1  0.068751  0.755087  0.141795  1
  Yb  Yb18  1  0.673858  0.834560  0.509972  1
  Yb  Yb19  1  0.683431  0.446859  0.870681  1
  Yb  Yb20  1  0.613292  0.926956  0.858205  1
  Yb  Yb21  1  0.312049  0.556448  0.126133  1
  In  In22  1  0.889839  0.389839  0.500000  1
  In  In23  1  0.389839  0.889839  0.500000  1
  Sb  Sb24  1  0.506337  0.360598  0.500915  1
  Sb  Sb25  1  0.607093  0.532765  0.145228  1
  Sb  Sb26  1  0.387537  0.461865  0.854772  1
  Sb  Sb27  1  0.125067  0.372631  0.485077  1
  Sb  Sb28  1  0.625067  0.139990  0.752436  1
  Sb  Sb29  1  0.887554  0.639990  0.514923  1
  Sb  Sb30  1  0.752263  0.752263  0.000000  1
  Sb  Sb31  1  0.859683  0.005422  0.499085  1
  Sb  Sb32  1  0.662337  0.152722  0.200037  1
  Sb  Sb33  1  0.387554  0.872631  0.247564  1
  Sb  Sb34  1  0.006337  0.505422  0.145740  1
  Sb  Sb35  1  0.887537  0.032765  0.925673  1
  Sb  Sb36  1  0.359683  0.860598  0.854260  1
  Sb  Sb37  1  0.252263  0.252263  0.000000  1
  Sb  Sb38  1  0.107093  0.961865  0.074327  1
  Sb  Sb39  1  0.162337  0.962300  0.509615  1
  Sb  Sb40  1  0.952685  0.462300  0.799963  1
  Sb  Sb41  1  0.452685  0.652722  0.490385  1
