# generated using pymatgen
data_CrP2O7
_symmetry_space_group_name_H-M   'P 1'
_cell_length_a   6.84585530
_cell_length_b   8.08073049
_cell_length_c   9.35373075
_cell_angle_alpha   90.00000000
_cell_angle_beta   108.35928286
_cell_angle_gamma   90.00000000
_symmetry_Int_Tables_number   1
_chemical_formula_structural   CrP2O7
_chemical_formula_sum   'Cr4 P8 O28'
_cell_volume   491.10597216
_cell_formula_units_Z   4
loop_
 _symmetry_equiv_pos_site_id
 _symmetry_equiv_pos_as_xyz
  1  'x, y, z'
loop_
 _atom_site_type_symbol
 _atom_site_label
 _atom_site_symmetry_multiplicity
 _atom_site_fract_x
 _atom_site_fract_y
 _atom_site_fract_z
 _atom_site_occupancy
  Cr  Cr0  1  0.720594  0.771696  0.004854  1
  Cr  Cr1  1  0.720594  0.728304  0.504854  1
  Cr  Cr2  1  0.279406  0.271696  0.495146  1
  Cr  Cr3  1  0.279406  0.228304  0.995146  1
  P  P4  1  0.932242  0.530690  0.293401  1
  P  P5  1  0.932242  0.969310  0.793401  1
  P  P6  1  0.532565  0.412820  0.294501  1
  P  P7  1  0.467435  0.912820  0.205499  1
  P  P8  1  0.532565  0.087180  0.794501  1
  P  P9  1  0.467435  0.587180  0.705499  1
  P  P10  1  0.067758  0.030690  0.206599  1
  P  P11  1  0.067758  0.469310  0.706599  1
  O  O12  1  0.887943  0.601278  0.135530  1
  O  O13  1  0.860140  0.944782  0.155787  1
  O  O14  1  0.914262  0.665909  0.406927  1
  O  O15  1  0.765191  0.386803  0.292541  1
  O  O16  1  0.887943  0.898722  0.635530  1
  O  O17  1  0.860140  0.555218  0.655787  1
  O  O18  1  0.914262  0.834091  0.906927  1
  O  O19  1  0.516656  0.773687  0.109764  1
  O  O20  1  0.604837  0.905873  0.371771  1
  O  O21  1  0.765191  0.113197  0.792541  1
  O  O22  1  0.475561  0.082952  0.138188  1
  O  O23  1  0.524439  0.582952  0.361812  1
  O  O24  1  0.395163  0.405873  0.128229  1
  O  O25  1  0.483344  0.273687  0.390236  1
  O  O26  1  0.516656  0.726313  0.609764  1
  O  O27  1  0.604837  0.594127  0.871771  1
  O  O28  1  0.475561  0.417048  0.638188  1
  O  O29  1  0.524439  0.917048  0.861812  1
  O  O30  1  0.234809  0.886803  0.207459  1
  O  O31  1  0.395163  0.094127  0.628229  1
  O  O32  1  0.483344  0.226313  0.890236  1
  O  O33  1  0.085738  0.165909  0.093073  1
  O  O34  1  0.139860  0.444782  0.344213  1
  O  O35  1  0.112057  0.101278  0.364470  1
  O  O36  1  0.234809  0.613197  0.707459  1
  O  O37  1  0.085738  0.334091  0.593073  1
  O  O38  1  0.139860  0.055218  0.844213  1
  O  O39  1  0.112057  0.398722  0.864470  1
