# generated using pymatgen
data_Pr(AlBr4)3
_symmetry_space_group_name_H-M   'P 1'
_cell_length_a   10.81470960
_cell_length_b   10.81470960
_cell_length_c   19.00546482
_cell_angle_alpha   90.00000000
_cell_angle_beta   90.00000000
_cell_angle_gamma   120.00000000
_symmetry_Int_Tables_number   1
_chemical_formula_structural   Pr(AlBr4)3
_chemical_formula_sum   'Pr3 Al9 Br36'
_cell_volume   1925.03598048
_cell_formula_units_Z   3
loop_
 _symmetry_equiv_pos_site_id
 _symmetry_equiv_pos_as_xyz
  1  'x, y, z'
loop_
 _atom_site_type_symbol
 _atom_site_label
 _atom_site_symmetry_multiplicity
 _atom_site_fract_x
 _atom_site_fract_y
 _atom_site_fract_z
 _atom_site_occupancy
  Pr  Pr0  1  0.269513  0.269513  0.000000  1
  Pr  Pr1  1  0.000000  0.730487  0.666667  1
  Pr  Pr2  1  0.730487  0.000000  0.333333  1
  Al  Al3  1  0.366088  0.667068  0.054498  1
  Al  Al4  1  0.633912  0.300980  0.278835  1
  Al  Al5  1  0.300980  0.633912  0.721165  1
  Al  Al6  1  0.699020  0.332932  0.612169  1
  Al  Al7  1  0.098902  0.000000  0.833333  1
  Al  Al8  1  0.000000  0.098902  0.166667  1
  Al  Al9  1  0.667068  0.366088  0.945502  1
  Al  Al10  1  0.332932  0.699020  0.387831  1
  Al  Al11  1  0.901098  0.901098  0.500000  1
  Br  Br12  1  0.494161  0.411780  0.889051  1
  Br  Br13  1  0.795710  0.768345  0.398312  1
  Br  Br14  1  0.142688  0.716961  0.350888  1
  Br  Br15  1  0.479031  0.712757  0.290234  1
  Br  Br16  1  0.223690  0.715754  0.122964  1
  Br  Br17  1  0.284246  0.507937  0.456298  1
  Br  Br18  1  0.027365  0.231655  0.268355  1
  Br  Br19  1  0.972635  0.204290  0.064978  1
  Br  Br20  1  0.287243  0.766273  0.623567  1
  Br  Br21  1  0.879368  0.804259  0.802324  1
  Br  Br22  1  0.776310  0.492063  0.210369  1
  Br  Br23  1  0.231655  0.027365  0.731645  1
  Br  Br24  1  0.924891  0.120632  0.468991  1
  Br  Br25  1  0.233727  0.520969  0.956900  1
  Br  Br26  1  0.505839  0.917620  0.444282  1
  Br  Br27  1  0.082380  0.588220  0.777616  1
  Br  Br28  1  0.588220  0.082380  0.222384  1
  Br  Br29  1  0.120632  0.924891  0.531009  1
  Br  Br30  1  0.492063  0.776310  0.789631  1
  Br  Br31  1  0.804259  0.879368  0.197676  1
  Br  Br32  1  0.075109  0.195741  0.864343  1
  Br  Br33  1  0.283039  0.425726  0.684221  1
  Br  Br34  1  0.715754  0.223690  0.877036  1
  Br  Br35  1  0.195741  0.075109  0.135657  1
  Br  Br36  1  0.507937  0.284246  0.543702  1
  Br  Br37  1  0.917620  0.505839  0.555718  1
  Br  Br38  1  0.768345  0.795710  0.601688  1
  Br  Br39  1  0.766273  0.287243  0.376433  1
  Br  Br40  1  0.574274  0.857312  0.017554  1
  Br  Br41  1  0.857312  0.574274  0.982446  1
  Br  Br42  1  0.425726  0.283039  0.315779  1
  Br  Br43  1  0.716961  0.142688  0.649112  1
  Br  Br44  1  0.411780  0.494161  0.110949  1
  Br  Br45  1  0.204290  0.972635  0.935022  1
  Br  Br46  1  0.712757  0.479031  0.709766  1
  Br  Br47  1  0.520969  0.233727  0.043100  1
