# generated using pymatgen
data_K2LaP2Se7
_symmetry_space_group_name_H-M   'P 1'
_cell_length_a   9.61446844
_cell_length_b   7.34274923
_cell_length_c   22.32902611
_cell_angle_alpha   90.00000000
_cell_angle_beta   108.84021830
_cell_angle_gamma   90.00000000
_symmetry_Int_Tables_number   1
_chemical_formula_structural   K2LaP2Se7
_chemical_formula_sum   'K8 La4 P8 Se28'
_cell_volume   1491.89740131
_cell_formula_units_Z   4
loop_
 _symmetry_equiv_pos_site_id
 _symmetry_equiv_pos_as_xyz
  1  'x, y, z'
loop_
 _atom_site_type_symbol
 _atom_site_label
 _atom_site_symmetry_multiplicity
 _atom_site_fract_x
 _atom_site_fract_y
 _atom_site_fract_z
 _atom_site_occupancy
  K  K0  1  0.247002  0.010068  0.990909  1
  K  K1  1  0.752998  0.510068  0.509091  1
  K  K2  1  0.752998  0.989932  0.009091  1
  K  K3  1  0.247002  0.489932  0.490909  1
  K  K4  1  0.158477  0.549408  0.816964  1
  K  K5  1  0.841523  0.049408  0.683036  1
  K  K6  1  0.841523  0.450592  0.183036  1
  K  K7  1  0.158477  0.950592  0.316964  1
  La  La8  1  0.655469  0.470596  0.850071  1
  La  La9  1  0.344531  0.970596  0.649929  1
  La  La10  1  0.344531  0.529404  0.149929  1
  La  La11  1  0.655469  0.029404  0.350071  1
  P  P12  1  0.425963  0.015780  0.830460  1
  P  P13  1  0.574037  0.515780  0.669540  1
  P  P14  1  0.574037  0.984220  0.169540  1
  P  P15  1  0.425963  0.484220  0.330460  1
  P  P16  1  0.961876  0.488519  0.042586  1
  P  P17  1  0.038124  0.988519  0.457414  1
  P  P18  1  0.038124  0.511481  0.957414  1
  P  P19  1  0.961876  0.011481  0.542585  1
  Se  Se20  1  0.722164  0.455655  0.002702  1
  Se  Se21  1  0.277836  0.955655  0.497298  1
  Se  Se22  1  0.277836  0.544345  0.997298  1
  Se  Se23  1  0.722164  0.044345  0.502702  1
  Se  Se24  1  0.486622  0.776916  0.895057  1
  Se  Se25  1  0.513378  0.276916  0.604943  1
  Se  Se26  1  0.513378  0.223084  0.104943  1
  Se  Se27  1  0.486622  0.723084  0.395057  1
  Se  Se28  1  0.586530  0.088003  0.780113  1
  Se  Se29  1  0.413470  0.588003  0.719887  1
  Se  Se30  1  0.413470  0.911997  0.219887  1
  Se  Se31  1  0.586530  0.411997  0.280113  1
  Se  Se32  1  0.790683  0.467415  0.743525  1
  Se  Se33  1  0.209317  0.967415  0.756475  1
  Se  Se34  1  0.209317  0.532585  0.256475  1
  Se  Se35  1  0.790683  0.032585  0.243525  1
  Se  Se36  1  0.956501  0.264142  0.900225  1
  Se  Se37  1  0.043499  0.764142  0.599775  1
  Se  Se38  1  0.043499  0.735858  0.099775  1
  Se  Se39  1  0.956501  0.235858  0.400225  1
  Se  Se40  1  0.923436  0.749469  0.903441  1
  Se  Se41  1  0.076564  0.249469  0.596559  1
  Se  Se42  1  0.076564  0.250531  0.096559  1
  Se  Se43  1  0.923436  0.750531  0.403441  1
  Se  Se44  1  0.420524  0.252846  0.891507  1
  Se  Se45  1  0.579476  0.752846  0.608493  1
  Se  Se46  1  0.579476  0.747154  0.108493  1
  Se  Se47  1  0.420524  0.247154  0.391507  1
