# generated using pymatgen
data_YbPt
_symmetry_space_group_name_H-M   'P 1'
_cell_length_a   4.40595463
_cell_length_b   5.57450870
_cell_length_c   7.14066342
_cell_angle_alpha   90.00000000
_cell_angle_beta   90.00000000
_cell_angle_gamma   90.00000000
_symmetry_Int_Tables_number   1
_chemical_formula_structural   YbPt
_chemical_formula_sum   'Yb4 Pt4'
_cell_volume   175.38206574
_cell_formula_units_Z   4
loop_
 _symmetry_equiv_pos_site_id
 _symmetry_equiv_pos_as_xyz
  1  'x, y, z'
loop_
 _atom_site_type_symbol
 _atom_site_label
 _atom_site_symmetry_multiplicity
 _atom_site_fract_x
 _atom_site_fract_y
 _atom_site_fract_z
 _atom_site_occupancy
  Yb  Yb0  1  0.250000  0.139101  0.184024  1
  Yb  Yb1  1  0.750000  0.639101  0.315976  1
  Yb  Yb2  1  0.750000  0.860899  0.815976  1
  Yb  Yb3  1  0.250000  0.360899  0.684024  1
  Pt  Pt4  1  0.750000  0.148873  0.460769  1
  Pt  Pt5  1  0.250000  0.851127  0.539231  1
  Pt  Pt6  1  0.250000  0.648873  0.039231  1
  Pt  Pt7  1  0.750000  0.351127  0.960769  1
