# generated using pymatgen
data_P3Pb5ClO12
_symmetry_space_group_name_H-M   'P 1'
_cell_length_a   10.23430785
_cell_length_b   10.23430785
_cell_length_c   7.35724627
_cell_angle_alpha   90.00000000
_cell_angle_beta   90.00000000
_cell_angle_gamma   120.00000000
_symmetry_Int_Tables_number   1
_chemical_formula_structural   P3Pb5ClO12
_chemical_formula_sum   'P6 Pb10 Cl2 O24'
_cell_volume   667.36415782
_cell_formula_units_Z   2
loop_
 _symmetry_equiv_pos_site_id
 _symmetry_equiv_pos_as_xyz
  1  'x, y, z'
loop_
 _atom_site_type_symbol
 _atom_site_label
 _atom_site_symmetry_multiplicity
 _atom_site_fract_x
 _atom_site_fract_y
 _atom_site_fract_z
 _atom_site_occupancy
  P  P0  1  0.413071  0.378195  0.250000  1
  P  P1  1  0.034875  0.413071  0.750000  1
  P  P2  1  0.378195  0.965125  0.750000  1
  P  P3  1  0.621805  0.034875  0.250000  1
  P  P4  1  0.965125  0.586929  0.250000  1
  P  P5  1  0.586929  0.621805  0.750000  1
  Pb  Pb6  1  0.333333  0.666667  0.006080  1
  Pb  Pb7  1  0.666667  0.333333  0.506080  1
  Pb  Pb8  1  0.666667  0.333333  0.993920  1
  Pb  Pb9  1  0.333333  0.666667  0.493920  1
  Pb  Pb10  1  0.261852  0.019623  0.250000  1
  Pb  Pb11  1  0.242229  0.261852  0.750000  1
  Pb  Pb12  1  0.019623  0.757771  0.750000  1
  Pb  Pb13  1  0.980377  0.242229  0.250000  1
  Pb  Pb14  1  0.757771  0.738148  0.250000  1
  Pb  Pb15  1  0.738148  0.980377  0.750000  1
  Cl  Cl16  1  0.000000  0.000000  0.000000  1
  Cl  Cl17  1  0.000000  0.000000  0.500000  1
  O  O18  1  0.351339  0.488339  0.250000  1
  O  O19  1  0.862999  0.351339  0.750000  1
  O  O20  1  0.488339  0.137001  0.750000  1
  O  O21  1  0.511661  0.862999  0.250000  1
  O  O22  1  0.137001  0.648661  0.250000  1
  O  O23  1  0.648661  0.511661  0.750000  1
  O  O24  1  0.591609  0.468286  0.250000  1
  O  O25  1  0.123323  0.591609  0.750000  1
  O  O26  1  0.468286  0.876677  0.750000  1
  O  O27  1  0.531714  0.123323  0.250000  1
  O  O28  1  0.876677  0.408391  0.250000  1
  O  O29  1  0.408391  0.531714  0.750000  1
  O  O30  1  0.362595  0.273082  0.079339  1
  O  O31  1  0.089512  0.362595  0.579339  1
  O  O32  1  0.273082  0.910488  0.579339  1
  O  O33  1  0.726918  0.089512  0.079339  1
  O  O34  1  0.910488  0.637405  0.079339  1
  O  O35  1  0.637405  0.726918  0.579339  1
  O  O36  1  0.637405  0.726918  0.920661  1
  O  O37  1  0.910488  0.637405  0.420661  1
  O  O38  1  0.726918  0.089512  0.420661  1
  O  O39  1  0.273082  0.910488  0.920661  1
  O  O40  1  0.089512  0.362595  0.920661  1
  O  O41  1  0.362595  0.273082  0.420661  1
