# generated using pymatgen
data_U3Ag6Mo5O27
_symmetry_space_group_name_H-M   'P 1'
_cell_length_a   10.07175076
_cell_length_b   10.07175076
_cell_length_c   13.26348277
_cell_angle_alpha   82.28247004
_cell_angle_beta   97.71752996
_cell_angle_gamma   110.36409646
_symmetry_Int_Tables_number   1
_chemical_formula_structural   U3Ag6Mo5O27
_chemical_formula_sum   'U6 Ag12 Mo10 O54'
_cell_volume   1244.37039797
_cell_formula_units_Z   2
loop_
 _symmetry_equiv_pos_site_id
 _symmetry_equiv_pos_as_xyz
  1  'x, y, z'
loop_
 _atom_site_type_symbol
 _atom_site_label
 _atom_site_symmetry_multiplicity
 _atom_site_fract_x
 _atom_site_fract_y
 _atom_site_fract_z
 _atom_site_occupancy
  U  U0  1  0.639260  0.639260  0.250000  1
  U  U1  1  0.246800  0.507625  0.277399  1
  U  U2  1  0.492375  0.753200  0.777399  1
  U  U3  1  0.360740  0.360740  0.750000  1
  U  U4  1  0.507625  0.246800  0.222601  1
  U  U5  1  0.753200  0.492375  0.722601  1
  Ag  Ag6  1  0.107237  0.664937  0.900828  1
  Ag  Ag7  1  0.704527  0.554912  0.979876  1
  Ag  Ag8  1  0.664937  0.107237  0.599172  1
  Ag  Ag9  1  0.445088  0.295473  0.479876  1
  Ag  Ag10  1  0.295473  0.445088  0.020124  1
  Ag  Ag11  1  0.973511  0.822159  0.454031  1
  Ag  Ag12  1  0.335063  0.892763  0.400828  1
  Ag  Ag13  1  0.892763  0.335063  0.099172  1
  Ag  Ag14  1  0.822159  0.973511  0.045969  1
  Ag  Ag15  1  0.177841  0.026489  0.954031  1
  Ag  Ag16  1  0.554912  0.704527  0.520124  1
  Ag  Ag17  1  0.026489  0.177841  0.545969  1
  Mo  Mo18  1  0.425284  0.862574  0.107819  1
  Mo  Mo19  1  0.270633  0.985884  0.667889  1
  Mo  Mo20  1  0.014116  0.729367  0.167889  1
  Mo  Mo21  1  0.729367  0.014116  0.332111  1
  Mo  Mo22  1  0.137426  0.574716  0.607819  1
  Mo  Mo23  1  0.862574  0.425284  0.392181  1
  Mo  Mo24  1  0.574716  0.137426  0.892181  1
  Mo  Mo25  1  0.867914  0.867914  0.750000  1
  Mo  Mo26  1  0.132086  0.132086  0.250000  1
  Mo  Mo27  1  0.985884  0.270633  0.832111  1
  O  O28  1  0.427709  0.093869  0.963973  1
  O  O29  1  0.294932  0.114508  0.759173  1
  O  O30  1  0.193087  0.736112  0.526313  1
  O  O31  1  0.668776  0.430923  0.598212  1
  O  O32  1  0.114508  0.294932  0.740827  1
  O  O33  1  0.871557  0.034157  0.681950  1
  O  O34  1  0.705068  0.885492  0.240827  1
  O  O35  1  0.968445  0.105199  0.907223  1
  O  O36  1  0.703826  0.429755  0.301642  1
  O  O37  1  0.031555  0.894801  0.092777  1
  O  O38  1  0.331224  0.569077  0.401788  1
  O  O39  1  0.128443  0.965843  0.318050  1
  O  O40  1  0.445378  0.445378  0.250000  1
  O  O41  1  0.813081  0.730345  0.660287  1
  O  O42  1  0.639559  0.649128  0.388936  1
  O  O43  1  0.296174  0.570245  0.698358  1
  O  O44  1  0.350872  0.360441  0.888936  1
  O  O45  1  0.730345  0.813081  0.839713  1
  O  O46  1  0.411066  0.059458  0.586115  1
  O  O47  1  0.105199  0.968445  0.592777  1
  O  O48  1  0.008653  0.441810  0.318021  1
  O  O49  1  0.059458  0.411066  0.913885  1
  O  O50  1  0.649128  0.639559  0.111064  1
  O  O51  1  0.449303  0.168247  0.351747  1
  O  O52  1  0.572291  0.906131  0.036027  1
  O  O53  1  0.360441  0.350872  0.611064  1
  O  O54  1  0.430923  0.668776  0.901788  1
  O  O55  1  0.885492  0.705068  0.259173  1
  O  O56  1  0.263888  0.806913  0.026313  1
  O  O57  1  0.554622  0.554622  0.750000  1
  O  O58  1  0.820983  0.285042  0.762601  1
  O  O59  1  0.558190  0.991347  0.818021  1
  O  O60  1  0.570245  0.296174  0.801642  1
  O  O61  1  0.736112  0.193087  0.973687  1
  O  O62  1  0.588934  0.940542  0.413885  1
  O  O63  1  0.894801  0.031555  0.407223  1
  O  O64  1  0.186919  0.269655  0.339713  1
  O  O65  1  0.831753  0.550697  0.851747  1
  O  O66  1  0.093869  0.427709  0.536027  1
  O  O67  1  0.550697  0.831753  0.648253  1
  O  O68  1  0.441810  0.008653  0.181979  1
  O  O69  1  0.940542  0.588934  0.086115  1
  O  O70  1  0.569077  0.331224  0.098212  1
  O  O71  1  0.965843  0.128443  0.181950  1
  O  O72  1  0.179017  0.714958  0.237399  1
  O  O73  1  0.269655  0.186919  0.160287  1
  O  O74  1  0.168247  0.449303  0.148253  1
  O  O75  1  0.714958  0.179017  0.262601  1
  O  O76  1  0.806913  0.263888  0.473687  1
  O  O77  1  0.034157  0.871557  0.818050  1
  O  O78  1  0.906131  0.572291  0.463973  1
  O  O79  1  0.429755  0.703826  0.198358  1
  O  O80  1  0.991347  0.558190  0.681979  1
  O  O81  1  0.285042  0.820983  0.737399  1
