# generated using pymatgen
data_K2NaTlO3
_symmetry_space_group_name_H-M   'P 1'
_cell_length_a   6.52136676
_cell_length_b   7.02618505
_cell_length_c   12.11741844
_cell_angle_alpha   90.00000000
_cell_angle_beta   95.24492521
_cell_angle_gamma   90.00000000
_symmetry_Int_Tables_number   1
_chemical_formula_structural   K2NaTlO3
_chemical_formula_sum   'K8 Na4 Tl4 O12'
_cell_volume   552.89939972
_cell_formula_units_Z   4
loop_
 _symmetry_equiv_pos_site_id
 _symmetry_equiv_pos_as_xyz
  1  'x, y, z'
loop_
 _atom_site_type_symbol
 _atom_site_label
 _atom_site_symmetry_multiplicity
 _atom_site_fract_x
 _atom_site_fract_y
 _atom_site_fract_z
 _atom_site_occupancy
  K  K0  1  0.578501  0.166349  0.147350  1
  K  K1  1  0.930454  0.640334  0.858109  1
  K  K2  1  0.069546  0.140334  0.641891  1
  K  K3  1  0.578501  0.333651  0.647350  1
  K  K4  1  0.421499  0.666349  0.352650  1
  K  K5  1  0.069546  0.359666  0.141891  1
  K  K6  1  0.421499  0.833651  0.852650  1
  K  K7  1  0.930454  0.859666  0.358109  1
  Na  Na8  1  0.359103  0.125063  0.413359  1
  Na  Na9  1  0.640897  0.874937  0.586641  1
  Na  Na10  1  0.640897  0.625063  0.086641  1
  Na  Na11  1  0.359103  0.374937  0.913359  1
  Tl  Tl12  1  0.147539  0.625994  0.590647  1
  Tl  Tl13  1  0.147539  0.874006  0.090647  1
  Tl  Tl14  1  0.852461  0.125994  0.909353  1
  Tl  Tl15  1  0.852461  0.374006  0.409353  1
  O  O16  1  0.245075  0.493369  0.744722  1
  O  O17  1  0.716040  0.118316  0.464606  1
  O  O18  1  0.716040  0.381684  0.964606  1
  O  O19  1  0.283960  0.618316  0.035394  1
  O  O20  1  0.805953  0.900288  0.042051  1
  O  O21  1  0.194047  0.099712  0.957949  1
  O  O22  1  0.194047  0.400288  0.457949  1
  O  O23  1  0.245075  0.006631  0.244722  1
  O  O24  1  0.754925  0.506631  0.255278  1
  O  O25  1  0.754925  0.993369  0.755278  1
  O  O26  1  0.283960  0.881684  0.535394  1
  O  O27  1  0.805953  0.599712  0.542051  1
