# generated using pymatgen
data_KLaPdO3
_symmetry_space_group_name_H-M   'P 1'
_cell_length_a   7.05747417
_cell_length_b   7.05747417
_cell_length_c   7.62269975
_cell_angle_alpha   75.20243302
_cell_angle_beta   104.79756698
_cell_angle_gamma   146.99355653
_symmetry_Int_Tables_number   1
_chemical_formula_structural   KLaPdO3
_chemical_formula_sum   'K2 La2 Pd2 O6'
_cell_volume   199.34675111
_cell_formula_units_Z   2
loop_
 _symmetry_equiv_pos_site_id
 _symmetry_equiv_pos_as_xyz
  1  'x, y, z'
loop_
 _atom_site_type_symbol
 _atom_site_label
 _atom_site_symmetry_multiplicity
 _atom_site_fract_x
 _atom_site_fract_y
 _atom_site_fract_z
 _atom_site_occupancy
  K  K0  1  0.357136  0.642864  0.434473  1
  K  K1  1  0.642864  0.357136  0.565527  1
  La  La2  1  0.650372  0.349628  0.083002  1
  La  La3  1  0.349628  0.650372  0.916998  1
  Pd  Pd4  1  0.006925  0.993075  0.771511  1
  Pd  Pd5  1  0.993075  0.006925  0.228488  1
  O  O6  1  0.848643  0.151357  0.716429  1
  O  O7  1  0.832290  0.167710  0.135831  1
  O  O8  1  0.507068  0.492932  0.810576  1
  O  O9  1  0.167710  0.832290  0.864169  1
  O  O10  1  0.492932  0.507068  0.189424  1
  O  O11  1  0.151357  0.848643  0.283571  1
