# generated using pymatgen
data_CsHCO2
_symmetry_space_group_name_H-M   'P 1'
_cell_length_a   4.92041719
_cell_length_b   8.07341567
_cell_length_c   9.72992108
_cell_angle_alpha   90.00000000
_cell_angle_beta   90.00000000
_cell_angle_gamma   90.00000000
_symmetry_Int_Tables_number   1
_chemical_formula_structural   CsHCO2
_chemical_formula_sum   'Cs4 H4 C4 O8'
_cell_volume   386.51696261
_cell_formula_units_Z   4
loop_
 _symmetry_equiv_pos_site_id
 _symmetry_equiv_pos_as_xyz
  1  'x, y, z'
loop_
 _atom_site_type_symbol
 _atom_site_label
 _atom_site_symmetry_multiplicity
 _atom_site_fract_x
 _atom_site_fract_y
 _atom_site_fract_z
 _atom_site_occupancy
  Cs  Cs0  1  0.950403  0.000000  0.250000  1
  Cs  Cs1  1  0.049597  0.500000  0.750000  1
  Cs  Cs2  1  0.049597  0.000000  0.750000  1
  Cs  Cs3  1  0.950403  0.500000  0.250000  1
  H  H4  1  0.563794  0.250000  0.970874  1
  H  H5  1  0.563794  0.750000  0.529126  1
  H  H6  1  0.436206  0.750000  0.029126  1
  H  H7  1  0.436206  0.250000  0.470874  1
  C  C8  1  0.393483  0.250000  0.047742  1
  C  C9  1  0.393483  0.750000  0.452258  1
  C  C10  1  0.606517  0.750000  0.952258  1
  C  C11  1  0.606517  0.250000  0.547742  1
  O  O12  1  0.461999  0.250000  0.173637  1
  O  O13  1  0.461999  0.750000  0.326363  1
  O  O14  1  0.538001  0.750000  0.826363  1
  O  O15  1  0.538001  0.250000  0.673637  1
  O  O16  1  0.153723  0.250000  0.999498  1
  O  O17  1  0.153723  0.750000  0.500502  1
  O  O18  1  0.846277  0.750000  0.000502  1
  O  O19  1  0.846277  0.250000  0.499498  1
