# generated using pymatgen
data_ZnS
_symmetry_space_group_name_H-M   'P 1'
_cell_length_a   25.25140551
_cell_length_b   25.25140551
_cell_length_c   25.25140551
_cell_angle_alpha   8.75590365
_cell_angle_beta   8.75590365
_cell_angle_gamma   8.75590365
_symmetry_Int_Tables_number   1
_chemical_formula_structural   ZnS
_chemical_formula_sum   'Zn8 S8'
_cell_volume   323.74637648
_cell_formula_units_Z   8
loop_
 _symmetry_equiv_pos_site_id
 _symmetry_equiv_pos_as_xyz
  1  'x, y, z'
loop_
 _atom_site_type_symbol
 _atom_site_label
 _atom_site_symmetry_multiplicity
 _atom_site_fract_x
 _atom_site_fract_y
 _atom_site_fract_z
 _atom_site_occupancy
  Zn  Zn0  1  0.708321  0.708321  0.708321  1
  Zn  Zn1  1  0.291655  0.291655  0.291655  1
  Zn  Zn2  1  0.583326  0.583326  0.583326  1
  Zn  Zn3  1  0.458328  0.458328  0.458328  1
  Zn  Zn4  1  0.999977  0.999977  0.999977  1
  Zn  Zn5  1  0.166658  0.166658  0.166658  1
  Zn  Zn6  1  0.083315  0.083315  0.083315  1
  Zn  Zn7  1  0.874990  0.874990  0.874990  1
  S  S8  1  0.427075  0.427075  0.427075  1
  S  S9  1  0.843761  0.843761  0.843761  1
  S  S10  1  0.260426  0.260426  0.260426  1
  S  S11  1  0.135449  0.135449  0.135449  1
  S  S12  1  0.552097  0.552097  0.552097  1
  S  S13  1  0.677071  0.677071  0.677071  1
  S  S14  1  0.968760  0.968760  0.968760  1
  S  S15  1  0.052117  0.052117  0.052117  1
