# generated using pymatgen
data_Na2FeCuF7
_symmetry_space_group_name_H-M   'P 1'
_cell_length_a   7.32055722
_cell_length_b   7.32055722
_cell_length_c   13.10348780
_cell_angle_alpha   73.15648080
_cell_angle_beta   106.84351920
_cell_angle_gamma   118.70149467
_symmetry_Int_Tables_number   1
_chemical_formula_structural   Na2FeCuF7
_chemical_formula_sum   'Na8 Fe4 Cu4 F28'
_cell_volume   579.95569312
_cell_formula_units_Z   4
loop_
 _symmetry_equiv_pos_site_id
 _symmetry_equiv_pos_as_xyz
  1  'x, y, z'
loop_
 _atom_site_type_symbol
 _atom_site_label
 _atom_site_symmetry_multiplicity
 _atom_site_fract_x
 _atom_site_fract_y
 _atom_site_fract_z
 _atom_site_occupancy
  Na  Na0  1  0.500000  0.500000  0.000000  1
  Na  Na1  1  0.500000  0.500000  0.500000  1
  Na  Na2  1  0.271431  0.271431  0.750000  1
  Na  Na3  1  0.728569  0.728569  0.250000  1
  Na  Na4  1  0.714299  0.207569  0.254275  1
  Na  Na5  1  0.792431  0.285701  0.754275  1
  Na  Na6  1  0.285701  0.792431  0.745725  1
  Na  Na7  1  0.207569  0.714299  0.245725  1
  Fe  Fe8  1  0.500000  1.000000  0.000000  1
  Fe  Fe9  1  0.257449  0.257449  0.250000  1
  Fe  Fe10  1  0.000000  0.500000  0.500000  1
  Fe  Fe11  1  0.742551  0.742551  0.750000  1
  Cu  Cu12  1  0.000000  0.500000  0.000000  1
  Cu  Cu13  1  0.500000  1.000000  0.500000  1
  Cu  Cu14  1  0.000000  1.000000  0.500000  1
  Cu  Cu15  1  0.000000  0.000000  0.000000  1
  F  F16  1  0.894975  0.578229  0.847992  1
  F  F17  1  0.578229  0.894975  0.652008  1
  F  F18  1  0.105025  0.421771  0.152008  1
  F  F19  1  0.421771  0.105025  0.347992  1
  F  F20  1  0.597330  0.501158  0.674169  1
  F  F21  1  0.501158  0.597330  0.825831  1
  F  F22  1  0.402670  0.498842  0.325831  1
  F  F23  1  0.498842  0.402670  0.174169  1
  F  F24  1  0.041535  0.293713  0.950797  1
  F  F25  1  0.293713  0.041535  0.549203  1
  F  F26  1  0.958465  0.706287  0.049203  1
  F  F27  1  0.706287  0.958465  0.450797  1
  F  F28  1  0.103359  0.279187  0.535008  1
  F  F29  1  0.279187  0.103359  0.964992  1
  F  F30  1  0.896641  0.720813  0.464992  1
  F  F31  1  0.720813  0.896641  0.035008  1
  F  F32  1  0.501965  0.086987  0.842063  1
  F  F33  1  0.086987  0.501965  0.657937  1
  F  F34  1  0.498035  0.913013  0.157937  1
  F  F35  1  0.913013  0.498035  0.342063  1
  F  F36  1  0.880804  0.986261  0.822593  1
  F  F37  1  0.986261  0.880804  0.677407  1
  F  F38  1  0.119196  0.013739  0.177407  1
  F  F39  1  0.013739  0.119196  0.322593  1
  F  F40  1  0.688135  0.281926  0.031531  1
  F  F41  1  0.281926  0.688135  0.468469  1
  F  F42  1  0.311865  0.718074  0.968469  1
  F  F43  1  0.718074  0.311865  0.531531  1
