# generated using pymatgen
data_Na4Sc2Si4O13
_symmetry_space_group_name_H-M   'P 1'
_cell_length_a   5.35548856
_cell_length_b   14.36599041
_cell_length_c   14.59153500
_cell_angle_alpha   90.00000000
_cell_angle_beta   90.00000000
_cell_angle_gamma   90.00000000
_symmetry_Int_Tables_number   1
_chemical_formula_structural   Na4Sc2Si4O13
_chemical_formula_sum   'Na16 Sc8 Si16 O52'
_cell_volume   1122.62742965
_cell_formula_units_Z   4
loop_
 _symmetry_equiv_pos_site_id
 _symmetry_equiv_pos_as_xyz
  1  'x, y, z'
loop_
 _atom_site_type_symbol
 _atom_site_label
 _atom_site_symmetry_multiplicity
 _atom_site_fract_x
 _atom_site_fract_y
 _atom_site_fract_z
 _atom_site_occupancy
  Na  Na0  1  0.807229  0.948853  0.211542  1
  Na  Na1  1  0.176197  0.422341  0.914978  1
  Na  Na2  1  0.780107  0.301702  0.835242  1
  Na  Na3  1  0.219893  0.698298  0.335242  1
  Na  Na4  1  0.826051  0.670483  0.622179  1
  Na  Na5  1  0.692771  0.448853  0.211542  1
  Na  Na6  1  0.173949  0.329517  0.122179  1
  Na  Na7  1  0.307229  0.551147  0.711542  1
  Na  Na8  1  0.676197  0.077659  0.414978  1
  Na  Na9  1  0.323803  0.922341  0.914978  1
  Na  Na10  1  0.823803  0.577659  0.414978  1
  Na  Na11  1  0.280107  0.198298  0.335242  1
  Na  Na12  1  0.719893  0.801702  0.835242  1
  Na  Na13  1  0.192771  0.051147  0.711542  1
  Na  Na14  1  0.673949  0.170483  0.622179  1
  Na  Na15  1  0.326051  0.829517  0.122179  1
  Sc  Sc16  1  0.690019  0.330232  0.420573  1
  Sc  Sc17  1  0.809981  0.830232  0.420573  1
  Sc  Sc18  1  0.349878  0.079259  0.127149  1
  Sc  Sc19  1  0.190019  0.169768  0.920573  1
  Sc  Sc20  1  0.150122  0.579259  0.127149  1
  Sc  Sc21  1  0.650122  0.920741  0.627149  1
  Sc  Sc22  1  0.849878  0.420741  0.627149  1
  Sc  Sc23  1  0.309981  0.669768  0.920573  1
  Si  Si24  1  0.350674  0.522513  0.500058  1
  Si  Si25  1  0.298910  0.941534  0.320024  1
  Si  Si26  1  0.327253  0.726851  0.545867  1
  Si  Si27  1  0.701090  0.058466  0.820024  1
  Si  Si28  1  0.149326  0.022513  0.500058  1
  Si  Si29  1  0.649326  0.477487  0.000058  1
  Si  Si30  1  0.672747  0.273149  0.045867  1
  Si  Si31  1  0.172747  0.226851  0.545867  1
  Si  Si32  1  0.825373  0.193606  0.227785  1
  Si  Si33  1  0.827253  0.773149  0.045867  1
  Si  Si34  1  0.201090  0.441534  0.320024  1
  Si  Si35  1  0.674627  0.693606  0.227785  1
  Si  Si36  1  0.798910  0.558466  0.820024  1
  Si  Si37  1  0.174627  0.806394  0.727785  1
  Si  Si38  1  0.325373  0.306394  0.727785  1
  Si  Si39  1  0.850674  0.977487  0.000058  1
  O  O40  1  0.887068  0.144862  0.841142  1
  O  O41  1  0.481440  0.626575  0.524189  1
  O  O42  1  0.567558  0.771012  0.989071  1
  O  O43  1  0.792456  0.967498  0.887317  1
  O  O44  1  0.683175  0.724372  0.336099  1
  O  O45  1  0.316825  0.275628  0.836099  1
  O  O46  1  0.207544  0.032502  0.387317  1
  O  O47  1  0.707544  0.467498  0.887317  1
  O  O48  1  0.110861  0.173488  0.193929  1
  O  O49  1  0.633586  0.106971  0.216539  1
  O  O50  1  0.755275  0.531367  0.711942  1
  O  O51  1  0.962572  0.308104  0.530734  1
  O  O52  1  0.432442  0.228988  0.489071  1
  O  O53  1  0.932442  0.271012  0.989071  1
  O  O54  1  0.591336  0.925384  0.347055  1
  O  O55  1  0.074517  0.053502  0.015550  1
  O  O56  1  0.925483  0.946498  0.515550  1
  O  O57  1  0.091336  0.574616  0.847055  1
  O  O58  1  0.729200  0.282573  0.159000  1
  O  O59  1  0.067558  0.728988  0.489071  1
  O  O60  1  0.389139  0.673488  0.193929  1
  O  O61  1  0.462572  0.191896  0.030734  1
  O  O62  1  0.574517  0.446498  0.515550  1
  O  O63  1  0.244725  0.468633  0.211942  1
  O  O64  1  0.596175  0.985248  0.058134  1
  O  O65  1  0.018560  0.126575  0.524189  1
  O  O66  1  0.889139  0.826512  0.693929  1
  O  O67  1  0.425483  0.553502  0.015550  1
  O  O68  1  0.903825  0.485248  0.058134  1
  O  O69  1  0.112932  0.855138  0.341142  1
  O  O70  1  0.366414  0.893029  0.716539  1
  O  O71  1  0.408664  0.074616  0.847055  1
  O  O72  1  0.270800  0.717427  0.659000  1
  O  O73  1  0.908664  0.425384  0.347055  1
  O  O74  1  0.096175  0.514752  0.558134  1
  O  O75  1  0.610861  0.326512  0.693929  1
  O  O76  1  0.744725  0.031367  0.711942  1
  O  O77  1  0.183175  0.775628  0.836099  1
  O  O78  1  0.770800  0.782573  0.159000  1
  O  O79  1  0.229200  0.217427  0.659000  1
  O  O80  1  0.387068  0.355138  0.341142  1
  O  O81  1  0.255275  0.968633  0.211942  1
  O  O82  1  0.816825  0.224372  0.336099  1
  O  O83  1  0.866414  0.606971  0.216539  1
  O  O84  1  0.981440  0.873425  0.024189  1
  O  O85  1  0.133586  0.393029  0.716539  1
  O  O86  1  0.537428  0.808104  0.530734  1
  O  O87  1  0.037428  0.691896  0.030734  1
  O  O88  1  0.403825  0.014752  0.558134  1
  O  O89  1  0.612932  0.644862  0.841142  1
  O  O90  1  0.518560  0.373425  0.024189  1
  O  O91  1  0.292456  0.532502  0.387317  1
