# generated using pymatgen
data_CeNbO4
_symmetry_space_group_name_H-M   'P 1'
_cell_length_a   6.91981697
_cell_length_b   6.91981697
_cell_length_c   6.91981697
_cell_angle_alpha   134.08116711
_cell_angle_beta   134.08116711
_cell_angle_gamma   66.96126014
_symmetry_Int_Tables_number   1
_chemical_formula_structural   CeNbO4
_chemical_formula_sum   'Ce2 Nb2 O8'
_cell_volume   168.21035873
_cell_formula_units_Z   2
loop_
 _symmetry_equiv_pos_site_id
 _symmetry_equiv_pos_as_xyz
  1  'x, y, z'
loop_
 _atom_site_type_symbol
 _atom_site_label
 _atom_site_symmetry_multiplicity
 _atom_site_fract_x
 _atom_site_fract_y
 _atom_site_fract_z
 _atom_site_occupancy
  Ce  Ce0  1  0.000000  0.000000  0.000000  1
  Ce  Ce1  1  0.750000  0.250000  0.500000  1
  Nb  Nb2  1  0.500000  0.500000  0.000000  1
  Nb  Nb3  1  0.250000  0.750000  0.500000  1
  O  O4  1  0.163936  0.247386  0.585206  1
  O  O5  1  0.997386  0.912179  0.583450  1
  O  O6  1  0.752614  0.337821  0.916550  1
  O  O7  1  0.328729  0.413936  0.416550  1
  O  O8  1  0.421271  0.836064  0.083450  1
  O  O9  1  0.586064  0.002614  0.914794  1
  O  O10  1  0.662179  0.578729  0.414794  1
  O  O11  1  0.087821  0.671271  0.085206  1
