# generated using pymatgen
data_Pm2O3
_symmetry_space_group_name_H-M   'P 1'
_cell_length_a   7.46748730
_cell_length_b   7.46748730
_cell_length_c   8.97328172
_cell_angle_alpha   80.02914771
_cell_angle_beta   99.97085229
_cell_angle_gamma   151.66814475
_symmetry_Int_Tables_number   1
_chemical_formula_structural   Pm2O3
_chemical_formula_sum   'Pm6 O9'
_cell_volume   233.65224042
_cell_formula_units_Z   3
loop_
 _symmetry_equiv_pos_site_id
 _symmetry_equiv_pos_as_xyz
  1  'x, y, z'
loop_
 _atom_site_type_symbol
 _atom_site_label
 _atom_site_symmetry_multiplicity
 _atom_site_fract_x
 _atom_site_fract_y
 _atom_site_fract_z
 _atom_site_occupancy
  Pm  Pm0  1  0.032221  0.967779  0.813423  1
  Pm  Pm1  1  0.633813  0.366187  0.489390  1
  Pm  Pm2  1  0.967779  0.032221  0.186577  1
  Pm  Pm3  1  0.307555  0.692445  0.860967  1
  Pm  Pm4  1  0.366187  0.633813  0.510610  1
  Pm  Pm5  1  0.692445  0.307555  0.139033  1
  O  O6  1  0.870669  0.129331  0.714682  1
  O  O7  1  0.473420  0.526580  0.343520  1
  O  O8  1  0.797942  0.202058  0.373985  1
  O  O9  1  0.202058  0.797942  0.626015  1
  O  O10  1  0.500000  0.500000  0.000000  1
  O  O11  1  0.129331  0.870669  0.285318  1
  O  O12  1  0.174869  0.825131  0.973271  1
  O  O13  1  0.825131  0.174869  0.026729  1
  O  O14  1  0.526580  0.473420  0.656480  1
