# generated using pymatgen
data_Li3Mo(PO3)8
_symmetry_space_group_name_H-M   'P 1'
_cell_length_a   7.31533500
_cell_length_b   7.31533500
_cell_length_c   10.11335063
_cell_angle_alpha   66.27490953
_cell_angle_beta   113.72509047
_cell_angle_gamma   110.57745372
_symmetry_Int_Tables_number   1
_chemical_formula_structural   Li3Mo(PO3)8
_chemical_formula_sum   'Li3 Mo1 P8 O24'
_cell_volume   441.83643632
_cell_formula_units_Z   1
loop_
 _symmetry_equiv_pos_site_id
 _symmetry_equiv_pos_as_xyz
  1  'x, y, z'
loop_
 _atom_site_type_symbol
 _atom_site_label
 _atom_site_symmetry_multiplicity
 _atom_site_fract_x
 _atom_site_fract_y
 _atom_site_fract_z
 _atom_site_occupancy
  Li  Li0  1  0.452575  0.452575  0.500000  1
  Li  Li1  1  0.047109  0.487125  0.287419  1
  Li  Li2  1  0.487125  0.047109  0.712581  1
  Mo  Mo3  1  0.552379  0.552379  0.000000  1
  P  P4  1  0.238833  0.231393  0.226859  1
  P  P5  1  0.187361  0.787589  0.956112  1
  P  P6  1  0.787589  0.187361  0.043888  1
  P  P7  1  0.745341  0.771335  0.274635  1
  P  P8  1  0.210817  0.812342  0.443873  1
  P  P9  1  0.231393  0.238833  0.773141  1
  P  P10  1  0.771335  0.745341  0.725365  1
  P  P11  1  0.812342  0.210817  0.556127  1
  O  O12  1  0.575862  0.660603  0.338783  1
  O  O13  1  0.306229  0.868028  0.586164  1
  O  O14  1  0.269132  0.004305  0.296592  1
  O  O15  1  0.629041  0.237670  0.568298  1
  O  O16  1  0.962822  0.796953  0.394688  1
  O  O17  1  0.375304  0.749804  0.943651  1
  O  O18  1  0.683877  0.137153  0.900787  1
  O  O19  1  0.004305  0.269132  0.703408  1
  O  O20  1  0.237670  0.629041  0.431702  1
  O  O21  1  0.221822  0.308447  0.334384  1
  O  O22  1  0.223725  0.031961  0.917211  1
  O  O23  1  0.749804  0.375304  0.056349  1
  O  O24  1  0.660603  0.575862  0.661217  1
  O  O25  1  0.352181  0.410153  0.850417  1
  O  O26  1  0.031961  0.223725  0.082789  1
  O  O27  1  0.682810  0.752462  0.842432  1
  O  O28  1  0.752462  0.682810  0.157568  1
  O  O29  1  0.137153  0.683877  0.099213  1
  O  O30  1  0.796953  0.962822  0.605312  1
  O  O31  1  0.006830  0.728630  0.814375  1
  O  O32  1  0.410153  0.352181  0.149583  1
  O  O33  1  0.868028  0.306229  0.413836  1
  O  O34  1  0.308447  0.221822  0.665616  1
  O  O35  1  0.728630  0.006830  0.185625  1
