# generated using pymatgen
data_Ni4P7O24
_symmetry_space_group_name_H-M   'P 1'
_cell_length_a   10.34801876
_cell_length_b   10.40372629
_cell_length_c   10.75258964
_cell_angle_alpha   111.31719905
_cell_angle_beta   108.46781086
_cell_angle_gamma   104.50225467
_symmetry_Int_Tables_number   1
_chemical_formula_structural   Ni4P7O24
_chemical_formula_sum   'Ni8 P14 O48'
_cell_volume   931.21651806
_cell_formula_units_Z   2
loop_
 _symmetry_equiv_pos_site_id
 _symmetry_equiv_pos_as_xyz
  1  'x, y, z'
loop_
 _atom_site_type_symbol
 _atom_site_label
 _atom_site_symmetry_multiplicity
 _atom_site_fract_x
 _atom_site_fract_y
 _atom_site_fract_z
 _atom_site_occupancy
  Ni  Ni0  1  0.894576  0.503890  0.741376  1
  Ni  Ni1  1  0.381543  0.999737  0.075892  1
  Ni  Ni2  1  0.664328  0.508208  0.880593  1
  Ni  Ni3  1  0.832153  0.983487  0.417675  1
  Ni  Ni4  1  0.167847  0.016513  0.582325  1
  Ni  Ni5  1  0.335672  0.491792  0.119407  1
  Ni  Ni6  1  0.618457  0.000263  0.924108  1
  Ni  Ni7  1  0.105424  0.496110  0.258624  1
  P  P8  1  0.457999  0.243785  0.949732  1
  P  P9  1  0.542001  0.756215  0.050268  1
  P  P10  1  0.177586  0.727882  0.116316  1
  P  P11  1  0.387829  0.253692  0.521048  1
  P  P12  1  0.822414  0.272118  0.883684  1
  P  P13  1  0.034505  0.260178  0.753555  1
  P  P14  1  0.946687  0.201099  0.262808  1
  P  P15  1  0.618966  0.192002  0.434627  1
  P  P16  1  0.223102  0.233605  0.225114  1
  P  P17  1  0.381034  0.807998  0.565373  1
  P  P18  1  0.053313  0.798901  0.737192  1
  P  P19  1  0.965495  0.739822  0.246445  1
  P  P20  1  0.612171  0.746308  0.478952  1
  P  P21  1  0.776898  0.766395  0.774886  1
  O  O22  1  0.262963  0.121977  0.130010  1
  O  O23  1  0.203905  0.866005  0.873376  1
  O  O24  1  0.987109  0.627330  0.661935  1
  O  O25  1  0.069058  0.643243  0.951157  1
  O  O26  1  0.719521  0.357354  0.537939  1
  O  O27  1  0.561962  0.647022  0.923140  1
  O  O28  1  0.565665  0.147215  0.268909  1
  O  O29  1  0.781405  0.634766  0.804942  1
  O  O30  1  0.796095  0.133995  0.126624  1
  O  O31  1  0.012891  0.372670  0.338065  1
  O  O32  1  0.930942  0.356757  0.048843  1
  O  O33  1  0.737037  0.878023  0.869990  1
  O  O34  1  0.280479  0.642646  0.462061  1
  O  O35  1  0.438038  0.352978  0.076860  1
  O  O36  1  0.434335  0.852785  0.731091  1
  O  O37  1  0.218595  0.365234  0.195058  1
  O  O38  1  0.529012  0.848039  0.538673  1
  O  O39  1  0.990466  0.624301  0.297708  1
  O  O40  1  0.662976  0.688013  0.599200  1
  O  O41  1  0.938222  0.856055  0.792859  1
  O  O42  1  0.505846  0.609261  0.330771  1
  O  O43  1  0.077094  0.864435  0.637820  1
  O  O44  1  0.494191  0.123124  0.988802  1
  O  O45  1  0.312348  0.916133  0.540891  1
  O  O46  1  0.819268  0.652716  0.103334  1
  O  O47  1  0.684479  0.140741  0.842827  1
  O  O48  1  0.098907  0.807111  0.210940  1
  O  O49  1  0.751997  0.846750  0.489834  1
  O  O50  1  0.976866  0.879218  0.371824  1
  O  O51  1  0.212347  0.616070  0.171178  1
  O  O52  1  0.410182  0.642424  0.046767  1
  O  O53  1  0.322359  0.155511  0.796824  1
  O  O54  1  0.677641  0.844489  0.203176  1
  O  O55  1  0.589818  0.357576  0.953233  1
  O  O56  1  0.787653  0.383930  0.828822  1
  O  O57  1  0.023134  0.120782  0.628176  1
  O  O58  1  0.248003  0.153250  0.510166  1
  O  O59  1  0.901093  0.192889  0.789060  1
  O  O60  1  0.315521  0.859259  0.157173  1
  O  O61  1  0.180732  0.347284  0.896666  1
  O  O62  1  0.687652  0.083867  0.459109  1
  O  O63  1  0.505809  0.876876  0.011198  1
  O  O64  1  0.922906  0.135565  0.362180  1
  O  O65  1  0.494154  0.390739  0.669229  1
  O  O66  1  0.061778  0.143945  0.207141  1
  O  O67  1  0.470988  0.151961  0.461327  1
  O  O68  1  0.009534  0.375699  0.702292  1
  O  O69  1  0.337024  0.311987  0.400800  1
