# generated using pymatgen
data_U3Cu2Se7
_symmetry_space_group_name_H-M   'P 1'
_cell_length_a   10.15901768
_cell_length_b   10.15901768
_cell_length_c   5.97038724
_cell_angle_alpha   90.00000000
_cell_angle_beta   90.00000000
_cell_angle_gamma   120.00000000
_symmetry_Int_Tables_number   1
_chemical_formula_structural   U3Cu2Se7
_chemical_formula_sum   'U6 Cu4 Se14'
_cell_volume   533.62548748
_cell_formula_units_Z   2
loop_
 _symmetry_equiv_pos_site_id
 _symmetry_equiv_pos_as_xyz
  1  'x, y, z'
loop_
 _atom_site_type_symbol
 _atom_site_label
 _atom_site_symmetry_multiplicity
 _atom_site_fract_x
 _atom_site_fract_y
 _atom_site_fract_z
 _atom_site_occupancy
  U  U0  1  0.847767  0.621391  0.526727  1
  U  U1  1  0.226376  0.847767  0.026727  1
  U  U2  1  0.152233  0.378609  0.026727  1
  U  U3  1  0.378609  0.226376  0.526727  1
  U  U4  1  0.621391  0.773624  0.026727  1
  U  U5  1  0.773624  0.152233  0.526727  1
  Cu  Cu6  1  0.666667  0.333333  0.159125  1
  Cu  Cu7  1  0.000000  0.000000  0.000175  1
  Cu  Cu8  1  0.333333  0.666667  0.659125  1
  Cu  Cu9  1  0.000000  0.000000  0.500175  1
  Se  Se10  1  0.076455  0.564444  0.779191  1
  Se  Se11  1  0.264557  0.154444  0.013645  1
  Se  Se12  1  0.435556  0.512011  0.779191  1
  Se  Se13  1  0.666667  0.333333  0.753110  1
  Se  Se14  1  0.154444  0.889887  0.513645  1
  Se  Se15  1  0.889887  0.735443  0.013645  1
  Se  Se16  1  0.333333  0.666667  0.253110  1
  Se  Se17  1  0.110113  0.264557  0.513645  1
  Se  Se18  1  0.512011  0.076455  0.279191  1
  Se  Se19  1  0.923545  0.435556  0.279191  1
  Se  Se20  1  0.564444  0.487989  0.279191  1
  Se  Se21  1  0.735443  0.845556  0.513645  1
  Se  Se22  1  0.487989  0.923545  0.779191  1
  Se  Se23  1  0.845556  0.110113  0.013645  1
