# generated using pymatgen
data_Ca4Si6Pb6Cl2O21
_symmetry_space_group_name_H-M   'P 1'
_cell_length_a   10.27248080
_cell_length_b   10.27248080
_cell_length_c   13.44940270
_cell_angle_alpha   90.00000000
_cell_angle_beta   90.00000000
_cell_angle_gamma   120.00000000
_symmetry_Int_Tables_number   1
_chemical_formula_structural   Ca4Si6Pb6Cl2O21
_chemical_formula_sum   'Ca8 Si12 Pb12 Cl4 O42'
_cell_volume   1229.09175448
_cell_formula_units_Z   2
loop_
 _symmetry_equiv_pos_site_id
 _symmetry_equiv_pos_as_xyz
  1  'x, y, z'
loop_
 _atom_site_type_symbol
 _atom_site_label
 _atom_site_symmetry_multiplicity
 _atom_site_fract_x
 _atom_site_fract_y
 _atom_site_fract_z
 _atom_site_occupancy
  Ca  Ca0  1  0.333333  0.666667  0.993440  1
  Ca  Ca1  1  0.666667  0.333333  0.006560  1
  Ca  Ca2  1  0.666667  0.333333  0.493440  1
  Ca  Ca3  1  0.666667  0.333333  0.250000  1
  Ca  Ca4  1  0.333333  0.666667  0.506560  1
  Ca  Ca5  1  0.333333  0.666667  0.250000  1
  Ca  Ca6  1  0.666667  0.333333  0.750000  1
  Ca  Ca7  1  0.333333  0.666667  0.750000  1
  Si  Si8  1  0.974709  0.577733  0.636468  1
  Si  Si9  1  0.577733  0.603024  0.136468  1
  Si  Si10  1  0.603024  0.025291  0.863532  1
  Si  Si11  1  0.422267  0.396976  0.863532  1
  Si  Si12  1  0.396976  0.974709  0.363532  1
  Si  Si13  1  0.577733  0.603024  0.363532  1
  Si  Si14  1  0.396976  0.974709  0.136468  1
  Si  Si15  1  0.025291  0.422267  0.136468  1
  Si  Si16  1  0.025291  0.422267  0.363532  1
  Si  Si17  1  0.422267  0.396976  0.636468  1
  Si  Si18  1  0.603024  0.025291  0.636468  1
  Si  Si19  1  0.974709  0.577733  0.863532  1
  Pb  Pb20  1  0.987650  0.255303  0.892404  1
  Pb  Pb21  1  0.012350  0.744697  0.392404  1
  Pb  Pb22  1  0.732347  0.987650  0.392404  1
  Pb  Pb23  1  0.732347  0.987650  0.107596  1
  Pb  Pb24  1  0.744697  0.732347  0.892404  1
  Pb  Pb25  1  0.255303  0.267653  0.392404  1
  Pb  Pb26  1  0.267653  0.012350  0.892404  1
  Pb  Pb27  1  0.255303  0.267653  0.107596  1
  Pb  Pb28  1  0.267653  0.012350  0.607596  1
  Pb  Pb29  1  0.744697  0.732347  0.607596  1
  Pb  Pb30  1  0.012350  0.744697  0.107596  1
  Pb  Pb31  1  0.987650  0.255303  0.607596  1
  Cl  Cl32  1  0.000000  0.000000  0.250000  1
  Cl  Cl33  1  0.000000  0.000000  0.750000  1
  Cl  Cl34  1  0.000000  0.000000  0.500000  1
  Cl  Cl35  1  0.000000  0.000000  0.000000  1
  O  O36  1  0.929396  0.614202  0.750000  1
  O  O37  1  0.073232  0.330313  0.056645  1
  O  O38  1  0.070604  0.385798  0.250000  1
  O  O39  1  0.148940  0.623833  0.628505  1
  O  O40  1  0.463823  0.859090  0.121157  1
  O  O41  1  0.315194  0.929396  0.250000  1
  O  O42  1  0.330313  0.257081  0.943355  1
  O  O43  1  0.604733  0.463823  0.878843  1
  O  O44  1  0.257081  0.926768  0.443355  1
  O  O45  1  0.395267  0.536177  0.378843  1
  O  O46  1  0.859090  0.395267  0.878843  1
  O  O47  1  0.742919  0.073232  0.556645  1
  O  O48  1  0.669687  0.742919  0.443355  1
  O  O49  1  0.463823  0.859090  0.378843  1
  O  O50  1  0.536177  0.140910  0.621157  1
  O  O51  1  0.623833  0.474893  0.371495  1
  O  O52  1  0.474893  0.851060  0.871495  1
  O  O53  1  0.742919  0.073232  0.943355  1
  O  O54  1  0.669687  0.742919  0.056645  1
  O  O55  1  0.140910  0.604733  0.378843  1
  O  O56  1  0.851060  0.376167  0.371495  1
  O  O57  1  0.148940  0.623833  0.871495  1
  O  O58  1  0.385798  0.315194  0.750000  1
  O  O59  1  0.525107  0.148940  0.371495  1
  O  O60  1  0.140910  0.604733  0.121157  1
  O  O61  1  0.073232  0.330313  0.443355  1
  O  O62  1  0.926768  0.669687  0.556645  1
  O  O63  1  0.395267  0.536177  0.121157  1
  O  O64  1  0.623833  0.474893  0.128505  1
  O  O65  1  0.851060  0.376167  0.128505  1
  O  O66  1  0.536177  0.140910  0.878843  1
  O  O67  1  0.684806  0.070604  0.750000  1
  O  O68  1  0.330313  0.257081  0.556645  1
  O  O69  1  0.474893  0.851060  0.628505  1
  O  O70  1  0.525107  0.148940  0.128505  1
  O  O71  1  0.859090  0.395267  0.621157  1
  O  O72  1  0.257081  0.926768  0.056645  1
  O  O73  1  0.376167  0.525107  0.871495  1
  O  O74  1  0.604733  0.463823  0.621157  1
  O  O75  1  0.614202  0.684806  0.250000  1
  O  O76  1  0.376167  0.525107  0.628505  1
  O  O77  1  0.926768  0.669687  0.943355  1
