# generated using pymatgen
data_HfNi5
_symmetry_space_group_name_H-M   'P 1'
_cell_length_a   4.71004059
_cell_length_b   4.71004059
_cell_length_c   4.71004059
_cell_angle_alpha   60.00000000
_cell_angle_beta   60.00000000
_cell_angle_gamma   60.00000000
_symmetry_Int_Tables_number   1
_chemical_formula_structural   HfNi5
_chemical_formula_sum   'Hf1 Ni5'
_cell_volume   73.88545509
_cell_formula_units_Z   1
loop_
 _symmetry_equiv_pos_site_id
 _symmetry_equiv_pos_as_xyz
  1  'x, y, z'
loop_
 _atom_site_type_symbol
 _atom_site_label
 _atom_site_symmetry_multiplicity
 _atom_site_fract_x
 _atom_site_fract_y
 _atom_site_fract_z
 _atom_site_occupancy
  Hf  Hf0  1  0.000000  0.000000  0.000000  1
  Ni  Ni1  1  0.375828  0.375828  0.375828  1
  Ni  Ni2  1  0.375828  0.375828  0.872515  1
  Ni  Ni3  1  0.750000  0.750000  0.750000  1
  Ni  Ni4  1  0.872515  0.375828  0.375828  1
  Ni  Ni5  1  0.375828  0.872515  0.375828  1
