# generated using pymatgen
data_Rb2SbAuS4
_symmetry_space_group_name_H-M   'P 1'
_cell_length_a   7.03085122
_cell_length_b   7.40093514
_cell_length_c   20.51561163
_cell_angle_alpha   90.00000000
_cell_angle_beta   90.00000000
_cell_angle_gamma   90.00000000
_symmetry_Int_Tables_number   1
_chemical_formula_structural   Rb2SbAuS4
_chemical_formula_sum   'Rb8 Sb4 Au4 S16'
_cell_volume   1067.52726329
_cell_formula_units_Z   4
loop_
 _symmetry_equiv_pos_site_id
 _symmetry_equiv_pos_as_xyz
  1  'x, y, z'
loop_
 _atom_site_type_symbol
 _atom_site_label
 _atom_site_symmetry_multiplicity
 _atom_site_fract_x
 _atom_site_fract_y
 _atom_site_fract_z
 _atom_site_occupancy
  Rb  Rb0  1  0.295928  0.750000  0.987854  1
  Rb  Rb1  1  0.900300  0.250000  0.329108  1
  Rb  Rb2  1  0.704072  0.250000  0.012146  1
  Rb  Rb3  1  0.295928  0.250000  0.512146  1
  Rb  Rb4  1  0.099700  0.750000  0.670892  1
  Rb  Rb5  1  0.099700  0.250000  0.829108  1
  Rb  Rb6  1  0.704072  0.750000  0.487854  1
  Rb  Rb7  1  0.900300  0.750000  0.170892  1
  Sb  Sb8  1  0.792101  0.750000  0.889049  1
  Sb  Sb9  1  0.792101  0.250000  0.610951  1
  Sb  Sb10  1  0.207899  0.250000  0.110951  1
  Sb  Sb11  1  0.207899  0.750000  0.389049  1
  Au  Au12  1  0.609714  0.000000  0.750000  1
  Au  Au13  1  0.390286  0.000000  0.250000  1
  Au  Au14  1  0.609714  0.500000  0.750000  1
  Au  Au15  1  0.390286  0.500000  0.250000  1
  S  S16  1  0.611178  0.516769  0.637506  1
  S  S17  1  0.798051  0.250000  0.496941  1
  S  S18  1  0.388822  0.016769  0.362494  1
  S  S19  1  0.089807  0.250000  0.660947  1
  S  S20  1  0.611178  0.983231  0.637506  1
  S  S21  1  0.611178  0.483231  0.862494  1
  S  S22  1  0.201949  0.250000  0.996941  1
  S  S23  1  0.910193  0.250000  0.160947  1
  S  S24  1  0.201949  0.750000  0.503059  1
  S  S25  1  0.388822  0.483231  0.362494  1
  S  S26  1  0.611178  0.016769  0.862494  1
  S  S27  1  0.388822  0.516769  0.137506  1
  S  S28  1  0.910193  0.750000  0.339053  1
  S  S29  1  0.798051  0.750000  0.003059  1
  S  S30  1  0.089807  0.750000  0.839053  1
  S  S31  1  0.388822  0.983231  0.137506  1
