# generated using pymatgen
data_CsV2O5
_symmetry_space_group_name_H-M   'P 1'
_cell_length_a   7.44175982
_cell_length_b   10.00155710
_cell_length_c   7.97414597
_cell_angle_alpha   90.00000000
_cell_angle_beta   90.60940732
_cell_angle_gamma   90.00000000
_symmetry_Int_Tables_number   1
_chemical_formula_structural   CsV2O5
_chemical_formula_sum   'Cs4 V8 O20'
_cell_volume   593.47562028
_cell_formula_units_Z   4
loop_
 _symmetry_equiv_pos_site_id
 _symmetry_equiv_pos_as_xyz
  1  'x, y, z'
loop_
 _atom_site_type_symbol
 _atom_site_label
 _atom_site_symmetry_multiplicity
 _atom_site_fract_x
 _atom_site_fract_y
 _atom_site_fract_z
 _atom_site_occupancy
  Cs  Cs0  1  0.598601  0.873825  0.230904  1
  Cs  Cs1  1  0.401399  0.373825  0.269096  1
  Cs  Cs2  1  0.401399  0.126175  0.769096  1
  Cs  Cs3  1  0.598601  0.626175  0.730904  1
  V  V4  1  0.111989  0.022951  0.335956  1
  V  V5  1  0.888011  0.522951  0.164044  1
  V  V6  1  0.888011  0.977049  0.664044  1
  V  V7  1  0.111989  0.477049  0.835956  1
  V  V8  1  0.121188  0.795160  0.987711  1
  V  V9  1  0.878812  0.295160  0.512289  1
  V  V10  1  0.878812  0.204840  0.012289  1
  V  V11  1  0.121188  0.704840  0.487711  1
  O  O12  1  0.108058  0.871860  0.184907  1
  O  O13  1  0.891942  0.371860  0.315093  1
  O  O14  1  0.891942  0.128140  0.815093  1
  O  O15  1  0.108058  0.628140  0.684907  1
  O  O16  1  0.329325  0.819200  0.918794  1
  O  O17  1  0.670675  0.319200  0.581206  1
  O  O18  1  0.670675  0.180800  0.081206  1
  O  O19  1  0.329325  0.680800  0.418794  1
  O  O20  1  0.681326  0.924287  0.620760  1
  O  O21  1  0.318674  0.424287  0.879240  1
  O  O22  1  0.318674  0.075713  0.379240  1
  O  O23  1  0.681326  0.575713  0.120760  1
  O  O24  1  0.960945  0.867254  0.855718  1
  O  O25  1  0.039055  0.367254  0.644282  1
  O  O26  1  0.039055  0.132746  0.144282  1
  O  O27  1  0.960945  0.632746  0.355718  1
  O  O28  1  0.065116  0.885067  0.517681  1
  O  O29  1  0.934884  0.385067  0.982319  1
  O  O30  1  0.934884  0.114933  0.482319  1
  O  O31  1  0.065116  0.614933  0.017681  1
