# generated using pymatgen
data_Mn(Bi3O5)4
_symmetry_space_group_name_H-M   'P 1'
_cell_length_a   8.92446725
_cell_length_b   8.92446725
_cell_length_c   8.92446725
_cell_angle_alpha   109.47122063
_cell_angle_beta   109.47122063
_cell_angle_gamma   109.47122063
_symmetry_Int_Tables_number   1
_chemical_formula_structural   Mn(Bi3O5)4
_chemical_formula_sum   'Mn1 Bi12 O20'
_cell_volume   547.17344183
_cell_formula_units_Z   1
loop_
 _symmetry_equiv_pos_site_id
 _symmetry_equiv_pos_as_xyz
  1  'x, y, z'
loop_
 _atom_site_type_symbol
 _atom_site_label
 _atom_site_symmetry_multiplicity
 _atom_site_fract_x
 _atom_site_fract_y
 _atom_site_fract_z
 _atom_site_occupancy
  Mn  Mn0  1  0.000000  0.000000  0.000000  1
  Bi  Bi1  1  0.333515  0.192678  0.495817  1
  Bi  Bi2  1  0.837698  0.504183  0.696861  1
  Bi  Bi3  1  0.140837  0.303139  0.807322  1
  Bi  Bi4  1  0.162302  0.859163  0.666485  1
  Bi  Bi5  1  0.504183  0.696861  0.837698  1
  Bi  Bi6  1  0.807322  0.140837  0.303139  1
  Bi  Bi7  1  0.859163  0.666485  0.162302  1
  Bi  Bi8  1  0.495817  0.333515  0.192678  1
  Bi  Bi9  1  0.192678  0.495817  0.333515  1
  Bi  Bi10  1  0.696861  0.837698  0.504183  1
  Bi  Bi11  1  0.303139  0.807322  0.140837  1
  Bi  Bi12  1  0.666485  0.162302  0.859163  1
  O  O13  1  0.389263  0.389263  0.389263  1
  O  O14  1  0.000000  0.610737  0.000000  1
  O  O15  1  1.000000  0.000000  0.610737  1
  O  O16  1  0.610737  0.000000  0.000000  1
  O  O17  1  0.739396  0.619848  0.381828  1
  O  O18  1  0.357568  0.618172  0.238021  1
  O  O19  1  0.119547  0.761979  0.380152  1
  O  O20  1  0.642432  0.880453  0.260604  1
  O  O21  1  0.618172  0.238021  0.357568  1
  O  O22  1  0.380152  0.119547  0.761979  1
  O  O23  1  0.880453  0.260604  0.642432  1
  O  O24  1  0.381828  0.739396  0.619848  1
  O  O25  1  0.619848  0.381828  0.739396  1
  O  O26  1  0.238021  0.357568  0.618172  1
  O  O27  1  0.761979  0.380152  0.119547  1
  O  O28  1  0.260604  0.642432  0.880453  1
  O  O29  1  0.793751  0.793751  0.793751  1
  O  O30  1  0.000000  0.206249  1.000000  1
  O  O31  1  0.000000  0.000000  0.206249  1
  O  O32  1  0.206249  0.000000  1.000000  1
