# generated using pymatgen
data_Os(SeCl6)2
_symmetry_space_group_name_H-M   'P 1'
_cell_length_a   12.78948176
_cell_length_b   12.61348850
_cell_length_c   8.95020488
_cell_angle_alpha   70.42829680
_cell_angle_beta   68.31933350
_cell_angle_gamma   41.25236970
_symmetry_Int_Tables_number   1
_chemical_formula_structural   Os(SeCl6)2
_chemical_formula_sum   'Os2 Se4 Cl24'
_cell_volume   880.82045612
_cell_formula_units_Z   2
loop_
 _symmetry_equiv_pos_site_id
 _symmetry_equiv_pos_as_xyz
  1  'x, y, z'
loop_
 _atom_site_type_symbol
 _atom_site_label
 _atom_site_symmetry_multiplicity
 _atom_site_fract_x
 _atom_site_fract_y
 _atom_site_fract_z
 _atom_site_occupancy
  Os  Os0  1  0.834777  0.834777  0.665223  1
  Os  Os1  1  0.584777  0.584777  0.415223  1
  Se  Se2  1  0.475870  0.027860  0.481095  1
  Se  Se3  1  0.768905  0.234825  0.774130  1
  Se  Se4  1  0.234825  0.768905  0.222140  1
  Se  Se5  1  0.027860  0.475870  0.015175  1
  Cl  Cl6  1  0.795395  0.358229  0.856858  1
  Cl  Cl7  1  0.021020  0.994713  0.769217  1
  Cl  Cl8  1  0.624234  0.692608  0.527544  1
  Cl  Cl9  1  0.393142  0.260481  0.454605  1
  Cl  Cl10  1  0.942373  0.575170  0.708168  1
  Cl  Cl11  1  0.094385  0.722456  0.557392  1
  Cl  Cl12  1  0.208704  0.648075  0.127683  1
  Cl  Cl13  1  0.840004  0.323749  0.456957  1
  Cl  Cl14  1  0.260481  0.393142  0.891771  1
  Cl  Cl15  1  0.034949  0.480783  0.255287  1
  Cl  Cl16  1  0.793043  0.870710  0.409996  1
  Cl  Cl17  1  0.475711  0.541832  0.674830  1
  Cl  Cl18  1  0.234462  0.122317  0.601925  1
  Cl  Cl19  1  0.648075  0.208704  0.015538  1
  Cl  Cl20  1  0.722456  0.094385  0.625766  1
  Cl  Cl21  1  0.870710  0.793043  0.926251  1
  Cl  Cl22  1  0.480783  0.034949  0.228980  1
  Cl  Cl23  1  0.575170  0.942374  0.774289  1
  Cl  Cl24  1  0.541832  0.475711  0.307626  1
  Cl  Cl25  1  0.323749  0.840004  0.379290  1
  Cl  Cl26  1  0.692608  0.624234  0.155615  1
  Cl  Cl27  1  0.358229  0.795395  0.989519  1
  Cl  Cl28  1  0.994713  0.021020  0.215051  1
  Cl  Cl29  1  0.122317  0.234462  0.041296  1
