# generated using pymatgen
data_La(AlGa)2
_symmetry_space_group_name_H-M   'P 1'
_cell_length_a   6.36078446
_cell_length_b   6.36078446
_cell_length_c   6.36078446
_cell_angle_alpha   140.54238018
_cell_angle_beta   140.54238018
_cell_angle_gamma   57.03069034
_symmetry_Int_Tables_number   1
_chemical_formula_structural   La(AlGa)2
_chemical_formula_sum   'La1 Al2 Ga2'
_cell_volume   103.07455800
_cell_formula_units_Z   1
loop_
 _symmetry_equiv_pos_site_id
 _symmetry_equiv_pos_as_xyz
  1  'x, y, z'
loop_
 _atom_site_type_symbol
 _atom_site_label
 _atom_site_symmetry_multiplicity
 _atom_site_fract_x
 _atom_site_fract_y
 _atom_site_fract_z
 _atom_site_occupancy
  La  La0  1  0.000000  0.000000  0.000000  1
  Al  Al1  1  0.750000  0.250000  0.500000  1
  Al  Al2  1  0.250000  0.750000  0.500000  1
  Ga  Ga3  1  0.614301  0.614301  0.000000  1
  Ga  Ga4  1  0.385699  0.385699  0.000000  1
