# generated using pymatgen
data_KLiYF5
_symmetry_space_group_name_H-M   'P 1'
_cell_length_a   6.39222054
_cell_length_b   11.91321082
_cell_length_c   6.54989501
_cell_angle_alpha   90.00000000
_cell_angle_beta   113.72390035
_cell_angle_gamma   90.00000000
_symmetry_Int_Tables_number   1
_chemical_formula_structural   KLiYF5
_chemical_formula_sum   'K4 Li4 Y4 F20'
_cell_volume   456.63670658
_cell_formula_units_Z   4
loop_
 _symmetry_equiv_pos_site_id
 _symmetry_equiv_pos_as_xyz
  1  'x, y, z'
loop_
 _atom_site_type_symbol
 _atom_site_label
 _atom_site_symmetry_multiplicity
 _atom_site_fract_x
 _atom_site_fract_y
 _atom_site_fract_z
 _atom_site_occupancy
  K  K0  1  0.037419  0.849288  0.053396  1
  K  K1  1  0.537419  0.650712  0.053396  1
  K  K2  1  0.462581  0.349288  0.946604  1
  K  K3  1  0.962581  0.150712  0.946604  1
  Li  Li4  1  0.461897  0.745231  0.559025  1
  Li  Li5  1  0.961897  0.754769  0.559025  1
  Li  Li6  1  0.538103  0.254769  0.440975  1
  Li  Li7  1  0.038103  0.245231  0.440975  1
  Y  Y8  1  0.319964  0.997798  0.682102  1
  Y  Y9  1  0.680036  0.002202  0.317898  1
  Y  Y10  1  0.819964  0.502202  0.682102  1
  Y  Y11  1  0.180036  0.497798  0.317898  1
  F  F12  1  0.279444  0.674479  0.287304  1
  F  F13  1  0.965439  0.604747  0.464496  1
  F  F14  1  0.720556  0.325521  0.712696  1
  F  F15  1  0.327376  0.007313  0.044947  1
  F  F16  1  0.220556  0.174479  0.712696  1
  F  F17  1  0.034561  0.395253  0.535504  1
  F  F18  1  0.465439  0.895253  0.464496  1
  F  F19  1  0.452824  0.532350  0.664700  1
  F  F20  1  0.277503  0.804838  0.721430  1
  F  F21  1  0.222497  0.304838  0.278570  1
  F  F22  1  0.547176  0.467650  0.335300  1
  F  F23  1  0.672624  0.992687  0.955053  1
  F  F24  1  0.722497  0.195162  0.278570  1
  F  F25  1  0.172624  0.507313  0.955053  1
  F  F26  1  0.952824  0.967650  0.664700  1
  F  F27  1  0.777503  0.695162  0.721430  1
  F  F28  1  0.047176  0.032350  0.335300  1
  F  F29  1  0.779444  0.825521  0.287304  1
  F  F30  1  0.534561  0.104747  0.535504  1
  F  F31  1  0.827376  0.492687  0.044947  1
