# generated using pymatgen
data_Ni(PO3)3
_symmetry_space_group_name_H-M   'P 1'
_cell_length_a   5.04665358
_cell_length_b   11.92903906
_cell_length_c   12.88116383
_cell_angle_alpha   90.00000000
_cell_angle_beta   90.00000000
_cell_angle_gamma   90.00000000
_symmetry_Int_Tables_number   1
_chemical_formula_structural   Ni(PO3)3
_chemical_formula_sum   'Ni4 P12 O36'
_cell_volume   775.46831707
_cell_formula_units_Z   4
loop_
 _symmetry_equiv_pos_site_id
 _symmetry_equiv_pos_as_xyz
  1  'x, y, z'
loop_
 _atom_site_type_symbol
 _atom_site_label
 _atom_site_symmetry_multiplicity
 _atom_site_fract_x
 _atom_site_fract_y
 _atom_site_fract_z
 _atom_site_occupancy
  Ni  Ni0  1  0.000000  0.000000  0.000000  1
  Ni  Ni1  1  0.000000  0.000000  0.500000  1
  Ni  Ni2  1  0.000000  0.500000  0.000000  1
  Ni  Ni3  1  0.000000  0.500000  0.500000  1
  P  P4  1  0.231847  0.750000  0.000000  1
  P  P5  1  0.231847  0.750000  0.500000  1
  P  P6  1  0.501635  0.583057  0.631679  1
  P  P7  1  0.501635  0.583057  0.868321  1
  P  P8  1  0.501635  0.916943  0.131679  1
  P  P9  1  0.501635  0.916943  0.368321  1
  P  P10  1  0.498365  0.083057  0.631679  1
  P  P11  1  0.498365  0.083057  0.868321  1
  P  P12  1  0.498365  0.416943  0.131679  1
  P  P13  1  0.498365  0.416943  0.368321  1
  P  P14  1  0.768153  0.250000  0.000000  1
  P  P15  1  0.768153  0.250000  0.500000  1
  O  O16  1  0.080231  0.653607  0.046240  1
  O  O17  1  0.080231  0.653607  0.453760  1
  O  O18  1  0.080231  0.846393  0.546240  1
  O  O19  1  0.080231  0.846393  0.953760  1
  O  O20  1  0.206263  0.061719  0.622518  1
  O  O21  1  0.206263  0.061719  0.877482  1
  O  O22  1  0.206263  0.438281  0.122518  1
  O  O23  1  0.206263  0.438281  0.377482  1
  O  O24  1  0.316917  0.003885  0.086501  1
  O  O25  1  0.316917  0.003885  0.413499  1
  O  O26  1  0.316917  0.496115  0.586501  1
  O  O27  1  0.316917  0.496115  0.913499  1
  O  O28  1  0.423654  0.602989  0.750000  1
  O  O29  1  0.423654  0.897011  0.250000  1
  O  O30  1  0.433181  0.705862  0.587276  1
  O  O31  1  0.433181  0.705862  0.912724  1
  O  O32  1  0.433181  0.794138  0.087276  1
  O  O33  1  0.433181  0.794138  0.412724  1
  O  O34  1  0.566819  0.205862  0.587276  1
  O  O35  1  0.566819  0.205862  0.912724  1
  O  O36  1  0.566819  0.294138  0.087276  1
  O  O37  1  0.566819  0.294138  0.412724  1
  O  O38  1  0.576346  0.102989  0.750000  1
  O  O39  1  0.576346  0.397011  0.250000  1
  O  O40  1  0.683083  0.503885  0.086501  1
  O  O41  1  0.683083  0.503885  0.413499  1
  O  O42  1  0.683083  0.996115  0.586501  1
  O  O43  1  0.683083  0.996115  0.913499  1
  O  O44  1  0.793737  0.561719  0.622518  1
  O  O45  1  0.793737  0.561719  0.877482  1
  O  O46  1  0.793737  0.938281  0.122518  1
  O  O47  1  0.793737  0.938281  0.377482  1
  O  O48  1  0.919769  0.153607  0.046240  1
  O  O49  1  0.919769  0.153607  0.453760  1
  O  O50  1  0.919769  0.346393  0.546240  1
  O  O51  1  0.919769  0.346393  0.953760  1
