# generated using pymatgen
data_SiO2
_symmetry_space_group_name_H-M   'P 1'
_cell_length_a   5.12824962
_cell_length_b   5.12824962
_cell_length_c   8.37876700
_cell_angle_alpha   90.00000000
_cell_angle_beta   90.00000000
_cell_angle_gamma   120.82162691
_symmetry_Int_Tables_number   1
_chemical_formula_structural   SiO2
_chemical_formula_sum   'Si4 O8'
_cell_volume   189.23155189
_cell_formula_units_Z   4
loop_
 _symmetry_equiv_pos_site_id
 _symmetry_equiv_pos_as_xyz
  1  'x, y, z'
loop_
 _atom_site_type_symbol
 _atom_site_label
 _atom_site_symmetry_multiplicity
 _atom_site_fract_x
 _atom_site_fract_y
 _atom_site_fract_z
 _atom_site_occupancy
  Si  Si0  1  0.330368  0.660627  0.062604  1
  Si  Si1  1  0.660627  0.330368  0.562604  1
  Si  Si2  1  0.330368  0.660627  0.437396  1
  Si  Si3  1  0.660627  0.330368  0.937396  1
  O  O4  1  0.406867  0.406867  1.000000  1
  O  O5  1  0.969252  0.528659  0.459356  1
  O  O6  1  0.737438  0.417013  0.750000  1
  O  O7  1  0.528659  0.969252  0.540644  1
  O  O8  1  0.417013  0.737438  0.250000  1
  O  O9  1  0.528659  0.969252  0.959356  1
  O  O10  1  0.406867  0.406867  0.500000  1
  O  O11  1  0.969252  0.528659  0.040644  1
