# generated using pymatgen
data_Cs4Ni3F10
_symmetry_space_group_name_H-M   'P 1'
_cell_length_a   7.94742808
_cell_length_b   7.94742808
_cell_length_c   13.93144978
_cell_angle_alpha   90.00000000
_cell_angle_beta   90.00000000
_cell_angle_gamma   133.80129685
_symmetry_Int_Tables_number   1
_chemical_formula_structural   Cs4Ni3F10
_chemical_formula_sum   'Cs8 Ni6 F20'
_cell_volume   635.08674192
_cell_formula_units_Z   2
loop_
 _symmetry_equiv_pos_site_id
 _symmetry_equiv_pos_as_xyz
  1  'x, y, z'
loop_
 _atom_site_type_symbol
 _atom_site_label
 _atom_site_symmetry_multiplicity
 _atom_site_fract_x
 _atom_site_fract_y
 _atom_site_fract_z
 _atom_site_occupancy
  Cs  Cs0  1  0.253869  0.746131  0.612900  1
  Cs  Cs1  1  0.746131  0.253869  0.387100  1
  Cs  Cs2  1  0.246131  0.753869  0.112900  1
  Cs  Cs3  1  0.753869  0.246131  0.887100  1
  Cs  Cs4  1  0.952816  0.047184  0.639031  1
  Cs  Cs5  1  0.047184  0.952816  0.360969  1
  Cs  Cs6  1  0.547184  0.452816  0.139031  1
  Cs  Cs7  1  0.452816  0.547184  0.860969  1
  Ni  Ni8  1  0.617231  0.382769  0.654265  1
  Ni  Ni9  1  0.382769  0.617231  0.345735  1
  Ni  Ni10  1  0.882769  0.117231  0.154265  1
  Ni  Ni11  1  0.117231  0.882769  0.845735  1
  Ni  Ni12  1  0.500000  0.500000  0.500000  1
  Ni  Ni13  1  0.000000  0.000000  0.000000  1
  F  F14  1  0.614132  0.811347  0.460884  1
  F  F15  1  0.811347  0.614132  0.539116  1
  F  F16  1  0.885868  0.688653  0.960884  1
  F  F17  1  0.688653  0.885868  0.039116  1
  F  F18  1  0.385868  0.188653  0.539116  1
  F  F19  1  0.188653  0.385868  0.460884  1
  F  F20  1  0.114132  0.311347  0.039116  1
  F  F21  1  0.311347  0.114132  0.960884  1
  F  F22  1  0.473296  0.526704  0.643493  1
  F  F23  1  0.526704  0.473296  0.356507  1
  F  F24  1  0.026704  0.973296  0.143493  1
  F  F25  1  0.973296  0.026704  0.856507  1
  F  F26  1  0.751383  0.248617  0.650897  1
  F  F27  1  0.248617  0.751383  0.349103  1
  F  F28  1  0.361264  0.138736  0.750000  1
  F  F29  1  0.138736  0.361264  0.250000  1
  F  F30  1  0.638736  0.861264  0.250000  1
  F  F31  1  0.861264  0.638736  0.750000  1
  F  F32  1  0.251383  0.748617  0.849103  1
  F  F33  1  0.748617  0.251383  0.150897  1
