# generated using pymatgen
data_Na15SnGe8P
_symmetry_space_group_name_H-M   'P 1'
_cell_length_a   10.94386905
_cell_length_b   10.94386905
_cell_length_c   11.25497760
_cell_angle_alpha   90.00000000
_cell_angle_beta   90.00000000
_cell_angle_gamma   107.46216678
_symmetry_Int_Tables_number   1
_chemical_formula_structural   Na15SnGe8P
_chemical_formula_sum   'Na30 Sn2 Ge16 P2'
_cell_volume   1285.86752034
_cell_formula_units_Z   2
loop_
 _symmetry_equiv_pos_site_id
 _symmetry_equiv_pos_as_xyz
  1  'x, y, z'
loop_
 _atom_site_type_symbol
 _atom_site_label
 _atom_site_symmetry_multiplicity
 _atom_site_fract_x
 _atom_site_fract_y
 _atom_site_fract_z
 _atom_site_occupancy
  Na  Na0  1  0.543078  0.282104  0.383409  1
  Na  Na1  1  0.232653  0.064252  0.250000  1
  Na  Na2  1  0.064252  0.232653  0.250000  1
  Na  Na3  1  0.456922  0.717896  0.883409  1
  Na  Na4  1  0.803402  0.989131  0.250000  1
  Na  Na5  1  0.749143  0.749143  0.503057  1
  Na  Na6  1  0.717896  0.456922  0.883409  1
  Na  Na7  1  0.320969  0.941802  0.499223  1
  Na  Na8  1  0.250857  0.250857  0.003057  1
  Na  Na9  1  0.941802  0.320969  0.499223  1
  Na  Na10  1  0.679031  0.058198  0.999223  1
  Na  Na11  1  0.196598  0.010869  0.750000  1
  Na  Na12  1  0.749143  0.749143  0.996943  1
  Na  Na13  1  0.010869  0.196598  0.750000  1
  Na  Na14  1  0.432633  0.432633  0.750000  1
  Na  Na15  1  0.058198  0.679031  0.500777  1
  Na  Na16  1  0.058198  0.679031  0.999223  1
  Na  Na17  1  0.679031  0.058198  0.500777  1
  Na  Na18  1  0.989131  0.803402  0.250000  1
  Na  Na19  1  0.282104  0.543078  0.383409  1
  Na  Na20  1  0.717896  0.456922  0.616591  1
  Na  Na21  1  0.282104  0.543078  0.116591  1
  Na  Na22  1  0.767347  0.935748  0.750000  1
  Na  Na23  1  0.941802  0.320969  0.000777  1
  Na  Na24  1  0.456922  0.717896  0.616591  1
  Na  Na25  1  0.250857  0.250857  0.496943  1
  Na  Na26  1  0.935748  0.767347  0.750000  1
  Na  Na27  1  0.320969  0.941802  0.000777  1
  Na  Na28  1  0.543078  0.282104  0.116591  1
  Na  Na29  1  0.567367  0.567367  0.250000  1
  Sn  Sn30  1  0.000000  0.000000  0.500000  1
  Sn  Sn31  1  0.000000  0.000000  0.000000  1
  Ge  Ge32  1  0.504841  0.011272  0.250000  1
  Ge  Ge33  1  0.196275  0.696694  0.750000  1
  Ge  Ge34  1  0.696694  0.196275  0.750000  1
  Ge  Ge35  1  0.809203  0.517058  0.363759  1
  Ge  Ge36  1  0.482942  0.190797  0.636241  1
  Ge  Ge37  1  0.190797  0.482942  0.636241  1
  Ge  Ge38  1  0.495159  0.988728  0.750000  1
  Ge  Ge39  1  0.190797  0.482942  0.863759  1
  Ge  Ge40  1  0.988728  0.495159  0.750000  1
  Ge  Ge41  1  0.517058  0.809203  0.363759  1
  Ge  Ge42  1  0.482942  0.190797  0.863759  1
  Ge  Ge43  1  0.809203  0.517058  0.136241  1
  Ge  Ge44  1  0.303306  0.803725  0.250000  1
  Ge  Ge45  1  0.011272  0.504841  0.250000  1
  Ge  Ge46  1  0.517058  0.809203  0.136241  1
  Ge  Ge47  1  0.803725  0.303306  0.250000  1
  P  P48  1  0.343846  0.343846  0.250000  1
  P  P49  1  0.656154  0.656154  0.750000  1
