# generated using pymatgen
data_Lu2FeB6
_symmetry_space_group_name_H-M   'P 1'
_cell_length_a   3.47444054
_cell_length_b   8.96848250
_cell_length_c   11.31674602
_cell_angle_alpha   90.00000000
_cell_angle_beta   90.00000000
_cell_angle_gamma   90.00000000
_symmetry_Int_Tables_number   1
_chemical_formula_structural   Lu2FeB6
_chemical_formula_sum   'Lu8 Fe4 B24'
_cell_volume   352.63500241
_cell_formula_units_Z   4
loop_
 _symmetry_equiv_pos_site_id
 _symmetry_equiv_pos_as_xyz
  1  'x, y, z'
loop_
 _atom_site_type_symbol
 _atom_site_label
 _atom_site_symmetry_multiplicity
 _atom_site_fract_x
 _atom_site_fract_y
 _atom_site_fract_z
 _atom_site_occupancy
  Lu  Lu0  1  0.000000  0.823262  0.085424  1
  Lu  Lu1  1  0.000000  0.176738  0.914576  1
  Lu  Lu2  1  0.000000  0.323262  0.414576  1
  Lu  Lu3  1  0.000000  0.676738  0.585424  1
  Lu  Lu4  1  0.000000  0.443270  0.129324  1
  Lu  Lu5  1  0.000000  0.556730  0.870676  1
  Lu  Lu6  1  0.000000  0.943270  0.370676  1
  Lu  Lu7  1  0.000000  0.056730  0.629324  1
  Fe  Fe8  1  0.000000  0.138717  0.179224  1
  Fe  Fe9  1  0.000000  0.861283  0.820776  1
  Fe  Fe10  1  0.000000  0.638717  0.320776  1
  Fe  Fe11  1  0.000000  0.361283  0.679224  1
  B  B12  1  0.500000  0.054216  0.067146  1
  B  B13  1  0.500000  0.945784  0.932854  1
  B  B14  1  0.500000  0.554216  0.432854  1
  B  B15  1  0.500000  0.445784  0.567146  1
  B  B16  1  0.500000  0.247576  0.081042  1
  B  B17  1  0.500000  0.752424  0.918958  1
  B  B18  1  0.500000  0.747576  0.418958  1
  B  B19  1  0.500000  0.252424  0.581042  1
  B  B20  1  0.500000  0.291074  0.234279  1
  B  B21  1  0.500000  0.708926  0.765721  1
  B  B22  1  0.500000  0.791074  0.265721  1
  B  B23  1  0.500000  0.208926  0.734279  1
  B  B24  1  0.500000  0.132225  0.314629  1
  B  B25  1  0.500000  0.867775  0.685371  1
  B  B26  1  0.500000  0.632225  0.185371  1
  B  B27  1  0.500000  0.367775  0.814629  1
  B  B28  1  0.500000  0.484937  0.288317  1
  B  B29  1  0.500000  0.515063  0.711683  1
  B  B30  1  0.500000  0.984937  0.211683  1
  B  B31  1  0.500000  0.015063  0.788317  1
  B  B32  1  0.500000  0.106806  0.470643  1
  B  B33  1  0.500000  0.893194  0.529357  1
  B  B34  1  0.500000  0.606806  0.029357  1
  B  B35  1  0.500000  0.393194  0.970643  1
