# generated using pymatgen
data_VCuO3
_symmetry_space_group_name_H-M   'P 1'
_cell_length_a   5.56175277
_cell_length_b   5.56175277
_cell_length_c   5.56175277
_cell_angle_alpha   53.42632483
_cell_angle_beta   53.42632483
_cell_angle_gamma   53.42632483
_symmetry_Int_Tables_number   1
_chemical_formula_structural   VCuO3
_chemical_formula_sum   'V2 Cu2 O6'
_cell_volume   102.93497393
_cell_formula_units_Z   2
loop_
 _symmetry_equiv_pos_site_id
 _symmetry_equiv_pos_as_xyz
  1  'x, y, z'
loop_
 _atom_site_type_symbol
 _atom_site_label
 _atom_site_symmetry_multiplicity
 _atom_site_fract_x
 _atom_site_fract_y
 _atom_site_fract_z
 _atom_site_occupancy
  V  V0  1  0.352777  0.352777  0.352777  1
  V  V1  1  0.647223  0.647223  0.647223  1
  Cu  Cu2  1  0.140361  0.140361  0.140361  1
  Cu  Cu3  1  0.859639  0.859639  0.859639  1
  O  O4  1  0.066415  0.446312  0.715548  1
  O  O5  1  0.446312  0.715548  0.066415  1
  O  O6  1  0.715548  0.066415  0.446312  1
  O  O7  1  0.933585  0.553688  0.284452  1
  O  O8  1  0.284452  0.933585  0.553688  1
  O  O9  1  0.553688  0.284452  0.933585  1
