# generated using pymatgen
data_LiSn(PO3)3
_symmetry_space_group_name_H-M   'P 1'
_cell_length_a   6.86279908
_cell_length_b   7.33378098
_cell_length_c   7.52146235
_cell_angle_alpha   83.71419750
_cell_angle_beta   79.22812811
_cell_angle_gamma   82.47719903
_symmetry_Int_Tables_number   1
_chemical_formula_structural   LiSn(PO3)3
_chemical_formula_sum   'Li2 Sn2 P6 O18'
_cell_volume   367.27832879
_cell_formula_units_Z   2
loop_
 _symmetry_equiv_pos_site_id
 _symmetry_equiv_pos_as_xyz
  1  'x, y, z'
loop_
 _atom_site_type_symbol
 _atom_site_label
 _atom_site_symmetry_multiplicity
 _atom_site_fract_x
 _atom_site_fract_y
 _atom_site_fract_z
 _atom_site_occupancy
  Li  Li0  1  0.447642  0.826521  0.823516  1
  Li  Li1  1  0.552358  0.173479  0.176484  1
  Sn  Sn2  1  0.948734  0.766303  0.853852  1
  Sn  Sn3  1  0.051266  0.233697  0.146148  1
  P  P4  1  0.769281  0.839655  0.441845  1
  P  P5  1  0.152437  0.719831  0.224455  1
  P  P6  1  0.586842  0.614374  0.217123  1
  P  P7  1  0.413158  0.385626  0.782877  1
  P  P8  1  0.847563  0.280169  0.775545  1
  P  P9  1  0.230719  0.160345  0.558155  1
  O  O10  1  0.269065  0.989975  0.679405  1
  O  O11  1  0.711912  0.839861  0.646046  1
  O  O12  1  0.175871  0.887899  0.090466  1
  O  O13  1  0.633321  0.748441  0.049569  1
  O  O14  1  0.008957  0.771807  0.413171  1
  O  O15  1  0.678840  0.667192  0.384431  1
  O  O16  1  0.351992  0.654023  0.304192  1
  O  O17  1  0.360351  0.587315  0.798274  1
  O  O18  1  0.927180  0.437241  0.843396  1
  O  O19  1  0.072820  0.562759  0.156604  1
  O  O20  1  0.639649  0.412685  0.201726  1
  O  O21  1  0.648008  0.345977  0.695808  1
  O  O22  1  0.321160  0.332808  0.615569  1
  O  O23  1  0.991043  0.228193  0.586829  1
  O  O24  1  0.366679  0.251559  0.950431  1
  O  O25  1  0.824129  0.112101  0.909534  1
  O  O26  1  0.288088  0.160139  0.353954  1
  O  O27  1  0.730935  0.010025  0.320595  1
