# generated using pymatgen
data_K2In(PSe4)2
_symmetry_space_group_name_H-M   'P 1'
_cell_length_a   12.92466422
_cell_length_b   12.92466422
_cell_length_c   13.03766847
_cell_angle_alpha   81.72957261
_cell_angle_beta   98.27042739
_cell_angle_gamma   52.30799094
_symmetry_Int_Tables_number   1
_chemical_formula_structural   K2In(PSe4)2
_chemical_formula_sum   'K8 In4 P8 Se32'
_cell_volume   1629.04259139
_cell_formula_units_Z   4
loop_
 _symmetry_equiv_pos_site_id
 _symmetry_equiv_pos_as_xyz
  1  'x, y, z'
loop_
 _atom_site_type_symbol
 _atom_site_label
 _atom_site_symmetry_multiplicity
 _atom_site_fract_x
 _atom_site_fract_y
 _atom_site_fract_z
 _atom_site_occupancy
  K  K0  1  0.753668  0.127595  0.071768  1
  K  K1  1  0.641523  0.958210  0.346708  1
  K  K2  1  0.207138  0.394077  0.322077  1
  K  K3  1  0.041790  0.358477  0.846708  1
  K  K4  1  0.872405  0.246332  0.571768  1
  K  K5  1  0.149211  0.742181  0.017341  1
  K  K6  1  0.257819  0.850789  0.517341  1
  K  K7  1  0.605923  0.792862  0.822077  1
  In  In8  1  0.866462  0.376662  0.190121  1
  In  In9  1  0.264611  0.499868  0.683689  1
  In  In10  1  0.623338  0.133538  0.690121  1
  In  In11  1  0.500132  0.735388  0.183689  1
  P  P12  1  0.544910  0.403118  0.204934  1
  P  P13  1  0.128456  0.036988  0.133542  1
  P  P14  1  0.825446  0.706758  0.169588  1
  P  P15  1  0.922386  0.751515  0.742091  1
  P  P16  1  0.293242  0.174554  0.669588  1
  P  P17  1  0.596882  0.455090  0.704934  1
  P  P18  1  0.963012  0.871544  0.633542  1
  P  P19  1  0.248485  0.077614  0.242091  1
  Se  Se20  1  0.770725  0.255792  0.286985  1
  Se  Se21  1  0.379086  0.131702  0.850913  1
  Se  Se22  1  0.600409  0.861550  0.096397  1
  Se  Se23  1  0.521429  0.492069  0.522368  1
  Se  Se24  1  0.818421  0.879952  0.849868  1
  Se  Se25  1  0.466980  0.069737  0.598872  1
  Se  Se26  1  0.479469  0.235367  0.842825  1
  Se  Se27  1  0.936713  0.244381  0.031608  1
  Se  Se28  1  0.604960  0.585926  0.032311  1
  Se  Se29  1  0.744208  0.229275  0.786985  1
  Se  Se30  1  0.120048  0.181579  0.349868  1
  Se  Se31  1  0.083371  0.904249  0.733707  1
  Se  Se32  1  0.930676  0.789046  0.186761  1
  Se  Se33  1  0.507931  0.478571  0.022368  1
  Se  Se34  1  0.286650  0.192372  0.142943  1
  Se  Se35  1  0.253009  0.941094  0.022417  1
  Se  Se36  1  0.435111  0.867569  0.345910  1
  Se  Se37  1  0.701428  0.538609  0.698153  1
  Se  Se38  1  0.408208  0.585271  0.756104  1
  Se  Se39  1  0.132431  0.564889  0.845910  1
  Se  Se40  1  0.210954  0.069324  0.686761  1
  Se  Se41  1  0.868298  0.620914  0.350913  1
  Se  Se42  1  0.461391  0.298572  0.198153  1
  Se  Se43  1  0.095751  0.916629  0.233707  1
  Se  Se44  1  0.058906  0.746991  0.522417  1
  Se  Se45  1  0.755619  0.063287  0.531608  1
  Se  Se46  1  0.414074  0.395040  0.532311  1
  Se  Se47  1  0.414729  0.591792  0.256104  1
  Se  Se48  1  0.764633  0.520531  0.342825  1
  Se  Se49  1  0.807628  0.713350  0.642943  1
  Se  Se50  1  0.930263  0.533020  0.098872  1
  Se  Se51  1  0.138450  0.399591  0.596397  1
