# generated using pymatgen
data_Cu4Bi4S9
_symmetry_space_group_name_H-M   'P 1'
_cell_length_a   3.94921363
_cell_length_b   11.64421771
_cell_length_c   31.96578909
_cell_angle_alpha   90.00000000
_cell_angle_beta   90.00000000
_cell_angle_gamma   90.00000000
_symmetry_Int_Tables_number   1
_chemical_formula_structural   Cu4Bi4S9
_chemical_formula_sum   'Cu16 Bi16 S36'
_cell_volume   1469.96289940
_cell_formula_units_Z   4
loop_
 _symmetry_equiv_pos_site_id
 _symmetry_equiv_pos_as_xyz
  1  'x, y, z'
loop_
 _atom_site_type_symbol
 _atom_site_label
 _atom_site_symmetry_multiplicity
 _atom_site_fract_x
 _atom_site_fract_y
 _atom_site_fract_z
 _atom_site_occupancy
  Cu  Cu0  1  0.250000  0.426740  0.804512  1
  Cu  Cu1  1  0.750000  0.836381  0.806761  1
  Cu  Cu2  1  0.250000  0.073260  0.304512  1
  Cu  Cu3  1  0.750000  0.905640  0.516122  1
  Cu  Cu4  1  0.250000  0.163619  0.193239  1
  Cu  Cu5  1  0.250000  0.881736  0.864182  1
  Cu  Cu6  1  0.750000  0.594360  0.016122  1
  Cu  Cu7  1  0.250000  0.094360  0.483878  1
  Cu  Cu8  1  0.750000  0.663619  0.306761  1
  Cu  Cu9  1  0.750000  0.926740  0.695488  1
  Cu  Cu10  1  0.750000  0.381736  0.635818  1
  Cu  Cu11  1  0.750000  0.118264  0.135818  1
  Cu  Cu12  1  0.250000  0.336381  0.693239  1
  Cu  Cu13  1  0.750000  0.573260  0.195488  1
  Cu  Cu14  1  0.250000  0.405641  0.983878  1
  Cu  Cu15  1  0.250000  0.618264  0.364182  1
  Bi  Bi16  1  0.250000  0.356388  0.279288  1
  Bi  Bi17  1  0.750000  0.228621  0.891741  1
  Bi  Bi18  1  0.750000  0.643612  0.720712  1
  Bi  Bi19  1  0.250000  0.143612  0.779288  1
  Bi  Bi20  1  0.250000  0.096662  0.589228  1
  Bi  Bi21  1  0.750000  0.130418  0.028327  1
  Bi  Bi22  1  0.250000  0.403338  0.089228  1
  Bi  Bi23  1  0.250000  0.728621  0.608259  1
  Bi  Bi24  1  0.750000  0.596662  0.910772  1
  Bi  Bi25  1  0.750000  0.856388  0.220712  1
  Bi  Bi26  1  0.750000  0.903338  0.410772  1
  Bi  Bi27  1  0.750000  0.369582  0.528327  1
  Bi  Bi28  1  0.250000  0.771379  0.108259  1
  Bi  Bi29  1  0.750000  0.271379  0.391741  1
  Bi  Bi30  1  0.250000  0.869582  0.971673  1
  Bi  Bi31  1  0.250000  0.630418  0.471673  1
  S  S32  1  0.250000  0.012804  0.236463  1
  S  S33  1  0.750000  0.319341  0.815609  1
  S  S34  1  0.250000  0.075828  0.857211  1
  S  S35  1  0.250000  0.326851  0.597546  1
  S  S36  1  0.250000  0.424172  0.357211  1
  S  S37  1  0.250000  0.870207  0.479606  1
  S  S38  1  0.750000  0.888135  0.586647  1
  S  S39  1  0.250000  0.116562  0.969777  1
  S  S40  1  0.750000  0.180659  0.315609  1
  S  S41  1  0.250000  0.383438  0.469777  1
  S  S42  1  0.750000  0.924172  0.142789  1
  S  S43  1  0.750000  0.616562  0.530223  1
  S  S44  1  0.250000  0.388135  0.913353  1
  S  S45  1  0.750000  0.575828  0.642789  1
  S  S46  1  0.750000  0.512804  0.263537  1
  S  S47  1  0.250000  0.756047  0.310164  1
  S  S48  1  0.750000  0.370207  0.020394  1
  S  S49  1  0.750000  0.089347  0.653314  1
  S  S50  1  0.250000  0.910653  0.346686  1
  S  S51  1  0.750000  0.256047  0.189836  1
  S  S52  1  0.750000  0.883438  0.030223  1
  S  S53  1  0.750000  0.243953  0.689836  1
  S  S54  1  0.750000  0.611865  0.086647  1
  S  S55  1  0.750000  0.673149  0.402454  1
  S  S56  1  0.250000  0.589347  0.846686  1
  S  S57  1  0.750000  0.987196  0.763537  1
  S  S58  1  0.250000  0.743953  0.810164  1
  S  S59  1  0.250000  0.111865  0.413353  1
  S  S60  1  0.250000  0.819341  0.684391  1
  S  S61  1  0.250000  0.680659  0.184391  1
  S  S62  1  0.250000  0.629793  0.979606  1
  S  S63  1  0.250000  0.487196  0.736463  1
  S  S64  1  0.750000  0.826851  0.902454  1
  S  S65  1  0.250000  0.173149  0.097546  1
  S  S66  1  0.750000  0.129793  0.520394  1
  S  S67  1  0.750000  0.410653  0.153314  1
