# generated using pymatgen
data_Ba5Os3ClO15
_symmetry_space_group_name_H-M   'P 1'
_cell_length_a   11.11547667
_cell_length_b   11.11547667
_cell_length_c   7.97483510
_cell_angle_alpha   90.00000000
_cell_angle_beta   90.00000000
_cell_angle_gamma   120.00000000
_symmetry_Int_Tables_number   1
_chemical_formula_structural   Ba5Os3ClO15
_chemical_formula_sum   'Ba10 Os6 Cl2 O30'
_cell_volume   853.31332291
_cell_formula_units_Z   2
loop_
 _symmetry_equiv_pos_site_id
 _symmetry_equiv_pos_as_xyz
  1  'x, y, z'
loop_
 _atom_site_type_symbol
 _atom_site_label
 _atom_site_symmetry_multiplicity
 _atom_site_fract_x
 _atom_site_fract_y
 _atom_site_fract_z
 _atom_site_occupancy
  Ba  Ba0  1  0.000000  0.264857  0.767727  1
  Ba  Ba1  1  0.000000  0.735143  0.267727  1
  Ba  Ba2  1  0.264857  0.264857  0.267727  1
  Ba  Ba3  1  0.735143  0.000000  0.267727  1
  Ba  Ba4  1  0.264857  0.000000  0.767727  1
  Ba  Ba5  1  0.666667  0.333333  0.503898  1
  Ba  Ba6  1  0.735143  0.735143  0.767727  1
  Ba  Ba7  1  0.333333  0.666667  0.503898  1
  Ba  Ba8  1  0.666667  0.333333  0.003898  1
  Ba  Ba9  1  0.333333  0.666667  0.003898  1
  Os  Os10  1  0.387879  0.000000  0.215152  1
  Os  Os11  1  0.000000  0.612121  0.715152  1
  Os  Os12  1  0.612121  0.612121  0.215152  1
  Os  Os13  1  0.387879  0.387879  0.715152  1
  Os  Os14  1  0.000000  0.387879  0.215152  1
  Os  Os15  1  0.612121  0.000000  0.715152  1
  Cl  Cl16  1  0.000000  0.000000  0.039154  1
  Cl  Cl17  1  0.000000  0.000000  0.539154  1
  O  O18  1  0.257276  0.868753  0.068512  1
  O  O19  1  0.553770  0.423815  0.247328  1
  O  O20  1  0.388524  0.131247  0.068512  1
  O  O21  1  0.870046  0.423815  0.747328  1
  O  O22  1  0.446230  0.576185  0.747328  1
  O  O23  1  0.553770  0.129954  0.747328  1
  O  O24  1  0.576185  0.446230  0.747328  1
  O  O25  1  0.293647  0.000000  0.390358  1
  O  O26  1  0.131247  0.388524  0.068512  1
  O  O27  1  0.293647  0.293647  0.890358  1
  O  O28  1  0.000000  0.706353  0.890358  1
  O  O29  1  0.706353  0.000000  0.890358  1
  O  O30  1  0.423815  0.553770  0.247328  1
  O  O31  1  0.706353  0.706353  0.390358  1
  O  O32  1  0.000000  0.293647  0.390358  1
  O  O33  1  0.129954  0.553770  0.747328  1
  O  O34  1  0.611476  0.868753  0.568512  1
  O  O35  1  0.388524  0.257276  0.568512  1
  O  O36  1  0.742724  0.131247  0.568512  1
  O  O37  1  0.868753  0.257276  0.068512  1
  O  O38  1  0.257276  0.388524  0.568512  1
  O  O39  1  0.870046  0.446230  0.247328  1
  O  O40  1  0.611476  0.742724  0.068512  1
  O  O41  1  0.129954  0.576185  0.247328  1
  O  O42  1  0.446230  0.870046  0.247328  1
  O  O43  1  0.742724  0.611476  0.068512  1
  O  O44  1  0.131247  0.742724  0.568512  1
  O  O45  1  0.576185  0.129954  0.247328  1
  O  O46  1  0.423815  0.870046  0.747328  1
  O  O47  1  0.868753  0.611476  0.568512  1
