# generated using pymatgen
data_Ga3Bi5Cl12
_symmetry_space_group_name_H-M   'P 1'
_cell_length_a   12.45635581
_cell_length_b   12.45635581
_cell_length_c   12.45635581
_cell_angle_alpha   57.96540925
_cell_angle_beta   57.96540925
_cell_angle_gamma   57.96540925
_symmetry_Int_Tables_number   1
_chemical_formula_structural   Ga3Bi5Cl12
_chemical_formula_sum   'Ga6 Bi10 Cl24'
_cell_volume   1302.85708779
_cell_formula_units_Z   2
loop_
 _symmetry_equiv_pos_site_id
 _symmetry_equiv_pos_as_xyz
  1  'x, y, z'
loop_
 _atom_site_type_symbol
 _atom_site_label
 _atom_site_symmetry_multiplicity
 _atom_site_fract_x
 _atom_site_fract_y
 _atom_site_fract_z
 _atom_site_occupancy
  Ga  Ga0  1  0.770223  0.726867  0.251889  1
  Ga  Ga1  1  0.251889  0.770223  0.726867  1
  Ga  Ga2  1  0.270223  0.751889  0.226867  1
  Ga  Ga3  1  0.726867  0.251889  0.770223  1
  Ga  Ga4  1  0.751889  0.226867  0.270223  1
  Ga  Ga5  1  0.226867  0.270223  0.751889  1
  Bi  Bi6  1  0.594363  0.909331  0.747477  1
  Bi  Bi7  1  0.094363  0.247477  0.409331  1
  Bi  Bi8  1  0.828045  0.828045  0.828045  1
  Bi  Bi9  1  0.328045  0.328045  0.328045  1
  Bi  Bi10  1  0.409331  0.094363  0.247477  1
  Bi  Bi11  1  0.172784  0.172784  0.172784  1
  Bi  Bi12  1  0.672784  0.672784  0.672784  1
  Bi  Bi13  1  0.909331  0.747477  0.594363  1
  Bi  Bi14  1  0.247477  0.409331  0.094363  1
  Bi  Bi15  1  0.747477  0.594363  0.909331  1
  Cl  Cl16  1  0.928041  0.041355  0.303638  1
  Cl  Cl17  1  0.541355  0.428041  0.803638  1
  Cl  Cl18  1  0.803638  0.541355  0.428041  1
  Cl  Cl19  1  0.701028  0.273936  0.102359  1
  Cl  Cl20  1  0.392270  0.228911  0.802794  1
  Cl  Cl21  1  0.303638  0.928041  0.041355  1
  Cl  Cl22  1  0.273936  0.102359  0.701028  1
  Cl  Cl23  1  0.802794  0.392270  0.228911  1
  Cl  Cl24  1  0.191148  0.454550  0.574341  1
  Cl  Cl25  1  0.302794  0.728911  0.892270  1
  Cl  Cl26  1  0.041355  0.303638  0.928041  1
  Cl  Cl27  1  0.454550  0.574341  0.191148  1
  Cl  Cl28  1  0.074341  0.954550  0.691148  1
  Cl  Cl29  1  0.691148  0.074341  0.954550  1
  Cl  Cl30  1  0.728911  0.892270  0.302794  1
  Cl  Cl31  1  0.201028  0.602359  0.773936  1
  Cl  Cl32  1  0.773936  0.201028  0.602359  1
  Cl  Cl33  1  0.228911  0.802794  0.392270  1
  Cl  Cl34  1  0.892270  0.302794  0.728911  1
  Cl  Cl35  1  0.954550  0.691148  0.074341  1
  Cl  Cl36  1  0.428041  0.803638  0.541355  1
  Cl  Cl37  1  0.574341  0.191148  0.454550  1
  Cl  Cl38  1  0.102359  0.701028  0.273936  1
  Cl  Cl39  1  0.602359  0.773936  0.201028  1
