# generated using pymatgen
data_Na2H16O9
_symmetry_space_group_name_H-M   'P 1'
_cell_length_a   6.52652826
_cell_length_b   12.43770851
_cell_length_c   11.80044075
_cell_angle_alpha   90.00000000
_cell_angle_beta   103.67401006
_cell_angle_gamma   90.00000000
_symmetry_Int_Tables_number   1
_chemical_formula_structural   Na2H16O9
_chemical_formula_sum   'Na8 H64 O36'
_cell_volume   930.75111390
_cell_formula_units_Z   4
loop_
 _symmetry_equiv_pos_site_id
 _symmetry_equiv_pos_as_xyz
  1  'x, y, z'
loop_
 _atom_site_type_symbol
 _atom_site_label
 _atom_site_symmetry_multiplicity
 _atom_site_fract_x
 _atom_site_fract_y
 _atom_site_fract_z
 _atom_site_occupancy
  Na  Na0  1  0.580582  0.683351  0.100408  1
  Na  Na1  1  0.419418  0.183351  0.399592  1
  Na  Na2  1  0.419418  0.316649  0.899592  1
  Na  Na3  1  0.580582  0.816649  0.600408  1
  Na  Na4  1  0.407166  0.708668  0.332925  1
  Na  Na5  1  0.592834  0.208668  0.167075  1
  Na  Na6  1  0.592834  0.291332  0.667075  1
  Na  Na7  1  0.407166  0.791332  0.832925  1
  H  H8  1  0.133471  0.006585  0.096694  1
  H  H9  1  0.866529  0.506585  0.403306  1
  H  H10  1  0.866529  0.993415  0.903306  1
  H  H11  1  0.133471  0.493415  0.596694  1
  H  H12  1  0.014833  0.414147  0.233414  1
  H  H13  1  0.985167  0.914147  0.266586  1
  H  H14  1  0.985167  0.585853  0.766586  1
  H  H15  1  0.014833  0.085853  0.733414  1
  H  H16  1  0.424713  0.563826  0.874002  1
  H  H17  1  0.575287  0.063826  0.625998  1
  H  H18  1  0.575287  0.436174  0.125998  1
  H  H19  1  0.424713  0.936174  0.374002  1
  H  H20  1  0.219387  0.599740  0.910310  1
  H  H21  1  0.780613  0.099740  0.589690  1
  H  H22  1  0.780613  0.400260  0.089690  1
  H  H23  1  0.219387  0.900260  0.410310  1
  H  H24  1  0.571012  0.499489  0.294761  1
  H  H25  1  0.428988  0.999489  0.205239  1
  H  H26  1  0.428988  0.500511  0.705239  1
  H  H27  1  0.571012  0.000511  0.794761  1
  H  H28  1  0.336431  0.493430  0.210286  1
  H  H29  1  0.663569  0.993430  0.289714  1
  H  H30  1  0.663569  0.506570  0.789714  1
  H  H31  1  0.336431  0.006570  0.710286  1
  H  H32  1  0.224163  0.833976  0.115004  1
  H  H33  1  0.775837  0.333976  0.384996  1
  H  H34  1  0.775837  0.166024  0.884996  1
  H  H35  1  0.224163  0.666024  0.615004  1
  H  H36  1  0.112863  0.717356  0.104746  1
  H  H37  1  0.887137  0.217356  0.395254  1
  H  H38  1  0.887137  0.282644  0.895254  1
  H  H39  1  0.112863  0.782644  0.604746  1
  H  H40  1  0.965864  0.554801  0.101818  1
  H  H41  1  0.034136  0.054801  0.398182  1
  H  H42  1  0.034136  0.445199  0.898182  1
  H  H43  1  0.965864  0.945199  0.601818  1
  H  H44  1  0.903579  0.601485  0.972975  1
  H  H45  1  0.096421  0.101485  0.527025  1
  H  H46  1  0.096421  0.398515  0.027025  1
  H  H47  1  0.903579  0.898515  0.472975  1
  H  H48  1  0.479909  0.901351  0.051326  1
  H  H49  1  0.520091  0.401351  0.448674  1
  H  H50  1  0.520091  0.098649  0.948674  1
  H  H51  1  0.479909  0.598649  0.551326  1
  H  H52  1  0.663547  0.922691  0.989834  1
  H  H53  1  0.336453  0.422691  0.510166  1
  H  H54  1  0.336453  0.077309  0.010166  1
  H  H55  1  0.663547  0.577309  0.489834  1
  H  H56  1  0.796431  0.816629  0.306783  1
  H  H57  1  0.203569  0.316629  0.193217  1
  H  H58  1  0.203569  0.183371  0.693217  1
  H  H59  1  0.796431  0.683371  0.806783  1
  H  H60  1  0.870669  0.695699  0.325153  1
  H  H61  1  0.129331  0.195699  0.174847  1
  H  H62  1  0.129331  0.304301  0.674847  1
  H  H63  1  0.870669  0.804301  0.825153  1
  H  H64  1  0.103295  0.551978  0.300197  1
  H  H65  1  0.896705  0.051978  0.199803  1
  H  H66  1  0.896705  0.448022  0.699803  1
  H  H67  1  0.103295  0.948022  0.800197  1
  H  H68  1  0.155593  0.574110  0.440975  1
  H  H69  1  0.844407  0.074110  0.059025  1
  H  H70  1  0.844407  0.425890  0.559025  1
  H  H71  1  0.155593  0.925890  0.940975  1
  O  O72  1  0.248178  0.968236  0.073682  1
  O  O73  1  0.751822  0.468236  0.426318  1
  O  O74  1  0.751822  0.031764  0.926318  1
  O  O75  1  0.248178  0.531764  0.573682  1
  O  O76  1  0.082612  0.448617  0.177630  1
  O  O77  1  0.917388  0.948617  0.322370  1
  O  O78  1  0.917388  0.551383  0.822370  1
  O  O79  1  0.082612  0.051383  0.677630  1
  O  O80  1  0.367693  0.620118  0.918724  1
  O  O81  1  0.632307  0.120118  0.581276  1
  O  O82  1  0.632307  0.379882  0.081276  1
  O  O83  1  0.367693  0.879882  0.418724  1
  O  O84  1  0.481733  0.524450  0.217917  1
  O  O85  1  0.518267  0.024450  0.282083  1
  O  O86  1  0.518267  0.475550  0.782083  1
  O  O87  1  0.481733  0.975550  0.717917  1
  O  O88  1  0.243188  0.757587  0.141439  1
  O  O89  1  0.756812  0.257587  0.358561  1
  O  O90  1  0.756812  0.242413  0.858561  1
  O  O91  1  0.243188  0.742413  0.641439  1
  O  O92  1  0.905210  0.620055  0.054734  1
  O  O93  1  0.094790  0.120055  0.445266  1
  O  O94  1  0.094790  0.379945  0.945266  1
  O  O95  1  0.905210  0.879945  0.554734  1
  O  O96  1  0.587766  0.863301  0.020935  1
  O  O97  1  0.412234  0.363301  0.479065  1
  O  O98  1  0.412234  0.136699  0.979065  1
  O  O99  1  0.587766  0.636699  0.520935  1
  O  O100  1  0.744935  0.741255  0.295217  1
  O  O101  1  0.255065  0.241255  0.204783  1
  O  O102  1  0.255065  0.258745  0.704783  1
  O  O103  1  0.744935  0.758745  0.795217  1
  O  O104  1  0.095046  0.606394  0.360408  1
  O  O105  1  0.904954  0.106394  0.139592  1
  O  O106  1  0.904954  0.393606  0.639592  1
  O  O107  1  0.095046  0.893606  0.860408  1
