# generated using pymatgen
data_SiO2
_symmetry_space_group_name_H-M   'P 1'
_cell_length_a   6.88394470
_cell_length_b   6.88394470
_cell_length_c   9.06871337
_cell_angle_alpha   90.00000000
_cell_angle_beta   90.00000000
_cell_angle_gamma   97.40149170
_symmetry_Int_Tables_number   1
_chemical_formula_structural   SiO2
_chemical_formula_sum   'Si8 O16'
_cell_volume   426.17369156
_cell_formula_units_Z   8
loop_
 _symmetry_equiv_pos_site_id
 _symmetry_equiv_pos_as_xyz
  1  'x, y, z'
loop_
 _atom_site_type_symbol
 _atom_site_label
 _atom_site_symmetry_multiplicity
 _atom_site_fract_x
 _atom_site_fract_y
 _atom_site_fract_z
 _atom_site_occupancy
  Si  Si0  1  0.039502  0.306858  0.090456  1
  Si  Si1  1  0.193142  0.460498  0.409544  1
  Si  Si2  1  0.306858  0.039502  0.909544  1
  Si  Si3  1  0.460498  0.193142  0.590456  1
  Si  Si4  1  0.693142  0.960498  0.090456  1
  Si  Si5  1  0.960498  0.693142  0.909544  1
  Si  Si6  1  0.539502  0.806858  0.409544  1
  Si  Si7  1  0.806858  0.539502  0.590456  1
  O  O8  1  0.806924  0.806924  1.000000  1
  O  O9  1  0.867296  0.632704  0.750000  1
  O  O10  1  0.693076  0.693076  0.500000  1
  O  O11  1  0.666966  0.333034  0.613277  1
  O  O12  1  0.367296  0.132704  0.750000  1
  O  O13  1  0.632704  0.867296  0.250000  1
  O  O14  1  0.193076  0.193076  1.000000  1
  O  O15  1  0.132704  0.367296  0.250000  1
  O  O16  1  0.500000  0.000000  0.000000  1
  O  O17  1  0.833034  0.166966  0.113277  1
  O  O18  1  0.333034  0.666966  0.386723  1
  O  O19  1  0.166966  0.833034  0.886723  1
  O  O20  1  0.306924  0.306924  0.500000  1
  O  O21  1  0.000000  0.500000  0.000000  1
  O  O22  1  0.500000  0.000000  0.500000  1
  O  O23  1  0.000000  0.500000  0.500000  1
