# generated using pymatgen
data_Na(CoO2)2
_symmetry_space_group_name_H-M   'P 1'
_cell_length_a   4.87695538
_cell_length_b   5.64495409
_cell_length_c   11.38451949
_cell_angle_alpha   90.00000000
_cell_angle_beta   90.00000000
_cell_angle_gamma   90.00000000
_symmetry_Int_Tables_number   1
_chemical_formula_structural   Na(CoO2)2
_chemical_formula_sum   'Na4 Co8 O16'
_cell_volume   313.41797573
_cell_formula_units_Z   4
loop_
 _symmetry_equiv_pos_site_id
 _symmetry_equiv_pos_as_xyz
  1  'x, y, z'
loop_
 _atom_site_type_symbol
 _atom_site_label
 _atom_site_symmetry_multiplicity
 _atom_site_fract_x
 _atom_site_fract_y
 _atom_site_fract_z
 _atom_site_occupancy
  Na  Na0  1  0.639678  0.000000  0.000000  1
  Na  Na1  1  0.360322  0.500000  0.500000  1
  Na  Na2  1  0.037159  0.500000  0.000000  1
  Na  Na3  1  0.962841  0.000000  0.500000  1
  Co  Co4  1  0.500000  0.750000  0.250000  1
  Co  Co5  1  0.500000  0.250000  0.750000  1
  Co  Co6  1  0.500000  0.250000  0.250000  1
  Co  Co7  1  0.500000  0.750000  0.750000  1
  Co  Co8  1  0.997074  0.500000  0.252916  1
  Co  Co9  1  0.997074  0.500000  0.747084  1
  Co  Co10  1  0.002926  0.000000  0.247084  1
  Co  Co11  1  0.002926  0.000000  0.752916  1
  O  O12  1  0.836943  0.748662  0.160794  1
  O  O13  1  0.836943  0.251338  0.839206  1
  O  O14  1  0.163057  0.248662  0.339206  1
  O  O15  1  0.163057  0.751338  0.660794  1
  O  O16  1  0.163057  0.751338  0.339206  1
  O  O17  1  0.163057  0.248662  0.660794  1
  O  O18  1  0.836943  0.251338  0.160794  1
  O  O19  1  0.836943  0.748662  0.839206  1
  O  O20  1  0.676641  0.000000  0.334836  1
  O  O21  1  0.676641  0.000000  0.665164  1
  O  O22  1  0.323359  0.500000  0.165164  1
  O  O23  1  0.323359  0.500000  0.834836  1
  O  O24  1  0.331226  0.000000  0.838111  1
  O  O25  1  0.331226  0.000000  0.161889  1
  O  O26  1  0.668774  0.500000  0.661889  1
  O  O27  1  0.668774  0.500000  0.338111  1
