# generated using pymatgen
data_KLa(PO3)4
_symmetry_space_group_name_H-M   'P 1'
_cell_length_a   7.40810786
_cell_length_b   8.65512388
_cell_length_c   8.19082401
_cell_angle_alpha   90.00000000
_cell_angle_beta   91.99361876
_cell_angle_gamma   90.00000000
_symmetry_Int_Tables_number   1
_chemical_formula_structural   KLa(PO3)4
_chemical_formula_sum   'K2 La2 P8 O24'
_cell_volume   524.86211382
_cell_formula_units_Z   2
loop_
 _symmetry_equiv_pos_site_id
 _symmetry_equiv_pos_as_xyz
  1  'x, y, z'
loop_
 _atom_site_type_symbol
 _atom_site_label
 _atom_site_symmetry_multiplicity
 _atom_site_fract_x
 _atom_site_fract_y
 _atom_site_fract_z
 _atom_site_occupancy
  K  K0  1  0.272926  0.055301  0.218711  1
  K  K1  1  0.727074  0.555301  0.781289  1
  La  La2  1  0.765497  0.248101  0.257756  1
  La  La3  1  0.234503  0.748101  0.742244  1
  P  P4  1  0.103745  0.323976  0.607218  1
  P  P5  1  0.896255  0.823976  0.392782  1
  P  P6  1  0.433891  0.124586  0.599602  1
  P  P7  1  0.566109  0.624586  0.400398  1
  P  P8  1  0.376414  0.495285  0.105859  1
  P  P9  1  0.623586  0.995285  0.894141  1
  P  P10  1  0.001847  0.100764  0.880930  1
  P  P11  1  0.998153  0.600764  0.119070  1
  O  O12  1  0.085182  0.482741  0.677808  1
  O  O13  1  0.914818  0.982741  0.322192  1
  O  O14  1  0.313535  0.277100  0.631641  1
  O  O15  1  0.686465  0.777100  0.368359  1
  O  O16  1  0.992445  0.203203  0.716951  1
  O  O17  1  0.007555  0.703203  0.283049  1
  O  O18  1  0.168418  0.001690  0.887909  1
  O  O19  1  0.831582  0.501690  0.112091  1
  O  O20  1  0.683135  0.484458  0.424865  1
  O  O21  1  0.316865  0.984458  0.575135  1
  O  O22  1  0.560311  0.158146  0.464339  1
  O  O23  1  0.439689  0.658146  0.535661  1
  O  O24  1  0.969947  0.200702  0.027222  1
  O  O25  1  0.030053  0.700702  0.972778  1
  O  O26  1  0.832142  0.988156  0.843987  1
  O  O27  1  0.167858  0.488156  0.156013  1
  O  O28  1  0.546091  0.128775  0.771614  1
  O  O29  1  0.453909  0.628775  0.228386  1
  O  O30  1  0.458932  0.342429  0.151317  1
  O  O31  1  0.541068  0.842429  0.848683  1
  O  O32  1  0.040000  0.293421  0.433867  1
  O  O33  1  0.960000  0.793421  0.566133  1
  O  O34  1  0.610366  0.054367  0.065395  1
  O  O35  1  0.389634  0.554367  0.934605  1
