# generated using pymatgen
data_LaNbO4
_symmetry_space_group_name_H-M   'P 1'
_cell_length_a   7.02038309
_cell_length_b   7.02038309
_cell_length_c   7.02038309
_cell_angle_alpha   134.33915184
_cell_angle_beta   134.33915184
_cell_angle_gamma   66.55876076
_symmetry_Int_Tables_number   1
_chemical_formula_structural   LaNbO4
_chemical_formula_sum   'La2 Nb2 O8'
_cell_volume   174.19110752
_cell_formula_units_Z   2
loop_
 _symmetry_equiv_pos_site_id
 _symmetry_equiv_pos_as_xyz
  1  'x, y, z'
loop_
 _atom_site_type_symbol
 _atom_site_label
 _atom_site_symmetry_multiplicity
 _atom_site_fract_x
 _atom_site_fract_y
 _atom_site_fract_z
 _atom_site_occupancy
  La  La0  1  0.000000  0.000000  0.000000  1
  La  La1  1  0.750000  0.250000  0.500000  1
  Nb  Nb2  1  0.500000  0.500000  0.000000  1
  Nb  Nb3  1  0.250000  0.750000  0.500000  1
  O  O4  1  0.660438  0.575050  0.407506  1
  O  O5  1  0.325050  0.417544  0.414612  1
  O  O6  1  0.002932  0.910438  0.585388  1
  O  O7  1  0.167544  0.252932  0.592494  1
  O  O8  1  0.582456  0.997068  0.907506  1
  O  O9  1  0.747068  0.339562  0.914612  1
  O  O10  1  0.424950  0.832456  0.085388  1
  O  O11  1  0.089562  0.674950  0.092494  1
