# generated using pymatgen
data_YCu(WO4)2
_symmetry_space_group_name_H-M   'P 1'
_cell_length_a   5.14979539
_cell_length_b   6.05981875
_cell_length_c   6.18357227
_cell_angle_alpha   108.64815668
_cell_angle_beta   91.84920851
_cell_angle_gamma   113.86265324
_symmetry_Int_Tables_number   1
_chemical_formula_structural   YCu(WO4)2
_chemical_formula_sum   'Y1 Cu1 W2 O8'
_cell_volume   164.27481999
_cell_formula_units_Z   1
loop_
 _symmetry_equiv_pos_site_id
 _symmetry_equiv_pos_as_xyz
  1  'x, y, z'
loop_
 _atom_site_type_symbol
 _atom_site_label
 _atom_site_symmetry_multiplicity
 _atom_site_fract_x
 _atom_site_fract_y
 _atom_site_fract_z
 _atom_site_occupancy
  Y  Y0  1  0.000000  0.500000  0.000000  1
  Cu  Cu1  1  0.500000  0.500000  0.500000  1
  W  W2  1  0.750626  0.013168  0.335514  1
  W  W3  1  0.249374  0.986832  0.664486  1
  O  O4  1  0.484369  0.762084  0.081383  1
  O  O5  1  0.978289  0.244311  0.213985  1
  O  O6  1  0.462592  0.796692  0.525516  1
  O  O7  1  0.027313  0.192448  0.669489  1
  O  O8  1  0.021711  0.755689  0.786015  1
  O  O9  1  0.515631  0.237916  0.918617  1
  O  O10  1  0.537408  0.203308  0.474484  1
  O  O11  1  0.972687  0.807552  0.330511  1
