# generated using pymatgen
data_H7NO6
_symmetry_space_group_name_H-M   'P 1'
_cell_length_a   3.66297088
_cell_length_b   9.57500813
_cell_length_c   14.61767975
_cell_angle_alpha   90.00000000
_cell_angle_beta   90.00000000
_cell_angle_gamma   90.00000000
_symmetry_Int_Tables_number   1
_chemical_formula_structural   H7NO6
_chemical_formula_sum   'H28 N4 O24'
_cell_volume   512.68553040
_cell_formula_units_Z   4
loop_
 _symmetry_equiv_pos_site_id
 _symmetry_equiv_pos_as_xyz
  1  'x, y, z'
loop_
 _atom_site_type_symbol
 _atom_site_label
 _atom_site_symmetry_multiplicity
 _atom_site_fract_x
 _atom_site_fract_y
 _atom_site_fract_z
 _atom_site_occupancy
  H  H0  1  0.748765  0.575372  0.691879  1
  H  H1  1  0.248765  0.924628  0.308121  1
  H  H2  1  0.251235  0.075372  0.808121  1
  H  H3  1  0.751235  0.424628  0.191879  1
  H  H4  1  0.432312  0.473781  0.662174  1
  H  H5  1  0.932312  0.026219  0.337826  1
  H  H6  1  0.567688  0.973781  0.837826  1
  H  H7  1  0.067688  0.526219  0.162174  1
  H  H8  1  0.833951  0.788209  0.379496  1
  H  H9  1  0.333951  0.711791  0.620504  1
  H  H10  1  0.166049  0.288209  0.120504  1
  H  H11  1  0.666049  0.211791  0.879496  1
  H  H12  1  0.565762  0.681347  0.329464  1
  H  H13  1  0.065762  0.818653  0.670536  1
  H  H14  1  0.434238  0.181347  0.170536  1
  H  H15  1  0.934238  0.318653  0.829464  1
  H  H16  1  0.813446  0.593352  0.441164  1
  H  H17  1  0.313446  0.906648  0.558836  1
  H  H18  1  0.186554  0.093352  0.058836  1
  H  H19  1  0.686554  0.406648  0.941164  1
  H  H20  1  0.861092  0.416014  0.457558  1
  H  H21  1  0.361092  0.083986  0.542442  1
  H  H22  1  0.138908  0.916014  0.042442  1
  H  H23  1  0.638908  0.583986  0.957558  1
  H  H24  1  0.779039  0.521106  0.548046  1
  H  H25  1  0.279039  0.978894  0.451954  1
  H  H26  1  0.220961  0.021106  0.951954  1
  H  H27  1  0.720961  0.478894  0.048046  1
  N  N28  1  0.689525  0.271210  0.331327  1
  N  N29  1  0.189525  0.228790  0.668673  1
  N  N30  1  0.310475  0.771210  0.168673  1
  N  N31  1  0.810475  0.728790  0.831327  1
  O  O32  1  0.564185  0.384489  0.300299  1
  O  O33  1  0.064185  0.115511  0.699701  1
  O  O34  1  0.435815  0.884489  0.199701  1
  O  O35  1  0.935815  0.615511  0.800299  1
  O  O36  1  0.685089  0.160932  0.282121  1
  O  O37  1  0.185089  0.339068  0.717879  1
  O  O38  1  0.314911  0.660932  0.217879  1
  O  O39  1  0.814911  0.839068  0.782121  1
  O  O40  1  0.821793  0.264328  0.411293  1
  O  O41  1  0.321793  0.235672  0.588707  1
  O  O42  1  0.178207  0.764328  0.088707  1
  O  O43  1  0.678207  0.735672  0.911293  1
  O  O44  1  0.583940  0.553372  0.639843  1
  O  O45  1  0.083940  0.946628  0.360157  1
  O  O46  1  0.416060  0.053372  0.860157  1
  O  O47  1  0.916060  0.446628  0.139843  1
  O  O48  1  0.908646  0.511664  0.485764  1
  O  O49  1  0.408646  0.988336  0.514236  1
  O  O50  1  0.091354  0.011664  0.014236  1
  O  O51  1  0.591354  0.488336  0.985764  1
  O  O52  1  0.674987  0.705396  0.389217  1
  O  O53  1  0.174987  0.794604  0.610783  1
  O  O54  1  0.325013  0.205396  0.110783  1
  O  O55  1  0.825013  0.294604  0.889217  1
