# generated using pymatgen
data_CsLa(SO4)2
_symmetry_space_group_name_H-M   'P 1'
_cell_length_a   8.13149505
_cell_length_b   5.55149485
_cell_length_c   18.95256381
_cell_angle_alpha   90.00000000
_cell_angle_beta   113.35969395
_cell_angle_gamma   90.00000000
_symmetry_Int_Tables_number   1
_chemical_formula_structural   CsLa(SO4)2
_chemical_formula_sum   'Cs4 La4 S8 O32'
_cell_volume   785.42907400
_cell_formula_units_Z   4
loop_
 _symmetry_equiv_pos_site_id
 _symmetry_equiv_pos_as_xyz
  1  'x, y, z'
loop_
 _atom_site_type_symbol
 _atom_site_label
 _atom_site_symmetry_multiplicity
 _atom_site_fract_x
 _atom_site_fract_y
 _atom_site_fract_z
 _atom_site_occupancy
  Cs  Cs0  1  0.022288  0.266295  0.884393  1
  Cs  Cs1  1  0.977712  0.766295  0.615607  1
  Cs  Cs2  1  0.977712  0.733705  0.115607  1
  Cs  Cs3  1  0.022288  0.233705  0.384393  1
  La  La4  1  0.495328  0.687491  0.363816  1
  La  La5  1  0.504672  0.187491  0.136184  1
  La  La6  1  0.495328  0.812509  0.863816  1
  La  La7  1  0.504672  0.312509  0.636184  1
  S  S8  1  0.300240  0.263890  0.754239  1
  S  S9  1  0.347654  0.755510  0.521366  1
  S  S10  1  0.652346  0.255510  0.978634  1
  S  S11  1  0.699760  0.763890  0.745761  1
  S  S12  1  0.699760  0.736110  0.245761  1
  S  S13  1  0.347654  0.744490  0.021366  1
  S  S14  1  0.300240  0.236110  0.254239  1
  S  S15  1  0.652346  0.244490  0.478634  1
  O  O16  1  0.760645  0.437938  0.462427  1
  O  O17  1  0.226883  0.285555  0.668889  1
  O  O18  1  0.698615  0.223357  0.562641  1
  O  O19  1  0.731345  0.510678  0.210978  1
  O  O20  1  0.773117  0.785555  0.831111  1
  O  O21  1  0.219094  0.053399  0.777641  1
  O  O22  1  0.773117  0.714445  0.331111  1
  O  O23  1  0.460676  0.314326  0.436664  1
  O  O24  1  0.688406  0.007685  0.449951  1
  O  O25  1  0.301385  0.776643  0.437359  1
  O  O26  1  0.226883  0.214445  0.168889  1
  O  O27  1  0.539324  0.814326  0.063336  1
  O  O28  1  0.498559  0.213851  0.781154  1
  O  O29  1  0.301385  0.723357  0.937359  1
  O  O30  1  0.780906  0.553399  0.722359  1
  O  O31  1  0.501441  0.786149  0.218846  1
  O  O32  1  0.311594  0.992315  0.550049  1
  O  O33  1  0.760645  0.062062  0.962427  1
  O  O34  1  0.780906  0.946601  0.222359  1
  O  O35  1  0.539324  0.685674  0.563336  1
  O  O36  1  0.268655  0.010678  0.289022  1
  O  O37  1  0.501441  0.713851  0.718846  1
  O  O38  1  0.460676  0.185674  0.936664  1
  O  O39  1  0.239355  0.562062  0.537573  1
  O  O40  1  0.498559  0.286149  0.281154  1
  O  O41  1  0.268655  0.489322  0.789022  1
  O  O42  1  0.311594  0.507685  0.050049  1
  O  O43  1  0.239355  0.937938  0.037573  1
  O  O44  1  0.688406  0.492315  0.949951  1
  O  O45  1  0.731345  0.989322  0.710978  1
  O  O46  1  0.219094  0.446601  0.277641  1
  O  O47  1  0.698615  0.276643  0.062641  1
