# generated using pymatgen
data_SrCu(TeO3)2
_symmetry_space_group_name_H-M   'P 1'
_cell_length_a   12.62958302
_cell_length_b   12.62958302
_cell_length_c   12.62958302
_cell_angle_alpha   90.00000000
_cell_angle_beta   90.00000000
_cell_angle_gamma   90.00000000
_symmetry_Int_Tables_number   1
_chemical_formula_structural   SrCu(TeO3)2
_chemical_formula_sum   'Sr12 Cu12 Te24 O72'
_cell_volume   2014.49890752
_cell_formula_units_Z   12
loop_
 _symmetry_equiv_pos_site_id
 _symmetry_equiv_pos_as_xyz
  1  'x, y, z'
loop_
 _atom_site_type_symbol
 _atom_site_label
 _atom_site_symmetry_multiplicity
 _atom_site_fract_x
 _atom_site_fract_y
 _atom_site_fract_z
 _atom_site_occupancy
  Sr  Sr0  1  0.695558  0.695558  0.695558  1
  Sr  Sr1  1  0.804442  0.304442  0.195558  1
  Sr  Sr2  1  0.445558  0.945558  0.554442  1
  Sr  Sr3  1  0.945558  0.554442  0.445558  1
  Sr  Sr4  1  0.554442  0.445558  0.945558  1
  Sr  Sr5  1  0.125000  0.375000  0.625000  1
  Sr  Sr6  1  0.054442  0.054442  0.054442  1
  Sr  Sr7  1  0.304442  0.195558  0.804442  1
  Sr  Sr8  1  0.375000  0.625000  0.125000  1
  Sr  Sr9  1  0.625000  0.125000  0.375000  1
  Sr  Sr10  1  0.875000  0.875000  0.875000  1
  Sr  Sr11  1  0.195558  0.804442  0.304442  1
  Cu  Cu12  1  0.774117  0.024117  0.125000  1
  Cu  Cu13  1  0.524117  0.375000  0.225883  1
  Cu  Cu14  1  0.475883  0.875000  0.274117  1
  Cu  Cu15  1  0.024117  0.125000  0.774117  1
  Cu  Cu16  1  0.975883  0.625000  0.725883  1
  Cu  Cu17  1  0.274117  0.475883  0.875000  1
  Cu  Cu18  1  0.375000  0.225883  0.524117  1
  Cu  Cu19  1  0.625000  0.725883  0.975883  1
  Cu  Cu20  1  0.225883  0.524117  0.375000  1
  Cu  Cu21  1  0.725883  0.975883  0.625000  1
  Cu  Cu22  1  0.125000  0.774117  0.024117  1
  Cu  Cu23  1  0.875000  0.274117  0.475883  1
  Te  Te24  1  0.579132  0.939398  0.837481  1
  Te  Te25  1  0.939398  0.837481  0.579132  1
  Te  Te26  1  0.587481  0.189398  0.670868  1
  Te  Te27  1  0.560602  0.162519  0.079132  1
  Te  Te28  1  0.829132  0.412519  0.689398  1
  Te  Te29  1  0.837481  0.579132  0.939398  1
  Te  Te30  1  0.079132  0.560602  0.162519  1
  Te  Te31  1  0.912519  0.810602  0.170868  1
  Te  Te32  1  0.670868  0.587481  0.189398  1
  Te  Te33  1  0.420868  0.439398  0.662519  1
  Te  Te34  1  0.412519  0.689398  0.829132  1
  Te  Te35  1  0.439398  0.662519  0.420868  1
  Te  Te36  1  0.920868  0.060602  0.337481  1
  Te  Te37  1  0.060602  0.337481  0.920868  1
  Te  Te38  1  0.689398  0.829132  0.412519  1
  Te  Te39  1  0.310602  0.329132  0.087481  1
  Te  Te40  1  0.162519  0.079132  0.560602  1
  Te  Te41  1  0.337481  0.920868  0.060602  1
  Te  Te42  1  0.810602  0.170868  0.912519  1
  Te  Te43  1  0.662519  0.420868  0.439398  1
  Te  Te44  1  0.189398  0.670868  0.587481  1
  Te  Te45  1  0.170868  0.912519  0.810602  1
  Te  Te46  1  0.329132  0.087481  0.310602  1
  Te  Te47  1  0.087481  0.310602  0.329132  1
  O  O48  1  0.772237  0.936855  0.484154  1
  O  O49  1  0.378361  0.577905  0.929296  1
  O  O50  1  0.131112  0.221280  0.980217  1
  O  O51  1  0.621639  0.077905  0.570704  1
  O  O52  1  0.813145  0.977763  0.265846  1
  O  O53  1  0.871639  0.679296  0.827905  1
  O  O54  1  0.929296  0.378361  0.577905  1
  O  O55  1  0.368888  0.778720  0.480217  1
  O  O56  1  0.922095  0.070704  0.878361  1
  O  O57  1  0.429296  0.121639  0.422095  1
  O  O58  1  0.769783  0.528720  0.618888  1
  O  O59  1  0.734154  0.313145  0.522237  1
  O  O60  1  0.118888  0.730217  0.471280  1
  O  O61  1  0.265846  0.813145  0.977763  1
  O  O62  1  0.528720  0.618888  0.769783  1
  O  O63  1  0.868888  0.721280  0.519783  1
  O  O64  1  0.381112  0.269783  0.971280  1
  O  O65  1  0.936855  0.484154  0.772237  1
  O  O66  1  0.186855  0.477763  0.234154  1
  O  O67  1  0.278720  0.019783  0.631112  1
  O  O68  1  0.977763  0.265846  0.813145  1
  O  O69  1  0.730217  0.471280  0.118888  1
  O  O70  1  0.577905  0.929296  0.378361  1
  O  O71  1  0.422095  0.429296  0.121639  1
  O  O72  1  0.234154  0.186855  0.477763  1
  O  O73  1  0.371639  0.820704  0.172095  1
  O  O74  1  0.563145  0.515846  0.272237  1
  O  O75  1  0.230217  0.028720  0.881112  1
  O  O76  1  0.063145  0.984154  0.727763  1
  O  O77  1  0.172095  0.371639  0.820704  1
  O  O78  1  0.022237  0.765846  0.686855  1
  O  O79  1  0.121639  0.422095  0.429296  1
  O  O80  1  0.221280  0.980217  0.131112  1
  O  O81  1  0.272237  0.563145  0.515846  1
  O  O82  1  0.721280  0.519783  0.868888  1
  O  O83  1  0.269783  0.971280  0.381112  1
  O  O84  1  0.778720  0.480217  0.368888  1
  O  O85  1  0.070704  0.878361  0.922095  1
  O  O86  1  0.019783  0.631112  0.278720  1
  O  O87  1  0.313145  0.522237  0.734154  1
  O  O88  1  0.980217  0.131112  0.221280  1
  O  O89  1  0.028720  0.881112  0.230217  1
  O  O90  1  0.179296  0.672095  0.128361  1
  O  O91  1  0.727763  0.063145  0.984154  1
  O  O92  1  0.436855  0.015846  0.227763  1
  O  O93  1  0.686855  0.022237  0.765846  1
  O  O94  1  0.522237  0.734154  0.313145  1
  O  O95  1  0.618888  0.769783  0.528720  1
  O  O96  1  0.227763  0.436855  0.015846  1
  O  O97  1  0.327905  0.628361  0.320704  1
  O  O98  1  0.015846  0.227763  0.436855  1
  O  O99  1  0.320704  0.327905  0.628361  1
  O  O100  1  0.077905  0.570704  0.621639  1
  O  O101  1  0.477763  0.234154  0.186855  1
  O  O102  1  0.631112  0.278720  0.019783  1
  O  O103  1  0.820704  0.172095  0.371639  1
  O  O104  1  0.672095  0.128361  0.179296  1
  O  O105  1  0.628361  0.320704  0.327905  1
  O  O106  1  0.519783  0.868888  0.721280  1
  O  O107  1  0.570704  0.621639  0.077905  1
  O  O108  1  0.471280  0.118888  0.730217  1
  O  O109  1  0.971280  0.381112  0.269783  1
  O  O110  1  0.679296  0.827905  0.871639  1
  O  O111  1  0.984154  0.727763  0.063145  1
  O  O112  1  0.878361  0.922095  0.070704  1
  O  O113  1  0.881112  0.230217  0.028720  1
  O  O114  1  0.827905  0.871639  0.679296  1
  O  O115  1  0.515846  0.272237  0.563145  1
  O  O116  1  0.480217  0.368888  0.778720  1
  O  O117  1  0.128361  0.179296  0.672095  1
  O  O118  1  0.484154  0.772237  0.936855  1
  O  O119  1  0.765846  0.686855  0.022237  1
