# generated using pymatgen
data_Lu2CoB6
_symmetry_space_group_name_H-M   'P 1'
_cell_length_a   3.48902299
_cell_length_b   8.98372741
_cell_length_c   11.32477144
_cell_angle_alpha   90.00000000
_cell_angle_beta   90.00000000
_cell_angle_gamma   90.00000000
_symmetry_Int_Tables_number   1
_chemical_formula_structural   Lu2CoB6
_chemical_formula_sum   'Lu8 Co4 B24'
_cell_volume   354.96852231
_cell_formula_units_Z   4
loop_
 _symmetry_equiv_pos_site_id
 _symmetry_equiv_pos_as_xyz
  1  'x, y, z'
loop_
 _atom_site_type_symbol
 _atom_site_label
 _atom_site_symmetry_multiplicity
 _atom_site_fract_x
 _atom_site_fract_y
 _atom_site_fract_z
 _atom_site_occupancy
  Lu  Lu0  1  0.000000  0.823793  0.085310  1
  Lu  Lu1  1  0.000000  0.176207  0.914690  1
  Lu  Lu2  1  0.000000  0.323793  0.414690  1
  Lu  Lu3  1  0.000000  0.676207  0.585310  1
  Lu  Lu4  1  0.000000  0.443598  0.129108  1
  Lu  Lu5  1  0.000000  0.556402  0.870892  1
  Lu  Lu6  1  0.000000  0.943598  0.370892  1
  Lu  Lu7  1  0.000000  0.056402  0.629108  1
  Co  Co8  1  0.000000  0.139918  0.179444  1
  Co  Co9  1  0.000000  0.860082  0.820556  1
  Co  Co10  1  0.000000  0.639918  0.320556  1
  Co  Co11  1  0.000000  0.360082  0.679444  1
  B  B12  1  0.500000  0.053674  0.066358  1
  B  B13  1  0.500000  0.946326  0.933642  1
  B  B14  1  0.500000  0.553674  0.433642  1
  B  B15  1  0.500000  0.446326  0.566358  1
  B  B16  1  0.500000  0.247668  0.081307  1
  B  B17  1  0.500000  0.752332  0.918693  1
  B  B18  1  0.500000  0.747668  0.418693  1
  B  B19  1  0.500000  0.252332  0.581307  1
  B  B20  1  0.500000  0.293135  0.236002  1
  B  B21  1  0.500000  0.706865  0.763998  1
  B  B22  1  0.500000  0.793135  0.263998  1
  B  B23  1  0.500000  0.206865  0.736002  1
  B  B24  1  0.500000  0.133944  0.315913  1
  B  B25  1  0.500000  0.866056  0.684087  1
  B  B26  1  0.500000  0.633944  0.184087  1
  B  B27  1  0.500000  0.366056  0.815913  1
  B  B28  1  0.500000  0.485386  0.288500  1
  B  B29  1  0.500000  0.514614  0.711500  1
  B  B30  1  0.500000  0.985386  0.211500  1
  B  B31  1  0.500000  0.014614  0.788500  1
  B  B32  1  0.500000  0.107011  0.471035  1
  B  B33  1  0.500000  0.892989  0.528965  1
  B  B34  1  0.500000  0.607011  0.028965  1
  B  B35  1  0.500000  0.392989  0.971035  1
