# generated using pymatgen
data_URe2
_symmetry_space_group_name_H-M   'P 1'
_cell_length_a   5.37157676
_cell_length_b   5.37157676
_cell_length_c   8.29665202
_cell_angle_alpha   90.00000000
_cell_angle_beta   90.00000000
_cell_angle_gamma   113.92133058
_symmetry_Int_Tables_number   1
_chemical_formula_structural   URe2
_chemical_formula_sum   'U4 Re8'
_cell_volume   218.82735483
_cell_formula_units_Z   4
loop_
 _symmetry_equiv_pos_site_id
 _symmetry_equiv_pos_as_xyz
  1  'x, y, z'
loop_
 _atom_site_type_symbol
 _atom_site_label
 _atom_site_symmetry_multiplicity
 _atom_site_fract_x
 _atom_site_fract_y
 _atom_site_fract_z
 _atom_site_occupancy
  U  U0  1  0.661954  0.338046  0.414406  1
  U  U1  1  0.338046  0.661954  0.914406  1
  U  U2  1  0.338046  0.661954  0.585594  1
  U  U3  1  0.661954  0.338046  0.085594  1
  Re  Re4  1  0.825335  0.174665  0.750000  1
  Re  Re5  1  0.341481  0.166393  0.750000  1
  Re  Re6  1  0.658519  0.833607  0.250000  1
  Re  Re7  1  0.000000  0.000000  0.000000  1
  Re  Re8  1  0.833607  0.658519  0.750000  1
  Re  Re9  1  0.166393  0.341481  0.250000  1
  Re  Re10  1  0.174665  0.825335  0.250000  1
  Re  Re11  1  0.000000  0.000000  0.500000  1
