# generated using pymatgen
data_Mo15N16
_symmetry_space_group_name_H-M   'P 1'
_cell_length_a   8.04724016
_cell_length_b   8.04724016
_cell_length_c   9.96003657
_cell_angle_alpha   89.98058796
_cell_angle_beta   90.01941204
_cell_angle_gamma   89.04543264
_symmetry_Int_Tables_number   1
_chemical_formula_structural   Mo15N16
_chemical_formula_sum   'Mo30 N32'
_cell_volume   644.90319948
_cell_formula_units_Z   2
loop_
 _symmetry_equiv_pos_site_id
 _symmetry_equiv_pos_as_xyz
  1  'x, y, z'
loop_
 _atom_site_type_symbol
 _atom_site_label
 _atom_site_symmetry_multiplicity
 _atom_site_fract_x
 _atom_site_fract_y
 _atom_site_fract_z
 _atom_site_occupancy
  Mo  Mo0  1  0.495021  0.254262  0.989722  1
  Mo  Mo1  1  0.495047  0.255945  0.498937  1
  Mo  Mo2  1  0.613355  0.371493  0.755678  1
  Mo  Mo3  1  0.628507  0.386645  0.255678  1
  Mo  Mo4  1  0.997175  0.256009  0.507431  1
  Mo  Mo5  1  0.745738  0.504979  0.489722  1
  Mo  Mo6  1  0.744055  0.504953  0.998937  1
  Mo  Mo7  1  0.994311  0.256545  0.002205  1
  Mo  Mo8  1  0.877166  0.611113  0.253850  1
  Mo  Mo9  1  0.116051  0.374412  0.743088  1
  Mo  Mo10  1  0.866197  0.646998  0.756770  1
  Mo  Mo11  1  0.245161  0.502855  0.012448  1
  Mo  Mo12  1  0.996940  0.755359  0.991559  1
  Mo  Mo13  1  0.993025  0.755488  0.497863  1
  Mo  Mo14  1  0.242834  0.505296  0.501369  1
  Mo  Mo15  1  0.115107  0.873086  0.756261  1
  Mo  Mo16  1  0.367648  0.624198  0.242985  1
  Mo  Mo17  1  0.126914  0.884893  0.256261  1
  Mo  Mo18  1  0.375802  0.632352  0.742985  1
  Mo  Mo19  1  0.244641  0.003060  0.491559  1
  Mo  Mo20  1  0.497145  0.754839  0.512448  1
  Mo  Mo21  1  0.244512  0.006975  0.997863  1
  Mo  Mo22  1  0.494704  0.757166  0.001369  1
  Mo  Mo23  1  0.353002  0.133803  0.256770  1
  Mo  Mo24  1  0.388887  0.122834  0.753850  1
  Mo  Mo25  1  0.625588  0.883949  0.243088  1
  Mo  Mo26  1  0.743455  0.005689  0.502205  1
  Mo  Mo27  1  0.743991  0.002825  0.007431  1
  Mo  Mo28  1  0.865921  0.123371  0.244867  1
  Mo  Mo29  1  0.876629  0.134079  0.744867  1
  N  N30  1  0.248315  0.254295  0.083992  1
  N  N31  1  0.372382  0.381023  0.332292  1
  N  N32  1  0.363677  0.384034  0.833964  1
  N  N33  1  0.497991  0.500582  0.083451  1
  N  N34  1  0.749245  0.250945  0.416061  1
  N  N35  1  0.499418  0.502009  0.583451  1
  N  N36  1  0.615966  0.636323  0.333964  1
  N  N37  1  0.618977  0.627618  0.832292  1
  N  N38  1  0.863213  0.386666  0.666106  1
  N  N39  1  0.874133  0.376365  0.165049  1
  N  N40  1  0.999546  0.502187  0.417371  1
  N  N41  1  0.745705  0.751685  0.583992  1
  N  N42  1  0.748316  0.751095  0.081955  1
  N  N43  1  0.997268  0.502743  0.916496  1
  N  N44  1  0.117826  0.629980  0.167873  1
  N  N45  1  0.865933  0.887556  0.834391  1
  N  N46  1  0.870632  0.876150  0.333027  1
  N  N47  1  0.119342  0.629901  0.666027  1
  N  N48  1  0.998655  0.003164  0.084533  1
  N  N49  1  0.249050  0.751370  0.916331  1
  N  N50  1  0.996836  0.001345  0.584533  1
  N  N51  1  0.248630  0.750950  0.416331  1
  N  N52  1  0.370020  0.882174  0.667873  1
  N  N53  1  0.112444  0.134067  0.334391  1
  N  N54  1  0.123850  0.129368  0.833027  1
  N  N55  1  0.370099  0.880658  0.166027  1
  N  N56  1  0.497257  0.002732  0.416496  1
  N  N57  1  0.248905  0.251684  0.581955  1
  N  N58  1  0.497813  0.000454  0.917371  1
  N  N59  1  0.613334  0.136787  0.166106  1
  N  N60  1  0.623635  0.125867  0.665049  1
  N  N61  1  0.749055  0.250755  0.916061  1
