# generated using pymatgen
data_VAgO3
_symmetry_space_group_name_H-M   'P 1'
_cell_length_a   9.46345405
_cell_length_b   9.46345405
_cell_length_c   8.14726641
_cell_angle_alpha   75.11920856
_cell_angle_beta   104.88079144
_cell_angle_gamma   157.94621462
_symmetry_Int_Tables_number   1
_chemical_formula_structural   VAgO3
_chemical_formula_sum   'V4 Ag4 O12'
_cell_volume   264.42120315
_cell_formula_units_Z   4
loop_
 _symmetry_equiv_pos_site_id
 _symmetry_equiv_pos_as_xyz
  1  'x, y, z'
loop_
 _atom_site_type_symbol
 _atom_site_label
 _atom_site_symmetry_multiplicity
 _atom_site_fract_x
 _atom_site_fract_y
 _atom_site_fract_z
 _atom_site_occupancy
  V  V0  1  0.676738  0.323262  0.561584  1
  V  V1  1  0.125132  0.874868  0.230118  1
  V  V2  1  0.322380  0.677620  0.435081  1
  V  V3  1  0.869790  0.130210  0.766990  1
  Ag  Ag4  1  0.748380  0.251620  0.040209  1
  Ag  Ag5  1  0.999788  0.000212  0.502302  1
  Ag  Ag6  1  0.548627  0.451373  0.863418  1
  Ag  Ag7  1  0.448190  0.551810  0.131950  1
  O  O8  1  0.348326  0.651674  0.704308  1
  O  O9  1  0.261950  0.738050  0.234123  1
  O  O10  1  0.591048  0.408952  0.598502  1
  O  O11  1  0.877564  0.122436  0.982170  1
  O  O12  1  0.648519  0.351481  0.288595  1
  O  O13  1  0.118604  0.881396  0.015696  1
  O  O14  1  0.185896  0.814104  0.492747  1
  O  O15  1  0.738644  0.261356  0.756535  1
  O  O16  1  0.811188  0.188812  0.497593  1
  O  O17  1  0.033230  0.966770  0.237917  1
  O  O18  1  0.962208  0.037792  0.761180  1
  O  O19  1  0.408608  0.591392  0.401681  1
