# generated using pymatgen
data_Mo9O25
_symmetry_space_group_name_H-M   'P 1'
_cell_length_a   6.89043853
_cell_length_b   5.58141850
_cell_length_c   28.41002910
_cell_angle_alpha   90.00000000
_cell_angle_beta   95.88770639
_cell_angle_gamma   90.00000000
_symmetry_Int_Tables_number   1
_chemical_formula_structural   Mo9O25
_chemical_formula_sum   'Mo18 O50'
_cell_volume   1086.84120830
_cell_formula_units_Z   2
loop_
 _symmetry_equiv_pos_site_id
 _symmetry_equiv_pos_as_xyz
  1  'x, y, z'
loop_
 _atom_site_type_symbol
 _atom_site_label
 _atom_site_symmetry_multiplicity
 _atom_site_fract_x
 _atom_site_fract_y
 _atom_site_fract_z
 _atom_site_occupancy
  Mo  Mo0  1  0.500000  0.229520  0.750000  1
  Mo  Mo1  1  0.500000  0.770480  0.250000  1
  Mo  Mo2  1  0.796275  0.729376  0.698823  1
  Mo  Mo3  1  0.203725  0.729376  0.801177  1
  Mo  Mo4  1  0.203725  0.270624  0.301177  1
  Mo  Mo5  1  0.796275  0.270624  0.198823  1
  Mo  Mo6  1  0.099383  0.230001  0.645317  1
  Mo  Mo7  1  0.900617  0.230001  0.854683  1
  Mo  Mo8  1  0.900617  0.769999  0.354683  1
  Mo  Mo9  1  0.099383  0.769999  0.145317  1
  Mo  Mo10  1  0.404028  0.736716  0.590581  1
  Mo  Mo11  1  0.595972  0.736716  0.909419  1
  Mo  Mo12  1  0.595972  0.263284  0.409419  1
  Mo  Mo13  1  0.404028  0.263284  0.090581  1
  Mo  Mo14  1  0.712131  0.223347  0.539417  1
  Mo  Mo15  1  0.287869  0.223347  0.960583  1
  Mo  Mo16  1  0.287869  0.776653  0.460583  1
  Mo  Mo17  1  0.712131  0.776653  0.039417  1
  O  O18  1  0.000000  0.735619  0.750000  1
  O  O19  1  0.000000  0.264381  0.250000  1
  O  O20  1  0.650062  0.485638  0.721879  1
  O  O21  1  0.349938  0.485638  0.778121  1
  O  O22  1  0.349938  0.514362  0.278121  1
  O  O23  1  0.650062  0.514362  0.221879  1
  O  O24  1  0.653296  0.986539  0.721102  1
  O  O25  1  0.346704  0.986539  0.778898  1
  O  O26  1  0.346704  0.013461  0.278898  1
  O  O27  1  0.653296  0.013461  0.221102  1
  O  O28  1  0.296486  0.231265  0.691761  1
  O  O29  1  0.703514  0.231265  0.808239  1
  O  O30  1  0.703514  0.768735  0.308239  1
  O  O31  1  0.296486  0.768735  0.191761  1
  O  O32  1  0.961964  0.976285  0.662443  1
  O  O33  1  0.038036  0.976285  0.837557  1
  O  O34  1  0.951474  0.465971  0.665522  1
  O  O35  1  0.038036  0.023715  0.337557  1
  O  O36  1  0.243154  0.254797  0.021870  1
  O  O37  1  0.756846  0.254797  0.478130  1
  O  O38  1  0.756846  0.745203  0.978130  1
  O  O39  1  0.243154  0.745203  0.521870  1
  O  O40  1  0.557757  0.540562  0.054858  1
  O  O41  1  0.442243  0.540562  0.445142  1
  O  O42  1  0.442243  0.459438  0.945142  1
  O  O43  1  0.557757  0.459438  0.554858  1
  O  O44  1  0.594922  0.056545  0.049292  1
  O  O45  1  0.405078  0.056545  0.450708  1
  O  O46  1  0.405078  0.943455  0.950708  1
  O  O47  1  0.594922  0.943455  0.549292  1
  O  O48  1  0.938378  0.763909  0.076662  1
  O  O49  1  0.061622  0.763909  0.423338  1
  O  O50  1  0.061622  0.236091  0.923338  1
  O  O51  1  0.938378  0.236091  0.576662  1
  O  O52  1  0.252489  0.494768  0.109693  1
  O  O53  1  0.747511  0.494768  0.390307  1
  O  O54  1  0.747511  0.505232  0.890307  1
  O  O55  1  0.252489  0.505232  0.609693  1
  O  O56  1  0.276490  0.000029  0.106285  1
  O  O57  1  0.723510  0.000029  0.393715  1
  O  O58  1  0.723510  0.999971  0.893715  1
  O  O59  1  0.276490  0.999971  0.606285  1
  O  O60  1  0.601379  0.267593  0.137059  1
  O  O61  1  0.398621  0.267593  0.362941  1
  O  O62  1  0.398621  0.732407  0.862941  1
  O  O63  1  0.601379  0.732407  0.637059  1
  O  O64  1  0.951474  0.534029  0.165522  1
  O  O65  1  0.048526  0.534029  0.334478  1
  O  O66  1  0.048526  0.465971  0.834478  1
  O  O67  1  0.961964  0.023715  0.162443  1
