# generated using pymatgen
data_DyMoClO4
_symmetry_space_group_name_H-M   'P 1'
_cell_length_a   6.32551291
_cell_length_b   6.32551291
_cell_length_c   6.92707253
_cell_angle_alpha   76.00379251
_cell_angle_beta   103.99620749
_cell_angle_gamma   109.18614945
_symmetry_Int_Tables_number   1
_chemical_formula_structural   DyMoClO4
_chemical_formula_sum   'Dy2 Mo2 Cl2 O8'
_cell_volume   249.98142699
_cell_formula_units_Z   2
loop_
 _symmetry_equiv_pos_site_id
 _symmetry_equiv_pos_as_xyz
  1  'x, y, z'
loop_
 _atom_site_type_symbol
 _atom_site_label
 _atom_site_symmetry_multiplicity
 _atom_site_fract_x
 _atom_site_fract_y
 _atom_site_fract_z
 _atom_site_occupancy
  Dy  Dy0  1  0.221792  0.778208  0.112692  1
  Dy  Dy1  1  0.778208  0.221792  0.887308  1
  Mo  Mo2  1  0.637836  0.362164  0.269006  1
  Mo  Mo3  1  0.362164  0.637836  0.730994  1
  Cl  Cl4  1  0.989513  0.010487  0.232521  1
  Cl  Cl5  1  0.010487  0.989513  0.767479  1
  O  O6  1  0.508820  0.109887  0.152879  1
  O  O7  1  0.890113  0.491180  0.152879  1
  O  O8  1  0.706704  0.293296  0.535432  1
  O  O9  1  0.109887  0.508820  0.847121  1
  O  O10  1  0.293296  0.706704  0.464568  1
  O  O11  1  0.491180  0.890113  0.847121  1
  O  O12  1  0.457171  0.542829  0.202428  1
  O  O13  1  0.542829  0.457171  0.797572  1
