# generated using pymatgen
data_Sm(Sb3Os)4
_symmetry_space_group_name_H-M   'P 1'
_cell_length_a   8.15813850
_cell_length_b   8.15813850
_cell_length_c   8.15813850
_cell_angle_alpha   109.47122063
_cell_angle_beta   109.47122063
_cell_angle_gamma   109.47122063
_symmetry_Int_Tables_number   1
_chemical_formula_structural   Sm(Sb3Os)4
_chemical_formula_sum   'Sm1 Sb12 Os4'
_cell_volume   417.97598661
_cell_formula_units_Z   1
loop_
 _symmetry_equiv_pos_site_id
 _symmetry_equiv_pos_as_xyz
  1  'x, y, z'
loop_
 _atom_site_type_symbol
 _atom_site_label
 _atom_site_symmetry_multiplicity
 _atom_site_fract_x
 _atom_site_fract_y
 _atom_site_fract_z
 _atom_site_occupancy
  Sm  Sm0  1  0.000000  0.000000  0.000000  1
  Sb  Sb1  1  0.338318  0.181751  0.843433  1
  Sb  Sb2  1  0.661682  0.818249  0.156567  1
  Sb  Sb3  1  0.661682  0.505114  0.843433  1
  Sb  Sb4  1  0.338318  0.494886  0.156567  1
  Sb  Sb5  1  0.181751  0.843433  0.338318  1
  Sb  Sb6  1  0.818249  0.156567  0.661682  1
  Sb  Sb7  1  0.505114  0.843433  0.661682  1
  Sb  Sb8  1  0.494886  0.156567  0.338318  1
  Sb  Sb9  1  0.843433  0.338318  0.181751  1
  Sb  Sb10  1  0.156567  0.661682  0.818249  1
  Sb  Sb11  1  0.843433  0.661682  0.505114  1
  Sb  Sb12  1  0.156567  0.338318  0.494886  1
  Os  Os13  1  1.000000  1.000000  0.500000  1
  Os  Os14  1  0.500000  1.000000  0.000000  1
  Os  Os15  1  1.000000  0.500000  0.000000  1
  Os  Os16  1  0.500000  0.500000  0.500000  1
