# generated using pymatgen
data_RbNa5(WN3)2
_symmetry_space_group_name_H-M   'P 1'
_cell_length_a   9.42820120
_cell_length_b   10.38204384
_cell_length_c   19.34862859
_cell_angle_alpha   90.00000000
_cell_angle_beta   90.12239634
_cell_angle_gamma   90.00000000
_symmetry_Int_Tables_number   1
_chemical_formula_structural   RbNa5(WN3)2
_chemical_formula_sum   'Rb8 Na40 W16 N48'
_cell_volume   1893.91680500
_cell_formula_units_Z   8
loop_
 _symmetry_equiv_pos_site_id
 _symmetry_equiv_pos_as_xyz
  1  'x, y, z'
loop_
 _atom_site_type_symbol
 _atom_site_label
 _atom_site_symmetry_multiplicity
 _atom_site_fract_x
 _atom_site_fract_y
 _atom_site_fract_z
 _atom_site_occupancy
  Rb  Rb0  1  0.615849  0.768903  0.582061  1
  Rb  Rb1  1  0.384151  0.268903  0.917939  1
  Rb  Rb2  1  0.869453  0.233601  0.961586  1
  Rb  Rb3  1  0.384151  0.231097  0.417939  1
  Rb  Rb4  1  0.130547  0.733601  0.538414  1
  Rb  Rb5  1  0.130547  0.766399  0.038414  1
  Rb  Rb6  1  0.615849  0.731097  0.082061  1
  Rb  Rb7  1  0.869453  0.266399  0.461586  1
  Na  Na8  1  0.372263  0.495476  0.796566  1
  Na  Na9  1  0.873832  0.980729  0.551962  1
  Na  Na10  1  0.106784  0.509212  0.682053  1
  Na  Na11  1  0.366247  0.510166  0.328716  1
  Na  Na12  1  0.868844  0.511820  0.558797  1
  Na  Na13  1  0.618820  0.502869  0.437045  1
  Na  Na14  1  0.622240  0.504539  0.935797  1
  Na  Na15  1  0.878329  0.329938  0.158807  1
  Na  Na16  1  0.378549  0.331591  0.216061  1
  Na  Na17  1  0.621451  0.831591  0.283939  1
  Na  Na18  1  0.126168  0.019271  0.448038  1
  Na  Na19  1  0.378549  0.168409  0.716061  1
  Na  Na20  1  0.633753  0.010166  0.171284  1
  Na  Na21  1  0.372263  0.004524  0.296566  1
  Na  Na22  1  0.627737  0.995476  0.703434  1
  Na  Na23  1  0.633753  0.489834  0.671284  1
  Na  Na24  1  0.874763  0.002705  0.320127  1
  Na  Na25  1  0.121671  0.670062  0.841193  1
  Na  Na26  1  0.106784  0.990788  0.182053  1
  Na  Na27  1  0.627737  0.504524  0.203434  1
  Na  Na28  1  0.131156  0.011820  0.941203  1
  Na  Na29  1  0.893216  0.490788  0.317947  1
  Na  Na30  1  0.125237  0.502705  0.179873  1
  Na  Na31  1  0.621451  0.668409  0.783939  1
  Na  Na32  1  0.131156  0.488180  0.441203  1
  Na  Na33  1  0.622240  0.995461  0.435797  1
  Na  Na34  1  0.873832  0.519271  0.051962  1
  Na  Na35  1  0.381180  0.497131  0.562955  1
  Na  Na36  1  0.121671  0.829938  0.341193  1
  Na  Na37  1  0.868844  0.988180  0.058797  1
  Na  Na38  1  0.125237  0.997295  0.679873  1
  Na  Na39  1  0.377760  0.004539  0.564203  1
  Na  Na40  1  0.893216  0.009212  0.817947  1
  Na  Na41  1  0.381180  0.002869  0.062955  1
  Na  Na42  1  0.377760  0.495461  0.064203  1
  Na  Na43  1  0.618820  0.997131  0.937045  1
  Na  Na44  1  0.126168  0.480729  0.948038  1
  Na  Na45  1  0.878329  0.170062  0.658807  1
  Na  Na46  1  0.874763  0.497295  0.820127  1
  Na  Na47  1  0.366247  0.989834  0.828716  1
  W  W48  1  0.171024  0.238819  0.094181  1
  W  W49  1  0.920607  0.765943  0.711709  1
  W  W50  1  0.577431  0.245289  0.587387  1
  W  W51  1  0.171024  0.261181  0.594181  1
  W  W52  1  0.828976  0.738819  0.405819  1
  W  W53  1  0.828976  0.761181  0.905819  1
  W  W54  1  0.672771  0.237385  0.282711  1
  W  W55  1  0.577431  0.254711  0.087387  1
  W  W56  1  0.327229  0.737385  0.217289  1
  W  W57  1  0.920607  0.734057  0.211709  1
  W  W58  1  0.079393  0.234057  0.288291  1
  W  W59  1  0.079393  0.265943  0.788291  1
  W  W60  1  0.327229  0.762615  0.717289  1
  W  W61  1  0.422569  0.745289  0.912613  1
  W  W62  1  0.422569  0.754711  0.412613  1
  W  W63  1  0.672771  0.262615  0.782711  1
  N  N64  1  0.579617  0.369513  0.326579  1
  N  N65  1  0.384284  0.576148  0.186005  1
  N  N66  1  0.369162  0.757186  0.314833  1
  N  N67  1  0.640519  0.104115  0.048688  1
  N  N68  1  0.654205  0.104435  0.543642  1
  N  N69  1  0.384284  0.923852  0.686005  1
  N  N70  1  0.373124  0.240190  0.581504  1
  N  N71  1  0.926997  0.872798  0.445524  1
  N  N72  1  0.373124  0.259810  0.081504  1
  N  N73  1  0.869648  0.927466  0.679008  1
  N  N74  1  0.888111  0.918654  0.938380  1
  N  N75  1  0.073003  0.127202  0.554476  1
  N  N76  1  0.420383  0.869513  0.173421  1
  N  N77  1  0.420383  0.630487  0.673421  1
  N  N78  1  0.073003  0.372798  0.054476  1
  N  N79  1  0.359481  0.604115  0.451312  1
  N  N80  1  0.111889  0.081346  0.061620  1
  N  N81  1  0.626876  0.759810  0.418496  1
  N  N82  1  0.867663  0.749599  0.807724  1
  N  N83  1  0.832844  0.864290  0.164265  1
  N  N84  1  0.640519  0.395885  0.548688  1
  N  N85  1  0.626876  0.740190  0.918496  1
  N  N86  1  0.869648  0.572534  0.179008  1
  N  N87  1  0.345795  0.895565  0.456358  1
  N  N88  1  0.132337  0.249599  0.692276  1
  N  N89  1  0.345795  0.604435  0.956358  1
  N  N90  1  0.888111  0.581346  0.438380  1
  N  N91  1  0.630838  0.242814  0.685167  1
  N  N92  1  0.926997  0.627202  0.945524  1
  N  N93  1  0.359481  0.895885  0.951312  1
  N  N94  1  0.875653  0.246075  0.794615  1
  N  N95  1  0.579617  0.130487  0.826579  1
  N  N96  1  0.369162  0.742814  0.814833  1
  N  N97  1  0.124347  0.753925  0.205385  1
  N  N98  1  0.832844  0.635710  0.664265  1
  N  N99  1  0.167156  0.135710  0.835735  1
  N  N100  1  0.867663  0.750401  0.307724  1
  N  N101  1  0.132337  0.250401  0.192276  1
  N  N102  1  0.124347  0.746075  0.705385  1
  N  N103  1  0.111889  0.418654  0.561620  1
  N  N104  1  0.615716  0.076148  0.313995  1
  N  N105  1  0.167156  0.364290  0.335735  1
  N  N106  1  0.654205  0.395565  0.043642  1
  N  N107  1  0.630838  0.257186  0.185167  1
  N  N108  1  0.875653  0.253925  0.294615  1
  N  N109  1  0.130352  0.072534  0.320992  1
  N  N110  1  0.615716  0.423852  0.813995  1
  N  N111  1  0.130352  0.427466  0.820992  1
