# generated using pymatgen
data_CsTiCu3Se4
_symmetry_space_group_name_H-M   'P 1'
_cell_length_a   5.82540742
_cell_length_b   7.85482013
_cell_length_c   10.39247129
_cell_angle_alpha   90.00000000
_cell_angle_beta   106.24755953
_cell_angle_gamma   90.00000000
_symmetry_Int_Tables_number   1
_chemical_formula_structural   CsTiCu3Se4
_chemical_formula_sum   'Cs2 Ti2 Cu6 Se8'
_cell_volume   456.54181400
_cell_formula_units_Z   2
loop_
 _symmetry_equiv_pos_site_id
 _symmetry_equiv_pos_as_xyz
  1  'x, y, z'
loop_
 _atom_site_type_symbol
 _atom_site_label
 _atom_site_symmetry_multiplicity
 _atom_site_fract_x
 _atom_site_fract_y
 _atom_site_fract_z
 _atom_site_occupancy
  Cs  Cs0  1  0.800409  0.750000  0.621990  1
  Cs  Cs1  1  0.199591  0.250000  0.378010  1
  Ti  Ti2  1  0.146641  0.250000  0.794683  1
  Ti  Ti3  1  0.853359  0.750000  0.205317  1
  Cu  Cu4  1  0.719971  0.494222  0.997867  1
  Cu  Cu5  1  0.650437  0.250000  0.800339  1
  Cu  Cu6  1  0.349563  0.750000  0.199661  1
  Cu  Cu7  1  0.280029  0.505778  0.002133  1
  Cu  Cu8  1  0.280029  0.994222  0.002133  1
  Cu  Cu9  1  0.719971  0.005778  0.997867  1
  Se  Se10  1  0.386930  0.503118  0.789219  1
  Se  Se11  1  0.613070  0.003118  0.210781  1
  Se  Se12  1  0.386930  0.996882  0.789219  1
  Se  Se13  1  0.613070  0.496882  0.210781  1
  Se  Se14  1  0.979004  0.750000  0.996916  1
  Se  Se15  1  0.020996  0.250000  0.003084  1
  Se  Se16  1  0.192041  0.750000  0.393814  1
  Se  Se17  1  0.807959  0.250000  0.606186  1
