# generated using pymatgen
data_NaSO4
_symmetry_space_group_name_H-M   'P 1'
_cell_length_a   4.87763914
_cell_length_b   5.71308924
_cell_length_c   6.19528987
_cell_angle_alpha   101.54605929
_cell_angle_beta   103.10247742
_cell_angle_gamma   97.66481561
_symmetry_Int_Tables_number   1
_chemical_formula_structural   NaSO4
_chemical_formula_sum   'Na2 S2 O8'
_cell_volume   161.82714535
_cell_formula_units_Z   2
loop_
 _symmetry_equiv_pos_site_id
 _symmetry_equiv_pos_as_xyz
  1  'x, y, z'
loop_
 _atom_site_type_symbol
 _atom_site_label
 _atom_site_symmetry_multiplicity
 _atom_site_fract_x
 _atom_site_fract_y
 _atom_site_fract_z
 _atom_site_occupancy
  Na  Na0  1  0.034955  0.313931  0.206845  1
  Na  Na1  1  0.965045  0.686069  0.793155  1
  S  S2  1  0.610607  0.779584  0.248084  1
  S  S3  1  0.389393  0.220416  0.751916  1
  O  O4  1  0.770036  0.896273  0.113421  1
  O  O5  1  0.229964  0.103727  0.886579  1
  O  O6  1  0.579079  0.035420  0.416262  1
  O  O7  1  0.231413  0.355346  0.606263  1
  O  O8  1  0.420921  0.964580  0.583738  1
  O  O9  1  0.320145  0.651663  0.126749  1
  O  O10  1  0.768587  0.644654  0.393737  1
  O  O11  1  0.679855  0.348337  0.873251  1
