# generated using pymatgen
data_Rb2Te(H6O5)2
_symmetry_space_group_name_H-M   'P 1'
_cell_length_a   7.15633416
_cell_length_b   8.43416884
_cell_length_c   9.45516758
_cell_angle_alpha   101.95165266
_cell_angle_beta   98.09199126
_cell_angle_gamma   94.22763365
_symmetry_Int_Tables_number   1
_chemical_formula_structural   Rb2Te(H6O5)2
_chemical_formula_sum   'Rb4 Te2 H24 O20'
_cell_volume   549.63602318
_cell_formula_units_Z   2
loop_
 _symmetry_equiv_pos_site_id
 _symmetry_equiv_pos_as_xyz
  1  'x, y, z'
loop_
 _atom_site_type_symbol
 _atom_site_label
 _atom_site_symmetry_multiplicity
 _atom_site_fract_x
 _atom_site_fract_y
 _atom_site_fract_z
 _atom_site_occupancy
  Rb  Rb0  1  0.939288  0.131645  0.707827  1
  Rb  Rb1  1  0.561074  0.538168  0.203947  1
  Rb  Rb2  1  0.060712  0.868355  0.292173  1
  Rb  Rb3  1  0.438926  0.461832  0.796053  1
  Te  Te4  1  0.132072  0.428538  0.387755  1
  Te  Te5  1  0.867928  0.571462  0.612245  1
  H  H6  1  0.390552  0.142468  0.305742  1
  H  H7  1  0.402773  0.049277  0.627730  1
  H  H8  1  0.503898  0.054556  0.184862  1
  H  H9  1  0.288754  0.137682  0.962158  1
  H  H10  1  0.192404  0.863388  0.822049  1
  H  H11  1  0.712079  0.150340  0.021452  1
  H  H12  1  0.586601  0.358231  0.501180  1
  H  H13  1  0.911653  0.381927  0.062239  1
  H  H14  1  0.783049  0.704114  0.945902  1
  H  H15  1  0.088347  0.618073  0.937761  1
  H  H16  1  0.830696  0.426918  0.912700  1
  H  H17  1  0.863183  0.240018  0.409293  1
  H  H18  1  0.711246  0.862318  0.037842  1
  H  H19  1  0.413399  0.641769  0.498820  1
  H  H20  1  0.678952  0.831113  0.473120  1
  H  H21  1  0.609448  0.857532  0.694258  1
  H  H22  1  0.597227  0.950723  0.372270  1
  H  H23  1  0.169304  0.573082  0.087300  1
  H  H24  1  0.807596  0.136612  0.177951  1
  H  H25  1  0.216951  0.295886  0.054098  1
  H  H26  1  0.321048  0.168887  0.526880  1
  H  H27  1  0.287921  0.849660  0.978548  1
  H  H28  1  0.496102  0.945444  0.815138  1
  H  H29  1  0.136817  0.759982  0.590707  1
  O  O30  1  0.880626  0.571368  0.812771  1
  O  O31  1  0.714212  0.909433  0.413840  1
  O  O32  1  0.799559  0.357340  0.981594  1
  O  O33  1  0.351484  0.320521  0.417601  1
  O  O34  1  0.718821  0.744383  0.031068  1
  O  O35  1  0.281179  0.255617  0.968932  1
  O  O36  1  0.094780  0.445010  0.599387  1
  O  O37  1  0.708922  0.080881  0.093149  1
  O  O38  1  0.956430  0.219314  0.340802  1
  O  O39  1  0.119374  0.428632  0.187229  1
  O  O40  1  0.043570  0.780686  0.659198  1
  O  O41  1  0.200441  0.642660  0.018406  1
  O  O42  1  0.420379  0.032929  0.255280  1
  O  O43  1  0.281647  0.649556  0.449417  1
  O  O44  1  0.285788  0.090567  0.586160  1
  O  O45  1  0.648516  0.679479  0.582399  1
  O  O46  1  0.905220  0.554990  0.400613  1
  O  O47  1  0.291078  0.919119  0.906851  1
  O  O48  1  0.579621  0.967071  0.744720  1
  O  O49  1  0.718353  0.350444  0.550583  1
