# generated using pymatgen
data_SrZn(SeO3)2
_symmetry_space_group_name_H-M   'P 1'
_cell_length_a   4.58023442
_cell_length_b   15.17288940
_cell_length_c   10.18503029
_cell_angle_alpha   90.00000000
_cell_angle_beta   111.24383437
_cell_angle_gamma   90.00000000
_symmetry_Int_Tables_number   1
_chemical_formula_structural   SrZn(SeO3)2
_chemical_formula_sum   'Sr4 Zn4 Se8 O24'
_cell_volume   659.71456721
_cell_formula_units_Z   4
loop_
 _symmetry_equiv_pos_site_id
 _symmetry_equiv_pos_as_xyz
  1  'x, y, z'
loop_
 _atom_site_type_symbol
 _atom_site_label
 _atom_site_symmetry_multiplicity
 _atom_site_fract_x
 _atom_site_fract_y
 _atom_site_fract_z
 _atom_site_occupancy
  Sr  Sr0  1  0.287537  0.116664  0.540779  1
  Sr  Sr1  1  0.287537  0.383336  0.040779  1
  Sr  Sr2  1  0.712463  0.883336  0.459221  1
  Sr  Sr3  1  0.712463  0.616664  0.959221  1
  Zn  Zn4  1  0.507971  0.848680  0.777335  1
  Zn  Zn5  1  0.507971  0.651320  0.277335  1
  Zn  Zn6  1  0.492029  0.348680  0.722665  1
  Zn  Zn7  1  0.492029  0.151320  0.222665  1
  Se  Se8  1  0.640255  0.302352  0.436492  1
  Se  Se9  1  0.973282  0.005202  0.220539  1
  Se  Se10  1  0.359745  0.802352  0.063508  1
  Se  Se11  1  0.640255  0.197648  0.936492  1
  Se  Se12  1  0.026718  0.994798  0.779461  1
  Se  Se13  1  0.973282  0.494798  0.720539  1
  Se  Se14  1  0.026718  0.505202  0.279461  1
  Se  Se15  1  0.359745  0.697648  0.563508  1
  O  O16  1  0.273711  0.810063  0.573872  1
  O  O17  1  0.371573  0.187527  0.771178  1
  O  O18  1  0.401837  0.980190  0.779518  1
  O  O19  1  0.593662  0.790466  0.961489  1
  O  O20  1  0.726289  0.310063  0.926128  1
  O  O21  1  0.163281  0.534324  0.889474  1
  O  O22  1  0.628427  0.812473  0.228822  1
  O  O23  1  0.836719  0.034324  0.610526  1
  O  O24  1  0.836719  0.465676  0.110526  1
  O  O25  1  0.079664  0.383449  0.743497  1
  O  O26  1  0.598163  0.019810  0.220482  1
  O  O27  1  0.593662  0.709534  0.461489  1
  O  O28  1  0.163281  0.965676  0.389474  1
  O  O29  1  0.273711  0.689937  0.073872  1
  O  O30  1  0.726289  0.189937  0.426128  1
  O  O31  1  0.598163  0.480190  0.720482  1
  O  O32  1  0.401837  0.519810  0.279518  1
  O  O33  1  0.406338  0.209534  0.038511  1
  O  O34  1  0.079664  0.116551  0.243497  1
  O  O35  1  0.920336  0.616551  0.256503  1
  O  O36  1  0.371573  0.312473  0.271178  1
  O  O37  1  0.920336  0.883449  0.756503  1
  O  O38  1  0.406338  0.290466  0.538511  1
  O  O39  1  0.628427  0.687527  0.728822  1
