# generated using pymatgen
data_SiP2O7
_symmetry_space_group_name_H-M   'P 1'
_cell_length_a   4.80639619
_cell_length_b   4.80639619
_cell_length_c   12.10629701
_cell_angle_alpha   90.00000000
_cell_angle_beta   90.00000000
_cell_angle_gamma   120.00000000
_symmetry_Int_Tables_number   1
_chemical_formula_structural   SiP2O7
_chemical_formula_sum   'Si2 P4 O14'
_cell_volume   242.20387689
_cell_formula_units_Z   2
loop_
 _symmetry_equiv_pos_site_id
 _symmetry_equiv_pos_as_xyz
  1  'x, y, z'
loop_
 _atom_site_type_symbol
 _atom_site_label
 _atom_site_symmetry_multiplicity
 _atom_site_fract_x
 _atom_site_fract_y
 _atom_site_fract_z
 _atom_site_occupancy
  Si  Si0  1  0.000000  0.000000  0.000000  1
  Si  Si1  1  0.000000  0.000000  0.500000  1
  P  P2  1  0.333333  0.666667  0.880052  1
  P  P3  1  0.666667  0.333333  0.119948  1
  P  P4  1  0.666667  0.333333  0.380052  1
  P  P5  1  0.333333  0.666667  0.619948  1
  O  O6  1  0.925754  0.255572  0.086353  1
  O  O7  1  0.744428  0.670182  0.086353  1
  O  O8  1  0.074246  0.744428  0.586353  1
  O  O9  1  0.255572  0.329818  0.913647  1
  O  O10  1  0.333333  0.666667  0.750000  1
  O  O11  1  0.670182  0.925754  0.586353  1
  O  O12  1  0.744428  0.670182  0.413647  1
  O  O13  1  0.670182  0.925754  0.913647  1
  O  O14  1  0.329818  0.074246  0.086353  1
  O  O15  1  0.255572  0.329818  0.586353  1
  O  O16  1  0.925754  0.255572  0.413647  1
  O  O17  1  0.329818  0.074246  0.413647  1
  O  O18  1  0.074246  0.744428  0.913647  1
  O  O19  1  0.666667  0.333333  0.250000  1
