# generated using pymatgen
data_Ni5Te4(ClO6)2
_symmetry_space_group_name_H-M   'P 1'
_cell_length_a   10.27646508
_cell_length_b   10.27646508
_cell_length_c   16.41660965
_cell_angle_alpha   56.26764086
_cell_angle_beta   123.73235914
_cell_angle_gamma   150.05134087
_symmetry_Int_Tables_number   1
_chemical_formula_structural   Ni5Te4(ClO6)2
_chemical_formula_sum   'Ni10 Te8 Cl4 O24'
_cell_volume   708.21099402
_cell_formula_units_Z   2
loop_
 _symmetry_equiv_pos_site_id
 _symmetry_equiv_pos_as_xyz
  1  'x, y, z'
loop_
 _atom_site_type_symbol
 _atom_site_label
 _atom_site_symmetry_multiplicity
 _atom_site_fract_x
 _atom_site_fract_y
 _atom_site_fract_z
 _atom_site_occupancy
  Ni  Ni0  1  0.876910  0.695759  0.473172  1
  Ni  Ni1  1  0.695759  0.876910  0.026828  1
  Ni  Ni2  1  0.759699  0.759699  0.250000  1
  Ni  Ni3  1  0.123090  0.304241  0.526828  1
  Ni  Ni4  1  0.209188  0.226787  0.379010  1
  Ni  Ni5  1  0.790812  0.773213  0.620990  1
  Ni  Ni6  1  0.226787  0.209188  0.120990  1
  Ni  Ni7  1  0.773213  0.790812  0.879010  1
  Ni  Ni8  1  0.304241  0.123090  0.973172  1
  Ni  Ni9  1  0.240301  0.240301  0.750000  1
  Te  Te10  1  0.142179  0.437756  0.120078  1
  Te  Te11  1  0.562244  0.857821  0.620078  1
  Te  Te12  1  0.437756  0.142179  0.379922  1
  Te  Te13  1  0.552967  0.804161  0.361965  1
  Te  Te14  1  0.804161  0.552967  0.138035  1
  Te  Te15  1  0.195839  0.447033  0.861965  1
  Te  Te16  1  0.857821  0.562244  0.879922  1
  Te  Te17  1  0.447033  0.195839  0.638035  1
  Cl  Cl18  1  0.549846  0.077496  0.092960  1
  Cl  Cl19  1  0.077496  0.549846  0.407040  1
  Cl  Cl20  1  0.922504  0.450154  0.592960  1
  Cl  Cl21  1  0.450154  0.922504  0.907040  1
  O  O22  1  0.754087  0.948675  0.479908  1
  O  O23  1  0.452521  0.220011  0.249926  1
  O  O24  1  0.307434  0.448303  0.430799  1
  O  O25  1  0.911037  0.064756  0.644754  1
  O  O26  1  0.206174  0.125342  0.643340  1
  O  O27  1  0.448303  0.307434  0.069201  1
  O  O28  1  0.692566  0.551697  0.569201  1
  O  O29  1  0.444442  0.573480  0.131271  1
  O  O30  1  0.573480  0.444442  0.368729  1
  O  O31  1  0.948675  0.754087  0.020092  1
  O  O32  1  0.064756  0.911037  0.855246  1
  O  O33  1  0.935244  0.088963  0.144754  1
  O  O34  1  0.779989  0.547479  0.749926  1
  O  O35  1  0.547479  0.779989  0.750074  1
  O  O36  1  0.793826  0.874658  0.356660  1
  O  O37  1  0.245913  0.051325  0.520092  1
  O  O38  1  0.551697  0.692566  0.930799  1
  O  O39  1  0.088963  0.935244  0.355246  1
  O  O40  1  0.555558  0.426520  0.868729  1
  O  O41  1  0.426520  0.555558  0.631271  1
  O  O42  1  0.051325  0.245913  0.979908  1
  O  O43  1  0.125342  0.206174  0.856660  1
  O  O44  1  0.874658  0.793826  0.143340  1
  O  O45  1  0.220011  0.452521  0.250074  1
