# generated using pymatgen
data_Ta2Co
_symmetry_space_group_name_H-M   'P 1'
_cell_length_a   4.99925852
_cell_length_b   4.99925852
_cell_length_c   4.99925852
_cell_angle_alpha   104.37774650
_cell_angle_beta   104.37774650
_cell_angle_gamma   120.22338486
_symmetry_Int_Tables_number   1
_chemical_formula_structural   Ta2Co
_chemical_formula_sum   'Ta4 Co2'
_cell_volume   93.60170286
_cell_formula_units_Z   2
loop_
 _symmetry_equiv_pos_site_id
 _symmetry_equiv_pos_as_xyz
  1  'x, y, z'
loop_
 _atom_site_type_symbol
 _atom_site_label
 _atom_site_symmetry_multiplicity
 _atom_site_fract_x
 _atom_site_fract_y
 _atom_site_fract_z
 _atom_site_occupancy
  Ta  Ta0  1  0.160942  0.339058  0.500000  1
  Ta  Ta1  1  0.839058  0.660942  0.500000  1
  Ta  Ta2  1  0.339058  0.839058  0.178116  1
  Ta  Ta3  1  0.660942  0.160942  0.821884  1
  Co  Co4  1  0.750000  0.750000  0.000000  1
  Co  Co5  1  0.250000  0.250000  0.000000  1
