# generated using pymatgen
data_NaGdH2S2O9
_symmetry_space_group_name_H-M   'P 1'
_cell_length_a   6.99002750
_cell_length_b   6.99002750
_cell_length_c   12.87657561
_cell_angle_alpha   90.00000000
_cell_angle_beta   90.00000000
_cell_angle_gamma   120.00000000
_symmetry_Int_Tables_number   1
_chemical_formula_structural   NaGdH2S2O9
_chemical_formula_sum   'Na3 Gd3 H6 S6 O27'
_cell_volume   544.86483912
_cell_formula_units_Z   3
loop_
 _symmetry_equiv_pos_site_id
 _symmetry_equiv_pos_as_xyz
  1  'x, y, z'
loop_
 _atom_site_type_symbol
 _atom_site_label
 _atom_site_symmetry_multiplicity
 _atom_site_fract_x
 _atom_site_fract_y
 _atom_site_fract_z
 _atom_site_occupancy
  Na  Na0  1  0.470406  0.000000  0.166667  1
  Na  Na1  1  0.529594  0.529594  0.500000  1
  Na  Na2  1  0.000000  0.470406  0.833333  1
  Gd  Gd3  1  0.440695  0.000000  0.666667  1
  Gd  Gd4  1  0.559305  0.559305  0.000000  1
  Gd  Gd5  1  0.000000  0.440695  0.333333  1
  H  H6  1  0.061969  0.102276  0.629260  1
  H  H7  1  0.897724  0.959693  0.295926  1
  H  H8  1  0.938031  0.040307  0.037407  1
  H  H9  1  0.959693  0.897724  0.704074  1
  H  H10  1  0.102276  0.061969  0.370740  1
  H  H11  1  0.040307  0.938031  0.962593  1
  S  S12  1  0.555637  0.543946  0.241758  1
  S  S13  1  0.988310  0.444363  0.575092  1
  S  S14  1  0.543946  0.555637  0.758242  1
  S  S15  1  0.456054  0.011690  0.908425  1
  S  S16  1  0.444363  0.988310  0.424908  1
  S  S17  1  0.011690  0.456054  0.091575  1
  O  O18  1  0.587317  0.754475  0.697479  1
  O  O19  1  0.412683  0.167158  0.969187  1
  O  O20  1  0.167158  0.412683  0.030813  1
  O  O21  1  0.754475  0.587317  0.302521  1
  O  O22  1  0.485880  0.354862  0.168575  1
  O  O23  1  0.739404  0.611203  0.826013  1
  O  O24  1  0.245525  0.832842  0.364146  1
  O  O25  1  0.645138  0.131018  0.835242  1
  O  O26  1  0.621083  0.125785  0.349833  1
  O  O27  1  0.868982  0.514120  0.501909  1
  O  O28  1  0.495299  0.874215  0.983500  1
  O  O29  1  0.093770  0.000000  0.666667  1
  O  O30  1  0.128200  0.388797  0.507321  1
  O  O31  1  0.832842  0.245525  0.635854  1
  O  O32  1  0.871800  0.260596  0.159346  1
  O  O33  1  0.514120  0.868982  0.498091  1
  O  O34  1  0.504701  0.378917  0.683167  1
  O  O35  1  0.906230  0.906230  0.000000  1
  O  O36  1  0.874215  0.495299  0.016500  1
  O  O37  1  0.611203  0.739404  0.173987  1
  O  O38  1  0.378917  0.504701  0.316833  1
  O  O39  1  0.000000  0.093770  0.333333  1
  O  O40  1  0.354862  0.485880  0.831425  1
  O  O41  1  0.131018  0.645138  0.164758  1
  O  O42  1  0.125785  0.621083  0.650167  1
  O  O43  1  0.260596  0.871800  0.840654  1
  O  O44  1  0.388797  0.128200  0.492679  1
