# generated using pymatgen
data_MoAs2O7
_symmetry_space_group_name_H-M   'P 1'
_cell_length_a   8.10499839
_cell_length_b   4.68137019
_cell_length_c   17.43498973
_cell_angle_alpha   90.00000000
_cell_angle_beta   108.30512330
_cell_angle_gamma   90.00000000
_symmetry_Int_Tables_number   1
_chemical_formula_structural   MoAs2O7
_chemical_formula_sum   'Mo4 As8 O28'
_cell_volume   628.05206950
_cell_formula_units_Z   4
loop_
 _symmetry_equiv_pos_site_id
 _symmetry_equiv_pos_as_xyz
  1  'x, y, z'
loop_
 _atom_site_type_symbol
 _atom_site_label
 _atom_site_symmetry_multiplicity
 _atom_site_fract_x
 _atom_site_fract_y
 _atom_site_fract_z
 _atom_site_occupancy
  Mo  Mo0  1  0.937728  0.503039  0.596489  1
  Mo  Mo1  1  0.062272  0.003039  0.903511  1
  Mo  Mo2  1  0.062272  0.496961  0.403511  1
  Mo  Mo3  1  0.937728  0.996961  0.096489  1
  As  As4  1  0.589676  0.052130  0.711216  1
  As  As5  1  0.410324  0.552130  0.788784  1
  As  As6  1  0.410324  0.947870  0.288784  1
  As  As7  1  0.589676  0.447870  0.211216  1
  As  As8  1  0.225063  0.955637  0.557338  1
  As  As9  1  0.774937  0.455637  0.942662  1
  As  As10  1  0.225063  0.544363  0.057338  1
  As  As11  1  0.774937  0.044363  0.442662  1
  O  O12  1  0.557125  0.686408  0.735258  1
  O  O13  1  0.442875  0.186408  0.764742  1
  O  O14  1  0.442875  0.313592  0.264742  1
  O  O15  1  0.557125  0.813592  0.235258  1
  O  O16  1  0.019450  0.287927  0.679483  1
  O  O17  1  0.980550  0.787927  0.820517  1
  O  O18  1  0.980550  0.712073  0.320517  1
  O  O19  1  0.019450  0.212073  0.179483  1
  O  O20  1  0.242842  0.752665  0.477784  1
  O  O21  1  0.757158  0.252665  0.022216  1
  O  O22  1  0.757158  0.247335  0.522216  1
  O  O23  1  0.242842  0.747335  0.977784  1
  O  O24  1  0.155291  0.748039  0.124044  1
  O  O25  1  0.844709  0.248039  0.375956  1
  O  O26  1  0.844709  0.251961  0.875956  1
  O  O27  1  0.155291  0.751961  0.624044  1
  O  O28  1  0.433165  0.424813  0.105609  1
  O  O29  1  0.566835  0.924813  0.394391  1
  O  O30  1  0.566835  0.575187  0.894391  1
  O  O31  1  0.433165  0.075187  0.605609  1
  O  O32  1  0.096792  0.256582  0.524569  1
  O  O33  1  0.207929  0.277963  0.378741  1
  O  O34  1  0.207929  0.222037  0.878741  1
  O  O35  1  0.792071  0.722037  0.621259  1
  O  O36  1  0.096792  0.243418  0.024569  1
  O  O37  1  0.903208  0.743418  0.475431  1
  O  O38  1  0.903208  0.756582  0.975431  1
  O  O39  1  0.792071  0.777963  0.121259  1
