# generated using pymatgen
data_K2Sr(PO3)4
_symmetry_space_group_name_H-M   'P 1'
_cell_length_a   7.42547044
_cell_length_b   7.42547044
_cell_length_c   7.42547044
_cell_angle_alpha   118.74077376
_cell_angle_beta   118.74077376
_cell_angle_gamma   92.19524216
_symmetry_Int_Tables_number   1
_chemical_formula_structural   K2Sr(PO3)4
_chemical_formula_sum   'K2 Sr1 P4 O12'
_cell_volume   294.78169647
_cell_formula_units_Z   1
loop_
 _symmetry_equiv_pos_site_id
 _symmetry_equiv_pos_as_xyz
  1  'x, y, z'
loop_
 _atom_site_type_symbol
 _atom_site_label
 _atom_site_symmetry_multiplicity
 _atom_site_fract_x
 _atom_site_fract_y
 _atom_site_fract_z
 _atom_site_occupancy
  K  K0  1  0.075896  0.575896  0.500000  1
  K  K1  1  0.424104  0.924104  0.500000  1
  Sr  Sr2  1  1.000000  1.000000  0.000000  1
  P  P3  1  0.000987  0.440346  0.875549  1
  P  P4  1  0.559654  0.435203  0.560641  1
  P  P5  1  0.874562  0.999013  0.439359  1
  P  P6  1  0.564797  0.125438  0.124451  1
  O  O7  1  0.632005  0.990660  0.253277  1
  O  O8  1  0.737383  0.378729  0.746723  1
  O  O9  1  0.621271  0.367995  0.358655  1
  O  O10  1  0.983286  0.910790  0.306706  1
  O  O11  1  0.604084  0.676579  0.693294  1
  O  O12  1  0.100784  0.659016  0.937528  1
  O  O13  1  0.721487  0.163256  0.062472  1
  O  O14  1  0.340984  0.278513  0.441768  1
  O  O15  1  0.089210  0.395916  0.072495  1
  O  O16  1  0.836744  0.899216  0.558232  1
  O  O17  1  0.009340  0.262617  0.641345  1
  O  O18  1  0.323420  0.016714  0.927505  1
