# generated using pymatgen
data_Ba(AlGe)2
_symmetry_space_group_name_H-M   'P 1'
_cell_length_a   4.32474909
_cell_length_b   10.29351753
_cell_length_c   11.08905160
_cell_angle_alpha   90.00000000
_cell_angle_beta   90.00000000
_cell_angle_gamma   90.00000000
_symmetry_Int_Tables_number   1
_chemical_formula_structural   Ba(AlGe)2
_chemical_formula_sum   'Ba4 Al8 Ge8'
_cell_volume   493.64998572
_cell_formula_units_Z   4
loop_
 _symmetry_equiv_pos_site_id
 _symmetry_equiv_pos_as_xyz
  1  'x, y, z'
loop_
 _atom_site_type_symbol
 _atom_site_label
 _atom_site_symmetry_multiplicity
 _atom_site_fract_x
 _atom_site_fract_y
 _atom_site_fract_z
 _atom_site_occupancy
  Ba  Ba0  1  0.750000  0.251829  0.674901  1
  Ba  Ba1  1  0.750000  0.751829  0.825099  1
  Ba  Ba2  1  0.250000  0.748171  0.325099  1
  Ba  Ba3  1  0.250000  0.248171  0.174901  1
  Al  Al4  1  0.250000  0.042909  0.881594  1
  Al  Al5  1  0.750000  0.898861  0.546999  1
  Al  Al6  1  0.750000  0.457091  0.381594  1
  Al  Al7  1  0.750000  0.398861  0.953001  1
  Al  Al8  1  0.250000  0.601139  0.046999  1
  Al  Al9  1  0.250000  0.542909  0.618406  1
  Al  Al10  1  0.750000  0.957091  0.118406  1
  Al  Al11  1  0.250000  0.101139  0.453001  1
  Ge  Ge12  1  0.250000  0.354371  0.459746  1
  Ge  Ge13  1  0.750000  0.645629  0.540254  1
  Ge  Ge14  1  0.250000  0.475645  0.843213  1
  Ge  Ge15  1  0.750000  0.524355  0.156787  1
  Ge  Ge16  1  0.750000  0.024355  0.343213  1
  Ge  Ge17  1  0.250000  0.854371  0.040254  1
  Ge  Ge18  1  0.250000  0.975645  0.656787  1
  Ge  Ge19  1  0.750000  0.145629  0.959746  1
