# generated using pymatgen
data_Lu2(CN2)3
_symmetry_space_group_name_H-M   'P 1'
_cell_length_a   6.16302838
_cell_length_b   6.16302838
_cell_length_c   6.16302838
_cell_angle_alpha   60.77112174
_cell_angle_beta   60.77112174
_cell_angle_gamma   60.77112174
_symmetry_Int_Tables_number   1
_chemical_formula_structural   Lu2(CN2)3
_chemical_formula_sum   'Lu2 C3 N6'
_cell_volume   168.40601056
_cell_formula_units_Z   1
loop_
 _symmetry_equiv_pos_site_id
 _symmetry_equiv_pos_as_xyz
  1  'x, y, z'
loop_
 _atom_site_type_symbol
 _atom_site_label
 _atom_site_symmetry_multiplicity
 _atom_site_fract_x
 _atom_site_fract_y
 _atom_site_fract_z
 _atom_site_occupancy
  Lu  Lu0  1  0.827752  0.827752  0.827752  1
  Lu  Lu1  1  0.172248  0.172248  0.172248  1
  C  C2  1  0.289448  0.710552  1.000000  1
  C  C3  1  0.710552  0.000000  0.289448  1
  C  C4  1  0.000000  0.289448  0.710552  1
  N  N5  1  0.404672  0.832962  0.990256  1
  N  N6  1  0.009744  0.167038  0.595328  1
  N  N7  1  0.167038  0.595328  0.009744  1
  N  N8  1  0.832962  0.990256  0.404672  1
  N  N9  1  0.595328  0.009744  0.167038  1
  N  N10  1  0.990256  0.404672  0.832962  1
