# generated using pymatgen
data_K4GeSe4
_symmetry_space_group_name_H-M   'P 1'
_cell_length_a   13.47691382
_cell_length_b   13.47691382
_cell_length_c   13.47691382
_cell_angle_alpha   90.00000000
_cell_angle_beta   90.00000000
_cell_angle_gamma   90.00000000
_symmetry_Int_Tables_number   1
_chemical_formula_structural   K4GeSe4
_chemical_formula_sum   'K32 Ge8 Se32'
_cell_volume   2447.77420413
_cell_formula_units_Z   8
loop_
 _symmetry_equiv_pos_site_id
 _symmetry_equiv_pos_as_xyz
  1  'x, y, z'
loop_
 _atom_site_type_symbol
 _atom_site_label
 _atom_site_symmetry_multiplicity
 _atom_site_fract_x
 _atom_site_fract_y
 _atom_site_fract_z
 _atom_site_occupancy
  K  K0  1  0.411604  0.149064  0.367583  1
  K  K1  1  0.850272  0.850272  0.149728  1
  K  K2  1  0.850936  0.367583  0.588396  1
  K  K3  1  0.867583  0.350936  0.088396  1
  K  K4  1  0.850936  0.632417  0.411604  1
  K  K5  1  0.350936  0.088396  0.867583  1
  K  K6  1  0.911604  0.867583  0.649064  1
  K  K7  1  0.850272  0.149728  0.850272  1
  K  K8  1  0.649728  0.350272  0.350272  1
  K  K9  1  0.149728  0.850272  0.850272  1
  K  K10  1  0.649728  0.649728  0.649728  1
  K  K11  1  0.088396  0.867583  0.350936  1
  K  K12  1  0.350272  0.649728  0.350272  1
  K  K13  1  0.367583  0.588396  0.850936  1
  K  K14  1  0.132417  0.649064  0.088396  1
  K  K15  1  0.632417  0.588396  0.149064  1
  K  K16  1  0.588396  0.850936  0.367583  1
  K  K17  1  0.149064  0.367583  0.411604  1
  K  K18  1  0.649064  0.911604  0.867583  1
  K  K19  1  0.149064  0.632417  0.588396  1
  K  K20  1  0.632417  0.411604  0.850936  1
  K  K21  1  0.132417  0.350936  0.911604  1
  K  K22  1  0.350936  0.911604  0.132417  1
  K  K23  1  0.588396  0.149064  0.632417  1
  K  K24  1  0.649064  0.088396  0.132417  1
  K  K25  1  0.867583  0.649064  0.911604  1
  K  K26  1  0.088396  0.132417  0.649064  1
  K  K27  1  0.149728  0.149728  0.149728  1
  K  K28  1  0.350272  0.350272  0.649728  1
  K  K29  1  0.911604  0.132417  0.350936  1
  K  K30  1  0.367583  0.411604  0.149064  1
  K  K31  1  0.411604  0.850936  0.632417  1
  Ge  Ge32  1  0.500000  0.500000  0.500000  1
  Ge  Ge33  1  0.000000  0.500000  0.250000  1
  Ge  Ge34  1  0.000000  0.500000  0.750000  1
  Ge  Ge35  1  0.500000  0.250000  0.000000  1
  Ge  Ge36  1  0.000000  0.000000  0.000000  1
  Ge  Ge37  1  0.750000  0.000000  0.500000  1
  Ge  Ge38  1  0.500000  0.750000  0.000000  1
  Ge  Ge39  1  0.250000  0.000000  0.500000  1
  Se  Se40  1  0.886688  0.597570  0.153558  1
  Se  Se41  1  0.097570  0.386688  0.653558  1
  Se  Se42  1  0.846442  0.113312  0.597570  1
  Se  Se43  1  0.402430  0.153558  0.113312  1
  Se  Se44  1  0.613312  0.346442  0.097570  1
  Se  Se45  1  0.613312  0.653558  0.902430  1
  Se  Se46  1  0.602415  0.397585  0.602415  1
  Se  Se47  1  0.386688  0.653558  0.097570  1
  Se  Se48  1  0.846442  0.886688  0.402430  1
  Se  Se49  1  0.153558  0.886688  0.597570  1
  Se  Se50  1  0.397585  0.397585  0.397585  1
  Se  Se51  1  0.902430  0.386688  0.346442  1
  Se  Se52  1  0.902430  0.613312  0.653558  1
  Se  Se53  1  0.102415  0.102415  0.897585  1
  Se  Se54  1  0.653558  0.097570  0.386688  1
  Se  Se55  1  0.602415  0.602415  0.397585  1
  Se  Se56  1  0.153558  0.113312  0.402430  1
  Se  Se57  1  0.597570  0.153558  0.886688  1
  Se  Se58  1  0.346442  0.097570  0.613312  1
  Se  Se59  1  0.897585  0.102415  0.102415  1
  Se  Se60  1  0.346442  0.902430  0.386688  1
  Se  Se61  1  0.897585  0.897585  0.897585  1
  Se  Se62  1  0.886688  0.402430  0.846442  1
  Se  Se63  1  0.597570  0.846442  0.113312  1
  Se  Se64  1  0.102415  0.897585  0.102415  1
  Se  Se65  1  0.386688  0.346442  0.902430  1
  Se  Se66  1  0.113312  0.597570  0.846442  1
  Se  Se67  1  0.653558  0.902430  0.613312  1
  Se  Se68  1  0.097570  0.613312  0.346442  1
  Se  Se69  1  0.397585  0.602415  0.602415  1
  Se  Se70  1  0.113312  0.402430  0.153558  1
  Se  Se71  1  0.402430  0.846442  0.886688  1
