# generated using pymatgen
data_BaCuCO3F2
_symmetry_space_group_name_H-M   'P 1'
_cell_length_a   4.97893854
_cell_length_b   8.61408145
_cell_length_c   9.77748805
_cell_angle_alpha   90.00000000
_cell_angle_beta   90.00000000
_cell_angle_gamma   90.00000000
_symmetry_Int_Tables_number   1
_chemical_formula_structural   BaCuCO3F2
_chemical_formula_sum   'Ba4 Cu4 C4 O12 F8'
_cell_volume   419.34651014
_cell_formula_units_Z   4
loop_
 _symmetry_equiv_pos_site_id
 _symmetry_equiv_pos_as_xyz
  1  'x, y, z'
loop_
 _atom_site_type_symbol
 _atom_site_label
 _atom_site_symmetry_multiplicity
 _atom_site_fract_x
 _atom_site_fract_y
 _atom_site_fract_z
 _atom_site_occupancy
  Ba  Ba0  1  0.726540  0.750000  0.500000  1
  Ba  Ba1  1  0.273460  0.250000  0.000000  1
  Ba  Ba2  1  0.273460  0.250000  0.500000  1
  Ba  Ba3  1  0.726540  0.750000  0.000000  1
  Cu  Cu4  1  0.244519  0.913059  0.250000  1
  Cu  Cu5  1  0.755481  0.413059  0.250000  1
  Cu  Cu6  1  0.244519  0.586941  0.750000  1
  Cu  Cu7  1  0.755481  0.086941  0.750000  1
  C  C8  1  0.207621  0.916502  0.750000  1
  C  C9  1  0.207621  0.583498  0.250000  1
  C  C10  1  0.792379  0.416502  0.750000  1
  C  C11  1  0.792379  0.083498  0.250000  1
  O  O12  1  0.379624  0.803171  0.750000  1
  O  O13  1  0.287836  0.057306  0.750000  1
  O  O14  1  0.950266  0.884403  0.750000  1
  O  O15  1  0.379624  0.696829  0.250000  1
  O  O16  1  0.049734  0.115597  0.250000  1
  O  O17  1  0.620376  0.303171  0.750000  1
  O  O18  1  0.049734  0.384403  0.750000  1
  O  O19  1  0.712164  0.557306  0.750000  1
  O  O20  1  0.950266  0.615597  0.250000  1
  O  O21  1  0.287836  0.442694  0.250000  1
  O  O22  1  0.620376  0.196829  0.250000  1
  O  O23  1  0.712164  0.942694  0.250000  1
  F  F24  1  0.241116  0.914733  0.449592  1
  F  F25  1  0.758884  0.085267  0.949592  1
  F  F26  1  0.241116  0.585267  0.949592  1
  F  F27  1  0.241116  0.585267  0.550408  1
  F  F28  1  0.241116  0.914733  0.050408  1
  F  F29  1  0.758884  0.085267  0.550408  1
  F  F30  1  0.758884  0.414733  0.050408  1
  F  F31  1  0.758884  0.414733  0.449592  1
