# generated using pymatgen
data_Ba3As14
_symmetry_space_group_name_H-M   'P 1'
_cell_length_a   6.93790886
_cell_length_b   13.94995109
_cell_length_c   12.47955240
_cell_angle_alpha   90.00000000
_cell_angle_beta   123.59329949
_cell_angle_gamma   90.00000000
_symmetry_Int_Tables_number   1
_chemical_formula_structural   Ba3As14
_chemical_formula_sum   'Ba6 As28'
_cell_volume   1006.09261597
_cell_formula_units_Z   2
loop_
 _symmetry_equiv_pos_site_id
 _symmetry_equiv_pos_as_xyz
  1  'x, y, z'
loop_
 _atom_site_type_symbol
 _atom_site_label
 _atom_site_symmetry_multiplicity
 _atom_site_fract_x
 _atom_site_fract_y
 _atom_site_fract_z
 _atom_site_occupancy
  Ba  Ba0  1  0.000000  0.000000  0.000000  1
  Ba  Ba1  1  0.000000  0.500000  0.500000  1
  Ba  Ba2  1  0.803110  0.841988  0.616493  1
  Ba  Ba3  1  0.196890  0.341988  0.883507  1
  Ba  Ba4  1  0.196890  0.158012  0.383507  1
  Ba  Ba5  1  0.803110  0.658012  0.116493  1
  As  As6  1  0.712754  0.499809  0.814369  1
  As  As7  1  0.287246  0.999809  0.685631  1
  As  As8  1  0.287246  0.500191  0.185631  1
  As  As9  1  0.712754  0.000191  0.314369  1
  As  As10  1  0.962594  0.645565  0.856789  1
  As  As11  1  0.037406  0.145565  0.643211  1
  As  As12  1  0.037406  0.354435  0.143211  1
  As  As13  1  0.962594  0.854435  0.356789  1
  As  As14  1  0.608864  0.439901  0.178361  1
  As  As15  1  0.391136  0.939901  0.321639  1
  As  As16  1  0.391136  0.560099  0.821639  1
  As  As17  1  0.608864  0.060099  0.678361  1
  As  As18  1  0.352141  0.814079  0.030924  1
  As  As19  1  0.647859  0.314079  0.469076  1
  As  As20  1  0.647859  0.185921  0.969076  1
  As  As21  1  0.352141  0.685921  0.530924  1
  As  As22  1  0.684583  0.919480  0.127478  1
  As  As23  1  0.315417  0.419480  0.372522  1
  As  As24  1  0.315417  0.080520  0.872522  1
  As  As25  1  0.684583  0.580520  0.627478  1
  As  As26  1  0.746900  0.779526  0.866043  1
  As  As27  1  0.253100  0.279526  0.633957  1
  As  As28  1  0.253100  0.220474  0.133957  1
  As  As29  1  0.746900  0.720474  0.366043  1
  As  As30  1  0.348233  0.780596  0.223669  1
  As  As31  1  0.651767  0.280596  0.276331  1
  As  As32  1  0.651767  0.219404  0.776331  1
  As  As33  1  0.348233  0.719404  0.723669  1
