# generated using pymatgen
data_ErNi
_symmetry_space_group_name_H-M   'P 1'
_cell_length_a   4.08211461
_cell_length_b   5.38741041
_cell_length_c   7.01255793
_cell_angle_alpha   90.00000000
_cell_angle_beta   90.00000000
_cell_angle_gamma   90.00000000
_symmetry_Int_Tables_number   1
_chemical_formula_structural   ErNi
_chemical_formula_sum   'Er4 Ni4'
_cell_volume   154.22036155
_cell_formula_units_Z   4
loop_
 _symmetry_equiv_pos_site_id
 _symmetry_equiv_pos_as_xyz
  1  'x, y, z'
loop_
 _atom_site_type_symbol
 _atom_site_label
 _atom_site_symmetry_multiplicity
 _atom_site_fract_x
 _atom_site_fract_y
 _atom_site_fract_z
 _atom_site_occupancy
  Er  Er0  1  0.750000  0.869730  0.820776  1
  Er  Er1  1  0.250000  0.130270  0.179224  1
  Er  Er2  1  0.250000  0.369730  0.679224  1
  Er  Er3  1  0.750000  0.630270  0.320776  1
  Ni  Ni4  1  0.250000  0.875142  0.537567  1
  Ni  Ni5  1  0.750000  0.124858  0.462433  1
  Ni  Ni6  1  0.750000  0.375142  0.962433  1
  Ni  Ni7  1  0.250000  0.624858  0.037567  1
