# generated using pymatgen
data_Na3Sb3(AsO7)2
_symmetry_space_group_name_H-M   'P 1'
_cell_length_a   6.56692539
_cell_length_b   7.38225097
_cell_length_c   12.72523571
_cell_angle_alpha   90.00000000
_cell_angle_beta   107.15027929
_cell_angle_gamma   90.00000000
_symmetry_Int_Tables_number   1
_chemical_formula_structural   Na3Sb3(AsO7)2
_chemical_formula_sum   'Na6 Sb6 As4 O28'
_cell_volume   589.47195476
_cell_formula_units_Z   2
loop_
 _symmetry_equiv_pos_site_id
 _symmetry_equiv_pos_as_xyz
  1  'x, y, z'
loop_
 _atom_site_type_symbol
 _atom_site_label
 _atom_site_symmetry_multiplicity
 _atom_site_fract_x
 _atom_site_fract_y
 _atom_site_fract_z
 _atom_site_occupancy
  Na  Na0  1  0.000000  0.000000  0.000000  1
  Na  Na1  1  0.535628  0.713219  0.432747  1
  Na  Na2  1  0.464372  0.286781  0.567253  1
  Na  Na3  1  0.535628  0.786781  0.932747  1
  Na  Na4  1  0.000000  0.500000  0.500000  1
  Na  Na5  1  0.464372  0.213219  0.067253  1
  Sb  Sb6  1  0.023104  0.240729  0.253284  1
  Sb  Sb7  1  0.023104  0.259271  0.753284  1
  Sb  Sb8  1  0.976896  0.759271  0.746716  1
  Sb  Sb9  1  0.976896  0.740729  0.246716  1
  Sb  Sb10  1  0.000000  0.000000  0.500000  1
  Sb  Sb11  1  0.000000  0.500000  0.000000  1
  As  As12  1  0.415682  0.765131  0.660453  1
  As  As13  1  0.415682  0.734869  0.160453  1
  As  As14  1  0.584318  0.265131  0.839547  1
  As  As15  1  0.584318  0.234869  0.339547  1
  O  O16  1  0.933214  0.994174  0.196592  1
  O  O17  1  0.317114  0.531335  0.092053  1
  O  O18  1  0.705117  0.273708  0.237206  1
  O  O19  1  0.610040  0.095121  0.929344  1
  O  O20  1  0.670071  0.812136  0.744308  1
  O  O21  1  0.033091  0.795533  0.405348  1
  O  O22  1  0.317114  0.968665  0.592053  1
  O  O23  1  0.682886  0.031335  0.407947  1
  O  O24  1  0.389960  0.595121  0.570656  1
  O  O25  1  0.899150  0.810238  0.584241  1
  O  O26  1  0.329929  0.312136  0.755692  1
  O  O27  1  0.670071  0.687864  0.244308  1
  O  O28  1  0.294883  0.773708  0.262794  1
  O  O29  1  0.389960  0.904879  0.070656  1
  O  O30  1  0.066786  0.005826  0.803408  1
  O  O31  1  0.682886  0.468665  0.907947  1
  O  O32  1  0.966909  0.204467  0.594652  1
  O  O33  1  0.066786  0.494174  0.303408  1
  O  O34  1  0.899150  0.689762  0.084241  1
  O  O35  1  0.610040  0.404879  0.429344  1
  O  O36  1  0.705117  0.226292  0.737206  1
  O  O37  1  0.100850  0.310238  0.915759  1
  O  O38  1  0.294883  0.726292  0.762794  1
  O  O39  1  0.966909  0.295533  0.094652  1
  O  O40  1  0.933214  0.505826  0.696592  1
  O  O41  1  0.033091  0.704467  0.905348  1
  O  O42  1  0.100850  0.189762  0.415759  1
  O  O43  1  0.329929  0.187864  0.255692  1
