# generated using pymatgen
data_Na2Si2O5
_symmetry_space_group_name_H-M   'P 1'
_cell_length_a   4.90594202
_cell_length_b   24.26301000
_cell_length_c   8.22170813
_cell_angle_alpha   90.00000000
_cell_angle_beta   90.16006675
_cell_angle_gamma   90.00000000
_symmetry_Int_Tables_number   1
_chemical_formula_structural   Na2Si2O5
_chemical_formula_sum   'Na16 Si16 O40'
_cell_volume   978.65010958
_cell_formula_units_Z   8
loop_
 _symmetry_equiv_pos_site_id
 _symmetry_equiv_pos_as_xyz
  1  'x, y, z'
loop_
 _atom_site_type_symbol
 _atom_site_label
 _atom_site_symmetry_multiplicity
 _atom_site_fract_x
 _atom_site_fract_y
 _atom_site_fract_z
 _atom_site_occupancy
  Na  Na0  1  0.726293  0.514408  0.644431  1
  Na  Na1  1  0.245481  0.218535  0.222527  1
  Na  Na2  1  0.754519  0.718535  0.277473  1
  Na  Na3  1  0.754519  0.781465  0.777473  1
  Na  Na4  1  0.229928  0.762234  0.026207  1
  Na  Na5  1  0.253493  0.527565  0.898478  1
  Na  Na6  1  0.273707  0.014408  0.855569  1
  Na  Na7  1  0.746507  0.027565  0.601522  1
  Na  Na8  1  0.746507  0.472435  0.101522  1
  Na  Na9  1  0.253493  0.972435  0.398478  1
  Na  Na10  1  0.273707  0.485592  0.355569  1
  Na  Na11  1  0.229928  0.737766  0.526207  1
  Na  Na12  1  0.726293  0.985592  0.144431  1
  Na  Na13  1  0.770072  0.237766  0.973793  1
  Na  Na14  1  0.245481  0.281465  0.722527  1
  Na  Na15  1  0.770072  0.262234  0.473793  1
  Si  Si16  1  0.206808  0.389719  0.018408  1
  Si  Si17  1  0.705577  0.363095  0.803577  1
  Si  Si18  1  0.294423  0.636905  0.196423  1
  Si  Si19  1  0.705577  0.136905  0.303577  1
  Si  Si20  1  0.686148  0.840873  0.143086  1
  Si  Si21  1  0.313852  0.340873  0.356914  1
  Si  Si22  1  0.814807  0.408120  0.462473  1
  Si  Si23  1  0.313852  0.159127  0.856914  1
  Si  Si24  1  0.206808  0.110281  0.518408  1
  Si  Si25  1  0.793192  0.610281  0.981592  1
  Si  Si26  1  0.294423  0.863095  0.696423  1
  Si  Si27  1  0.185193  0.908120  0.037527  1
  Si  Si28  1  0.793192  0.889719  0.481592  1
  Si  Si29  1  0.814807  0.091880  0.962473  1
  Si  Si30  1  0.185193  0.591880  0.537527  1
  Si  Si31  1  0.686148  0.659127  0.643086  1
  O  O32  1  0.244610  0.910519  0.838819  1
  O  O33  1  0.858493  0.607880  0.559689  1
  O  O34  1  0.732936  0.548404  0.923638  1
  O  O35  1  0.619367  0.868842  0.642678  1
  O  O36  1  0.766703  0.198941  0.248102  1
  O  O37  1  0.233297  0.801059  0.751898  1
  O  O38  1  0.641788  0.355818  0.384130  1
  O  O39  1  0.766703  0.301059  0.748102  1
  O  O40  1  0.755390  0.410519  0.661181  1
  O  O41  1  0.380633  0.368842  0.857322  1
  O  O42  1  0.743594  0.841585  0.341264  1
  O  O43  1  0.753353  0.033178  0.883511  1
  O  O44  1  0.256406  0.158415  0.658736  1
  O  O45  1  0.619367  0.631158  0.142678  1
  O  O46  1  0.141507  0.392120  0.440311  1
  O  O47  1  0.252820  0.218212  0.934321  1
  O  O48  1  0.119514  0.884637  0.535679  1
  O  O49  1  0.358212  0.855818  0.115870  1
  O  O50  1  0.119514  0.615363  0.035679  1
  O  O51  1  0.246647  0.533178  0.616489  1
  O  O52  1  0.267064  0.451596  0.076362  1
  O  O53  1  0.755390  0.089481  0.161181  1
  O  O54  1  0.380633  0.131158  0.357322  1
  O  O55  1  0.880486  0.115363  0.464321  1
  O  O56  1  0.246647  0.966822  0.116489  1
  O  O57  1  0.233297  0.698941  0.251898  1
  O  O58  1  0.747180  0.718212  0.565679  1
  O  O59  1  0.743594  0.658415  0.841264  1
  O  O60  1  0.858493  0.892120  0.059689  1
  O  O61  1  0.747180  0.781788  0.065679  1
  O  O62  1  0.252820  0.281788  0.434321  1
  O  O63  1  0.141507  0.107880  0.940311  1
  O  O64  1  0.753353  0.466822  0.383511  1
  O  O65  1  0.880486  0.384637  0.964321  1
  O  O66  1  0.641788  0.144182  0.884130  1
  O  O67  1  0.256406  0.341585  0.158736  1
  O  O68  1  0.244610  0.589481  0.338819  1
  O  O69  1  0.267064  0.048404  0.576362  1
  O  O70  1  0.732936  0.951596  0.423638  1
  O  O71  1  0.358212  0.644182  0.615870  1
