# generated using pymatgen
data_Hf2P
_symmetry_space_group_name_H-M   'P 1'
_cell_length_a   3.58884299
_cell_length_b   12.31456326
_cell_length_c   15.09832481
_cell_angle_alpha   90.00000000
_cell_angle_beta   90.00000000
_cell_angle_gamma   90.00000000
_symmetry_Int_Tables_number   1
_chemical_formula_structural   Hf2P
_chemical_formula_sum   'Hf24 P12'
_cell_volume   667.27097878
_cell_formula_units_Z   12
loop_
 _symmetry_equiv_pos_site_id
 _symmetry_equiv_pos_as_xyz
  1  'x, y, z'
loop_
 _atom_site_type_symbol
 _atom_site_label
 _atom_site_symmetry_multiplicity
 _atom_site_fract_x
 _atom_site_fract_y
 _atom_site_fract_z
 _atom_site_occupancy
  Hf  Hf0  1  0.000000  0.525310  0.105786  1
  Hf  Hf1  1  0.000000  0.096476  0.753238  1
  Hf  Hf2  1  0.000000  0.812007  0.709465  1
  Hf  Hf3  1  0.500000  0.974690  0.605786  1
  Hf  Hf4  1  0.500000  0.403524  0.253238  1
  Hf  Hf5  1  0.000000  0.116741  0.084700  1
  Hf  Hf6  1  0.500000  0.661156  0.978260  1
  Hf  Hf7  1  0.500000  0.911840  0.076444  1
  Hf  Hf8  1  0.500000  0.088160  0.923556  1
  Hf  Hf9  1  0.500000  0.025310  0.394214  1
  Hf  Hf10  1  0.500000  0.616741  0.415299  1
  Hf  Hf11  1  0.000000  0.903524  0.246762  1
  Hf  Hf12  1  0.500000  0.687993  0.209465  1
  Hf  Hf13  1  0.500000  0.312007  0.790535  1
  Hf  Hf14  1  0.000000  0.474690  0.894214  1
  Hf  Hf15  1  0.000000  0.883259  0.915300  1
  Hf  Hf16  1  0.000000  0.588160  0.576444  1
  Hf  Hf17  1  0.000000  0.411840  0.423556  1
  Hf  Hf18  1  0.000000  0.838844  0.478260  1
  Hf  Hf19  1  0.000000  0.187993  0.290535  1
  Hf  Hf20  1  0.500000  0.338844  0.021740  1
  Hf  Hf21  1  0.500000  0.383259  0.584700  1
  Hf  Hf22  1  0.000000  0.161156  0.521740  1
  Hf  Hf23  1  0.500000  0.596476  0.746762  1
  P  P24  1  0.500000  0.057149  0.212364  1
  P  P25  1  0.000000  0.755500  0.090739  1
  P  P26  1  0.500000  0.942851  0.787636  1
  P  P27  1  0.000000  0.557149  0.287636  1
  P  P28  1  0.500000  0.255500  0.409261  1
  P  P29  1  0.500000  0.187197  0.649151  1
  P  P30  1  0.500000  0.744500  0.590739  1
  P  P31  1  0.000000  0.687197  0.850849  1
  P  P32  1  0.500000  0.812803  0.350849  1
  P  P33  1  0.000000  0.244500  0.909261  1
  P  P34  1  0.000000  0.312803  0.149151  1
  P  P35  1  0.000000  0.442851  0.712364  1
