# generated using pymatgen
data_VCdBiO5
_symmetry_space_group_name_H-M   'P 1'
_cell_length_a   5.58617411
_cell_length_b   11.88408026
_cell_length_c   14.49933829
_cell_angle_alpha   90.00000000
_cell_angle_beta   90.00000000
_cell_angle_gamma   90.00000000
_symmetry_Int_Tables_number   1
_chemical_formula_structural   VCdBiO5
_chemical_formula_sum   'V8 Cd8 Bi8 O40'
_cell_volume   962.56092267
_cell_formula_units_Z   8
loop_
 _symmetry_equiv_pos_site_id
 _symmetry_equiv_pos_as_xyz
  1  'x, y, z'
loop_
 _atom_site_type_symbol
 _atom_site_label
 _atom_site_symmetry_multiplicity
 _atom_site_fract_x
 _atom_site_fract_y
 _atom_site_fract_z
 _atom_site_occupancy
  V  V0  1  0.726564  0.212583  0.343114  1
  V  V1  1  0.294630  0.064370  0.654109  1
  V  V2  1  0.226564  0.712583  0.156886  1
  V  V3  1  0.205370  0.064370  0.154109  1
  V  V4  1  0.773436  0.212583  0.843114  1
  V  V5  1  0.273436  0.712583  0.656886  1
  V  V6  1  0.794630  0.564370  0.845891  1
  V  V7  1  0.705370  0.564370  0.345891  1
  Cd  Cd8  1  0.760421  0.888109  0.543781  1
  Cd  Cd9  1  0.739579  0.888109  0.043781  1
  Cd  Cd10  1  0.785199  0.228674  0.587129  1
  Cd  Cd11  1  0.714801  0.228674  0.087129  1
  Cd  Cd12  1  0.239579  0.388109  0.456219  1
  Cd  Cd13  1  0.285199  0.728674  0.912871  1
  Cd  Cd14  1  0.260421  0.388109  0.956219  1
  Cd  Cd15  1  0.214801  0.728674  0.412871  1
  Bi  Bi16  1  0.228382  0.378487  0.198341  1
  Bi  Bi17  1  0.755830  0.529936  0.087202  1
  Bi  Bi18  1  0.255830  0.029936  0.412798  1
  Bi  Bi19  1  0.244170  0.029936  0.912798  1
  Bi  Bi20  1  0.744170  0.529936  0.587202  1
  Bi  Bi21  1  0.271618  0.378487  0.698341  1
  Bi  Bi22  1  0.728382  0.878487  0.301659  1
  Bi  Bi23  1  0.771618  0.878487  0.801659  1
  O  O24  1  0.517761  0.377120  0.578924  1
  O  O25  1  0.930020  0.217179  0.435680  1
  O  O26  1  0.089364  0.981379  0.599157  1
  O  O27  1  0.840093  0.697933  0.341875  1
  O  O28  1  0.569980  0.217179  0.935680  1
  O  O29  1  0.968483  0.791364  0.137436  1
  O  O30  1  0.858827  0.512739  0.734801  1
  O  O31  1  0.633430  0.253221  0.741976  1
  O  O32  1  0.340093  0.197933  0.158125  1
  O  O33  1  0.531517  0.791364  0.637436  1
  O  O34  1  0.017761  0.877120  0.921076  1
  O  O35  1  0.447971  0.567436  0.417276  1
  O  O36  1  0.031517  0.291364  0.862564  1
  O  O37  1  0.069980  0.717179  0.564320  1
  O  O38  1  0.366570  0.753221  0.258024  1
  O  O39  1  0.982239  0.377120  0.078924  1
  O  O40  1  0.910636  0.481379  0.400843  1
  O  O41  1  0.589364  0.481379  0.900843  1
  O  O42  1  0.641173  0.512739  0.234801  1
  O  O43  1  0.410636  0.981379  0.099157  1
  O  O44  1  0.552029  0.067436  0.582724  1
  O  O45  1  0.866570  0.253221  0.241976  1
  O  O46  1  0.133430  0.753221  0.758024  1
  O  O47  1  0.468483  0.291364  0.362564  1
  O  O48  1  0.430020  0.717179  0.064320  1
  O  O49  1  0.875320  0.071606  0.833982  1
  O  O50  1  0.375320  0.571606  0.666018  1
  O  O51  1  0.141173  0.012739  0.265199  1
  O  O52  1  0.018317  0.396763  0.584753  1
  O  O53  1  0.159907  0.197933  0.658125  1
  O  O54  1  0.052029  0.567436  0.917276  1
  O  O55  1  0.482239  0.877120  0.421076  1
  O  O56  1  0.659907  0.697933  0.841875  1
  O  O57  1  0.947971  0.067436  0.082724  1
  O  O58  1  0.624680  0.071606  0.333982  1
  O  O59  1  0.981683  0.896763  0.415247  1
  O  O60  1  0.518317  0.896763  0.915247  1
  O  O61  1  0.124680  0.571606  0.166018  1
  O  O62  1  0.481683  0.396763  0.084753  1
  O  O63  1  0.358827  0.012739  0.765199  1
