# generated using pymatgen
data_MgGa2
_symmetry_space_group_name_H-M   'P 1'
_cell_length_a   4.13915986
_cell_length_b   6.88460709
_cell_length_c   16.37609329
_cell_angle_alpha   90.00000000
_cell_angle_beta   90.00000000
_cell_angle_gamma   90.00000000
_symmetry_Int_Tables_number   1
_chemical_formula_structural   MgGa2
_chemical_formula_sum   'Mg8 Ga16'
_cell_volume   466.66116752
_cell_formula_units_Z   8
loop_
 _symmetry_equiv_pos_site_id
 _symmetry_equiv_pos_as_xyz
  1  'x, y, z'
loop_
 _atom_site_type_symbol
 _atom_site_label
 _atom_site_symmetry_multiplicity
 _atom_site_fract_x
 _atom_site_fract_y
 _atom_site_fract_z
 _atom_site_occupancy
  Mg  Mg0  1  0.000000  0.324296  0.077192  1
  Mg  Mg1  1  0.000000  0.298218  0.780014  1
  Mg  Mg2  1  0.000000  0.675704  0.922808  1
  Mg  Mg3  1  0.000000  0.701782  0.219986  1
  Mg  Mg4  1  0.000000  0.798218  0.719986  1
  Mg  Mg5  1  0.000000  0.824296  0.422808  1
  Mg  Mg6  1  0.000000  0.175704  0.577192  1
  Mg  Mg7  1  0.000000  0.201782  0.280014  1
  Ga  Ga8  1  0.500000  0.357465  0.938147  1
  Ga  Ga9  1  0.500000  0.142535  0.438147  1
  Ga  Ga10  1  0.500000  0.470466  0.657759  1
  Ga  Ga11  1  0.500000  0.857465  0.561853  1
  Ga  Ga12  1  0.000000  0.901636  0.067174  1
  Ga  Ga13  1  0.000000  0.098364  0.932826  1
  Ga  Ga14  1  0.500000  0.529534  0.342241  1
  Ga  Ga15  1  0.500000  0.408819  0.190310  1
  Ga  Ga16  1  0.500000  0.642535  0.061853  1
  Ga  Ga17  1  0.000000  0.598364  0.567174  1
  Ga  Ga18  1  0.500000  0.908819  0.309690  1
  Ga  Ga19  1  0.500000  0.970466  0.842241  1
  Ga  Ga20  1  0.500000  0.091181  0.690310  1
  Ga  Ga21  1  0.500000  0.029534  0.157759  1
  Ga  Ga22  1  0.500000  0.591181  0.809690  1
  Ga  Ga23  1  0.000000  0.401636  0.432826  1
