# generated using pymatgen
data_Th(TeO3)2
_symmetry_space_group_name_H-M   'P 1'
_cell_length_a   7.27245296
_cell_length_b   11.42985015
_cell_length_c   8.84018125
_cell_angle_alpha   90.00000000
_cell_angle_beta   124.29634438
_cell_angle_gamma   90.00000000
_symmetry_Int_Tables_number   1
_chemical_formula_structural   Th(TeO3)2
_chemical_formula_sum   'Th4 Te8 O24'
_cell_volume   607.06228551
_cell_formula_units_Z   4
loop_
 _symmetry_equiv_pos_site_id
 _symmetry_equiv_pos_as_xyz
  1  'x, y, z'
loop_
 _atom_site_type_symbol
 _atom_site_label
 _atom_site_symmetry_multiplicity
 _atom_site_fract_x
 _atom_site_fract_y
 _atom_site_fract_z
 _atom_site_occupancy
  Th  Th0  1  0.253505  0.091397  0.996351  1
  Th  Th1  1  0.746495  0.591397  0.503649  1
  Th  Th2  1  0.746495  0.908603  0.003649  1
  Th  Th3  1  0.253505  0.408603  0.496351  1
  Te  Te4  1  0.808970  0.278593  0.575190  1
  Te  Te5  1  0.191030  0.778593  0.924810  1
  Te  Te6  1  0.191030  0.721407  0.424810  1
  Te  Te7  1  0.808970  0.221407  0.075190  1
  Te  Te8  1  0.725668  0.921569  0.450628  1
  Te  Te9  1  0.274332  0.421569  0.049372  1
  Te  Te10  1  0.274332  0.078431  0.549372  1
  Te  Te11  1  0.725668  0.578431  0.950628  1
  O  O12  1  0.965510  0.249772  0.829642  1
  O  O13  1  0.034490  0.749772  0.670358  1
  O  O14  1  0.034490  0.750228  0.170358  1
  O  O15  1  0.965510  0.250228  0.329642  1
  O  O16  1  0.998530  0.402477  0.591203  1
  O  O17  1  0.001470  0.902477  0.908797  1
  O  O18  1  0.001470  0.597523  0.408797  1
  O  O19  1  0.998530  0.097523  0.091203  1
  O  O20  1  0.613448  0.402179  0.546596  1
  O  O21  1  0.386552  0.902179  0.953404  1
  O  O22  1  0.386552  0.597821  0.453404  1
  O  O23  1  0.613448  0.097821  0.046596  1
  O  O24  1  0.472132  0.016730  0.290278  1
  O  O25  1  0.527868  0.516730  0.209722  1
  O  O26  1  0.527868  0.983270  0.709722  1
  O  O27  1  0.472132  0.483270  0.790278  1
  O  O28  1  0.853709  0.901754  0.312802  1
  O  O29  1  0.146291  0.401754  0.187198  1
  O  O30  1  0.146291  0.098246  0.687198  1
  O  O31  1  0.853709  0.598246  0.812802  1
  O  O32  1  0.573651  0.776194  0.386216  1
  O  O33  1  0.426349  0.276194  0.113784  1
  O  O34  1  0.426349  0.223806  0.613784  1
  O  O35  1  0.573651  0.723806  0.886216  1
