# generated using pymatgen
data_SmAsS
_symmetry_space_group_name_H-M   'P 1'
_cell_length_a   3.88810033
_cell_length_b   3.92681267
_cell_length_c   17.36956851
_cell_angle_alpha   90.00000000
_cell_angle_beta   90.00000000
_cell_angle_gamma   90.00000000
_symmetry_Int_Tables_number   1
_chemical_formula_structural   SmAsS
_chemical_formula_sum   'Sm4 As4 S4'
_cell_volume   265.19582133
_cell_formula_units_Z   4
loop_
 _symmetry_equiv_pos_site_id
 _symmetry_equiv_pos_as_xyz
  1  'x, y, z'
loop_
 _atom_site_type_symbol
 _atom_site_label
 _atom_site_symmetry_multiplicity
 _atom_site_fract_x
 _atom_site_fract_y
 _atom_site_fract_z
 _atom_site_occupancy
  Sm  Sm0  1  0.250000  0.245220  0.854036  1
  Sm  Sm1  1  0.750000  0.745220  0.645964  1
  Sm  Sm2  1  0.750000  0.754780  0.145964  1
  Sm  Sm3  1  0.250000  0.254780  0.354036  1
  As  As4  1  0.250000  0.781817  0.498934  1
  As  As5  1  0.750000  0.218183  0.501066  1
  As  As6  1  0.250000  0.718183  0.998934  1
  As  As7  1  0.750000  0.281817  0.001066  1
  S  S8  1  0.250000  0.248989  0.686585  1
  S  S9  1  0.250000  0.251011  0.186585  1
  S  S10  1  0.750000  0.751011  0.313415  1
  S  S11  1  0.750000  0.748989  0.813415  1
