# generated using pymatgen
data_LiCo(PO3)4
_symmetry_space_group_name_H-M   'P 1'
_cell_length_a   5.19977725
_cell_length_b   13.69065365
_cell_length_c   7.10841433
_cell_angle_alpha   90.00000000
_cell_angle_beta   97.40478653
_cell_angle_gamma   90.00000000
_symmetry_Int_Tables_number   1
_chemical_formula_structural   LiCo(PO3)4
_chemical_formula_sum   'Li2 Co2 P8 O24'
_cell_volume   501.81614183
_cell_formula_units_Z   2
loop_
 _symmetry_equiv_pos_site_id
 _symmetry_equiv_pos_as_xyz
  1  'x, y, z'
loop_
 _atom_site_type_symbol
 _atom_site_label
 _atom_site_symmetry_multiplicity
 _atom_site_fract_x
 _atom_site_fract_y
 _atom_site_fract_z
 _atom_site_occupancy
  Li  Li0  1  0.621925  0.006796  0.136650  1
  Li  Li1  1  0.378075  0.506796  0.863350  1
  Co  Co2  1  0.517136  0.236974  0.505676  1
  Co  Co3  1  0.482864  0.736974  0.494324  1
  P  P4  1  0.222164  0.321803  0.113571  1
  P  P5  1  0.997406  0.876911  0.537265  1
  P  P6  1  0.029386  0.098187  0.540794  1
  P  P7  1  0.970614  0.598187  0.459206  1
  P  P8  1  0.859947  0.169363  0.896685  1
  P  P9  1  0.002594  0.376911  0.462735  1
  P  P10  1  0.140053  0.669363  0.103315  1
  P  P11  1  0.777836  0.821803  0.886429  1
  O  O12  1  0.955136  0.760413  0.043837  1
  O  O13  1  0.033878  0.105431  0.767651  1
  O  O14  1  0.782959  0.817527  0.429880  1
  O  O15  1  0.729825  0.363473  0.507420  1
  O  O16  1  0.372817  0.710834  0.229718  1
  O  O17  1  0.698374  0.606540  0.507082  1
  O  O18  1  0.217041  0.317527  0.570120  1
  O  O19  1  0.394210  0.252359  0.240076  1
  O  O20  1  0.825722  0.165349  0.443096  1
  O  O21  1  0.174278  0.665349  0.556904  1
  O  O22  1  0.008988  0.368099  0.237392  1
  O  O23  1  0.348376  0.399928  0.014748  1
  O  O24  1  0.991012  0.868099  0.762608  1
  O  O25  1  0.301626  0.106540  0.492918  1
  O  O26  1  0.627183  0.210834  0.770282  1
  O  O27  1  0.651624  0.899928  0.985252  1
  O  O28  1  0.270175  0.863473  0.492580  1
  O  O29  1  0.966122  0.605431  0.232349  1
  O  O30  1  0.812652  0.109528  0.061467  1
  O  O31  1  0.605790  0.752359  0.759924  1
  O  O32  1  0.044864  0.260413  0.956163  1
  O  O33  1  0.082634  0.489637  0.508551  1
  O  O34  1  0.917366  0.989637  0.491449  1
  O  O35  1  0.187348  0.609528  0.938533  1
