# generated using pymatgen
data_SiO2
_symmetry_space_group_name_H-M   'P 1'
_cell_length_a   11.00832606
_cell_length_b   11.00832606
_cell_length_c   11.00832606
_cell_angle_alpha   103.10988409
_cell_angle_beta   103.10988409
_cell_angle_gamma   123.11774276
_symmetry_Int_Tables_number   1
_chemical_formula_structural   SiO2
_chemical_formula_sum   'Si16 O32'
_cell_volume   982.45997501
_cell_formula_units_Z   16
loop_
 _symmetry_equiv_pos_site_id
 _symmetry_equiv_pos_as_xyz
  1  'x, y, z'
loop_
 _atom_site_type_symbol
 _atom_site_label
 _atom_site_symmetry_multiplicity
 _atom_site_fract_x
 _atom_site_fract_y
 _atom_site_fract_z
 _atom_site_occupancy
  Si  Si0  1  0.603943  0.250000  0.353943  1
  Si  Si1  1  0.667319  0.547438  0.500000  1
  Si  Si2  1  0.047438  0.167319  0.500000  1
  Si  Si3  1  0.896057  0.250000  0.646057  1
  Si  Si4  1  0.452562  0.952562  0.119881  1
  Si  Si5  1  0.750000  0.103943  0.353943  1
  Si  Si6  1  0.396057  0.750000  0.646057  1
  Si  Si7  1  0.250000  0.896057  0.646057  1
  Si  Si8  1  0.332681  0.452562  0.500000  1
  Si  Si9  1  0.167319  0.667319  0.119881  1
  Si  Si10  1  0.103943  0.750000  0.353943  1
  Si  Si11  1  0.832681  0.332681  0.880119  1
  Si  Si12  1  0.250000  0.603943  0.353943  1
  Si  Si13  1  0.750000  0.396057  0.646057  1
  Si  Si14  1  0.547438  0.047438  0.880119  1
  Si  Si15  1  0.952562  0.832681  0.500000  1
  O  O16  1  0.052248  0.269314  0.639579  1
  O  O17  1  0.552248  0.912669  0.782935  1
  O  O18  1  0.912669  0.129735  0.360421  1
  O  O19  1  0.407240  0.757192  0.500000  1
  O  O20  1  0.257192  0.907240  0.500000  1
  O  O21  1  0.447752  0.087331  0.217065  1
  O  O22  1  0.742808  0.092760  0.500000  1
  O  O23  1  0.907240  0.407240  0.650048  1
  O  O24  1  0.412669  0.052248  0.782935  1
  O  O25  1  0.269314  0.629735  0.217065  1
  O  O26  1  0.370265  0.587331  0.639579  1
  O  O27  1  0.087331  0.870265  0.639579  1
  O  O28  1  0.592760  0.242808  0.500000  1
  O  O29  1  0.276428  0.776428  0.052856  1
  O  O30  1  0.629735  0.412669  0.360421  1
  O  O31  1  0.947752  0.730686  0.360421  1
  O  O32  1  0.000000  0.000000  0.500000  1
  O  O33  1  0.587331  0.947752  0.217065  1
  O  O34  1  0.730686  0.370265  0.782935  1
  O  O35  1  0.223572  0.276428  0.500000  1
  O  O36  1  0.500000  0.000000  1.000000  1
  O  O37  1  0.092760  0.592760  0.349952  1
  O  O38  1  0.757192  0.257192  0.349952  1
  O  O39  1  0.129735  0.769314  0.217065  1
  O  O40  1  0.776428  0.723572  0.500000  1
  O  O41  1  0.242808  0.742808  0.650048  1
  O  O42  1  0.230686  0.447752  0.360421  1
  O  O43  1  0.769314  0.552248  0.639579  1
  O  O44  1  0.870265  0.230686  0.782935  1
  O  O45  1  0.723572  0.223572  0.947144  1
  O  O46  1  0.500000  0.500000  0.500000  1
  O  O47  1  0.000000  0.500000  0.000000  1
