# generated using pymatgen
data_P3Pd7
_symmetry_space_group_name_H-M   'P 1'
_cell_length_a   7.38341498
_cell_length_b   7.38341498
_cell_length_c   7.38341498
_cell_angle_alpha   110.05484951
_cell_angle_beta   110.05484951
_cell_angle_gamma   110.05484951
_symmetry_Int_Tables_number   1
_chemical_formula_structural   P3Pd7
_chemical_formula_sum   'P6 Pd14'
_cell_volume   302.96878671
_cell_formula_units_Z   2
loop_
 _symmetry_equiv_pos_site_id
 _symmetry_equiv_pos_as_xyz
  1  'x, y, z'
loop_
 _atom_site_type_symbol
 _atom_site_label
 _atom_site_symmetry_multiplicity
 _atom_site_fract_x
 _atom_site_fract_y
 _atom_site_fract_z
 _atom_site_occupancy
  P  P0  1  0.500085  0.300174  0.123360  1
  P  P1  1  0.300174  0.123360  0.500085  1
  P  P2  1  0.123360  0.500085  0.300174  1
  P  P3  1  0.922799  0.546489  0.752446  1
  P  P4  1  0.546489  0.752446  0.922799  1
  P  P5  1  0.752446  0.922799  0.546489  1
  Pd  Pd6  1  0.108058  0.748846  0.181278  1
  Pd  Pd7  1  0.748846  0.181278  0.108058  1
  Pd  Pd8  1  0.181278  0.108058  0.748846  1
  Pd  Pd9  1  0.297783  0.873168  0.945205  1
  Pd  Pd10  1  0.873168  0.945205  0.297783  1
  Pd  Pd11  1  0.945205  0.297783  0.873168  1
  Pd  Pd12  1  0.611212  0.165191  0.437591  1
  Pd  Pd13  1  0.165191  0.437591  0.611212  1
  Pd  Pd14  1  0.437591  0.611212  0.165191  1
  Pd  Pd15  1  0.875327  0.616202  0.441078  1
  Pd  Pd16  1  0.616202  0.441078  0.875327  1
  Pd  Pd17  1  0.441078  0.875327  0.616202  1
  Pd  Pd18  1  0.224626  0.224626  0.224626  1
  Pd  Pd19  1  0.828081  0.828081  0.828081  1
