# generated using pymatgen
data_SiO2
_symmetry_space_group_name_H-M   'P 1'
_cell_length_a   6.98168922
_cell_length_b   6.98168922
_cell_length_c   5.16231008
_cell_angle_alpha   70.95709505
_cell_angle_beta   109.04290495
_cell_angle_gamma   104.06539212
_symmetry_Int_Tables_number   1
_chemical_formula_structural   SiO2
_chemical_formula_sum   'Si4 O8'
_cell_volume   222.20199873
_cell_formula_units_Z   4
loop_
 _symmetry_equiv_pos_site_id
 _symmetry_equiv_pos_as_xyz
  1  'x, y, z'
loop_
 _atom_site_type_symbol
 _atom_site_label
 _atom_site_symmetry_multiplicity
 _atom_site_fract_x
 _atom_site_fract_y
 _atom_site_fract_z
 _atom_site_occupancy
  Si  Si0  1  0.257135  0.946626  0.366616  1
  Si  Si1  1  0.946626  0.257135  0.133384  1
  Si  Si2  1  0.742865  0.053374  0.633384  1
  Si  Si3  1  0.053374  0.742865  0.866616  1
  O  O4  1  1.000000  0.500000  0.000000  1
  O  O5  1  0.500000  0.000000  0.500000  1
  O  O6  1  0.780284  0.151615  0.894659  1
  O  O7  1  0.151615  0.780284  0.605341  1
  O  O8  1  0.157552  0.157552  0.250000  1
  O  O9  1  0.842448  0.842448  0.750000  1
  O  O10  1  0.848385  0.219716  0.394659  1
  O  O11  1  0.219716  0.848385  0.105341  1
