# generated using pymatgen
data_EuTaO4
_symmetry_space_group_name_H-M   'P 1'
_cell_length_a   5.25857742
_cell_length_b   5.68774135
_cell_length_c   5.42987504
_cell_angle_alpha   90.00000000
_cell_angle_beta   96.74520992
_cell_angle_gamma   90.00000000
_symmetry_Int_Tables_number   1
_chemical_formula_structural   EuTaO4
_chemical_formula_sum   'Eu2 Ta2 O8'
_cell_volume   161.28033984
_cell_formula_units_Z   2
loop_
 _symmetry_equiv_pos_site_id
 _symmetry_equiv_pos_as_xyz
  1  'x, y, z'
loop_
 _atom_site_type_symbol
 _atom_site_label
 _atom_site_symmetry_multiplicity
 _atom_site_fract_x
 _atom_site_fract_y
 _atom_site_fract_z
 _atom_site_occupancy
  Eu  Eu0  1  0.000000  0.778051  0.250000  1
  Eu  Eu1  1  0.000000  0.221949  0.750000  1
  Ta  Ta2  1  0.500000  0.679170  0.750000  1
  Ta  Ta3  1  0.500000  0.320830  0.250000  1
  O  O4  1  0.280363  0.569710  0.006811  1
  O  O5  1  0.719637  0.569710  0.493189  1
  O  O6  1  0.719637  0.430290  0.993189  1
  O  O7  1  0.280363  0.430290  0.506811  1
  O  O8  1  0.746785  0.099556  0.387255  1
  O  O9  1  0.253215  0.099556  0.112745  1
  O  O10  1  0.253215  0.900444  0.612745  1
  O  O11  1  0.746785  0.900444  0.887255  1
