# generated using pymatgen
data_TlFeBr3
_symmetry_space_group_name_H-M   'P 1'
_cell_length_a   3.98478675
_cell_length_b   9.42848170
_cell_length_c   15.38290743
_cell_angle_alpha   90.00000000
_cell_angle_beta   90.00000000
_cell_angle_gamma   90.00000000
_symmetry_Int_Tables_number   1
_chemical_formula_structural   TlFeBr3
_chemical_formula_sum   'Tl4 Fe4 Br12'
_cell_volume   577.94335363
_cell_formula_units_Z   4
loop_
 _symmetry_equiv_pos_site_id
 _symmetry_equiv_pos_as_xyz
  1  'x, y, z'
loop_
 _atom_site_type_symbol
 _atom_site_label
 _atom_site_symmetry_multiplicity
 _atom_site_fract_x
 _atom_site_fract_y
 _atom_site_fract_z
 _atom_site_occupancy
  Tl  Tl0  1  0.750000  0.557243  0.827467  1
  Tl  Tl1  1  0.250000  0.442757  0.172533  1
  Tl  Tl2  1  0.750000  0.057243  0.672533  1
  Tl  Tl3  1  0.250000  0.942757  0.327467  1
  Fe  Fe4  1  0.750000  0.843078  0.053562  1
  Fe  Fe5  1  0.250000  0.156922  0.946438  1
  Fe  Fe6  1  0.750000  0.343078  0.446438  1
  Fe  Fe7  1  0.250000  0.656922  0.553562  1
  Br  Br8  1  0.750000  0.819712  0.497804  1
  Br  Br9  1  0.250000  0.180288  0.502196  1
  Br  Br10  1  0.750000  0.319712  0.002196  1
  Br  Br11  1  0.250000  0.680288  0.997804  1
  Br  Br12  1  0.750000  0.727722  0.203107  1
  Br  Br13  1  0.250000  0.272278  0.796893  1
  Br  Br14  1  0.750000  0.227722  0.296893  1
  Br  Br15  1  0.250000  0.772278  0.703107  1
  Br  Br16  1  0.750000  0.978487  0.901866  1
  Br  Br17  1  0.250000  0.021513  0.098134  1
  Br  Br18  1  0.750000  0.478487  0.598134  1
  Br  Br19  1  0.250000  0.521513  0.401866  1
