# generated using pymatgen
data_TlCr3O8
_symmetry_space_group_name_H-M   'P 1'
_cell_length_a   5.30419878
_cell_length_b   5.30419878
_cell_length_c   7.97219731
_cell_angle_alpha   87.46224640
_cell_angle_beta   92.53775360
_cell_angle_gamma   117.17594255
_symmetry_Int_Tables_number   1
_chemical_formula_structural   TlCr3O8
_chemical_formula_sum   'Tl1 Cr3 O8'
_cell_volume   199.26504975
_cell_formula_units_Z   1
loop_
 _symmetry_equiv_pos_site_id
 _symmetry_equiv_pos_as_xyz
  1  'x, y, z'
loop_
 _atom_site_type_symbol
 _atom_site_label
 _atom_site_symmetry_multiplicity
 _atom_site_fract_x
 _atom_site_fract_y
 _atom_site_fract_z
 _atom_site_occupancy
  Tl  Tl0  1  0.000000  0.000000  0.000000  1
  Cr  Cr1  1  0.638600  0.361400  0.295727  1
  Cr  Cr2  1  0.361400  0.638600  0.704273  1
  Cr  Cr3  1  0.000000  0.000000  0.500000  1
  O  O4  1  0.787088  0.715080  0.325249  1
  O  O5  1  0.715080  0.787088  0.674751  1
  O  O6  1  0.787154  0.212846  0.426676  1
  O  O7  1  0.212846  0.787154  0.573324  1
  O  O8  1  0.684640  0.315360  0.101123  1
  O  O9  1  0.315360  0.684640  0.898877  1
  O  O10  1  0.212912  0.284920  0.674751  1
  O  O11  1  0.284920  0.212912  0.325249  1
