# generated using pymatgen
data_La2Si2O7
_symmetry_space_group_name_H-M   'P 1'
_cell_length_a   5.52720238
_cell_length_b   8.85116856
_cell_length_c   14.34517349
_cell_angle_alpha   90.00000000
_cell_angle_beta   112.50049538
_cell_angle_gamma   90.00000000
_symmetry_Int_Tables_number   1
_chemical_formula_structural   La2Si2O7
_chemical_formula_sum   'La8 Si8 O28'
_cell_volume   648.37397364
_cell_formula_units_Z   4
loop_
 _symmetry_equiv_pos_site_id
 _symmetry_equiv_pos_as_xyz
  1  'x, y, z'
loop_
 _atom_site_type_symbol
 _atom_site_label
 _atom_site_symmetry_multiplicity
 _atom_site_fract_x
 _atom_site_fract_y
 _atom_site_fract_z
 _atom_site_occupancy
  La  La0  1  0.832008  0.107957  0.089235  1
  La  La1  1  0.167992  0.607957  0.410765  1
  La  La2  1  0.167992  0.892043  0.910765  1
  La  La3  1  0.832008  0.392043  0.589235  1
  La  La4  1  0.517799  0.311530  0.266460  1
  La  La5  1  0.482201  0.811530  0.233540  1
  La  La6  1  0.482201  0.688470  0.733540  1
  La  La7  1  0.517799  0.188470  0.766460  1
  Si  Si8  1  0.955910  0.994354  0.679120  1
  Si  Si9  1  0.044090  0.494354  0.820880  1
  Si  Si10  1  0.044090  0.005646  0.320880  1
  Si  Si11  1  0.955910  0.505646  0.179120  1
  Si  Si12  1  0.750209  0.745258  0.526407  1
  Si  Si13  1  0.249791  0.245258  0.973593  1
  Si  Si14  1  0.249791  0.254742  0.473593  1
  Si  Si15  1  0.750209  0.754742  0.026407  1
  O  O16  1  0.031603  0.170226  0.669981  1
  O  O17  1  0.968397  0.670226  0.830019  1
  O  O18  1  0.968397  0.829774  0.330019  1
  O  O19  1  0.031603  0.329774  0.169981  1
  O  O20  1  0.239384  0.912371  0.740229  1
  O  O21  1  0.760616  0.412371  0.759771  1
  O  O22  1  0.760616  0.087629  0.259771  1
  O  O23  1  0.239384  0.587629  0.240229  1
  O  O24  1  0.780622  0.976514  0.749461  1
  O  O25  1  0.219378  0.476514  0.750539  1
  O  O26  1  0.219378  0.023486  0.250539  1
  O  O27  1  0.780622  0.523486  0.249461  1
  O  O28  1  0.562637  0.742018  0.406844  1
  O  O29  1  0.437363  0.242018  0.093156  1
  O  O30  1  0.437363  0.257982  0.593156  1
  O  O31  1  0.562637  0.757982  0.906844  1
  O  O32  1  0.799068  0.580488  0.067640  1
  O  O33  1  0.200932  0.080488  0.432360  1
  O  O34  1  0.200932  0.419512  0.932360  1
  O  O35  1  0.799068  0.919512  0.567640  1
  O  O36  1  0.027237  0.846745  0.052527  1
  O  O37  1  0.972763  0.346745  0.447473  1
  O  O38  1  0.972763  0.153255  0.947473  1
  O  O39  1  0.027237  0.653255  0.552527  1
  O  O40  1  0.583245  0.855340  0.080245  1
  O  O41  1  0.416755  0.355340  0.419755  1
  O  O42  1  0.416755  0.144660  0.919755  1
  O  O43  1  0.583245  0.644660  0.580245  1
