# generated using pymatgen
data_La3MoO7
_symmetry_space_group_name_H-M   'P 1'
_cell_length_a   7.72515856
_cell_length_b   7.80908249
_cell_length_c   11.12450104
_cell_angle_alpha   90.00000000
_cell_angle_beta   90.00000000
_cell_angle_gamma   90.00000000
_symmetry_Int_Tables_number   1
_chemical_formula_structural   La3MoO7
_chemical_formula_sum   'La12 Mo4 O28'
_cell_volume   671.10110447
_cell_formula_units_Z   4
loop_
 _symmetry_equiv_pos_site_id
 _symmetry_equiv_pos_as_xyz
  1  'x, y, z'
loop_
 _atom_site_type_symbol
 _atom_site_label
 _atom_site_symmetry_multiplicity
 _atom_site_fract_x
 _atom_site_fract_y
 _atom_site_fract_z
 _atom_site_occupancy
  La  La0  1  0.528384  0.991820  0.753766  1
  La  La1  1  0.293593  0.253183  0.467255  1
  La  La2  1  0.206407  0.746817  0.967255  1
  La  La3  1  0.706407  0.753183  0.032745  1
  La  La4  1  0.793593  0.246817  0.532745  1
  La  La5  1  0.028384  0.508180  0.246234  1
  La  La6  1  0.471616  0.491820  0.746234  1
  La  La7  1  0.971616  0.008180  0.253766  1
  La  La8  1  0.697236  0.746836  0.481296  1
  La  La9  1  0.197236  0.753164  0.518704  1
  La  La10  1  0.302764  0.246836  0.018704  1
  La  La11  1  0.802764  0.253164  0.981296  1
  Mo  Mo12  1  0.498868  0.999894  0.249397  1
  Mo  Mo13  1  0.998868  0.500106  0.750603  1
  Mo  Mo14  1  0.501132  0.499894  0.250603  1
  Mo  Mo15  1  0.001132  0.000106  0.749397  1
  O  O16  1  0.509031  0.239867  0.618975  1
  O  O17  1  0.009031  0.260133  0.381025  1
  O  O18  1  0.490969  0.739867  0.881025  1
  O  O19  1  0.990969  0.760133  0.118975  1
  O  O20  1  0.535725  0.252510  0.882758  1
  O  O21  1  0.035725  0.247490  0.117242  1
  O  O22  1  0.464275  0.752510  0.617242  1
  O  O23  1  0.964275  0.747490  0.382758  1
  O  O24  1  0.306493  0.969367  0.369881  1
  O  O25  1  0.806493  0.530633  0.630119  1
  O  O26  1  0.693507  0.469367  0.130119  1
  O  O27  1  0.193507  0.030633  0.869881  1
  O  O28  1  0.676347  0.034651  0.374113  1
  O  O29  1  0.176347  0.465349  0.625887  1
  O  O30  1  0.323653  0.534651  0.125887  1
  O  O31  1  0.823653  0.965349  0.874113  1
  O  O32  1  0.578356  0.746121  0.256978  1
  O  O33  1  0.078356  0.753879  0.743022  1
  O  O34  1  0.421644  0.246121  0.243022  1
  O  O35  1  0.921644  0.253879  0.756978  1
  O  O36  1  0.787910  0.965881  0.629803  1
  O  O37  1  0.287910  0.534119  0.370197  1
  O  O38  1  0.366846  0.951831  0.109243  1
  O  O39  1  0.712090  0.034119  0.129803  1
  O  O40  1  0.133154  0.048169  0.609243  1
  O  O41  1  0.633154  0.451831  0.390757  1
  O  O42  1  0.866846  0.548169  0.890757  1
  O  O43  1  0.212090  0.465881  0.870197  1
