# generated using pymatgen
data_RbCrClO3
_symmetry_space_group_name_H-M   'P 1'
_cell_length_a   8.25631129
_cell_length_b   7.76475259
_cell_length_c   8.28627977
_cell_angle_alpha   90.00000000
_cell_angle_beta   90.70578649
_cell_angle_gamma   90.00000000
_symmetry_Int_Tables_number   1
_chemical_formula_structural   RbCrClO3
_chemical_formula_sum   'Rb4 Cr4 Cl4 O12'
_cell_volume   531.17829724
_cell_formula_units_Z   4
loop_
 _symmetry_equiv_pos_site_id
 _symmetry_equiv_pos_as_xyz
  1  'x, y, z'
loop_
 _atom_site_type_symbol
 _atom_site_label
 _atom_site_symmetry_multiplicity
 _atom_site_fract_x
 _atom_site_fract_y
 _atom_site_fract_z
 _atom_site_occupancy
  Rb  Rb0  1  0.365894  0.143048  0.814927  1
  Rb  Rb1  1  0.865894  0.356952  0.814927  1
  Rb  Rb2  1  0.634106  0.856952  0.185073  1
  Rb  Rb3  1  0.134106  0.643048  0.185073  1
  Cr  Cr4  1  0.874162  0.874485  0.777796  1
  Cr  Cr5  1  0.125838  0.125515  0.222204  1
  Cr  Cr6  1  0.374162  0.625515  0.777796  1
  Cr  Cr7  1  0.625838  0.374485  0.222204  1
  Cl  Cl8  1  0.361438  0.776250  0.554656  1
  Cl  Cl9  1  0.638562  0.223750  0.445344  1
  Cl  Cl10  1  0.861438  0.723750  0.554656  1
  Cl  Cl11  1  0.138562  0.276250  0.445344  1
  O  O12  1  0.531330  0.499974  0.773819  1
  O  O13  1  0.887186  0.739582  0.928335  1
  O  O14  1  0.968670  0.999974  0.226181  1
  O  O15  1  0.711120  0.990791  0.793371  1
  O  O16  1  0.612814  0.239582  0.071665  1
  O  O17  1  0.788880  0.490791  0.206629  1
  O  O18  1  0.031330  0.000026  0.773819  1
  O  O19  1  0.468670  0.500026  0.226181  1
  O  O20  1  0.288880  0.009209  0.206629  1
  O  O21  1  0.211120  0.509209  0.793371  1
  O  O22  1  0.112814  0.260418  0.071665  1
  O  O23  1  0.387186  0.760418  0.928335  1
