# generated using pymatgen
data_TiGe2
_symmetry_space_group_name_H-M   'P 1'
_cell_length_a   6.20223928
_cell_length_b   5.11100981
_cell_length_c   5.02974465
_cell_angle_alpha   75.40800451
_cell_angle_beta   52.88996431
_cell_angle_gamma   51.70203118
_symmetry_Int_Tables_number   1
_chemical_formula_structural   TiGe2
_chemical_formula_sum   'Ti2 Ge4'
_cell_volume   97.87397135
_cell_formula_units_Z   2
loop_
 _symmetry_equiv_pos_site_id
 _symmetry_equiv_pos_as_xyz
  1  'x, y, z'
loop_
 _atom_site_type_symbol
 _atom_site_label
 _atom_site_symmetry_multiplicity
 _atom_site_fract_x
 _atom_site_fract_y
 _atom_site_fract_z
 _atom_site_occupancy
  Ti  Ti0  1  0.250000  0.250000  0.250000  1
  Ti  Ti1  1  0.000000  0.000000  0.000000  1
  Ge  Ge2  1  0.918245  0.581755  0.918245  1
  Ge  Ge3  1  0.581755  0.918245  0.581755  1
  Ge  Ge4  1  0.331755  0.668245  0.331755  1
  Ge  Ge5  1  0.668245  0.331755  0.668245  1
