# generated using pymatgen
data_Sr3Ga3N5
_symmetry_space_group_name_H-M   'P 1'
_cell_length_a   6.00007991
_cell_length_b   7.27846084
_cell_length_c   8.76075511
_cell_angle_alpha   108.38610868
_cell_angle_beta   103.65948370
_cell_angle_gamma   95.44154170
_symmetry_Int_Tables_number   1
_chemical_formula_structural   Sr3Ga3N5
_chemical_formula_sum   'Sr6 Ga6 N10'
_cell_volume   346.79641151
_cell_formula_units_Z   2
loop_
 _symmetry_equiv_pos_site_id
 _symmetry_equiv_pos_as_xyz
  1  'x, y, z'
loop_
 _atom_site_type_symbol
 _atom_site_label
 _atom_site_symmetry_multiplicity
 _atom_site_fract_x
 _atom_site_fract_y
 _atom_site_fract_z
 _atom_site_occupancy
  Sr  Sr0  1  0.667550  0.862075  0.873638  1
  Sr  Sr1  1  0.332450  0.137925  0.126362  1
  Sr  Sr2  1  0.183132  0.588355  0.392313  1
  Sr  Sr3  1  0.656874  0.655885  0.202727  1
  Sr  Sr4  1  0.343126  0.344115  0.797273  1
  Sr  Sr5  1  0.816868  0.411645  0.607687  1
  Ga  Ga6  1  0.709781  0.954990  0.568526  1
  Ga  Ga7  1  0.290219  0.045010  0.431474  1
  Ga  Ga8  1  0.091596  0.684134  0.026563  1
  Ga  Ga9  1  0.877827  0.122705  0.284016  1
  Ga  Ga10  1  0.908404  0.315866  0.973437  1
  Ga  Ga11  1  0.122173  0.877295  0.715984  1
  N  N12  1  0.614091  0.053371  0.382010  1
  N  N13  1  0.742941  0.222966  0.109310  1
  N  N14  1  0.043797  0.891992  0.221611  1
  N  N15  1  0.162255  0.288411  0.474210  1
  N  N16  1  0.956203  0.108008  0.778389  1
  N  N17  1  0.257059  0.777034  0.890690  1
  N  N18  1  0.385909  0.946629  0.617990  1
  N  N19  1  0.764699  0.525678  0.904801  1
  N  N20  1  0.235301  0.474322  0.095199  1
  N  N21  1  0.837745  0.711589  0.525790  1
