# generated using pymatgen
data_LiU4P3O20
_symmetry_space_group_name_H-M   'P 1'
_cell_length_a   9.98514161
_cell_length_b   9.99122439
_cell_length_c   17.74820047
_cell_angle_alpha   90.00000000
_cell_angle_beta   106.11156388
_cell_angle_gamma   90.00000000
_symmetry_Int_Tables_number   1
_chemical_formula_structural   LiU4P3O20
_chemical_formula_sum   'Li4 U16 P12 O80'
_cell_volume   1701.08309663
_cell_formula_units_Z   4
loop_
 _symmetry_equiv_pos_site_id
 _symmetry_equiv_pos_as_xyz
  1  'x, y, z'
loop_
 _atom_site_type_symbol
 _atom_site_label
 _atom_site_symmetry_multiplicity
 _atom_site_fract_x
 _atom_site_fract_y
 _atom_site_fract_z
 _atom_site_occupancy
  Li  Li0  1  0.671511  0.370563  0.083703  1
  Li  Li1  1  0.328489  0.629437  0.916297  1
  Li  Li2  1  0.328489  0.870563  0.416297  1
  Li  Li3  1  0.671511  0.129437  0.583703  1
  U  U4  1  0.027617  0.623335  0.307161  1
  U  U5  1  0.972383  0.123335  0.192839  1
  U  U6  1  0.605831  0.885638  0.940730  1
  U  U7  1  0.914639  0.635636  0.057912  1
  U  U8  1  0.468918  0.874581  0.689425  1
  U  U9  1  0.972383  0.376665  0.692839  1
  U  U10  1  0.605831  0.614362  0.440730  1
  U  U11  1  0.468918  0.625419  0.189425  1
  U  U12  1  0.531082  0.125419  0.310575  1
  U  U13  1  0.394169  0.385638  0.559270  1
  U  U14  1  0.085361  0.364364  0.942088  1
  U  U15  1  0.531082  0.374581  0.810575  1
  U  U16  1  0.394169  0.114362  0.059270  1
  U  U17  1  0.914639  0.864364  0.557912  1
  U  U18  1  0.027617  0.876665  0.807161  1
  U  U19  1  0.085361  0.135636  0.442088  1
  P  P20  1  0.745116  0.125342  0.742440  1
  P  P21  1  0.254884  0.625342  0.757560  1
  P  P22  1  0.812260  0.627691  0.868627  1
  P  P23  1  0.307587  0.377822  0.369433  1
  P  P24  1  0.692413  0.877822  0.130567  1
  P  P25  1  0.812260  0.872309  0.368627  1
  P  P26  1  0.187740  0.127691  0.631373  1
  P  P27  1  0.187740  0.372309  0.131373  1
  P  P28  1  0.692413  0.622178  0.630567  1
  P  P29  1  0.745116  0.374658  0.242440  1
  P  P30  1  0.307587  0.122178  0.869433  1
  P  P31  1  0.254884  0.874658  0.257560  1
  O  O32  1  0.121840  0.289905  0.184552  1
  O  O33  1  0.195335  0.713264  0.813920  1
  O  O34  1  0.983004  0.866322  0.695580  1
  O  O35  1  0.483275  0.748378  0.441529  1
  O  O36  1  0.370595  0.281186  0.321615  1
  O  O37  1  0.370558  0.537862  0.813923  1
  O  O38  1  0.725202  0.482091  0.440400  1
  O  O39  1  0.983004  0.633678  0.195580  1
  O  O40  1  0.410701  0.631178  0.083486  1
  O  O41  1  0.219934  0.487103  0.942524  1
  O  O42  1  0.465739  0.384620  0.699171  1
  O  O43  1  0.575845  0.960715  0.071531  1
  O  O44  1  0.860802  0.034992  0.793068  1
  O  O45  1  0.319769  0.784501  0.206228  1
  O  O46  1  0.927146  0.382703  0.587674  1
  O  O47  1  0.139198  0.965008  0.206932  1
  O  O48  1  0.878160  0.710095  0.815448  1
  O  O49  1  0.516725  0.248378  0.058471  1
  O  O50  1  0.952503  0.245162  0.941882  1
  O  O51  1  0.274798  0.982091  0.059600  1
  O  O52  1  0.800560  0.529295  0.683442  1
  O  O53  1  0.047497  0.754838  0.058118  1
  O  O54  1  0.016996  0.133678  0.304420  1
  O  O55  1  0.780066  0.987103  0.557476  1
  O  O56  1  0.274798  0.517909  0.559600  1
  O  O57  1  0.589299  0.368822  0.916514  1
  O  O58  1  0.199440  0.029295  0.816558  1
  O  O59  1  0.952503  0.254838  0.441882  1
  O  O60  1  0.589299  0.131178  0.416514  1
  O  O61  1  0.424155  0.460715  0.428469  1
  O  O62  1  0.483275  0.751622  0.941529  1
  O  O63  1  0.924897  0.959030  0.427758  1
  O  O64  1  0.780066  0.512897  0.057476  1
  O  O65  1  0.243098  0.301833  0.428417  1
  O  O66  1  0.308279  0.041013  0.678693  1
  O  O67  1  0.319769  0.715499  0.706228  1
  O  O68  1  0.691721  0.541013  0.821307  1
  O  O69  1  0.756902  0.801833  0.071583  1
  O  O70  1  0.072854  0.617297  0.412326  1
  O  O71  1  0.629405  0.718814  0.678385  1
  O  O72  1  0.075103  0.040970  0.572242  1
  O  O73  1  0.804665  0.213264  0.686080  1
  O  O74  1  0.629442  0.462138  0.186077  1
  O  O75  1  0.243098  0.198167  0.928417  1
  O  O76  1  0.804665  0.286736  0.186080  1
  O  O77  1  0.924897  0.540970  0.927758  1
  O  O78  1  0.680231  0.284501  0.293772  1
  O  O79  1  0.370595  0.218814  0.821615  1
  O  O80  1  0.121840  0.210095  0.684552  1
  O  O81  1  0.234817  0.278255  0.072627  1
  O  O82  1  0.424155  0.039285  0.928469  1
  O  O83  1  0.878160  0.789905  0.315448  1
  O  O84  1  0.219934  0.012897  0.442524  1
  O  O85  1  0.516725  0.251622  0.558471  1
  O  O86  1  0.629442  0.037862  0.686077  1
  O  O87  1  0.370558  0.962138  0.313923  1
  O  O88  1  0.534261  0.884620  0.800829  1
  O  O89  1  0.534261  0.615380  0.300829  1
  O  O90  1  0.575845  0.539285  0.571531  1
  O  O91  1  0.725202  0.017909  0.940400  1
  O  O92  1  0.308279  0.458987  0.178693  1
  O  O93  1  0.860802  0.465008  0.293068  1
  O  O94  1  0.139198  0.534992  0.706932  1
  O  O95  1  0.691721  0.958987  0.321307  1
  O  O96  1  0.072854  0.882703  0.912326  1
  O  O97  1  0.075103  0.459030  0.072242  1
  O  O98  1  0.234817  0.221745  0.572627  1
  O  O99  1  0.047497  0.745162  0.558118  1
  O  O100  1  0.756902  0.698167  0.571583  1
  O  O101  1  0.629405  0.781186  0.178385  1
  O  O102  1  0.016996  0.366322  0.804420  1
  O  O103  1  0.680231  0.215499  0.793772  1
  O  O104  1  0.800560  0.970705  0.183442  1
  O  O105  1  0.410701  0.868822  0.583486  1
  O  O106  1  0.199440  0.470705  0.316558  1
  O  O107  1  0.465739  0.115380  0.199171  1
  O  O108  1  0.765183  0.778255  0.427373  1
  O  O109  1  0.927146  0.117297  0.087674  1
  O  O110  1  0.765183  0.721745  0.927373  1
  O  O111  1  0.195335  0.786736  0.313920  1
