# generated using pymatgen
data_KUI3O11
_symmetry_space_group_name_H-M   'P 1'
_cell_length_a   7.39988867
_cell_length_b   11.68474511
_cell_length_c   26.00635308
_cell_angle_alpha   90.00000000
_cell_angle_beta   90.00000000
_cell_angle_gamma   90.00000000
_symmetry_Int_Tables_number   1
_chemical_formula_structural   KUI3O11
_chemical_formula_sum   'K8 U8 I24 O88'
_cell_volume   2248.66046096
_cell_formula_units_Z   8
loop_
 _symmetry_equiv_pos_site_id
 _symmetry_equiv_pos_as_xyz
  1  'x, y, z'
loop_
 _atom_site_type_symbol
 _atom_site_label
 _atom_site_symmetry_multiplicity
 _atom_site_fract_x
 _atom_site_fract_y
 _atom_site_fract_z
 _atom_site_occupancy
  K  K0  1  0.553363  0.836954  0.978894  1
  K  K1  1  0.946637  0.836954  0.478894  1
  K  K2  1  0.446637  0.663046  0.478894  1
  K  K3  1  0.446637  0.163046  0.021106  1
  K  K4  1  0.053363  0.663046  0.978894  1
  K  K5  1  0.946637  0.336954  0.021106  1
  K  K6  1  0.553363  0.336954  0.521106  1
  K  K7  1  0.053363  0.163046  0.521106  1
  U  U8  1  0.463664  0.025058  0.848235  1
  U  U9  1  0.463664  0.525058  0.651765  1
  U  U10  1  0.036336  0.525058  0.151765  1
  U  U11  1  0.036336  0.025058  0.348235  1
  U  U12  1  0.963664  0.474942  0.848235  1
  U  U13  1  0.536336  0.474942  0.348235  1
  U  U14  1  0.963664  0.974942  0.651765  1
  U  U15  1  0.536336  0.974942  0.151765  1
  I  I16  1  0.564975  0.659725  0.203335  1
  I  I17  1  0.138737  0.203861  0.155312  1
  I  I18  1  0.638737  0.796139  0.344688  1
  I  I19  1  0.046529  0.561343  0.562392  1
  I  I20  1  0.546529  0.438657  0.937608  1
  I  I21  1  0.064976  0.340275  0.296665  1
  I  I22  1  0.435025  0.840275  0.703335  1
  I  I23  1  0.546529  0.938657  0.562392  1
  I  I24  1  0.953471  0.938657  0.062392  1
  I  I25  1  0.361263  0.203861  0.655312  1
  I  I26  1  0.361263  0.703861  0.844688  1
  I  I27  1  0.935025  0.659725  0.703335  1
  I  I28  1  0.638737  0.296139  0.155312  1
  I  I29  1  0.935025  0.159725  0.796665  1
  I  I30  1  0.046529  0.061343  0.937608  1
  I  I31  1  0.453471  0.061343  0.437608  1
  I  I32  1  0.453471  0.561343  0.062392  1
  I  I33  1  0.861263  0.796139  0.844688  1
  I  I34  1  0.138737  0.703861  0.344688  1
  I  I35  1  0.564975  0.159725  0.296665  1
  I  I36  1  0.953471  0.438657  0.437608  1
  I  I37  1  0.861263  0.296139  0.655312  1
  I  I38  1  0.435025  0.340275  0.796665  1
  I  I39  1  0.064976  0.840275  0.203335  1
  O  O40  1  0.281343  0.933755  0.666794  1
  O  O41  1  0.025536  0.973521  0.583998  1
  O  O42  1  0.830808  0.939950  0.126791  1
  O  O43  1  0.038891  0.224666  0.344616  1
  O  O44  1  0.284286  0.850704  0.857609  1
  O  O45  1  0.525536  0.526479  0.583998  1
  O  O46  1  0.330808  0.560050  0.126791  1
  O  O47  1  0.718657  0.566245  0.166794  1
  O  O48  1  0.608083  0.842577  0.410595  1
  O  O49  1  0.822177  0.038209  0.023334  1
  O  O50  1  0.623249  0.347490  0.664878  1
  O  O51  1  0.330808  0.060050  0.373209  1
  O  O52  1  0.865651  0.805132  0.038041  1
  O  O53  1  0.222170  0.270714  0.253104  1
  O  O54  1  0.108083  0.657423  0.410595  1
  O  O55  1  0.123249  0.652510  0.835122  1
  O  O56  1  0.391917  0.657423  0.910595  1
  O  O57  1  0.376751  0.652510  0.335122  1
  O  O58  1  0.677823  0.538209  0.976666  1
  O  O59  1  0.634349  0.805132  0.538041  1
  O  O60  1  0.461109  0.724666  0.655384  1
  O  O61  1  0.277830  0.270714  0.753104  1
  O  O62  1  0.784286  0.149296  0.642391  1
  O  O63  1  0.474464  0.973521  0.083998  1
  O  O64  1  0.715714  0.649296  0.357609  1
  O  O65  1  0.590136  0.977888  0.220425  1
  O  O66  1  0.090136  0.022112  0.279575  1
  O  O67  1  0.365651  0.194868  0.461959  1
  O  O68  1  0.961109  0.275334  0.844616  1
  O  O69  1  0.284286  0.350704  0.642391  1
  O  O70  1  0.608083  0.342577  0.089405  1
  O  O71  1  0.090136  0.522112  0.220425  1
  O  O72  1  0.169192  0.560050  0.626791  1
  O  O73  1  0.215714  0.850704  0.357609  1
  O  O74  1  0.891917  0.342577  0.589405  1
  O  O75  1  0.677823  0.038209  0.523334  1
  O  O76  1  0.169192  0.060050  0.873209  1
  O  O77  1  0.781343  0.066245  0.833206  1
  O  O78  1  0.722170  0.729286  0.246896  1
  O  O79  1  0.961109  0.775334  0.655384  1
  O  O80  1  0.830808  0.439950  0.373209  1
  O  O81  1  0.538891  0.275334  0.344616  1
  O  O82  1  0.538891  0.775334  0.155384  1
  O  O83  1  0.974464  0.526479  0.083998  1
  O  O84  1  0.891917  0.842577  0.910595  1
  O  O85  1  0.974464  0.026479  0.416002  1
  O  O86  1  0.777830  0.229286  0.753104  1
  O  O87  1  0.669192  0.439950  0.873209  1
  O  O88  1  0.218657  0.933755  0.166794  1
  O  O89  1  0.909864  0.977888  0.720425  1
  O  O90  1  0.025536  0.473521  0.916002  1
  O  O91  1  0.669192  0.939950  0.626791  1
  O  O92  1  0.281343  0.433755  0.833206  1
  O  O93  1  0.777830  0.729286  0.746896  1
  O  O94  1  0.715714  0.149296  0.142391  1
  O  O95  1  0.876751  0.347490  0.164878  1
  O  O96  1  0.474464  0.473521  0.416002  1
  O  O97  1  0.876751  0.847490  0.335122  1
  O  O98  1  0.215714  0.350704  0.142391  1
  O  O99  1  0.322177  0.961791  0.476666  1
  O  O100  1  0.376751  0.152510  0.164878  1
  O  O101  1  0.177823  0.961791  0.976666  1
  O  O102  1  0.134349  0.694868  0.538041  1
  O  O103  1  0.218657  0.433755  0.333206  1
  O  O104  1  0.108083  0.157423  0.089405  1
  O  O105  1  0.277830  0.770714  0.746896  1
  O  O106  1  0.409864  0.022112  0.779575  1
  O  O107  1  0.461109  0.224666  0.844616  1
  O  O108  1  0.391917  0.157423  0.589405  1
  O  O109  1  0.123249  0.152510  0.664878  1
  O  O110  1  0.038891  0.724666  0.155384  1
  O  O111  1  0.909864  0.477888  0.779575  1
  O  O112  1  0.623249  0.847490  0.835122  1
  O  O113  1  0.822177  0.538209  0.476666  1
  O  O114  1  0.409864  0.522112  0.720425  1
  O  O115  1  0.365651  0.694868  0.038041  1
  O  O116  1  0.784286  0.649296  0.857609  1
  O  O117  1  0.718657  0.066245  0.333206  1
  O  O118  1  0.722170  0.229286  0.253104  1
  O  O119  1  0.322177  0.461791  0.023334  1
  O  O120  1  0.525536  0.026479  0.916002  1
  O  O121  1  0.865651  0.305132  0.461959  1
  O  O122  1  0.590136  0.477888  0.279575  1
  O  O123  1  0.634349  0.305132  0.961959  1
  O  O124  1  0.222170  0.770714  0.246896  1
  O  O125  1  0.177823  0.461791  0.523334  1
  O  O126  1  0.781343  0.566245  0.666794  1
  O  O127  1  0.134349  0.194868  0.961959  1
