# generated using pymatgen
data_Ba2Mn2As2O
_symmetry_space_group_name_H-M   'P 1'
_cell_length_a   6.58530214
_cell_length_b   6.58530214
_cell_length_c   7.68397215
_cell_angle_alpha   59.71575330
_cell_angle_beta   120.28424670
_cell_angle_gamma   141.79140826
_symmetry_Int_Tables_number   1
_chemical_formula_structural   Ba2Mn2As2O
_chemical_formula_sum   'Ba2 Mn2 As2 O1'
_cell_volume   174.30253080
_cell_formula_units_Z   1
loop_
 _symmetry_equiv_pos_site_id
 _symmetry_equiv_pos_as_xyz
  1  'x, y, z'
loop_
 _atom_site_type_symbol
 _atom_site_label
 _atom_site_symmetry_multiplicity
 _atom_site_fract_x
 _atom_site_fract_y
 _atom_site_fract_z
 _atom_site_occupancy
  Ba  Ba0  1  0.949279  0.050721  0.202582  1
  Ba  Ba1  1  0.050721  0.949279  0.797418  1
  Mn  Mn2  1  0.688095  0.311905  0.576704  1
  Mn  Mn3  1  0.311905  0.688095  0.423296  1
  As  As4  1  0.315664  0.684336  0.780879  1
  As  As5  1  0.684336  0.315664  0.219121  1
  O  O6  1  0.500000  0.500000  0.500000  1
