# generated using pymatgen
data_GdP2H9O10
_symmetry_space_group_name_H-M   'P 1'
_cell_length_a   7.29204213
_cell_length_b   10.00373240
_cell_length_c   11.72081084
_cell_angle_alpha   90.00000000
_cell_angle_beta   90.00000000
_cell_angle_gamma   90.00000000
_symmetry_Int_Tables_number   1
_chemical_formula_structural   GdP2H9O10
_chemical_formula_sum   'Gd4 P8 H36 O40'
_cell_volume   855.00546761
_cell_formula_units_Z   4
loop_
 _symmetry_equiv_pos_site_id
 _symmetry_equiv_pos_as_xyz
  1  'x, y, z'
loop_
 _atom_site_type_symbol
 _atom_site_label
 _atom_site_symmetry_multiplicity
 _atom_site_fract_x
 _atom_site_fract_y
 _atom_site_fract_z
 _atom_site_occupancy
  Gd  Gd0  1  0.250000  0.742444  0.250000  1
  Gd  Gd1  1  0.250000  0.757556  0.750000  1
  Gd  Gd2  1  0.750000  0.257556  0.750000  1
  Gd  Gd3  1  0.750000  0.242444  0.250000  1
  P  P4  1  0.414691  0.030103  0.072849  1
  P  P5  1  0.414691  0.469897  0.927151  1
  P  P6  1  0.085309  0.030103  0.427151  1
  P  P7  1  0.085309  0.469897  0.572849  1
  P  P8  1  0.585309  0.969897  0.927151  1
  P  P9  1  0.585309  0.530103  0.072849  1
  P  P10  1  0.914691  0.969897  0.572849  1
  P  P11  1  0.914691  0.530103  0.427151  1
  H  H12  1  0.056276  0.442052  0.242236  1
  H  H13  1  0.056276  0.057948  0.757764  1
  H  H14  1  0.443724  0.442052  0.257764  1
  H  H15  1  0.443724  0.057948  0.742236  1
  H  H16  1  0.943724  0.557948  0.757764  1
  H  H17  1  0.943724  0.942052  0.242236  1
  H  H18  1  0.556276  0.557948  0.742236  1
  H  H19  1  0.556276  0.942052  0.257764  1
  H  H20  1  0.299563  0.250000  0.000000  1
  H  H21  1  0.200437  0.250000  0.500000  1
  H  H22  1  0.700437  0.750000  0.000000  1
  H  H23  1  0.799563  0.750000  0.500000  1
  H  H24  1  0.036053  0.128578  0.073667  1
  H  H25  1  0.036053  0.371422  0.926333  1
  H  H26  1  0.463947  0.128578  0.426333  1
  H  H27  1  0.463947  0.371422  0.573667  1
  H  H28  1  0.963947  0.871422  0.926333  1
  H  H29  1  0.963947  0.628578  0.073667  1
  H  H30  1  0.536053  0.871422  0.573667  1
  H  H31  1  0.536053  0.628578  0.426333  1
  H  H32  1  0.161328  0.877443  0.985346  1
  H  H33  1  0.161328  0.622557  0.014654  1
  H  H34  1  0.338672  0.877443  0.514654  1
  H  H35  1  0.338672  0.622557  0.485346  1
  H  H36  1  0.838672  0.122557  0.014654  1
  H  H37  1  0.838672  0.377443  0.985346  1
  H  H38  1  0.661328  0.122557  0.485346  1
  H  H39  1  0.661328  0.377443  0.514654  1
  H  H40  1  0.116570  0.351832  0.139334  1
  H  H41  1  0.116570  0.148168  0.860666  1
  H  H42  1  0.383430  0.351832  0.360666  1
  H  H43  1  0.383430  0.148168  0.639334  1
  H  H44  1  0.883430  0.648168  0.860666  1
  H  H45  1  0.883430  0.851832  0.139334  1
  H  H46  1  0.616570  0.648168  0.639334  1
  H  H47  1  0.616570  0.851832  0.360666  1
  O  O48  1  0.960585  0.084986  0.333001  1
  O  O49  1  0.960585  0.415014  0.666999  1
  O  O50  1  0.539415  0.084986  0.166999  1
  O  O51  1  0.539415  0.415014  0.833001  1
  O  O52  1  0.039415  0.915014  0.666999  1
  O  O53  1  0.039415  0.584986  0.333001  1
  O  O54  1  0.460585  0.915014  0.833001  1
  O  O55  1  0.460585  0.584986  0.166999  1
  O  O56  1  0.226003  0.135183  0.473261  1
  O  O57  1  0.226003  0.364817  0.526739  1
  O  O58  1  0.273997  0.135183  0.026739  1
  O  O59  1  0.273997  0.364817  0.973261  1
  O  O60  1  0.773997  0.864817  0.526739  1
  O  O61  1  0.773997  0.635183  0.473261  1
  O  O62  1  0.726003  0.864817  0.973261  1
  O  O63  1  0.726003  0.635183  0.026739  1
  O  O64  1  0.046817  0.350556  0.210364  1
  O  O65  1  0.046817  0.149444  0.789636  1
  O  O66  1  0.453183  0.350556  0.289636  1
  O  O67  1  0.453183  0.149444  0.710364  1
  O  O68  1  0.953183  0.649444  0.789636  1
  O  O69  1  0.953183  0.850556  0.210364  1
  O  O70  1  0.546817  0.649444  0.710364  1
  O  O71  1  0.546817  0.850556  0.289636  1
  O  O72  1  0.691336  0.403333  0.106866  1
  O  O73  1  0.691336  0.096667  0.893134  1
  O  O74  1  0.808664  0.403333  0.393134  1
  O  O75  1  0.808664  0.096667  0.606866  1
  O  O76  1  0.308664  0.596667  0.893134  1
  O  O77  1  0.308664  0.903333  0.106866  1
  O  O78  1  0.191336  0.596667  0.606866  1
  O  O79  1  0.191336  0.903333  0.393134  1
  O  O80  1  0.902767  0.132441  0.088878  1
  O  O81  1  0.902767  0.367559  0.911122  1
  O  O82  1  0.597233  0.132441  0.411122  1
  O  O83  1  0.597233  0.367559  0.588878  1
  O  O84  1  0.097233  0.867559  0.911122  1
  O  O85  1  0.097233  0.632441  0.088878  1
  O  O86  1  0.402767  0.867559  0.588878  1
  O  O87  1  0.402767  0.632441  0.411122  1
