# generated using pymatgen
data_ZnS
_symmetry_space_group_name_H-M   'P 1'
_cell_length_a   3.85405343
_cell_length_b   3.85405343
_cell_length_c   31.48751327
_cell_angle_alpha   90.00000000
_cell_angle_beta   90.00000000
_cell_angle_gamma   120.00000000
_symmetry_Int_Tables_number   1
_chemical_formula_structural   ZnS
_chemical_formula_sum   'Zn10 S10'
_cell_volume   405.04610163
_cell_formula_units_Z   10
loop_
 _symmetry_equiv_pos_site_id
 _symmetry_equiv_pos_as_xyz
  1  'x, y, z'
loop_
 _atom_site_type_symbol
 _atom_site_label
 _atom_site_symmetry_multiplicity
 _atom_site_fract_x
 _atom_site_fract_y
 _atom_site_fract_z
 _atom_site_occupancy
  Zn  Zn0  1  0.666667  0.333333  0.199995  1
  Zn  Zn1  1  0.000000  0.000000  0.799986  1
  Zn  Zn2  1  0.666667  0.333333  0.899987  1
  Zn  Zn3  1  0.333333  0.666667  0.699995  1
  Zn  Zn4  1  0.333333  0.666667  0.099995  1
  Zn  Zn5  1  0.666667  0.333333  0.599995  1
  Zn  Zn6  1  0.000000  0.000000  0.000017  1
  Zn  Zn7  1  0.333333  0.666667  0.399987  1
  Zn  Zn8  1  0.000000  0.000000  0.299986  1
  Zn  Zn9  1  0.000000  0.000000  0.500017  1
  S  S10  1  0.666667  0.333333  0.275004  1
  S  S11  1  0.000000  0.000000  0.075001  1
  S  S12  1  0.666667  0.333333  0.675005  1
  S  S13  1  0.000000  0.000000  0.874946  1
  S  S14  1  0.333333  0.666667  0.775004  1
  S  S15  1  0.000000  0.000000  0.575001  1
  S  S16  1  0.333333  0.666667  0.175005  1
  S  S17  1  0.333333  0.666667  0.475063  1
  S  S18  1  0.666667  0.333333  0.975063  1
  S  S19  1  0.000000  0.000000  0.374946  1
