# generated using pymatgen
data_PrNiSnH
_symmetry_space_group_name_H-M   'P 1'
_cell_length_a   4.40968336
_cell_length_b   7.28813280
_cell_length_c   8.54189614
_cell_angle_alpha   90.00000000
_cell_angle_beta   90.00000000
_cell_angle_gamma   90.00000000
_symmetry_Int_Tables_number   1
_chemical_formula_structural   PrNiSnH
_chemical_formula_sum   'Pr4 Ni4 Sn4 H4'
_cell_volume   274.52251558
_cell_formula_units_Z   4
loop_
 _symmetry_equiv_pos_site_id
 _symmetry_equiv_pos_as_xyz
  1  'x, y, z'
loop_
 _atom_site_type_symbol
 _atom_site_label
 _atom_site_symmetry_multiplicity
 _atom_site_fract_x
 _atom_site_fract_y
 _atom_site_fract_z
 _atom_site_occupancy
  Pr  Pr0  1  0.750000  0.013233  0.689002  1
  Pr  Pr1  1  0.250000  0.986767  0.310998  1
  Pr  Pr2  1  0.250000  0.486767  0.189002  1
  Pr  Pr3  1  0.750000  0.513233  0.810998  1
  Ni  Ni4  1  0.750000  0.780980  0.098904  1
  Ni  Ni5  1  0.250000  0.219020  0.901096  1
  Ni  Ni6  1  0.250000  0.719020  0.598904  1
  Ni  Ni7  1  0.750000  0.280980  0.401096  1
  Sn  Sn8  1  0.750000  0.657842  0.431536  1
  Sn  Sn9  1  0.250000  0.342158  0.568464  1
  Sn  Sn10  1  0.250000  0.842158  0.931536  1
  Sn  Sn11  1  0.750000  0.157842  0.068464  1
  H  H12  1  0.250000  0.438173  0.919279  1
  H  H13  1  0.750000  0.561827  0.080721  1
  H  H14  1  0.750000  0.061827  0.419279  1
  H  H15  1  0.250000  0.938173  0.580721  1
