# generated using pymatgen
data_Ba2Mg3F10
_symmetry_space_group_name_H-M   'P 1'
_cell_length_a   9.84540904
_cell_length_b   9.84540904
_cell_length_c   7.92772049
_cell_angle_alpha   69.11019286
_cell_angle_beta   110.88980714
_cell_angle_gamma   144.31876423
_symmetry_Int_Tables_number   1
_chemical_formula_structural   Ba2Mg3F10
_chemical_formula_sum   'Ba4 Mg6 F20'
_cell_volume   415.58455439
_cell_formula_units_Z   2
loop_
 _symmetry_equiv_pos_site_id
 _symmetry_equiv_pos_as_xyz
  1  'x, y, z'
loop_
 _atom_site_type_symbol
 _atom_site_label
 _atom_site_symmetry_multiplicity
 _atom_site_fract_x
 _atom_site_fract_y
 _atom_site_fract_z
 _atom_site_occupancy
  Ba  Ba0  1  0.716241  0.283759  0.315201  1
  Ba  Ba1  1  0.283759  0.716241  0.684799  1
  Ba  Ba2  1  0.613712  0.386288  0.719071  1
  Ba  Ba3  1  0.386288  0.613712  0.280929  1
  Mg  Mg4  1  0.925765  0.074235  0.545889  1
  Mg  Mg5  1  0.074235  0.925765  0.454111  1
  Mg  Mg6  1  0.822915  0.177085  0.985700  1
  Mg  Mg7  1  0.177085  0.822915  0.014300  1
  Mg  Mg8  1  0.746034  0.746034  0.000000  1
  Mg  Mg9  1  0.253966  0.253966  0.000000  1
  F  F10  1  0.636309  0.857868  0.975279  1
  F  F11  1  0.857868  0.636309  0.024721  1
  F  F12  1  0.363691  0.142132  0.024721  1
  F  F13  1  0.142132  0.363691  0.975279  1
  F  F14  1  0.613514  0.910395  0.525359  1
  F  F15  1  0.910395  0.613514  0.474641  1
  F  F16  1  0.386486  0.089605  0.474641  1
  F  F17  1  0.089605  0.386486  0.525359  1
  F  F18  1  0.977614  0.022386  0.818196  1
  F  F19  1  0.022386  0.977614  0.181804  1
  F  F20  1  0.865645  0.134355  0.256506  1
  F  F21  1  0.134355  0.865645  0.743494  1
  F  F22  1  0.763655  0.236345  0.722004  1
  F  F23  1  0.236345  0.763655  0.277996  1
  F  F24  1  0.482899  0.517101  0.820767  1
  F  F25  1  0.517101  0.482899  0.179233  1
  F  F26  1  0.781216  0.781216  0.500000  1
  F  F27  1  0.218784  0.218784  0.500000  1
  F  F28  1  0.500000  0.000000  0.000000  1
  F  F29  1  0.000000  0.500000  0.000000  1
