# generated using pymatgen
data_Hf3Cd3AgF20
_symmetry_space_group_name_H-M   'P 1'
_cell_length_a   10.68098595
_cell_length_b   10.68098595
_cell_length_c   8.47265832
_cell_angle_alpha   90.00000000
_cell_angle_beta   90.00000000
_cell_angle_gamma   120.00000000
_symmetry_Int_Tables_number   1
_chemical_formula_structural   Hf3Cd3AgF20
_chemical_formula_sum   'Hf6 Cd6 Ag2 F40'
_cell_volume   837.09165505
_cell_formula_units_Z   2
loop_
 _symmetry_equiv_pos_site_id
 _symmetry_equiv_pos_as_xyz
  1  'x, y, z'
loop_
 _atom_site_type_symbol
 _atom_site_label
 _atom_site_symmetry_multiplicity
 _atom_site_fract_x
 _atom_site_fract_y
 _atom_site_fract_z
 _atom_site_occupancy
  Hf  Hf0  1  0.861042  0.582845  0.750000  1
  Hf  Hf1  1  0.417155  0.278196  0.750000  1
  Hf  Hf2  1  0.582845  0.721804  0.250000  1
  Hf  Hf3  1  0.721804  0.138958  0.750000  1
  Hf  Hf4  1  0.138958  0.417155  0.250000  1
  Hf  Hf5  1  0.278196  0.861042  0.250000  1
  Cd  Cd6  1  0.432700  0.270376  0.250000  1
  Cd  Cd7  1  0.729624  0.162324  0.250000  1
  Cd  Cd8  1  0.270376  0.837676  0.750000  1
  Cd  Cd9  1  0.837676  0.567300  0.250000  1
  Cd  Cd10  1  0.162324  0.432700  0.750000  1
  Cd  Cd11  1  0.567300  0.729624  0.750000  1
  Ag  Ag12  1  0.000000  0.000000  0.250000  1
  Ag  Ag13  1  0.000000  0.000000  0.750000  1
  F  F14  1  0.056303  0.584727  0.750000  1
  F  F15  1  0.797134  0.764566  0.250000  1
  F  F16  1  0.943697  0.415273  0.250000  1
  F  F17  1  0.366022  0.551391  0.250000  1
  F  F18  1  0.814631  0.366022  0.750000  1
  F  F19  1  0.584727  0.528424  0.250000  1
  F  F20  1  0.145507  0.425239  0.485301  1
  F  F21  1  0.235434  0.032567  0.250000  1
  F  F22  1  0.058083  0.774684  0.250000  1
  F  F23  1  0.716601  0.941917  0.250000  1
  F  F24  1  0.202866  0.235434  0.750000  1
  F  F25  1  0.551391  0.185369  0.750000  1
  F  F26  1  0.941917  0.225316  0.750000  1
  F  F27  1  0.145507  0.425239  0.014699  1
  F  F28  1  0.967433  0.202866  0.250000  1
  F  F29  1  0.425239  0.279731  0.985301  1
  F  F30  1  0.774684  0.716601  0.750000  1
  F  F31  1  0.854493  0.574761  0.985301  1
  F  F32  1  0.854493  0.574761  0.514699  1
  F  F33  1  0.574761  0.720269  0.485301  1
  F  F34  1  0.764566  0.967433  0.750000  1
  F  F35  1  0.279731  0.854493  0.014699  1
  F  F36  1  0.415273  0.471576  0.750000  1
  F  F37  1  0.225316  0.283399  0.250000  1
  F  F38  1  0.471576  0.056303  0.250000  1
  F  F39  1  0.528424  0.943697  0.750000  1
  F  F40  1  0.720269  0.145507  0.514699  1
  F  F41  1  0.279731  0.854493  0.485301  1
  F  F42  1  0.425239  0.279731  0.514699  1
  F  F43  1  0.448609  0.814631  0.250000  1
  F  F44  1  0.283399  0.058083  0.750000  1
  F  F45  1  0.000000  0.000000  0.500000  1
  F  F46  1  0.574761  0.720269  0.014699  1
  F  F47  1  0.032567  0.797134  0.750000  1
  F  F48  1  0.185369  0.633978  0.250000  1
  F  F49  1  0.633978  0.448609  0.750000  1
  F  F50  1  0.666667  0.333333  0.250000  1
  F  F51  1  0.000000  0.000000  0.000000  1
  F  F52  1  0.333333  0.666667  0.750000  1
  F  F53  1  0.720269  0.145507  0.985301  1
