# generated using pymatgen
data_Sc3RhC4
_symmetry_space_group_name_H-M   'P 1'
_cell_length_a   6.77317242
_cell_length_b   6.77317242
_cell_length_c   5.62866066
_cell_angle_alpha   83.53610827
_cell_angle_beta   96.46389173
_cell_angle_gamma   49.10282363
_symmetry_Int_Tables_number   1
_chemical_formula_structural   Sc3RhC4
_chemical_formula_sum   'Sc6 Rh2 C8'
_cell_volume   187.88408112
_cell_formula_units_Z   2
loop_
 _symmetry_equiv_pos_site_id
 _symmetry_equiv_pos_as_xyz
  1  'x, y, z'
loop_
 _atom_site_type_symbol
 _atom_site_label
 _atom_site_symmetry_multiplicity
 _atom_site_fract_x
 _atom_site_fract_y
 _atom_site_fract_z
 _atom_site_occupancy
  Sc  Sc0  1  0.759109  0.240891  0.240287  1
  Sc  Sc1  1  0.188454  0.188454  0.000000  1
  Sc  Sc2  1  0.689798  0.689798  0.500000  1
  Sc  Sc3  1  0.240891  0.759109  0.759713  1
  Sc  Sc4  1  0.310202  0.310202  0.500000  1
  Sc  Sc5  1  0.811546  0.811546  0.000000  1
  Rh  Rh6  1  0.268845  0.731155  0.269104  1
  Rh  Rh7  1  0.731155  0.268845  0.730896  1
  C  C8  1  0.949812  0.793170  0.418187  1
  C  C9  1  0.710640  0.547494  0.921770  1
  C  C10  1  0.793170  0.949812  0.581813  1
  C  C11  1  0.050188  0.206830  0.581813  1
  C  C12  1  0.289360  0.452506  0.078230  1
  C  C13  1  0.547494  0.710640  0.078230  1
  C  C14  1  0.452506  0.289360  0.921770  1
  C  C15  1  0.206830  0.050188  0.418187  1
