# generated using pymatgen
data_LiFe(SiO3)2
_symmetry_space_group_name_H-M   'P 1'
_cell_length_a   6.60109368
_cell_length_b   6.60109368
_cell_length_c   5.36274097
_cell_angle_alpha   74.65162659
_cell_angle_beta   105.34837341
_cell_angle_gamma   96.37157782
_symmetry_Int_Tables_number   1
_chemical_formula_structural   LiFe(SiO3)2
_chemical_formula_sum   'Li2 Fe2 Si4 O12'
_cell_volume   217.09661282
_cell_formula_units_Z   2
loop_
 _symmetry_equiv_pos_site_id
 _symmetry_equiv_pos_as_xyz
  1  'x, y, z'
loop_
 _atom_site_type_symbol
 _atom_site_label
 _atom_site_symmetry_multiplicity
 _atom_site_fract_x
 _atom_site_fract_y
 _atom_site_fract_z
 _atom_site_occupancy
  Li  Li0  1  0.748087  0.748087  0.750000  1
  Li  Li1  1  0.251913  0.251913  0.250000  1
  Fe  Fe2  1  0.103004  0.103004  0.750000  1
  Fe  Fe3  1  0.896996  0.896996  0.250000  1
  Si  Si4  1  0.614920  0.206748  0.731305  1
  Si  Si5  1  0.385080  0.793252  0.268695  1
  Si  Si6  1  0.793252  0.385080  0.231305  1
  Si  Si7  1  0.206748  0.614920  0.768695  1
  O  O8  1  0.969381  0.201159  0.349920  1
  O  O9  1  0.350094  0.642647  0.059979  1
  O  O10  1  0.642647  0.350094  0.440021  1
  O  O11  1  0.649906  0.357353  0.940021  1
  O  O12  1  0.357353  0.649906  0.559979  1
  O  O13  1  0.625032  0.887570  0.328526  1
  O  O14  1  0.030619  0.798841  0.650080  1
  O  O15  1  0.798841  0.030619  0.849920  1
  O  O16  1  0.887570  0.625032  0.171474  1
  O  O17  1  0.374968  0.112430  0.671474  1
  O  O18  1  0.112430  0.374968  0.828526  1
  O  O19  1  0.201159  0.969381  0.150080  1
