# generated using pymatgen
data_MgVO3
_symmetry_space_group_name_H-M   'P 1'
_cell_length_a   5.79208837
_cell_length_b   5.79208837
_cell_length_c   5.30256117
_cell_angle_alpha   90.00000000
_cell_angle_beta   90.00000000
_cell_angle_gamma   125.20464198
_symmetry_Int_Tables_number   1
_chemical_formula_structural   MgVO3
_chemical_formula_sum   'Mg2 V2 O6'
_cell_volume   145.35510736
_cell_formula_units_Z   2
loop_
 _symmetry_equiv_pos_site_id
 _symmetry_equiv_pos_as_xyz
  1  'x, y, z'
loop_
 _atom_site_type_symbol
 _atom_site_label
 _atom_site_symmetry_multiplicity
 _atom_site_fract_x
 _atom_site_fract_y
 _atom_site_fract_z
 _atom_site_occupancy
  Mg  Mg0  1  0.575383  0.424617  0.750000  1
  Mg  Mg1  1  0.424617  0.575383  0.250000  1
  V  V2  1  0.929795  0.070205  0.750000  1
  V  V3  1  0.070205  0.929795  0.250000  1
  O  O4  1  0.761010  0.761010  0.500000  1
  O  O5  1  0.238990  0.238990  0.000000  1
  O  O6  1  0.238990  0.238990  0.500000  1
  O  O7  1  0.761010  0.761010  0.000000  1
  O  O8  1  0.765564  0.234436  0.750000  1
  O  O9  1  0.234436  0.765564  0.250000  1
