# generated using pymatgen
data_La23Cd4Pt7
_symmetry_space_group_name_H-M   'P 1'
_cell_length_a   10.26355786
_cell_length_b   10.26355786
_cell_length_c   23.34585980
_cell_angle_alpha   90.00000000
_cell_angle_beta   90.00000000
_cell_angle_gamma   120.00000000
_symmetry_Int_Tables_number   1
_chemical_formula_structural   La23Cd4Pt7
_chemical_formula_sum   'La46 Cd8 Pt14'
_cell_volume   2129.78799328
_cell_formula_units_Z   2
loop_
 _symmetry_equiv_pos_site_id
 _symmetry_equiv_pos_as_xyz
  1  'x, y, z'
loop_
 _atom_site_type_symbol
 _atom_site_label
 _atom_site_symmetry_multiplicity
 _atom_site_fract_x
 _atom_site_fract_y
 _atom_site_fract_z
 _atom_site_occupancy
  La  La0  1  0.409993  0.204997  0.945585  1
  La  La1  1  0.333333  0.666667  0.144804  1
  La  La2  1  0.578391  0.789195  0.991466  1
  La  La3  1  0.128100  0.871900  0.135408  1
  La  La4  1  0.205634  0.794366  0.720664  1
  La  La5  1  0.915129  0.457565  0.355937  1
  La  La6  1  0.920615  0.460307  0.084995  1
  La  La7  1  0.079385  0.539693  0.584995  1
  La  La8  1  0.789195  0.210805  0.491466  1
  La  La9  1  0.128100  0.256200  0.135408  1
  La  La10  1  0.200126  0.400252  0.283673  1
  La  La11  1  0.590007  0.795003  0.445585  1
  La  La12  1  0.871900  0.128100  0.635408  1
  La  La13  1  0.588732  0.794366  0.720664  1
  La  La14  1  0.795003  0.204997  0.945585  1
  La  La15  1  0.210805  0.789195  0.991466  1
  La  La16  1  0.400252  0.200126  0.783673  1
  La  La17  1  0.204997  0.409993  0.445585  1
  La  La18  1  0.539693  0.079385  0.084995  1
  La  La19  1  0.795003  0.590007  0.945585  1
  La  La20  1  0.421609  0.210805  0.491466  1
  La  La21  1  0.084871  0.542435  0.855937  1
  La  La22  1  0.460307  0.539693  0.584995  1
  La  La23  1  0.799874  0.599748  0.783673  1
  La  La24  1  0.205634  0.411268  0.720664  1
  La  La25  1  0.000000  0.000000  0.493659  1
  La  La26  1  0.599748  0.799874  0.283673  1
  La  La27  1  0.200126  0.799874  0.283673  1
  La  La28  1  0.799874  0.200126  0.783673  1
  La  La29  1  0.666667  0.333333  0.644804  1
  La  La30  1  0.542435  0.084871  0.355937  1
  La  La31  1  0.256200  0.128100  0.635408  1
  La  La32  1  0.000000  0.000000  0.993659  1
  La  La33  1  0.204997  0.795003  0.445585  1
  La  La34  1  0.457565  0.542435  0.855937  1
  La  La35  1  0.794366  0.588732  0.220664  1
  La  La36  1  0.457565  0.915129  0.855937  1
  La  La37  1  0.794366  0.205634  0.220664  1
  La  La38  1  0.210805  0.421609  0.991466  1
  La  La39  1  0.789195  0.578391  0.491466  1
  La  La40  1  0.460307  0.920615  0.584995  1
  La  La41  1  0.542435  0.457565  0.355937  1
  La  La42  1  0.539693  0.460307  0.084995  1
  La  La43  1  0.871900  0.743800  0.635408  1
  La  La44  1  0.743800  0.871900  0.135408  1
  La  La45  1  0.411268  0.205634  0.220664  1
  Cd  Cd46  1  0.213704  0.106852  0.362984  1
  Cd  Cd47  1  0.000000  0.000000  0.249212  1
  Cd  Cd48  1  0.106852  0.213704  0.862984  1
  Cd  Cd49  1  0.893148  0.786296  0.362984  1
  Cd  Cd50  1  0.893148  0.106852  0.362984  1
  Cd  Cd51  1  0.000000  0.000000  0.749212  1
  Cd  Cd52  1  0.106852  0.893148  0.862984  1
  Cd  Cd53  1  0.786296  0.893148  0.862984  1
  Pt  Pt54  1  0.666667  0.333333  0.861893  1
  Pt  Pt55  1  0.333333  0.666667  0.361893  1
  Pt  Pt56  1  0.956852  0.478426  0.712011  1
  Pt  Pt57  1  0.478426  0.521574  0.212011  1
  Pt  Pt58  1  0.521574  0.478426  0.712011  1
  Pt  Pt59  1  0.521574  0.043148  0.712011  1
  Pt  Pt60  1  0.142032  0.857968  0.563012  1
  Pt  Pt61  1  0.857968  0.715936  0.063012  1
  Pt  Pt62  1  0.043148  0.521574  0.212011  1
  Pt  Pt63  1  0.142032  0.284064  0.563012  1
  Pt  Pt64  1  0.284064  0.142032  0.063012  1
  Pt  Pt65  1  0.857968  0.142032  0.063012  1
  Pt  Pt66  1  0.715936  0.857968  0.563012  1
  Pt  Pt67  1  0.478426  0.956852  0.212011  1
