# generated using pymatgen
data_CsAlCuF6
_symmetry_space_group_name_H-M   'P 1'
_cell_length_a   7.19280929
_cell_length_b   7.20399634
_cell_length_c   10.31484131
_cell_angle_alpha   90.00000000
_cell_angle_beta   90.00000000
_cell_angle_gamma   90.00000000
_symmetry_Int_Tables_number   1
_chemical_formula_structural   CsAlCuF6
_chemical_formula_sum   'Cs4 Al4 Cu4 F24'
_cell_volume   534.48384128
_cell_formula_units_Z   4
loop_
 _symmetry_equiv_pos_site_id
 _symmetry_equiv_pos_as_xyz
  1  'x, y, z'
loop_
 _atom_site_type_symbol
 _atom_site_label
 _atom_site_symmetry_multiplicity
 _atom_site_fract_x
 _atom_site_fract_y
 _atom_site_fract_z
 _atom_site_occupancy
  Cs  Cs0  1  0.484755  0.250000  0.128687  1
  Cs  Cs1  1  0.984755  0.250000  0.371313  1
  Cs  Cs2  1  0.515245  0.750000  0.871313  1
  Cs  Cs3  1  0.015245  0.750000  0.628687  1
  Al  Al4  1  0.000000  0.000000  0.000000  1
  Al  Al5  1  0.500000  0.500000  0.500000  1
  Al  Al6  1  0.000000  0.500000  0.000000  1
  Al  Al7  1  0.500000  0.000000  0.500000  1
  Cu  Cu8  1  0.273509  0.250000  0.758422  1
  Cu  Cu9  1  0.773509  0.250000  0.741578  1
  Cu  Cu10  1  0.726491  0.750000  0.241578  1
  Cu  Cu11  1  0.226491  0.750000  0.258422  1
  F  F12  1  0.028601  0.250000  0.675230  1
  F  F13  1  0.528601  0.250000  0.824770  1
  F  F14  1  0.971399  0.750000  0.324770  1
  F  F15  1  0.471399  0.750000  0.175230  1
  F  F16  1  0.477592  0.250000  0.458305  1
  F  F17  1  0.977592  0.250000  0.041695  1
  F  F18  1  0.522408  0.750000  0.541695  1
  F  F19  1  0.022408  0.750000  0.958305  1
  F  F20  1  0.153583  0.972219  0.138121  1
  F  F21  1  0.653583  0.527781  0.361879  1
  F  F22  1  0.846417  0.472219  0.861879  1
  F  F23  1  0.346417  0.027781  0.638121  1
  F  F24  1  0.846417  0.027781  0.861879  1
  F  F25  1  0.346417  0.472219  0.638121  1
  F  F26  1  0.153583  0.527781  0.138121  1
  F  F27  1  0.653583  0.972219  0.361879  1
  F  F28  1  0.201797  0.047379  0.898546  1
  F  F29  1  0.701797  0.452621  0.601454  1
  F  F30  1  0.798203  0.547379  0.101454  1
  F  F31  1  0.298203  0.952621  0.398546  1
  F  F32  1  0.798203  0.952621  0.101454  1
  F  F33  1  0.298203  0.547379  0.398546  1
  F  F34  1  0.201797  0.452621  0.898546  1
  F  F35  1  0.701797  0.047379  0.601454  1
