# generated using pymatgen
data_La3Si2S8Cl
_symmetry_space_group_name_H-M   'P 1'
_cell_length_a   8.82741739
_cell_length_b   8.82741739
_cell_length_c   11.09180232
_cell_angle_alpha   83.73882379
_cell_angle_beta   96.26117621
_cell_angle_gamma   127.35184486
_symmetry_Int_Tables_number   1
_chemical_formula_structural   La3Si2S8Cl
_chemical_formula_sum   'La6 Si4 S16 Cl2'
_cell_volume   681.95612907
_cell_formula_units_Z   2
loop_
 _symmetry_equiv_pos_site_id
 _symmetry_equiv_pos_as_xyz
  1  'x, y, z'
loop_
 _atom_site_type_symbol
 _atom_site_label
 _atom_site_symmetry_multiplicity
 _atom_site_fract_x
 _atom_site_fract_y
 _atom_site_fract_z
 _atom_site_occupancy
  La  La0  1  0.072732  0.688623  0.185327  1
  La  La1  1  0.688623  0.072732  0.314673  1
  La  La2  1  0.311377  0.927268  0.685327  1
  La  La3  1  0.617569  0.617569  0.750000  1
  La  La4  1  0.927268  0.311377  0.814673  1
  La  La5  1  0.382431  0.382431  0.250000  1
  Si  Si6  1  0.371028  0.691589  0.969989  1
  Si  Si7  1  0.628972  0.308411  0.030011  1
  Si  Si8  1  0.691589  0.371028  0.530011  1
  Si  Si9  1  0.308411  0.628972  0.469989  1
  S  S10  1  0.720231  0.588992  0.051142  1
  S  S11  1  0.441159  0.738265  0.158510  1
  S  S12  1  0.893805  0.599963  0.642032  1
  S  S13  1  0.400037  0.106195  0.142032  1
  S  S14  1  0.738265  0.441159  0.341490  1
  S  S15  1  0.279769  0.411008  0.948858  1
  S  S16  1  0.857739  0.290523  0.084593  1
  S  S17  1  0.261735  0.558841  0.658510  1
  S  S18  1  0.588992  0.720231  0.448858  1
  S  S19  1  0.290523  0.857739  0.415407  1
  S  S20  1  0.142261  0.709477  0.915407  1
  S  S21  1  0.411008  0.279769  0.551142  1
  S  S22  1  0.709477  0.142261  0.584593  1
  S  S23  1  0.599963  0.893805  0.857968  1
  S  S24  1  0.106195  0.400037  0.357968  1
  S  S25  1  0.558841  0.261735  0.841490  1
  Cl  Cl26  1  0.004328  0.004328  0.250000  1
  Cl  Cl27  1  0.995672  0.995672  0.750000  1
