# generated using pymatgen
data_RbAl3(P3O10)2
_symmetry_space_group_name_H-M   'P 1'
_cell_length_a   8.24588619
_cell_length_b   8.24588619
_cell_length_c   12.08941321
_cell_angle_alpha   90.00000000
_cell_angle_beta   90.00000000
_cell_angle_gamma   105.10720281
_symmetry_Int_Tables_number   1
_chemical_formula_structural   RbAl3(P3O10)2
_chemical_formula_sum   'Rb2 Al6 P12 O40'
_cell_volume   793.60633673
_cell_formula_units_Z   2
loop_
 _symmetry_equiv_pos_site_id
 _symmetry_equiv_pos_as_xyz
  1  'x, y, z'
loop_
 _atom_site_type_symbol
 _atom_site_label
 _atom_site_symmetry_multiplicity
 _atom_site_fract_x
 _atom_site_fract_y
 _atom_site_fract_z
 _atom_site_occupancy
  Rb  Rb0  1  0.522002  0.522002  0.500000  1
  Rb  Rb1  1  0.477998  0.477998  0.000000  1
  Al  Al2  1  0.246428  0.753572  0.250000  1
  Al  Al3  1  0.753572  0.246428  0.750000  1
  Al  Al4  1  0.707824  0.292176  0.250000  1
  Al  Al5  1  0.867954  0.867954  1.000000  1
  Al  Al6  1  0.292176  0.707824  0.750000  1
  Al  Al7  1  0.132046  0.132046  0.500000  1
  P  P8  1  0.847059  0.257363  0.011473  1
  P  P9  1  0.742637  0.152941  0.488527  1
  P  P10  1  0.152941  0.742637  0.511473  1
  P  P11  1  0.366227  0.093886  0.817470  1
  P  P12  1  0.633773  0.906114  0.317470  1
  P  P13  1  0.168316  0.304801  0.722905  1
  P  P14  1  0.093886  0.366227  0.182530  1
  P  P15  1  0.831684  0.695199  0.222905  1
  P  P16  1  0.695199  0.831684  0.777095  1
  P  P17  1  0.257363  0.847059  0.988527  1
  P  P18  1  0.906114  0.633773  0.682530  1
  P  P19  1  0.304801  0.168316  0.277095  1
  O  O20  1  0.254692  0.236130  0.388262  1
  O  O21  1  0.363722  0.035473  0.944957  1
  O  O22  1  0.035473  0.363722  0.055043  1
  O  O23  1  0.964527  0.636278  0.555043  1
  O  O24  1  0.727493  0.018996  0.784240  1
  O  O25  1  0.636278  0.964527  0.444957  1
  O  O26  1  0.769305  0.474759  0.702269  1
  O  O27  1  0.925878  0.144030  0.483547  1
  O  O28  1  0.745308  0.763870  0.888262  1
  O  O29  1  0.176755  0.209504  0.184236  1
  O  O30  1  0.525241  0.230695  0.797731  1
  O  O31  1  0.174233  0.680939  0.396652  1
  O  O32  1  0.236130  0.254692  0.611738  1
  O  O33  1  0.074122  0.855970  0.983547  1
  O  O34  1  0.272507  0.981004  0.284240  1
  O  O35  1  0.722238  0.298104  0.092520  1
  O  O36  1  0.277762  0.701896  0.592520  1
  O  O37  1  0.327424  0.944419  0.742331  1
  O  O38  1  0.475714  0.268535  0.239799  1
  O  O39  1  0.209504  0.176755  0.815764  1
  O  O40  1  0.823245  0.790496  0.684236  1
  O  O41  1  0.230695  0.525241  0.202269  1
  O  O42  1  0.268535  0.475714  0.760201  1
  O  O43  1  0.855970  0.074122  0.016453  1
  O  O44  1  0.018996  0.727493  0.215761  1
  O  O45  1  0.298104  0.722238  0.907480  1
  O  O46  1  0.055581  0.672576  0.757669  1
  O  O47  1  0.524286  0.731465  0.739799  1
  O  O48  1  0.319061  0.825767  0.103348  1
  O  O49  1  0.981004  0.272507  0.715761  1
  O  O50  1  0.825767  0.319061  0.896652  1
  O  O51  1  0.790496  0.823245  0.315764  1
  O  O52  1  0.701896  0.277762  0.407480  1
  O  O53  1  0.144030  0.925878  0.516453  1
  O  O54  1  0.731465  0.524286  0.260201  1
  O  O55  1  0.763870  0.745308  0.111738  1
  O  O56  1  0.474759  0.769305  0.297731  1
  O  O57  1  0.680939  0.174233  0.603348  1
  O  O58  1  0.672576  0.055581  0.242331  1
  O  O59  1  0.944419  0.327424  0.257669  1
