# generated using pymatgen
data_Ca6Ag16N
_symmetry_space_group_name_H-M   'P 1'
_cell_length_a   8.58534888
_cell_length_b   8.58534888
_cell_length_c   8.58534888
_cell_angle_alpha   109.47122063
_cell_angle_beta   109.47122063
_cell_angle_gamma   109.47122063
_symmetry_Int_Tables_number   1
_chemical_formula_structural   Ca6Ag16N
_chemical_formula_sum   'Ca6 Ag16 N1'
_cell_volume   487.13793763
_cell_formula_units_Z   1
loop_
 _symmetry_equiv_pos_site_id
 _symmetry_equiv_pos_as_xyz
  1  'x, y, z'
loop_
 _atom_site_type_symbol
 _atom_site_label
 _atom_site_symmetry_multiplicity
 _atom_site_fract_x
 _atom_site_fract_y
 _atom_site_fract_z
 _atom_site_occupancy
  Ca  Ca0  1  0.254911  0.254911  0.000000  1
  Ca  Ca1  1  0.254911  1.000000  0.254911  1
  Ca  Ca2  1  0.745089  1.000000  0.745089  1
  Ca  Ca3  1  0.000000  0.254911  0.254911  1
  Ca  Ca4  1  0.000000  0.745089  0.745089  1
  Ca  Ca5  1  0.745089  0.745089  0.000000  1
  Ag  Ag6  1  0.500000  0.000000  0.000000  1
  Ag  Ag7  1  0.000000  0.500000  0.000000  1
  Ag  Ag8  1  0.000000  0.000000  0.500000  1
  Ag  Ag9  1  0.500000  0.500000  0.500000  1
  Ag  Ag10  1  0.346989  0.653011  0.000000  1
  Ag  Ag11  1  0.653011  0.306023  0.653011  1
  Ag  Ag12  1  0.346989  1.000000  0.653011  1
  Ag  Ag13  1  0.693977  0.346989  0.346989  1
  Ag  Ag14  1  0.000000  0.653011  0.346989  1
  Ag  Ag15  1  0.653011  0.653011  0.306023  1
  Ag  Ag16  1  0.346989  0.346989  0.693977  1
  Ag  Ag17  1  0.306023  0.653011  0.653011  1
  Ag  Ag18  1  0.346989  0.693977  0.346989  1
  Ag  Ag19  1  0.000000  0.346989  0.653011  1
  Ag  Ag20  1  0.653011  0.000000  0.346989  1
  Ag  Ag21  1  0.653011  0.346989  0.000000  1
  N  N22  1  0.000000  0.000000  0.000000  1
