# generated using pymatgen
data_Rb8AlAu3O4
_symmetry_space_group_name_H-M   'P 1'
_cell_length_a   10.61176993
_cell_length_b   13.15525702
_cell_length_c   13.49024558
_cell_angle_alpha   90.00000000
_cell_angle_beta   90.00000000
_cell_angle_gamma   90.00000000
_symmetry_Int_Tables_number   1
_chemical_formula_structural   Rb8AlAu3O4
_chemical_formula_sum   'Rb32 Al4 Au12 O16'
_cell_volume   1883.24584919
_cell_formula_units_Z   4
loop_
 _symmetry_equiv_pos_site_id
 _symmetry_equiv_pos_as_xyz
  1  'x, y, z'
loop_
 _atom_site_type_symbol
 _atom_site_label
 _atom_site_symmetry_multiplicity
 _atom_site_fract_x
 _atom_site_fract_y
 _atom_site_fract_z
 _atom_site_occupancy
  Rb  Rb0  1  0.902501  0.953903  0.490132  1
  Rb  Rb1  1  0.847170  0.307744  0.938814  1
  Rb  Rb2  1  0.523459  0.451929  0.014876  1
  Rb  Rb3  1  0.097499  0.453903  0.009868  1
  Rb  Rb4  1  0.347170  0.192256  0.061186  1
  Rb  Rb5  1  0.658393  0.471809  0.737102  1
  Rb  Rb6  1  0.384596  0.235834  0.347627  1
  Rb  Rb7  1  0.731649  0.252051  0.181273  1
  Rb  Rb8  1  0.231649  0.247949  0.818727  1
  Rb  Rb9  1  0.884596  0.264166  0.652373  1
  Rb  Rb10  1  0.841607  0.528191  0.237102  1
  Rb  Rb11  1  0.986421  0.247953  0.361637  1
  Rb  Rb12  1  0.768351  0.747949  0.681273  1
  Rb  Rb13  1  0.821572  0.960270  0.233042  1
  Rb  Rb14  1  0.268351  0.752051  0.318727  1
  Rb  Rb15  1  0.013579  0.747953  0.138363  1
  Rb  Rb16  1  0.152830  0.807744  0.561186  1
  Rb  Rb17  1  0.976541  0.548071  0.514876  1
  Rb  Rb18  1  0.486421  0.252047  0.638363  1
  Rb  Rb19  1  0.023459  0.048071  0.985124  1
  Rb  Rb20  1  0.341607  0.971809  0.762898  1
  Rb  Rb21  1  0.321572  0.539730  0.766958  1
  Rb  Rb22  1  0.678428  0.039730  0.733042  1
  Rb  Rb23  1  0.402501  0.546097  0.509868  1
  Rb  Rb24  1  0.513579  0.752047  0.861637  1
  Rb  Rb25  1  0.178428  0.460270  0.266958  1
  Rb  Rb26  1  0.615404  0.735834  0.152373  1
  Rb  Rb27  1  0.597499  0.046097  0.990132  1
  Rb  Rb28  1  0.158393  0.028191  0.262898  1
  Rb  Rb29  1  0.652830  0.692256  0.438814  1
  Rb  Rb30  1  0.115404  0.764166  0.847627  1
  Rb  Rb31  1  0.476541  0.951929  0.485124  1
  Al  Al32  1  0.054642  0.245468  0.137990  1
  Al  Al33  1  0.445358  0.754532  0.637990  1
  Al  Al34  1  0.945358  0.745468  0.362010  1
  Al  Al35  1  0.554642  0.254532  0.862010  1
  Au  Au36  1  0.689317  0.387459  0.446278  1
  Au  Au37  1  0.305347  0.661446  0.047733  1
  Au  Au38  1  0.694653  0.161446  0.452267  1
  Au  Au39  1  0.024839  0.024784  0.715318  1
  Au  Au40  1  0.310683  0.887459  0.053722  1
  Au  Au41  1  0.975161  0.524784  0.784682  1
  Au  Au42  1  0.524839  0.475216  0.284682  1
  Au  Au43  1  0.189317  0.112541  0.553722  1
  Au  Au44  1  0.810683  0.612541  0.946278  1
  Au  Au45  1  0.805347  0.838554  0.952267  1
  Au  Au46  1  0.194653  0.338554  0.547733  1
  Au  Au47  1  0.475161  0.975216  0.215318  1
  O  O48  1  0.810344  0.743723  0.278966  1
  O  O49  1  0.896449  0.744845  0.491273  1
  O  O50  1  0.466871  0.139469  0.835381  1
  O  O51  1  0.189656  0.243723  0.221034  1
  O  O52  1  0.033129  0.860531  0.335381  1
  O  O53  1  0.310344  0.756277  0.721034  1
  O  O54  1  0.043757  0.635585  0.333751  1
  O  O55  1  0.103551  0.244845  0.008727  1
  O  O56  1  0.533129  0.639469  0.664619  1
  O  O57  1  0.956243  0.135585  0.166249  1
  O  O58  1  0.396449  0.755155  0.508727  1
  O  O59  1  0.603551  0.255155  0.991273  1
  O  O60  1  0.689656  0.256277  0.778966  1
  O  O61  1  0.543757  0.864415  0.666249  1
  O  O62  1  0.456243  0.364415  0.833751  1
  O  O63  1  0.966871  0.360531  0.164619  1
