# generated using pymatgen
data_Rb(OsO3)2
_symmetry_space_group_name_H-M   'P 1'
_cell_length_a   7.24298863
_cell_length_b   7.24298863
_cell_length_c   7.24298863
_cell_angle_alpha   60.00000000
_cell_angle_beta   60.00000000
_cell_angle_gamma   60.00000000
_symmetry_Int_Tables_number   1
_chemical_formula_structural   Rb(OsO3)2
_chemical_formula_sum   'Rb2 Os4 O12'
_cell_volume   268.68190085
_cell_formula_units_Z   2
loop_
 _symmetry_equiv_pos_site_id
 _symmetry_equiv_pos_as_xyz
  1  'x, y, z'
loop_
 _atom_site_type_symbol
 _atom_site_label
 _atom_site_symmetry_multiplicity
 _atom_site_fract_x
 _atom_site_fract_y
 _atom_site_fract_z
 _atom_site_occupancy
  Rb  Rb0  1  0.250000  0.250000  0.250000  1
  Rb  Rb1  1  0.000000  0.000000  0.000000  1
  Os  Os2  1  0.625000  0.625000  0.625000  1
  Os  Os3  1  0.625000  0.125000  0.625000  1
  Os  Os4  1  0.625000  0.625000  0.125000  1
  Os  Os5  1  0.125000  0.625000  0.625000  1
  O  O6  1  0.689967  0.310033  0.310033  1
  O  O7  1  0.939967  0.560033  0.560033  1
  O  O8  1  0.310033  0.310033  0.689967  1
  O  O9  1  0.689967  0.310033  0.689967  1
  O  O10  1  0.310033  0.689967  0.310033  1
  O  O11  1  0.689967  0.689967  0.310033  1
  O  O12  1  0.310033  0.689967  0.689967  1
  O  O13  1  0.939967  0.560033  0.939967  1
  O  O14  1  0.560033  0.939967  0.560033  1
  O  O15  1  0.560033  0.939967  0.939967  1
  O  O16  1  0.560033  0.560033  0.939967  1
  O  O17  1  0.939967  0.939967  0.560033  1
