# generated using pymatgen
data_Dy7(TeIr)2
_symmetry_space_group_name_H-M   'P 1'
_cell_length_a   9.42943503
_cell_length_b   9.42943503
_cell_length_c   9.42943503
_cell_angle_alpha   155.79078559
_cell_angle_beta   119.81912947
_cell_angle_gamma   65.83801048
_symmetry_Int_Tables_number   1
_chemical_formula_structural   Dy7(TeIr)2
_chemical_formula_sum   'Dy7 Te2 Ir2'
_cell_volume   295.97445678
_cell_formula_units_Z   1
loop_
 _symmetry_equiv_pos_site_id
 _symmetry_equiv_pos_as_xyz
  1  'x, y, z'
loop_
 _atom_site_type_symbol
 _atom_site_label
 _atom_site_symmetry_multiplicity
 _atom_site_fract_x
 _atom_site_fract_y
 _atom_site_fract_z
 _atom_site_occupancy
  Dy  Dy0  1  0.286388  0.183700  0.102688  1
  Dy  Dy1  1  0.890197  0.147797  0.742400  1
  Dy  Dy2  1  0.976541  0.500000  0.476541  1
  Dy  Dy3  1  0.262446  0.368727  0.893719  1
  Dy  Dy4  1  0.524992  0.631273  0.893719  1
  Dy  Dy5  1  0.918988  0.816300  0.102688  1
  Dy  Dy6  1  0.594603  0.852203  0.742400  1
  Te  Te7  1  0.240014  0.000000  0.240014  1
  Te  Te8  1  0.640962  0.500000  0.140962  1
  Ir  Ir9  1  0.666482  0.260988  0.405494  1
  Ir  Ir10  1  0.144506  0.739012  0.405494  1
