# generated using pymatgen
data_CsV3(TeO6)2
_symmetry_space_group_name_H-M   'P 1'
_cell_length_a   7.27519087
_cell_length_b   7.27519087
_cell_length_c   11.86958073
_cell_angle_alpha   90.00000000
_cell_angle_beta   90.00000000
_cell_angle_gamma   120.00000000
_symmetry_Int_Tables_number   1
_chemical_formula_structural   CsV3(TeO6)2
_chemical_formula_sum   'Cs2 V6 Te4 O24'
_cell_volume   544.07001815
_cell_formula_units_Z   2
loop_
 _symmetry_equiv_pos_site_id
 _symmetry_equiv_pos_as_xyz
  1  'x, y, z'
loop_
 _atom_site_type_symbol
 _atom_site_label
 _atom_site_symmetry_multiplicity
 _atom_site_fract_x
 _atom_site_fract_y
 _atom_site_fract_z
 _atom_site_occupancy
  Cs  Cs0  1  0.666667  0.333333  0.514285  1
  Cs  Cs1  1  0.333333  0.666667  0.014285  1
  V  V2  1  0.870189  0.204205  0.835242  1
  V  V3  1  0.795795  0.665984  0.835242  1
  V  V4  1  0.665984  0.870189  0.335242  1
  V  V5  1  0.334016  0.129811  0.835242  1
  V  V6  1  0.204205  0.334016  0.335242  1
  V  V7  1  0.129811  0.795795  0.335242  1
  Te  Te8  1  0.333333  0.666667  0.574525  1
  Te  Te9  1  0.666667  0.333333  0.074525  1
  Te  Te10  1  0.000000  0.000000  0.601714  1
  Te  Te11  1  0.000000  0.000000  0.101714  1
  O  O12  1  0.188206  0.400431  0.500076  1
  O  O13  1  0.129532  0.882182  0.867116  1
  O  O14  1  0.856616  0.120881  0.681874  1
  O  O15  1  0.914939  0.454654  0.814507  1
  O  O16  1  0.879119  0.735736  0.681874  1
  O  O17  1  0.811794  0.599569  0.000076  1
  O  O18  1  0.400431  0.212226  0.000076  1
  O  O19  1  0.212226  0.811794  0.500076  1
  O  O20  1  0.787774  0.188206  0.000076  1
  O  O21  1  0.117818  0.247350  0.867116  1
  O  O22  1  0.085061  0.545346  0.314507  1
  O  O23  1  0.545346  0.460285  0.814507  1
  O  O24  1  0.752650  0.870468  0.867116  1
  O  O25  1  0.247350  0.129532  0.367116  1
  O  O26  1  0.454654  0.539715  0.314507  1
  O  O27  1  0.882182  0.752650  0.367116  1
  O  O28  1  0.539715  0.085061  0.814507  1
  O  O29  1  0.460285  0.914939  0.314507  1
  O  O30  1  0.143384  0.879119  0.181874  1
  O  O31  1  0.735736  0.856616  0.181874  1
  O  O32  1  0.264264  0.143384  0.681874  1
  O  O33  1  0.599569  0.787774  0.500076  1
  O  O34  1  0.120881  0.264264  0.181874  1
  O  O35  1  0.870468  0.117818  0.367116  1
