# generated using pymatgen
data_Ba3Na2Cr4F20
_symmetry_space_group_name_H-M   'P 1'
_cell_length_a   5.54881059
_cell_length_b   21.02565008
_cell_length_c   9.19877278
_cell_angle_alpha   90.00000000
_cell_angle_beta   126.30236714
_cell_angle_gamma   90.00000000
_symmetry_Int_Tables_number   1
_chemical_formula_structural   Ba3Na2Cr4F20
_chemical_formula_sum   'Ba6 Na4 Cr8 F40'
_cell_volume   864.89311569
_cell_formula_units_Z   2
loop_
 _symmetry_equiv_pos_site_id
 _symmetry_equiv_pos_as_xyz
  1  'x, y, z'
loop_
 _atom_site_type_symbol
 _atom_site_label
 _atom_site_symmetry_multiplicity
 _atom_site_fract_x
 _atom_site_fract_y
 _atom_site_fract_z
 _atom_site_occupancy
  Ba  Ba0  1  0.033963  0.223217  0.005926  1
  Ba  Ba1  1  0.033963  0.276783  0.505926  1
  Ba  Ba2  1  0.966037  0.723217  0.494074  1
  Ba  Ba3  1  0.000000  0.500000  0.500000  1
  Ba  Ba4  1  0.966037  0.776783  0.994074  1
  Ba  Ba5  1  0.000000  0.000000  0.000000  1
  Na  Na6  1  0.790571  0.591021  0.773791  1
  Na  Na7  1  0.790571  0.908979  0.273791  1
  Na  Na8  1  0.209429  0.408979  0.226209  1
  Na  Na9  1  0.209429  0.091021  0.726209  1
  Cr  Cr10  1  0.305982  0.896642  0.786966  1
  Cr  Cr11  1  0.504824  0.361624  0.031932  1
  Cr  Cr12  1  0.305982  0.603358  0.286966  1
  Cr  Cr13  1  0.504824  0.138376  0.531932  1
  Cr  Cr14  1  0.495176  0.638376  0.968068  1
  Cr  Cr15  1  0.694018  0.396642  0.713034  1
  Cr  Cr16  1  0.694018  0.103358  0.213034  1
  Cr  Cr17  1  0.495176  0.861624  0.468068  1
  F  F18  1  0.889060  0.178350  0.642499  1
  F  F19  1  0.534512  0.679008  0.794305  1
  F  F20  1  0.534512  0.820992  0.294305  1
  F  F21  1  0.532597  0.092065  0.354605  1
  F  F22  1  0.168475  0.888524  0.935513  1
  F  F23  1  0.675263  0.194298  0.228731  1
  F  F24  1  0.305238  0.210564  0.372218  1
  F  F25  1  0.168475  0.611476  0.435513  1
  F  F26  1  0.687373  0.011831  0.188004  1
  F  F27  1  0.716414  0.607403  0.500711  1
  F  F28  1  0.465488  0.320992  0.205695  1
  F  F29  1  0.110940  0.678350  0.857501  1
  F  F30  1  0.324737  0.694298  0.271269  1
  F  F31  1  0.467403  0.907935  0.645395  1
  F  F32  1  0.110940  0.821650  0.357501  1
  F  F33  1  0.831525  0.111476  0.064487  1
  F  F34  1  0.305238  0.289436  0.872218  1
  F  F35  1  0.324737  0.805702  0.771269  1
  F  F36  1  0.675263  0.305702  0.728731  1
  F  F37  1  0.890768  0.901792  0.563715  1
  F  F38  1  0.312627  0.988169  0.811996  1
  F  F39  1  0.467403  0.592065  0.145395  1
  F  F40  1  0.301196  0.567186  0.806145  1
  F  F41  1  0.687373  0.488169  0.688004  1
  F  F42  1  0.694762  0.710564  0.127782  1
  F  F43  1  0.831525  0.388524  0.564487  1
  F  F44  1  0.532597  0.407935  0.854605  1
  F  F45  1  0.283586  0.392597  0.499289  1
  F  F46  1  0.716414  0.892597  0.000711  1
  F  F47  1  0.698804  0.432814  0.193855  1
  F  F48  1  0.694762  0.789436  0.627782  1
  F  F49  1  0.312627  0.511831  0.311996  1
  F  F50  1  0.890768  0.598208  0.063715  1
  F  F51  1  0.698804  0.067186  0.693855  1
  F  F52  1  0.465488  0.179008  0.705695  1
  F  F53  1  0.109232  0.098208  0.436285  1
  F  F54  1  0.283586  0.107403  0.999289  1
  F  F55  1  0.889060  0.321650  0.142499  1
  F  F56  1  0.109232  0.401792  0.936285  1
  F  F57  1  0.301196  0.932814  0.306145  1
