# generated using pymatgen
data_Sr2LaGaCu2O7
_symmetry_space_group_name_H-M   'P 1'
_cell_length_a   12.30561877
_cell_length_b   12.30561877
_cell_length_c   12.30561877
_cell_angle_alpha   154.20277626
_cell_angle_beta   153.56206625
_cell_angle_gamma   37.27318104
_symmetry_Int_Tables_number   1
_chemical_formula_structural   Sr2LaGaCu2O7
_chemical_formula_sum   'Sr4 La2 Ga2 Cu4 O14'
_cell_volume   360.52888729
_cell_formula_units_Z   2
loop_
 _symmetry_equiv_pos_site_id
 _symmetry_equiv_pos_as_xyz
  1  'x, y, z'
loop_
 _atom_site_type_symbol
 _atom_site_label
 _atom_site_symmetry_multiplicity
 _atom_site_fract_x
 _atom_site_fract_y
 _atom_site_fract_z
 _atom_site_occupancy
  Sr  Sr0  1  0.173711  0.652959  0.519726  1
  Sr  Sr1  1  0.826289  0.346015  0.479247  1
  Sr  Sr2  1  0.633232  0.152959  0.479247  1
  Sr  Sr3  1  0.366768  0.846015  0.519726  1
  La  La4  1  0.000000  0.502038  0.502038  1
  La  La5  1  0.500000  0.002038  0.502038  1
  Ga  Ga6  1  0.179733  0.220608  0.900340  1
  Ga  Ga7  1  0.820267  0.720608  0.040875  1
  Cu  Cu8  1  0.075796  0.080024  0.001328  1
  Cu  Cu9  1  0.924204  0.925532  0.004228  1
  Cu  Cu10  1  0.578695  0.580024  0.004228  1
  Cu  Cu11  1  0.421305  0.425532  0.001328  1
  O  O12  1  0.874574  0.374729  0.749304  1
  O  O13  1  0.125426  0.874729  0.500155  1
  O  O14  1  0.819523  0.322333  0.001767  1
  O  O15  1  0.180477  0.182244  0.502810  1
  O  O16  1  0.820566  0.822333  0.502810  1
  O  O17  1  0.179434  0.682244  0.001767  1
  O  O18  1  0.315050  0.818825  0.000046  1
  O  O19  1  0.684950  0.684996  0.503775  1
  O  O20  1  0.318779  0.318825  0.503775  1
  O  O21  1  0.681221  0.184996  0.000046  1
  O  O22  1  0.626709  0.714194  0.984662  1
  O  O23  1  0.373291  0.357952  0.087485  1
  O  O24  1  0.229533  0.214194  0.087485  1
  O  O25  1  0.770467  0.857952  0.984662  1
