# generated using pymatgen
data_V5As3
_symmetry_space_group_name_H-M   'P 1'
_cell_length_a   6.46394586
_cell_length_b   7.52161645
_cell_length_c   9.42947626
_cell_angle_alpha   90.00000000
_cell_angle_beta   90.00000000
_cell_angle_gamma   90.00000000
_symmetry_Int_Tables_number   1
_chemical_formula_structural   V5As3
_chemical_formula_sum   'V20 As12'
_cell_volume   458.45473798
_cell_formula_units_Z   4
loop_
 _symmetry_equiv_pos_site_id
 _symmetry_equiv_pos_as_xyz
  1  'x, y, z'
loop_
 _atom_site_type_symbol
 _atom_site_label
 _atom_site_symmetry_multiplicity
 _atom_site_fract_x
 _atom_site_fract_y
 _atom_site_fract_z
 _atom_site_occupancy
  V  V0  1  0.649795  0.750000  0.278386  1
  V  V1  1  0.149795  0.250000  0.221614  1
  V  V2  1  0.350205  0.250000  0.721614  1
  V  V3  1  0.850205  0.750000  0.778386  1
  V  V4  1  0.198760  0.750000  0.247607  1
  V  V5  1  0.698760  0.250000  0.252393  1
  V  V6  1  0.801240  0.250000  0.752393  1
  V  V7  1  0.301240  0.750000  0.747607  1
  V  V8  1  0.471596  0.750000  0.009556  1
  V  V9  1  0.971596  0.250000  0.490444  1
  V  V10  1  0.528404  0.250000  0.990444  1
  V  V11  1  0.028404  0.750000  0.509556  1
  V  V12  1  0.794996  0.941384  0.076814  1
  V  V13  1  0.294996  0.058616  0.423186  1
  V  V14  1  0.205004  0.441384  0.923186  1
  V  V15  1  0.705004  0.558616  0.576814  1
  V  V16  1  0.205004  0.058616  0.923186  1
  V  V17  1  0.705004  0.941384  0.576814  1
  V  V18  1  0.794996  0.558616  0.076814  1
  V  V19  1  0.294996  0.441384  0.423186  1
  As  As20  1  0.417421  0.750000  0.489193  1
  As  As21  1  0.917421  0.250000  0.010807  1
  As  As22  1  0.582579  0.250000  0.510807  1
  As  As23  1  0.082579  0.750000  0.989193  1
  As  As24  1  0.926038  0.515279  0.328530  1
  As  As25  1  0.426038  0.484721  0.171470  1
  As  As26  1  0.073962  0.015279  0.671470  1
  As  As27  1  0.573962  0.984721  0.828530  1
  As  As28  1  0.073962  0.484721  0.671470  1
  As  As29  1  0.573962  0.515279  0.828530  1
  As  As30  1  0.926038  0.984721  0.328530  1
  As  As31  1  0.426038  0.015279  0.171470  1
