# generated using pymatgen
data_Ho2CdS4
_symmetry_space_group_name_H-M   'P 1'
_cell_length_a   7.94845215
_cell_length_b   7.94845215
_cell_length_c   33.03095410
_cell_angle_alpha   82.79262707
_cell_angle_beta   97.20737293
_cell_angle_gamma   119.41432627
_symmetry_Int_Tables_number   1
_chemical_formula_structural   Ho2CdS4
_chemical_formula_sum   'Ho20 Cd10 S40'
_cell_volume   1798.52404240
_cell_formula_units_Z   10
loop_
 _symmetry_equiv_pos_site_id
 _symmetry_equiv_pos_as_xyz
  1  'x, y, z'
loop_
 _atom_site_type_symbol
 _atom_site_label
 _atom_site_symmetry_multiplicity
 _atom_site_fract_x
 _atom_site_fract_y
 _atom_site_fract_z
 _atom_site_occupancy
  Ho  Ho0  1  0.003943  0.996057  0.000686  1
  Ho  Ho1  1  0.380314  0.127298  0.124617  1
  Ho  Ho2  1  0.404394  0.595606  0.200613  1
  Ho  Ho3  1  0.872702  0.619686  0.124617  1
  Ho  Ho4  1  0.675849  0.324151  0.026117  1
  Ho  Ho5  1  0.780404  0.727286  0.324497  1
  Ho  Ho6  1  0.272714  0.219596  0.324497  1
  Ho  Ho7  1  0.804379  0.195621  0.400498  1
  Ho  Ho8  1  0.075809  0.924191  0.226086  1
  Ho  Ho9  1  0.180653  0.327258  0.524370  1
  Ho  Ho10  1  0.672742  0.819347  0.524370  1
  Ho  Ho11  1  0.475519  0.524481  0.425789  1
  Ho  Ho12  1  0.577794  0.925815  0.726223  1
  Ho  Ho13  1  0.074185  0.422206  0.726223  1
  Ho  Ho14  1  0.872761  0.127239  0.625789  1
  Ho  Ho15  1  0.074442  0.925558  0.726191  1
  Ho  Ho16  1  0.977148  0.527093  0.924092  1
  Ho  Ho17  1  0.202958  0.797042  0.599703  1
  Ho  Ho18  1  0.278064  0.721936  0.825887  1
  Ho  Ho19  1  0.472907  0.022852  0.924092  1
  Cd  Cd20  1  0.346157  0.653843  0.048769  1
  Cd  Cd21  1  0.745903  0.254097  0.249336  1
  Cd  Cd22  1  0.870819  0.129181  0.124316  1
  Cd  Cd23  1  0.145844  0.854156  0.449056  1
  Cd  Cd24  1  0.270582  0.729418  0.324131  1
  Cd  Cd25  1  0.548185  0.451815  0.649583  1
  Cd  Cd26  1  0.670275  0.329725  0.523914  1
  Cd  Cd27  1  0.947703  0.052297  0.851069  1
  Cd  Cd28  1  0.601943  0.398057  0.801731  1
  Cd  Cd29  1  0.472812  0.527188  0.923257  1
  S  S30  1  0.535118  0.464882  0.076540  1
  S  S31  1  0.532457  0.993817  0.076038  1
  S  S32  1  0.721804  0.278196  0.170719  1
  S  S33  1  0.006183  0.467543  0.076038  1
  S  S34  1  0.747531  0.785399  0.173642  1
  S  S35  1  0.935066  0.064934  0.276605  1
  S  S36  1  0.932574  0.594139  0.276149  1
  S  S37  1  0.121798  0.878202  0.370797  1
  S  S38  1  0.027801  0.972199  0.080207  1
  S  S39  1  0.214601  0.252469  0.173642  1
  S  S40  1  0.215006  0.784994  0.173606  1
  S  S41  1  0.405861  0.067426  0.276149  1
  S  S42  1  0.335072  0.664928  0.476680  1
  S  S43  1  0.147533  0.385129  0.373792  1
  S  S44  1  0.332768  0.193999  0.476278  1
  S  S45  1  0.427863  0.572137  0.280229  1
  S  S46  1  0.521442  0.478558  0.571133  1
  S  S47  1  0.614871  0.852467  0.373792  1
  S  S48  1  0.806001  0.667232  0.476278  1
  S  S49  1  0.614982  0.385018  0.373719  1
  S  S50  1  0.735267  0.264733  0.676815  1
  S  S51  1  0.546626  0.984809  0.573638  1
  S  S52  1  0.923628  0.076372  0.770467  1
  S  S53  1  0.827826  0.172174  0.480290  1
  S  S54  1  0.736662  0.796588  0.676500  1
  S  S55  1  0.015191  0.453374  0.573638  1
  S  S56  1  0.013910  0.986090  0.573724  1
  S  S57  1  0.203412  0.263338  0.676500  1
  S  S58  1  0.945445  0.586239  0.773035  1
  S  S59  1  0.135798  0.864202  0.875808  1
  S  S60  1  0.226887  0.773113  0.679756  1
  S  S61  1  0.322741  0.677259  0.969928  1
  S  S62  1  0.131267  0.393868  0.875702  1
  S  S63  1  0.413761  0.054555  0.773035  1
  S  S64  1  0.414865  0.585135  0.772702  1
  S  S65  1  0.606132  0.868733  0.875702  1
  S  S66  1  0.347054  0.184616  0.973742  1
  S  S67  1  0.627240  0.372760  0.879742  1
  S  S68  1  0.815384  0.652946  0.973742  1
  S  S69  1  0.814670  0.185330  0.973379  1
