# generated using pymatgen
data_CaLa2B10O19
_symmetry_space_group_name_H-M   'P 1'
_cell_length_a   6.48009224
_cell_length_b   6.48009224
_cell_length_c   9.18774821
_cell_angle_alpha   88.56450682
_cell_angle_beta   91.43549318
_cell_angle_gamma   118.48784031
_symmetry_Int_Tables_number   1
_chemical_formula_structural   CaLa2B10O19
_chemical_formula_sum   'Ca1 La2 B10 O19'
_cell_volume   338.94980048
_cell_formula_units_Z   1
loop_
 _symmetry_equiv_pos_site_id
 _symmetry_equiv_pos_as_xyz
  1  'x, y, z'
loop_
 _atom_site_type_symbol
 _atom_site_label
 _atom_site_symmetry_multiplicity
 _atom_site_fract_x
 _atom_site_fract_y
 _atom_site_fract_z
 _atom_site_occupancy
  Ca  Ca0  1  0.188404  0.188404  0.500000  1
  La  La1  1  0.840115  0.164802  0.855713  1
  La  La2  1  0.164802  0.840115  0.144287  1
  B  B3  1  0.325924  0.555450  0.729999  1
  B  B4  1  0.715917  0.637353  0.839025  1
  B  B5  1  0.814481  0.160644  0.207578  1
  B  B6  1  0.374681  0.241152  0.873952  1
  B  B7  1  0.211763  0.746659  0.529022  1
  B  B8  1  0.241152  0.374681  0.126048  1
  B  B9  1  0.637353  0.715917  0.160975  1
  B  B10  1  0.746659  0.211763  0.470978  1
  B  B11  1  0.555450  0.325924  0.270001  1
  B  B12  1  0.160644  0.814481  0.792422  1
  O  O13  1  0.633285  0.409981  0.886630  1
  O  O14  1  0.297740  0.594859  0.573109  1
  O  O15  1  0.275323  0.307963  0.746207  1
  O  O16  1  0.146646  0.855799  0.635575  1
  O  O17  1  0.594859  0.297740  0.426891  1
  O  O18  1  0.804028  0.947933  0.133572  1
  O  O19  1  0.234983  0.234983  0.000000  1
  O  O20  1  0.591742  0.160440  0.180856  1
  O  O21  1  0.855799  0.146646  0.364425  1
  O  O22  1  0.947933  0.804028  0.866428  1
  O  O23  1  0.307963  0.275323  0.253793  1
  O  O24  1  0.193130  0.804886  0.388886  1
  O  O25  1  0.160440  0.591742  0.819144  1
  O  O26  1  0.804886  0.193130  0.611114  1
  O  O27  1  0.574699  0.718822  0.777891  1
  O  O28  1  0.010407  0.365089  0.136223  1
  O  O29  1  0.409981  0.633285  0.113370  1
  O  O30  1  0.365089  0.010407  0.863777  1
  O  O31  1  0.718822  0.574699  0.222109  1
