# generated using pymatgen
data_Lu2Fe3Si5
_symmetry_space_group_name_H-M   'P 1'
_cell_length_a   10.27081411
_cell_length_b   10.27081411
_cell_length_c   5.38591704
_cell_angle_alpha   90.00000000
_cell_angle_beta   90.00000000
_cell_angle_gamma   90.00000000
_symmetry_Int_Tables_number   1
_chemical_formula_structural   Lu2Fe3Si5
_chemical_formula_sum   'Lu8 Fe12 Si20'
_cell_volume   568.15835527
_cell_formula_units_Z   4
loop_
 _symmetry_equiv_pos_site_id
 _symmetry_equiv_pos_as_xyz
  1  'x, y, z'
loop_
 _atom_site_type_symbol
 _atom_site_label
 _atom_site_symmetry_multiplicity
 _atom_site_fract_x
 _atom_site_fract_y
 _atom_site_fract_z
 _atom_site_occupancy
  Lu  Lu0  1  0.930975  0.763002  0.000000  1
  Lu  Lu1  1  0.763002  0.069025  0.000000  1
  Lu  Lu2  1  0.236998  0.930975  0.000000  1
  Lu  Lu3  1  0.069025  0.236998  0.000000  1
  Lu  Lu4  1  0.569025  0.263002  0.500000  1
  Lu  Lu5  1  0.430975  0.736998  0.500000  1
  Lu  Lu6  1  0.263002  0.430975  0.500000  1
  Lu  Lu7  1  0.736998  0.569025  0.500000  1
  Fe  Fe8  1  0.623362  0.643569  0.000000  1
  Fe  Fe9  1  0.643569  0.376638  0.000000  1
  Fe  Fe10  1  0.356431  0.623362  0.000000  1
  Fe  Fe11  1  0.376638  0.356431  0.000000  1
  Fe  Fe12  1  0.876638  0.143569  0.500000  1
  Fe  Fe13  1  0.123362  0.856431  0.500000  1
  Fe  Fe14  1  0.143569  0.123362  0.500000  1
  Fe  Fe15  1  0.856431  0.876638  0.500000  1
  Fe  Fe16  1  0.000000  0.500000  0.250000  1
  Fe  Fe17  1  0.500000  0.000000  0.250000  1
  Fe  Fe18  1  0.000000  0.500000  0.750000  1
  Fe  Fe19  1  0.500000  0.000000  0.750000  1
  Si  Si20  1  0.819120  0.523330  0.000000  1
  Si  Si21  1  0.523330  0.180880  0.000000  1
  Si  Si22  1  0.476670  0.819120  0.000000  1
  Si  Si23  1  0.180880  0.476670  0.000000  1
  Si  Si24  1  0.680880  0.023330  0.500000  1
  Si  Si25  1  0.319120  0.976670  0.500000  1
  Si  Si26  1  0.023330  0.319120  0.500000  1
  Si  Si27  1  0.976670  0.680880  0.500000  1
  Si  Si28  1  0.178417  0.678417  0.250000  1
  Si  Si29  1  0.678417  0.821583  0.250000  1
  Si  Si30  1  0.321583  0.178417  0.250000  1
  Si  Si31  1  0.821583  0.321583  0.250000  1
  Si  Si32  1  0.821583  0.321583  0.750000  1
  Si  Si33  1  0.321583  0.178417  0.750000  1
  Si  Si34  1  0.678417  0.821583  0.750000  1
  Si  Si35  1  0.178417  0.678417  0.750000  1
  Si  Si36  1  0.500000  0.500000  0.241208  1
  Si  Si37  1  0.000000  0.000000  0.258792  1
  Si  Si38  1  0.500000  0.500000  0.758792  1
  Si  Si39  1  0.000000  0.000000  0.741208  1
