# generated using pymatgen
data_Sr(CoAs)2
_symmetry_space_group_name_H-M   'P 1'
_cell_length_a   6.48867364
_cell_length_b   6.48867364
_cell_length_c   6.48867364
_cell_angle_alpha   144.26307130
_cell_angle_beta   144.26307130
_cell_angle_gamma   51.43408965
_symmetry_Int_Tables_number   1
_chemical_formula_structural   Sr(CoAs)2
_chemical_formula_sum   'Sr1 Co2 As2'
_cell_volume   92.68961958
_cell_formula_units_Z   1
loop_
 _symmetry_equiv_pos_site_id
 _symmetry_equiv_pos_as_xyz
  1  'x, y, z'
loop_
 _atom_site_type_symbol
 _atom_site_label
 _atom_site_symmetry_multiplicity
 _atom_site_fract_x
 _atom_site_fract_y
 _atom_site_fract_z
 _atom_site_occupancy
  Sr  Sr0  1  0.000000  0.000000  0.000000  1
  Co  Co1  1  0.750000  0.250000  0.500000  1
  Co  Co2  1  0.250000  0.750000  0.500000  1
  As  As3  1  0.354788  0.354788  0.000000  1
  As  As4  1  0.645212  0.645212  0.000000  1
