# generated using pymatgen
data_Sr2CuF6
_symmetry_space_group_name_H-M   'P 1'
_cell_length_a   5.81286043
_cell_length_b   5.81286043
_cell_length_c   16.58480261
_cell_angle_alpha   90.00000000
_cell_angle_beta   90.00000000
_cell_angle_gamma   90.00000000
_symmetry_Int_Tables_number   1
_chemical_formula_structural   Sr2CuF6
_chemical_formula_sum   'Sr8 Cu4 F24'
_cell_volume   560.38964001
_cell_formula_units_Z   4
loop_
 _symmetry_equiv_pos_site_id
 _symmetry_equiv_pos_as_xyz
  1  'x, y, z'
loop_
 _atom_site_type_symbol
 _atom_site_label
 _atom_site_symmetry_multiplicity
 _atom_site_fract_x
 _atom_site_fract_y
 _atom_site_fract_z
 _atom_site_occupancy
  Sr  Sr0  1  0.500000  0.000000  0.162400  1
  Sr  Sr1  1  0.000000  0.500000  0.837600  1
  Sr  Sr2  1  0.500000  0.000000  0.837600  1
  Sr  Sr3  1  0.000000  0.500000  0.162400  1
  Sr  Sr4  1  0.000000  0.000000  0.338587  1
  Sr  Sr5  1  0.000000  0.000000  0.661413  1
  Sr  Sr6  1  0.500000  0.500000  0.661413  1
  Sr  Sr7  1  0.500000  0.500000  0.338587  1
  Cu  Cu8  1  0.000000  0.000000  0.000000  1
  Cu  Cu9  1  0.500000  0.500000  0.000000  1
  Cu  Cu10  1  0.500000  0.000000  0.500000  1
  Cu  Cu11  1  0.000000  0.500000  0.500000  1
  F  F12  1  0.671969  0.327606  0.080642  1
  F  F13  1  0.327606  0.328031  0.919358  1
  F  F14  1  0.672394  0.671969  0.919358  1
  F  F15  1  0.328031  0.672394  0.080642  1
  F  F16  1  0.172394  0.828031  0.919358  1
  F  F17  1  0.827606  0.171969  0.919358  1
  F  F18  1  0.171969  0.172394  0.080642  1
  F  F19  1  0.828031  0.827606  0.080642  1
  F  F20  1  0.749141  0.242201  0.250502  1
  F  F21  1  0.242201  0.250859  0.749498  1
  F  F22  1  0.757799  0.749141  0.749498  1
  F  F23  1  0.250859  0.757799  0.250502  1
  F  F24  1  0.257799  0.750859  0.749498  1
  F  F25  1  0.742201  0.249141  0.749498  1
  F  F26  1  0.249141  0.257799  0.250502  1
  F  F27  1  0.750859  0.742201  0.250502  1
  F  F28  1  0.833057  0.334894  0.418925  1
  F  F29  1  0.334894  0.166943  0.581075  1
  F  F30  1  0.665106  0.833057  0.581075  1
  F  F31  1  0.166943  0.665106  0.418925  1
  F  F32  1  0.165106  0.666943  0.581075  1
  F  F33  1  0.834894  0.333057  0.581075  1
  F  F34  1  0.333057  0.165106  0.418925  1
  F  F35  1  0.666943  0.834894  0.418925  1
