# generated using pymatgen
data_Ce(SeO3)2
_symmetry_space_group_name_H-M   'P 1'
_cell_length_a   7.15527990
_cell_length_b   10.85608173
_cell_length_c   8.75042499
_cell_angle_alpha   90.00000000
_cell_angle_beta   125.48534901
_cell_angle_gamma   90.00000000
_symmetry_Int_Tables_number   1
_chemical_formula_structural   Ce(SeO3)2
_chemical_formula_sum   'Ce4 Se8 O24'
_cell_volume   553.47002190
_cell_formula_units_Z   4
loop_
 _symmetry_equiv_pos_site_id
 _symmetry_equiv_pos_as_xyz
  1  'x, y, z'
loop_
 _atom_site_type_symbol
 _atom_site_label
 _atom_site_symmetry_multiplicity
 _atom_site_fract_x
 _atom_site_fract_y
 _atom_site_fract_z
 _atom_site_occupancy
  Ce  Ce0  1  0.248380  0.096740  0.987894  1
  Ce  Ce1  1  0.751620  0.596740  0.512106  1
  Ce  Ce2  1  0.751620  0.903260  0.012106  1
  Ce  Ce3  1  0.248380  0.403260  0.487894  1
  Se  Se4  1  0.813685  0.285236  0.572903  1
  Se  Se5  1  0.186315  0.785236  0.927097  1
  Se  Se6  1  0.186315  0.714764  0.427097  1
  Se  Se7  1  0.813685  0.214764  0.072903  1
  Se  Se8  1  0.716182  0.928208  0.430604  1
  Se  Se9  1  0.283818  0.428208  0.069396  1
  Se  Se10  1  0.283818  0.071792  0.569396  1
  Se  Se11  1  0.716182  0.571792  0.930604  1
  O  O12  1  0.946595  0.241827  0.801927  1
  O  O13  1  0.053405  0.741827  0.698073  1
  O  O14  1  0.053405  0.758173  0.198073  1
  O  O15  1  0.946595  0.258173  0.301927  1
  O  O16  1  0.998801  0.400873  0.592704  1
  O  O17  1  0.001199  0.900873  0.907296  1
  O  O18  1  0.001199  0.599127  0.407296  1
  O  O19  1  0.998801  0.099127  0.092704  1
  O  O20  1  0.614132  0.394854  0.541687  1
  O  O21  1  0.385868  0.894854  0.958313  1
  O  O22  1  0.385868  0.605146  0.458313  1
  O  O23  1  0.614132  0.105146  0.041687  1
  O  O24  1  0.477867  0.020373  0.286443  1
  O  O25  1  0.522133  0.520373  0.213557  1
  O  O26  1  0.522133  0.979627  0.713557  1
  O  O27  1  0.477867  0.479627  0.786443  1
  O  O28  1  0.844187  0.911796  0.312962  1
  O  O29  1  0.155813  0.411796  0.187038  1
  O  O30  1  0.155813  0.088204  0.687038  1
  O  O31  1  0.844187  0.588204  0.812962  1
  O  O32  1  0.589348  0.784374  0.387600  1
  O  O33  1  0.410652  0.284374  0.112400  1
  O  O34  1  0.410652  0.215626  0.612400  1
  O  O35  1  0.589348  0.715626  0.887600  1
