# generated using pymatgen
data_Mg2P2O7
_symmetry_space_group_name_H-M   'P 1'
_cell_length_a   5.31816769
_cell_length_b   5.31816769
_cell_length_c   4.55110027
_cell_angle_alpha   81.56032822
_cell_angle_beta   98.43967178
_cell_angle_gamma   75.84675037
_symmetry_Int_Tables_number   1
_chemical_formula_structural   Mg2P2O7
_chemical_formula_sum   'Mg2 P2 O7'
_cell_volume   121.20019777
_cell_formula_units_Z   1
loop_
 _symmetry_equiv_pos_site_id
 _symmetry_equiv_pos_as_xyz
  1  'x, y, z'
loop_
 _atom_site_type_symbol
 _atom_site_label
 _atom_site_symmetry_multiplicity
 _atom_site_fract_x
 _atom_site_fract_y
 _atom_site_fract_z
 _atom_site_occupancy
  Mg  Mg0  1  0.687673  0.687673  0.000000  1
  Mg  Mg1  1  0.312327  0.312327  0.000000  1
  P  P2  1  0.218683  0.781317  0.406016  1
  P  P3  1  0.781317  0.218683  0.593984  1
  O  O4  1  0.376780  0.926892  0.220177  1
  O  O5  1  0.926892  0.376780  0.779823  1
  O  O6  1  0.623220  0.073108  0.779823  1
  O  O7  1  0.073108  0.623220  0.220177  1
  O  O8  1  0.000000  0.000000  0.500000  1
  O  O9  1  0.380500  0.619500  0.712269  1
  O  O10  1  0.619500  0.380500  0.287731  1
