# generated using pymatgen
data_Cs2HgI4
_symmetry_space_group_name_H-M   'P 1'
_cell_length_a   8.12100459
_cell_length_b   8.65715718
_cell_length_c   11.30729049
_cell_angle_alpha   90.00000000
_cell_angle_beta   110.38795210
_cell_angle_gamma   90.00000000
_symmetry_Int_Tables_number   1
_chemical_formula_structural   Cs2HgI4
_chemical_formula_sum   'Cs4 Hg2 I8'
_cell_volume   745.15707902
_cell_formula_units_Z   2
loop_
 _symmetry_equiv_pos_site_id
 _symmetry_equiv_pos_as_xyz
  1  'x, y, z'
loop_
 _atom_site_type_symbol
 _atom_site_label
 _atom_site_symmetry_multiplicity
 _atom_site_fract_x
 _atom_site_fract_y
 _atom_site_fract_z
 _atom_site_occupancy
  Cs  Cs0  1  0.306723  0.255546  0.092664  1
  Cs  Cs1  1  0.805505  0.761446  0.466312  1
  Cs  Cs2  1  0.693277  0.755546  0.907336  1
  Cs  Cs3  1  0.194495  0.261446  0.533688  1
  Hg  Hg4  1  0.819559  0.260274  0.726718  1
  Hg  Hg5  1  0.180441  0.760274  0.273282  1
  I  I6  1  0.960575  0.494334  0.210175  1
  I  I7  1  0.574890  0.256250  0.854004  1
  I  I8  1  0.356809  0.751386  0.544199  1
  I  I9  1  0.957645  0.022765  0.216606  1
  I  I10  1  0.425110  0.756250  0.145996  1
  I  I11  1  0.039425  0.994334  0.789825  1
  I  I12  1  0.643191  0.251386  0.455801  1
  I  I13  1  0.042355  0.522765  0.783394  1
