# generated using pymatgen
data_AgPb4ClO4
_symmetry_space_group_name_H-M   'P 1'
_cell_length_a   8.45607803
_cell_length_b   8.45607803
_cell_length_c   6.55146704
_cell_angle_alpha   90.00000000
_cell_angle_beta   90.00000000
_cell_angle_gamma   90.00000000
_symmetry_Int_Tables_number   1
_chemical_formula_structural   AgPb4ClO4
_chemical_formula_sum   'Ag2 Pb8 Cl2 O8'
_cell_volume   468.46432557
_cell_formula_units_Z   2
loop_
 _symmetry_equiv_pos_site_id
 _symmetry_equiv_pos_as_xyz
  1  'x, y, z'
loop_
 _atom_site_type_symbol
 _atom_site_label
 _atom_site_symmetry_multiplicity
 _atom_site_fract_x
 _atom_site_fract_y
 _atom_site_fract_z
 _atom_site_occupancy
  Ag  Ag0  1  0.500000  0.000000  0.904112  1
  Ag  Ag1  1  0.000000  0.500000  0.095888  1
  Pb  Pb2  1  0.195600  0.143901  0.223866  1
  Pb  Pb3  1  0.356099  0.695600  0.223866  1
  Pb  Pb4  1  0.643901  0.304400  0.223866  1
  Pb  Pb5  1  0.304400  0.356099  0.776134  1
  Pb  Pb6  1  0.143901  0.804400  0.776134  1
  Pb  Pb7  1  0.856099  0.195600  0.776134  1
  Pb  Pb8  1  0.804400  0.856099  0.223866  1
  Pb  Pb9  1  0.695600  0.643901  0.776134  1
  Cl  Cl10  1  0.000000  0.500000  0.486916  1
  Cl  Cl11  1  0.500000  0.000000  0.513084  1
  O  O12  1  0.752839  0.089672  0.071319  1
  O  O13  1  0.410328  0.252839  0.071319  1
  O  O14  1  0.247161  0.910328  0.071319  1
  O  O15  1  0.589672  0.747161  0.071319  1
  O  O16  1  0.910328  0.752839  0.928681  1
  O  O17  1  0.252839  0.589672  0.928681  1
  O  O18  1  0.089672  0.247161  0.928681  1
  O  O19  1  0.747161  0.410328  0.928681  1
