# generated using pymatgen
data_TlGaI4
_symmetry_space_group_name_H-M   'P 1'
_cell_length_a   8.41248909
_cell_length_b   8.12338076
_cell_length_c   16.48539488
_cell_angle_alpha   90.00000000
_cell_angle_beta   95.31650902
_cell_angle_gamma   90.00000000
_symmetry_Int_Tables_number   1
_chemical_formula_structural   TlGaI4
_chemical_formula_sum   'Tl4 Ga4 I16'
_cell_volume   1121.72999037
_cell_formula_units_Z   4
loop_
 _symmetry_equiv_pos_site_id
 _symmetry_equiv_pos_as_xyz
  1  'x, y, z'
loop_
 _atom_site_type_symbol
 _atom_site_label
 _atom_site_symmetry_multiplicity
 _atom_site_fract_x
 _atom_site_fract_y
 _atom_site_fract_z
 _atom_site_occupancy
  Tl  Tl0  1  0.255459  0.003654  0.862185  1
  Tl  Tl1  1  0.744541  0.996346  0.137815  1
  Tl  Tl2  1  0.744541  0.503654  0.637815  1
  Tl  Tl3  1  0.255459  0.496346  0.362185  1
  Ga  Ga4  1  0.243614  0.141927  0.139376  1
  Ga  Ga5  1  0.243614  0.358073  0.639376  1
  Ga  Ga6  1  0.756386  0.641927  0.360624  1
  Ga  Ga7  1  0.756386  0.858073  0.860624  1
  I  I8  1  0.014298  0.346494  0.160073  1
  I  I9  1  0.861718  0.143528  0.910568  1
  I  I10  1  0.419679  0.238844  0.531911  1
  I  I11  1  0.416769  0.390798  0.776881  1
  I  I12  1  0.985702  0.653506  0.839927  1
  I  I13  1  0.583231  0.609202  0.223119  1
  I  I14  1  0.138282  0.643528  0.589432  1
  I  I15  1  0.580321  0.761156  0.468089  1
  I  I16  1  0.138282  0.856472  0.089432  1
  I  I17  1  0.419679  0.261156  0.031911  1
  I  I18  1  0.861718  0.356472  0.410568  1
  I  I19  1  0.583231  0.890798  0.723119  1
  I  I20  1  0.985702  0.846494  0.339927  1
  I  I21  1  0.014298  0.153506  0.660073  1
  I  I22  1  0.416769  0.109202  0.276881  1
  I  I23  1  0.580321  0.738844  0.968089  1
