# generated using pymatgen
data_NbP2NCl12
_symmetry_space_group_name_H-M   'P 1'
_cell_length_a   8.31967438
_cell_length_b   8.31967438
_cell_length_c   15.92642620
_cell_angle_alpha   78.47739385
_cell_angle_beta   101.52260615
_cell_angle_gamma   114.18860997
_symmetry_Int_Tables_number   1
_chemical_formula_structural   NbP2NCl12
_chemical_formula_sum   'Nb2 P4 N2 Cl24'
_cell_volume   976.71471271
_cell_formula_units_Z   2
loop_
 _symmetry_equiv_pos_site_id
 _symmetry_equiv_pos_as_xyz
  1  'x, y, z'
loop_
 _atom_site_type_symbol
 _atom_site_label
 _atom_site_symmetry_multiplicity
 _atom_site_fract_x
 _atom_site_fract_y
 _atom_site_fract_z
 _atom_site_occupancy
  Nb  Nb0  1  0.000000  0.000000  0.500000  1
  Nb  Nb1  1  0.000000  0.000000  0.000000  1
  P  P2  1  0.679921  0.460165  0.770715  1
  P  P3  1  0.460165  0.679921  0.729285  1
  P  P4  1  0.539835  0.320079  0.270715  1
  P  P5  1  0.320079  0.539835  0.229285  1
  N  N6  1  0.620966  0.620966  0.750000  1
  N  N7  1  0.379034  0.379034  0.250000  1
  Cl  Cl8  1  0.781479  0.703618  0.008483  1
  Cl  Cl9  1  0.102666  0.787311  0.472677  1
  Cl  Cl10  1  0.218521  0.296382  0.991517  1
  Cl  Cl11  1  0.516535  0.902488  0.648852  1
  Cl  Cl12  1  0.502487  0.238879  0.824239  1
  Cl  Cl13  1  0.902488  0.516535  0.851148  1
  Cl  Cl14  1  0.787311  0.102666  0.027323  1
  Cl  Cl15  1  0.097512  0.483465  0.148852  1
  Cl  Cl16  1  0.090092  0.953634  0.151365  1
  Cl  Cl17  1  0.703618  0.781479  0.491517  1
  Cl  Cl18  1  0.046366  0.909908  0.651365  1
  Cl  Cl19  1  0.897334  0.212689  0.527323  1
  Cl  Cl20  1  0.212689  0.897334  0.972677  1
  Cl  Cl21  1  0.598685  0.272531  0.166019  1
  Cl  Cl22  1  0.272531  0.598685  0.333981  1
  Cl  Cl23  1  0.953634  0.090092  0.348635  1
  Cl  Cl24  1  0.401315  0.727469  0.833981  1
  Cl  Cl25  1  0.296382  0.218521  0.508483  1
  Cl  Cl26  1  0.909908  0.046366  0.848635  1
  Cl  Cl27  1  0.483465  0.097512  0.351148  1
  Cl  Cl28  1  0.497513  0.761121  0.175761  1
  Cl  Cl29  1  0.238879  0.502487  0.675761  1
  Cl  Cl30  1  0.727469  0.401315  0.666019  1
  Cl  Cl31  1  0.761121  0.497513  0.324239  1
