# generated using pymatgen
data_La5Sn3Br
_symmetry_space_group_name_H-M   'P 1'
_cell_length_a   9.71212881
_cell_length_b   9.71212881
_cell_length_c   7.01613686
_cell_angle_alpha   90.00000000
_cell_angle_beta   90.00000000
_cell_angle_gamma   120.00000000
_symmetry_Int_Tables_number   1
_chemical_formula_structural   La5Sn3Br
_chemical_formula_sum   'La10 Sn6 Br2'
_cell_volume   573.13581878
_cell_formula_units_Z   2
loop_
 _symmetry_equiv_pos_site_id
 _symmetry_equiv_pos_as_xyz
  1  'x, y, z'
loop_
 _atom_site_type_symbol
 _atom_site_label
 _atom_site_symmetry_multiplicity
 _atom_site_fract_x
 _atom_site_fract_y
 _atom_site_fract_z
 _atom_site_occupancy
  La  La0  1  0.268762  0.268762  0.750000  1
  La  La1  1  0.000000  0.731238  0.750000  1
  La  La2  1  0.731238  0.000000  0.750000  1
  La  La3  1  0.000000  0.268762  0.250000  1
  La  La4  1  0.333333  0.666667  0.500000  1
  La  La5  1  0.731238  0.731238  0.250000  1
  La  La6  1  0.666667  0.333333  0.500000  1
  La  La7  1  0.268762  0.000000  0.250000  1
  La  La8  1  0.333333  0.666667  0.000000  1
  La  La9  1  0.666667  0.333333  0.000000  1
  Sn  Sn10  1  0.613557  0.000000  0.250000  1
  Sn  Sn11  1  0.000000  0.386443  0.750000  1
  Sn  Sn12  1  0.386443  0.000000  0.750000  1
  Sn  Sn13  1  0.613557  0.613557  0.750000  1
  Sn  Sn14  1  0.000000  0.613557  0.250000  1
  Sn  Sn15  1  0.386443  0.386443  0.250000  1
  Br  Br16  1  0.000000  0.000000  0.000000  1
  Br  Br17  1  0.000000  0.000000  0.500000  1
