# generated using pymatgen
data_TlSbSe2
_symmetry_space_group_name_H-M   'P 1'
_cell_length_a   9.25405454
_cell_length_b   4.15243112
_cell_length_c   13.02525186
_cell_angle_alpha   90.00000000
_cell_angle_beta   109.07097877
_cell_angle_gamma   90.00000000
_symmetry_Int_Tables_number   1
_chemical_formula_structural   TlSbSe2
_chemical_formula_sum   'Tl4 Sb4 Se8'
_cell_volume   473.04783889
_cell_formula_units_Z   4
loop_
 _symmetry_equiv_pos_site_id
 _symmetry_equiv_pos_as_xyz
  1  'x, y, z'
loop_
 _atom_site_type_symbol
 _atom_site_label
 _atom_site_symmetry_multiplicity
 _atom_site_fract_x
 _atom_site_fract_y
 _atom_site_fract_z
 _atom_site_occupancy
  Tl  Tl0  1  0.316141  0.750000  0.861825  1
  Tl  Tl1  1  0.683859  0.250000  0.138175  1
  Tl  Tl2  1  0.942917  0.750000  0.640814  1
  Tl  Tl3  1  0.057083  0.250000  0.359186  1
  Sb  Sb4  1  0.816254  0.750000  0.891981  1
  Sb  Sb5  1  0.183746  0.250000  0.108019  1
  Sb  Sb6  1  0.419303  0.750000  0.608374  1
  Sb  Sb7  1  0.580697  0.250000  0.391626  1
  Se  Se8  1  0.940375  0.750000  0.104335  1
  Se  Se9  1  0.059625  0.250000  0.895665  1
  Se  Se10  1  0.348043  0.750000  0.396254  1
  Se  Se11  1  0.651957  0.250000  0.603746  1
  Se  Se12  1  0.389990  0.750000  0.117468  1
  Se  Se13  1  0.610010  0.250000  0.882532  1
  Se  Se14  1  0.789422  0.750000  0.392254  1
  Se  Se15  1  0.210578  0.250000  0.607746  1
