# generated using pymatgen
data_Ba4Os6ClO18
_symmetry_space_group_name_H-M   'P 1'
_cell_length_a   8.21654664
_cell_length_b   8.21654664
_cell_length_c   8.21654664
_cell_angle_alpha   109.47122063
_cell_angle_beta   109.47122063
_cell_angle_gamma   109.47122063
_symmetry_Int_Tables_number   1
_chemical_formula_structural   Ba4Os6ClO18
_chemical_formula_sum   'Ba4 Os6 Cl1 O18'
_cell_volume   427.01790297
_cell_formula_units_Z   1
loop_
 _symmetry_equiv_pos_site_id
 _symmetry_equiv_pos_as_xyz
  1  'x, y, z'
loop_
 _atom_site_type_symbol
 _atom_site_label
 _atom_site_symmetry_multiplicity
 _atom_site_fract_x
 _atom_site_fract_y
 _atom_site_fract_z
 _atom_site_occupancy
  Ba  Ba0  1  1.000000  1.000000  0.369729  1
  Ba  Ba1  1  0.369729  1.000000  1.000000  1
  Ba  Ba2  1  0.630271  0.630271  0.630271  1
  Ba  Ba3  1  0.000000  0.369729  0.000000  1
  Os  Os4  1  0.865205  0.500000  0.365205  1
  Os  Os5  1  0.134795  0.500000  0.634795  1
  Os  Os6  1  0.500000  0.365205  0.865205  1
  Os  Os7  1  0.500000  0.634795  0.134795  1
  Os  Os8  1  0.365205  0.865205  0.500000  1
  Os  Os9  1  0.634795  0.134795  0.500000  1
  Cl  Cl10  1  0.000000  0.000000  0.000000  1
  O  O11  1  0.068838  0.697755  0.348069  1
  O  O12  1  0.720769  0.651931  0.349686  1
  O  O13  1  0.931162  0.279231  0.628917  1
  O  O14  1  0.371083  0.650314  0.302245  1
  O  O15  1  0.651931  0.349686  0.720769  1
  O  O16  1  0.628917  0.931162  0.279231  1
  O  O17  1  0.348069  0.068838  0.697755  1
  O  O18  1  0.661007  1.000000  0.661007  1
  O  O19  1  1.000000  0.661007  0.661007  1
  O  O20  1  0.349686  0.720769  0.651931  1
  O  O21  1  0.697755  0.348069  0.068838  1
  O  O22  1  0.661007  0.661007  0.000000  1
  O  O23  1  0.338993  1.000000  0.338993  1
  O  O24  1  0.279231  0.628917  0.931162  1
  O  O25  1  0.302245  0.371083  0.650314  1
  O  O26  1  0.650314  0.302245  0.371083  1
  O  O27  1  0.338993  0.338993  0.000000  1
  O  O28  1  1.000000  0.338993  0.338993  1
