# generated using pymatgen
data_CoP2O7
_symmetry_space_group_name_H-M   'P 1'
_cell_length_a   5.15458513
_cell_length_b   6.75785288
_cell_length_c   8.27836521
_cell_angle_alpha   68.95281278
_cell_angle_beta   87.88916299
_cell_angle_gamma   88.45812847
_symmetry_Int_Tables_number   1
_chemical_formula_structural   CoP2O7
_chemical_formula_sum   'Co2 P4 O14'
_cell_volume   268.91794839
_cell_formula_units_Z   2
loop_
 _symmetry_equiv_pos_site_id
 _symmetry_equiv_pos_as_xyz
  1  'x, y, z'
loop_
 _atom_site_type_symbol
 _atom_site_label
 _atom_site_symmetry_multiplicity
 _atom_site_fract_x
 _atom_site_fract_y
 _atom_site_fract_z
 _atom_site_occupancy
  Co  Co0  1  0.759392  0.785358  0.270927  1
  Co  Co1  1  0.240608  0.214642  0.729073  1
  P  P2  1  0.281110  0.454720  0.309624  1
  P  P3  1  0.718890  0.545280  0.690376  1
  P  P4  1  0.243801  0.107960  0.167454  1
  P  P5  1  0.756199  0.892040  0.832546  1
  O  O6  1  0.556037  0.039955  0.715702  1
  O  O7  1  0.964711  0.048039  0.233353  1
  O  O8  1  0.035289  0.951961  0.766647  1
  O  O9  1  0.086461  0.637056  0.243212  1
  O  O10  1  0.194537  0.286523  0.482276  1
  O  O11  1  0.288988  0.342577  0.167104  1
  O  O12  1  0.281462  0.128535  0.978694  1
  O  O13  1  0.443963  0.960045  0.284298  1
  O  O14  1  0.805463  0.713477  0.517724  1
  O  O15  1  0.556982  0.530538  0.310101  1
  O  O16  1  0.913539  0.362944  0.756788  1
  O  O17  1  0.718538  0.871465  0.021306  1
  O  O18  1  0.711012  0.657423  0.832896  1
  O  O19  1  0.443018  0.469462  0.689899  1
