# generated using pymatgen
data_LiVP2O7
_symmetry_space_group_name_H-M   'P 1'
_cell_length_a   6.39692373
_cell_length_b   6.39692373
_cell_length_c   13.34890631
_cell_angle_alpha   74.86142670
_cell_angle_beta   105.13857330
_cell_angle_gamma   99.34136228
_symmetry_Int_Tables_number   1
_chemical_formula_structural   LiVP2O7
_chemical_formula_sum   'Li4 V4 P8 O28'
_cell_volume   506.38792269
_cell_formula_units_Z   4
loop_
 _symmetry_equiv_pos_site_id
 _symmetry_equiv_pos_as_xyz
  1  'x, y, z'
loop_
 _atom_site_type_symbol
 _atom_site_label
 _atom_site_symmetry_multiplicity
 _atom_site_fract_x
 _atom_site_fract_y
 _atom_site_fract_z
 _atom_site_occupancy
  Li  Li0  1  0.235507  0.982626  0.150093  1
  Li  Li1  1  0.017374  0.764493  0.650093  1
  Li  Li2  1  0.982626  0.235507  0.349907  1
  Li  Li3  1  0.764493  0.017374  0.849907  1
  V  V4  1  0.127379  0.402049  0.859471  1
  V  V5  1  0.402049  0.127379  0.640529  1
  V  V6  1  0.597951  0.872621  0.359471  1
  V  V7  1  0.872621  0.597951  0.140529  1
  P  P8  1  0.908002  0.246183  0.637557  1
  P  P9  1  0.587492  0.331264  0.429552  1
  P  P10  1  0.331264  0.587492  0.070448  1
  P  P11  1  0.753817  0.091998  0.137557  1
  P  P12  1  0.246183  0.908002  0.862443  1
  P  P13  1  0.668736  0.412508  0.929552  1
  P  P14  1  0.412508  0.668736  0.570448  1
  P  P15  1  0.091998  0.753817  0.362443  1
  O  O16  1  0.066047  0.111138  0.619319  1
  O  O17  1  0.111138  0.066047  0.880681  1
  O  O18  1  0.669186  0.186772  0.374920  1
  O  O19  1  0.731067  0.095271  0.687066  1
  O  O20  1  0.553681  0.541773  0.141314  1
  O  O21  1  0.018648  0.423854  0.698513  1
  O  O22  1  0.794078  0.385016  0.523287  1
  O  O23  1  0.214348  0.399412  0.018309  1
  O  O24  1  0.399412  0.214348  0.481691  1
  O  O25  1  0.541773  0.553681  0.358686  1
  O  O26  1  0.385016  0.794078  0.976713  1
  O  O27  1  0.813228  0.330814  0.874920  1
  O  O28  1  0.423854  0.018648  0.801487  1
  O  O29  1  0.095271  0.731067  0.812934  1
  O  O30  1  0.904729  0.268933  0.187066  1
  O  O31  1  0.576146  0.981352  0.198513  1
  O  O32  1  0.186772  0.669186  0.125080  1
  O  O33  1  0.614984  0.205922  0.023287  1
  O  O34  1  0.458227  0.446319  0.641314  1
  O  O35  1  0.600588  0.785652  0.518309  1
  O  O36  1  0.785652  0.600588  0.981691  1
  O  O37  1  0.205922  0.614984  0.476713  1
  O  O38  1  0.981352  0.576146  0.301487  1
  O  O39  1  0.446319  0.458227  0.858686  1
  O  O40  1  0.268933  0.904729  0.312934  1
  O  O41  1  0.330814  0.813228  0.625080  1
  O  O42  1  0.888862  0.933953  0.119319  1
  O  O43  1  0.933953  0.888862  0.380681  1
