# generated using pymatgen
data_Hf(SiNi)2
_symmetry_space_group_name_H-M   'P 1'
_cell_length_a   5.52047096
_cell_length_b   5.52047096
_cell_length_c   5.52047096
_cell_angle_alpha   140.23800441
_cell_angle_beta   140.23800441
_cell_angle_gamma   57.49210066
_symmetry_Int_Tables_number   1
_chemical_formula_structural   Hf(SiNi)2
_chemical_formula_sum   'Hf1 Si2 Ni2'
_cell_volume   68.23383650
_cell_formula_units_Z   1
loop_
 _symmetry_equiv_pos_site_id
 _symmetry_equiv_pos_as_xyz
  1  'x, y, z'
loop_
 _atom_site_type_symbol
 _atom_site_label
 _atom_site_symmetry_multiplicity
 _atom_site_fract_x
 _atom_site_fract_y
 _atom_site_fract_z
 _atom_site_occupancy
  Hf  Hf0  1  0.000000  0.000000  0.000000  1
  Si  Si1  1  0.380905  0.380905  0.000000  1
  Si  Si2  1  0.619095  0.619095  0.000000  1
  Ni  Ni3  1  0.750000  0.250000  0.500000  1
  Ni  Ni4  1  0.250000  0.750000  0.500000  1
