# generated using pymatgen
data_Sr2LiSiO4F
_symmetry_space_group_name_H-M   'P 1'
_cell_length_a   6.63821138
_cell_length_b   5.46643331
_cell_length_c   6.99738167
_cell_angle_alpha   90.00000000
_cell_angle_beta   112.28640772
_cell_angle_gamma   90.00000000
_symmetry_Int_Tables_number   1
_chemical_formula_structural   Sr2LiSiO4F
_chemical_formula_sum   'Sr4 Li2 Si2 O8 F2'
_cell_volume   234.94874062
_cell_formula_units_Z   2
loop_
 _symmetry_equiv_pos_site_id
 _symmetry_equiv_pos_as_xyz
  1  'x, y, z'
loop_
 _atom_site_type_symbol
 _atom_site_label
 _atom_site_symmetry_multiplicity
 _atom_site_fract_x
 _atom_site_fract_y
 _atom_site_fract_z
 _atom_site_occupancy
  Sr  Sr0  1  0.841297  0.250000  0.626487  1
  Sr  Sr1  1  0.635160  0.750000  0.898379  1
  Sr  Sr2  1  0.158703  0.750000  0.373513  1
  Sr  Sr3  1  0.364840  0.250000  0.101621  1
  Li  Li4  1  0.851808  0.250000  0.119237  1
  Li  Li5  1  0.148192  0.750000  0.880763  1
  Si  Si6  1  0.654737  0.750000  0.335283  1
  Si  Si7  1  0.345263  0.250000  0.664717  1
  O  O8  1  0.776430  0.507055  0.288718  1
  O  O9  1  0.337194  0.250000  0.429118  1
  O  O10  1  0.404221  0.750000  0.158383  1
  O  O11  1  0.662806  0.750000  0.570882  1
  O  O12  1  0.595779  0.250000  0.841617  1
  O  O13  1  0.223570  0.007055  0.711282  1
  O  O14  1  0.776430  0.992945  0.288718  1
  O  O15  1  0.223570  0.492945  0.711282  1
  F  F16  1  0.000000  0.000000  0.000000  1
  F  F17  1  0.000000  0.500000  0.000000  1
