# generated using pymatgen
data_ScH6N2Cl3
_symmetry_space_group_name_H-M   'P 1'
_cell_length_a   6.98595080
_cell_length_b   9.96861544
_cell_length_c   11.27976033
_cell_angle_alpha   105.48116398
_cell_angle_beta   90.65250028
_cell_angle_gamma   109.75714404
_symmetry_Int_Tables_number   1
_chemical_formula_structural   ScH6N2Cl3
_chemical_formula_sum   'Sc4 H24 N8 Cl12'
_cell_volume   707.97636537
_cell_formula_units_Z   4
loop_
 _symmetry_equiv_pos_site_id
 _symmetry_equiv_pos_as_xyz
  1  'x, y, z'
loop_
 _atom_site_type_symbol
 _atom_site_label
 _atom_site_symmetry_multiplicity
 _atom_site_fract_x
 _atom_site_fract_y
 _atom_site_fract_z
 _atom_site_occupancy
  Sc  Sc0  1  0.317103  0.222641  0.303729  1
  Sc  Sc1  1  0.682897  0.777359  0.696271  1
  Sc  Sc2  1  0.162317  0.802945  0.196523  1
  Sc  Sc3  1  0.837683  0.197055  0.803477  1
  H  H4  1  0.295283  0.792888  0.955057  1
  H  H5  1  0.704717  0.207112  0.044943  1
  H  H6  1  0.296976  0.556403  0.133037  1
  H  H7  1  0.703024  0.443597  0.866963  1
  H  H8  1  0.225888  0.728220  0.418618  1
  H  H9  1  0.774112  0.271780  0.581382  1
  H  H10  1  0.658748  0.473024  0.296707  1
  H  H11  1  0.341252  0.526976  0.703293  1
  H  H12  1  0.250197  0.905075  0.459741  1
  H  H13  1  0.749803  0.094925  0.540259  1
  H  H14  1  0.217201  0.935020  0.001102  1
  H  H15  1  0.782799  0.064980  0.998898  1
  H  H16  1  0.662092  0.465924  0.440824  1
  H  H17  1  0.337908  0.534076  0.559176  1
  H  H18  1  0.464365  0.685754  0.245537  1
  H  H19  1  0.535635  0.314246  0.754463  1
  H  H20  1  0.047276  0.766036  0.945154  1
  H  H21  1  0.952724  0.233964  0.054846  1
  H  H22  1  0.477932  0.694640  0.102583  1
  H  H23  1  0.522068  0.305360  0.897417  1
  H  H24  1  0.751484  0.359921  0.337237  1
  H  H25  1  0.248516  0.640079  0.662763  1
  H  H26  1  0.020454  0.776152  0.426311  1
  H  H27  1  0.979546  0.223848  0.573689  1
  N  N28  1  0.634741  0.401389  0.350241  1
  N  N29  1  0.365259  0.598611  0.649759  1
  N  N30  1  0.184155  0.825827  0.999621  1
  N  N31  1  0.815845  0.174173  0.000379  1
  N  N32  1  0.166433  0.802664  0.400613  1
  N  N33  1  0.833567  0.197336  0.599387  1
  N  N34  1  0.376652  0.668661  0.165458  1
  N  N35  1  0.623348  0.331339  0.834542  1
  Cl  Cl36  1  0.990122  0.990679  0.244228  1
  Cl  Cl37  1  0.009878  0.009321  0.755772  1
  Cl  Cl38  1  0.141108  0.400251  0.342694  1
  Cl  Cl39  1  0.858892  0.599749  0.657306  1
  Cl  Cl40  1  0.494440  0.026703  0.258985  1
  Cl  Cl41  1  0.505560  0.973297  0.741015  1
  Cl  Cl42  1  0.862194  0.584840  0.137012  1
  Cl  Cl43  1  0.137806  0.415160  0.862988  1
  Cl  Cl44  1  0.336668  0.222249  0.522415  1
  Cl  Cl45  1  0.663332  0.777751  0.477585  1
  Cl  Cl46  1  0.344128  0.225242  0.085701  1
  Cl  Cl47  1  0.655872  0.774758  0.914299  1
