# generated using pymatgen
data_AlAs3S5Cl4
_symmetry_space_group_name_H-M   'P 1'
_cell_length_a   6.62791030
_cell_length_b   10.19334565
_cell_length_c   11.95371587
_cell_angle_alpha   90.00000000
_cell_angle_beta   104.24346765
_cell_angle_gamma   90.00000000
_symmetry_Int_Tables_number   1
_chemical_formula_structural   AlAs3S5Cl4
_chemical_formula_sum   'Al2 As6 S10 Cl8'
_cell_volume   782.77352764
_cell_formula_units_Z   2
loop_
 _symmetry_equiv_pos_site_id
 _symmetry_equiv_pos_as_xyz
  1  'x, y, z'
loop_
 _atom_site_type_symbol
 _atom_site_label
 _atom_site_symmetry_multiplicity
 _atom_site_fract_x
 _atom_site_fract_y
 _atom_site_fract_z
 _atom_site_occupancy
  Al  Al0  1  0.480860  0.750000  0.280124  1
  Al  Al1  1  0.519140  0.250000  0.719876  1
  As  As2  1  0.051790  0.082250  0.330392  1
  As  As3  1  0.948210  0.582250  0.669608  1
  As  As4  1  0.948210  0.917750  0.669608  1
  As  As5  1  0.972994  0.750000  0.948070  1
  As  As6  1  0.027006  0.250000  0.051930  1
  As  As7  1  0.051790  0.417750  0.330392  1
  S  S8  1  0.926852  0.429139  0.137611  1
  S  S9  1  0.683873  0.750000  0.674693  1
  S  S10  1  0.632622  0.750000  0.832493  1
  S  S11  1  0.073148  0.570861  0.862389  1
  S  S12  1  0.316127  0.250000  0.325307  1
  S  S13  1  0.882529  0.250000  0.395114  1
  S  S14  1  0.367378  0.250000  0.167507  1
  S  S15  1  0.117471  0.750000  0.604886  1
  S  S16  1  0.926852  0.070861  0.137611  1
  S  S17  1  0.073148  0.929139  0.862389  1
  Cl  Cl18  1  0.482970  0.250000  0.893912  1
  Cl  Cl19  1  0.154658  0.750000  0.278137  1
  Cl  Cl20  1  0.517030  0.750000  0.106088  1
  Cl  Cl21  1  0.845342  0.250000  0.721863  1
  Cl  Cl22  1  0.620505  0.924546  0.372042  1
  Cl  Cl23  1  0.620505  0.575454  0.372042  1
  Cl  Cl24  1  0.379495  0.075454  0.627958  1
  Cl  Cl25  1  0.379495  0.424546  0.627958  1
