# generated using pymatgen
data_Ca2InN
_symmetry_space_group_name_H-M   'P 1'
_cell_length_a   10.33736400
_cell_length_b   10.33736400
_cell_length_c   5.00300739
_cell_angle_alpha   90.00000000
_cell_angle_beta   90.00000000
_cell_angle_gamma   160.42814091
_symmetry_Int_Tables_number   1
_chemical_formula_structural   Ca2InN
_chemical_formula_sum   'Ca4 In2 N2'
_cell_volume   179.09402479
_cell_formula_units_Z   2
loop_
 _symmetry_equiv_pos_site_id
 _symmetry_equiv_pos_as_xyz
  1  'x, y, z'
loop_
 _atom_site_type_symbol
 _atom_site_label
 _atom_site_symmetry_multiplicity
 _atom_site_fract_x
 _atom_site_fract_y
 _atom_site_fract_z
 _atom_site_occupancy
  Ca  Ca0  1  0.218931  0.781069  0.750000  1
  Ca  Ca1  1  0.781069  0.218931  0.250000  1
  Ca  Ca2  1  0.378826  0.621174  0.750000  1
  Ca  Ca3  1  0.621174  0.378826  0.250000  1
  In  In4  1  0.038868  0.961132  0.750000  1
  In  In5  1  0.961132  0.038868  0.250000  1
  N  N6  1  0.800912  0.199088  0.750000  1
  N  N7  1  0.199088  0.800912  0.250000  1
