# generated using pymatgen
data_LiCoP2O7
_symmetry_space_group_name_H-M   'P 1'
_cell_length_a   8.20490077
_cell_length_b   4.92656234
_cell_length_c   12.99685240
_cell_angle_alpha   90.00000000
_cell_angle_beta   115.67213564
_cell_angle_gamma   90.00000000
_symmetry_Int_Tables_number   1
_chemical_formula_structural   LiCoP2O7
_chemical_formula_sum   'Li4 Co4 P8 O28'
_cell_volume   473.49892967
_cell_formula_units_Z   4
loop_
 _symmetry_equiv_pos_site_id
 _symmetry_equiv_pos_as_xyz
  1  'x, y, z'
loop_
 _atom_site_type_symbol
 _atom_site_label
 _atom_site_symmetry_multiplicity
 _atom_site_fract_x
 _atom_site_fract_y
 _atom_site_fract_z
 _atom_site_occupancy
  Li  Li0  1  0.430553  0.728525  0.297344  1
  Li  Li1  1  0.430553  0.771475  0.797344  1
  Li  Li2  1  0.569447  0.228525  0.202656  1
  Li  Li3  1  0.569447  0.271475  0.702656  1
  Co  Co4  1  0.273333  0.761979  0.034837  1
  Co  Co5  1  0.726667  0.261979  0.465163  1
  Co  Co6  1  0.726667  0.238021  0.965163  1
  Co  Co7  1  0.273333  0.738021  0.534837  1
  P  P8  1  0.305194  0.268880  0.886416  1
  P  P9  1  0.837088  0.759411  0.861102  1
  P  P10  1  0.694806  0.768880  0.613584  1
  P  P11  1  0.837088  0.740589  0.361102  1
  P  P12  1  0.694806  0.731120  0.113584  1
  P  P13  1  0.305194  0.231120  0.386416  1
  P  P14  1  0.162912  0.240589  0.138898  1
  P  P15  1  0.162912  0.259411  0.638898  1
  O  O16  1  0.475057  0.165614  0.874810  1
  O  O17  1  0.475057  0.334386  0.374810  1
  O  O18  1  0.148957  0.284267  0.258848  1
  O  O19  1  0.248509  0.397270  0.462693  1
  O  O20  1  0.851043  0.784267  0.241152  1
  O  O21  1  0.693456  0.946997  0.362880  1
  O  O22  1  0.754593  0.450282  0.343932  1
  O  O23  1  0.148957  0.215733  0.758848  1
  O  O24  1  0.306544  0.053003  0.637120  1
  O  O25  1  0.021453  0.714044  0.953472  1
  O  O26  1  0.978547  0.214044  0.546528  1
  O  O27  1  0.682666  0.425389  0.086307  1
  O  O28  1  0.978547  0.285956  0.046528  1
  O  O29  1  0.751491  0.897270  0.037307  1
  O  O30  1  0.682666  0.074611  0.586307  1
  O  O31  1  0.306544  0.446997  0.137120  1
  O  O32  1  0.248509  0.102730  0.962693  1
  O  O33  1  0.317334  0.574611  0.913693  1
  O  O34  1  0.245407  0.549718  0.656068  1
  O  O35  1  0.317334  0.925389  0.413693  1
  O  O36  1  0.693456  0.553003  0.862880  1
  O  O37  1  0.851043  0.715733  0.741152  1
  O  O38  1  0.754593  0.049718  0.843932  1
  O  O39  1  0.524943  0.665614  0.625190  1
  O  O40  1  0.245407  0.950282  0.156068  1
  O  O41  1  0.524943  0.834386  0.125190  1
  O  O42  1  0.751491  0.602730  0.537307  1
  O  O43  1  0.021453  0.785956  0.453472  1
