# generated using pymatgen
data_Ca3Fe2Cl2O5
_symmetry_space_group_name_H-M   'P 1'
_cell_length_a   12.14261004
_cell_length_b   12.14261004
_cell_length_c   12.14261004
_cell_angle_alpha   161.44087752
_cell_angle_beta   161.44087752
_cell_angle_gamma   26.36393511
_symmetry_Int_Tables_number   1
_chemical_formula_structural   Ca3Fe2Cl2O5
_chemical_formula_sum   'Ca3 Fe2 Cl2 O5'
_cell_volume   181.30439790
_cell_formula_units_Z   1
loop_
 _symmetry_equiv_pos_site_id
 _symmetry_equiv_pos_as_xyz
  1  'x, y, z'
loop_
 _atom_site_type_symbol
 _atom_site_label
 _atom_site_symmetry_multiplicity
 _atom_site_fract_x
 _atom_site_fract_y
 _atom_site_fract_z
 _atom_site_occupancy
  Ca  Ca0  1  0.347558  0.347558  0.000000  1
  Ca  Ca1  1  0.652442  0.652442  0.000000  1
  Ca  Ca2  1  0.500000  0.500000  0.000000  1
  Fe  Fe3  1  0.081375  0.081375  0.000000  1
  Fe  Fe4  1  0.918625  0.918625  0.000000  1
  Cl  Cl5  1  0.202364  0.202364  0.000000  1
  Cl  Cl6  1  0.797636  0.797636  0.000000  1
  O  O7  1  0.907597  0.407597  0.500000  1
  O  O8  1  0.407597  0.907597  0.500000  1
  O  O9  1  0.092403  0.592403  0.500000  1
  O  O10  1  0.592403  0.092403  0.500000  1
  O  O11  1  0.000000  0.000000  0.000000  1
