# generated using pymatgen
data_Na6PbO5
_symmetry_space_group_name_H-M   'P 1'
_cell_length_a   6.13228186
_cell_length_b   6.13228186
_cell_length_c   11.06125555
_cell_angle_alpha   90.00000000
_cell_angle_beta   90.00000000
_cell_angle_gamma   123.70883468
_symmetry_Int_Tables_number   1
_chemical_formula_structural   Na6PbO5
_chemical_formula_sum   'Na12 Pb2 O10'
_cell_volume   346.02171379
_cell_formula_units_Z   2
loop_
 _symmetry_equiv_pos_site_id
 _symmetry_equiv_pos_as_xyz
  1  'x, y, z'
loop_
 _atom_site_type_symbol
 _atom_site_label
 _atom_site_symmetry_multiplicity
 _atom_site_fract_x
 _atom_site_fract_y
 _atom_site_fract_z
 _atom_site_occupancy
  Na  Na0  1  0.322770  0.322770  0.939066  1
  Na  Na1  1  0.322770  0.322770  0.560933  1
  Na  Na2  1  0.677230  0.677230  0.439066  1
  Na  Na3  1  0.835286  0.430471  0.250000  1
  Na  Na4  1  0.219875  0.780125  0.000000  1
  Na  Na5  1  0.430471  0.835286  0.250000  1
  Na  Na6  1  0.780125  0.219875  0.500000  1
  Na  Na7  1  0.677230  0.677230  0.060933  1
  Na  Na8  1  0.569529  0.164714  0.750000  1
  Na  Na9  1  0.780125  0.219875  0.000000  1
  Na  Na10  1  0.219875  0.780125  0.500000  1
  Na  Na11  1  0.164714  0.569529  0.750000  1
  Pb  Pb12  1  0.205388  0.205388  0.250000  1
  Pb  Pb13  1  0.794612  0.794612  0.750000  1
  O  O14  1  0.166704  0.166704  0.750000  1
  O  O15  1  0.164545  0.443328  0.113832  1
  O  O16  1  0.443328  0.164545  0.386168  1
  O  O17  1  0.164545  0.443328  0.386168  1
  O  O18  1  0.835455  0.556672  0.613832  1
  O  O19  1  0.835455  0.556672  0.886168  1
  O  O20  1  0.443328  0.164545  0.113832  1
  O  O21  1  0.556672  0.835455  0.886168  1
  O  O22  1  0.833296  0.833296  0.250000  1
  O  O23  1  0.556672  0.835455  0.613832  1
