# generated using pymatgen
data_Hf5Re24
_symmetry_space_group_name_H-M   'P 1'
_cell_length_a   8.47380400
_cell_length_b   8.47380400
_cell_length_c   8.47380400
_cell_angle_alpha   109.47122063
_cell_angle_beta   109.47122063
_cell_angle_gamma   109.47122063
_symmetry_Int_Tables_number   1
_chemical_formula_structural   Hf5Re24
_chemical_formula_sum   'Hf5 Re24'
_cell_volume   468.39618874
_cell_formula_units_Z   1
loop_
 _symmetry_equiv_pos_site_id
 _symmetry_equiv_pos_as_xyz
  1  'x, y, z'
loop_
 _atom_site_type_symbol
 _atom_site_label
 _atom_site_symmetry_multiplicity
 _atom_site_fract_x
 _atom_site_fract_y
 _atom_site_fract_z
 _atom_site_occupancy
  Hf  Hf0  1  0.000000  0.000000  0.000000  1
  Hf  Hf1  1  0.629511  0.000000  1.000000  1
  Hf  Hf2  1  0.000000  0.629511  0.000000  1
  Hf  Hf3  1  0.000000  0.000000  0.629511  1
  Hf  Hf4  1  0.370489  0.370489  0.370489  1
  Re  Re5  1  0.395487  0.677337  0.000000  1
  Re  Re6  1  0.718151  0.322663  0.322663  1
  Re  Re7  1  0.395487  1.000000  0.677337  1
  Re  Re8  1  0.677337  0.395487  1.000000  1
  Re  Re9  1  0.000000  0.395487  0.677337  1
  Re  Re10  1  0.322663  0.718151  0.322663  1
  Re  Re11  1  0.322663  0.322663  0.718151  1
  Re  Re12  1  1.000000  0.677337  0.395487  1
  Re  Re13  1  0.677337  1.000000  0.395487  1
  Re  Re14  1  0.604513  0.604513  0.281849  1
  Re  Re15  1  0.281849  0.604513  0.604513  1
  Re  Re16  1  0.604513  0.281849  0.604513  1
  Re  Re17  1  0.375870  0.194003  1.000000  1
  Re  Re18  1  0.181867  0.805997  0.805997  1
  Re  Re19  1  0.375870  0.000000  0.194003  1
  Re  Re20  1  0.194003  0.375870  0.000000  1
  Re  Re21  1  0.000000  0.375870  0.194003  1
  Re  Re22  1  0.805997  0.181867  0.805997  1
  Re  Re23  1  0.805997  0.805997  0.181867  1
  Re  Re24  1  0.000000  0.194003  0.375870  1
  Re  Re25  1  0.194003  0.000000  0.375870  1
  Re  Re26  1  0.624130  0.624130  0.818133  1
  Re  Re27  1  0.818133  0.624130  0.624130  1
  Re  Re28  1  0.624130  0.818133  0.624130  1
