# generated using pymatgen
data_UAg2(WO5)2
_symmetry_space_group_name_H-M   'P 1'
_cell_length_a   7.67611786
_cell_length_b   8.78683347
_cell_length_c   12.78211555
_cell_angle_alpha   90.00000000
_cell_angle_beta   90.00000000
_cell_angle_gamma   90.00000000
_symmetry_Int_Tables_number   1
_chemical_formula_structural   UAg2(WO5)2
_chemical_formula_sum   'U4 Ag8 W8 O40'
_cell_volume   862.13796331
_cell_formula_units_Z   4
loop_
 _symmetry_equiv_pos_site_id
 _symmetry_equiv_pos_as_xyz
  1  'x, y, z'
loop_
 _atom_site_type_symbol
 _atom_site_label
 _atom_site_symmetry_multiplicity
 _atom_site_fract_x
 _atom_site_fract_y
 _atom_site_fract_z
 _atom_site_occupancy
  U  U0  1  0.750000  0.524689  0.000084  1
  U  U1  1  0.250000  0.475311  0.999916  1
  U  U2  1  0.750000  0.024689  0.499916  1
  U  U3  1  0.250000  0.975311  0.500084  1
  Ag  Ag4  1  0.750000  0.328016  0.705142  1
  Ag  Ag5  1  0.750000  0.689916  0.308677  1
  Ag  Ag6  1  0.250000  0.810084  0.808677  1
  Ag  Ag7  1  0.250000  0.310084  0.691323  1
  Ag  Ag8  1  0.750000  0.189916  0.191323  1
  Ag  Ag9  1  0.750000  0.828016  0.794858  1
  Ag  Ag10  1  0.250000  0.671984  0.294858  1
  Ag  Ag11  1  0.250000  0.171984  0.205142  1
  W  W12  1  0.499838  0.350144  0.423646  1
  W  W13  1  0.500162  0.149856  0.923646  1
  W  W14  1  0.499838  0.850144  0.076354  1
  W  W15  1  0.999838  0.149856  0.923646  1
  W  W16  1  0.500162  0.649856  0.576354  1
  W  W17  1  0.000162  0.850144  0.076354  1
  W  W18  1  0.000162  0.350144  0.423646  1
  W  W19  1  0.999838  0.649856  0.576354  1
  O  O20  1  0.250000  0.497123  0.857594  1
  O  O21  1  0.250000  0.862731  0.075990  1
  O  O22  1  0.750000  0.543927  0.856261  1
  O  O23  1  0.250000  0.997123  0.642406  1
  O  O24  1  0.750000  0.502877  0.142406  1
  O  O25  1  0.487050  0.209578  0.789735  1
  O  O26  1  0.750000  0.043927  0.643739  1
  O  O27  1  0.512950  0.790422  0.210265  1
  O  O28  1  0.987050  0.790422  0.210265  1
  O  O29  1  0.524745  0.351744  0.990461  1
  O  O30  1  0.250000  0.956073  0.356261  1
  O  O31  1  0.487050  0.709578  0.710265  1
  O  O32  1  0.024745  0.648256  0.009539  1
  O  O33  1  0.012950  0.209578  0.789735  1
  O  O34  1  0.024745  0.148256  0.490461  1
  O  O35  1  0.475255  0.148256  0.490461  1
  O  O36  1  0.012950  0.709578  0.710265  1
  O  O37  1  0.476747  0.934520  0.911259  1
  O  O38  1  0.750000  0.637269  0.575990  1
  O  O39  1  0.250000  0.362731  0.424010  1
  O  O40  1  0.023253  0.434520  0.588741  1
  O  O41  1  0.023253  0.934520  0.911259  1
  O  O42  1  0.750000  0.813320  0.043946  1
  O  O43  1  0.975255  0.351744  0.990461  1
  O  O44  1  0.976747  0.065480  0.088741  1
  O  O45  1  0.750000  0.313320  0.456054  1
  O  O46  1  0.250000  0.686680  0.543946  1
  O  O47  1  0.524745  0.851744  0.509539  1
  O  O48  1  0.250000  0.456073  0.143739  1
  O  O49  1  0.750000  0.137269  0.924010  1
  O  O50  1  0.523253  0.565480  0.411259  1
  O  O51  1  0.750000  0.002877  0.357594  1
  O  O52  1  0.523253  0.065480  0.088741  1
  O  O53  1  0.976747  0.565480  0.411259  1
  O  O54  1  0.987050  0.290422  0.289735  1
  O  O55  1  0.512950  0.290422  0.289735  1
  O  O56  1  0.476747  0.434520  0.588741  1
  O  O57  1  0.975255  0.851744  0.509539  1
  O  O58  1  0.475255  0.648256  0.009539  1
  O  O59  1  0.250000  0.186680  0.956054  1
