# generated using pymatgen
data_Ba8B5N10F
_symmetry_space_group_name_H-M   'P 1'
_cell_length_a   4.25956368
_cell_length_b   21.14171090
_cell_length_c   21.22529632
_cell_angle_alpha   91.73286404
_cell_angle_beta   90.01587468
_cell_angle_gamma   93.10959917
_symmetry_Int_Tables_number   1
_chemical_formula_structural   Ba8B5N10F
_chemical_formula_sum   'Ba32 B20 N40 F4'
_cell_volume   1907.74190978
_cell_formula_units_Z   4
loop_
 _symmetry_equiv_pos_site_id
 _symmetry_equiv_pos_as_xyz
  1  'x, y, z'
loop_
 _atom_site_type_symbol
 _atom_site_label
 _atom_site_symmetry_multiplicity
 _atom_site_fract_x
 _atom_site_fract_y
 _atom_site_fract_z
 _atom_site_occupancy
  Ba  Ba0  1  0.220403  0.490494  0.416618  1
  Ba  Ba1  1  0.331053  0.197017  0.883838  1
  Ba  Ba2  1  0.124905  0.660146  0.206257  1
  Ba  Ba3  1  0.354679  0.180994  0.496317  1
  Ba  Ba4  1  0.091734  0.669808  0.414388  1
  Ba  Ba5  1  0.117906  0.693568  0.609628  1
  Ba  Ba6  1  0.075142  0.704616  0.804288  1
  Ba  Ba7  1  0.376142  0.168404  0.078341  1
  Ba  Ba8  1  0.623858  0.831596  0.921659  1
  Ba  Ba9  1  0.645321  0.819006  0.503683  1
  Ba  Ba10  1  0.882094  0.306432  0.390372  1
  Ba  Ba11  1  0.131609  0.679829  0.998877  1
  Ba  Ba12  1  0.290429  0.526966  0.749530  1
  Ba  Ba13  1  0.060877  0.023775  0.663131  1
  Ba  Ba14  1  0.868391  0.320171  0.001123  1
  Ba  Ba15  1  0.500000  0.000000  0.500000  1
  Ba  Ba16  1  0.875095  0.339854  0.793743  1
  Ba  Ba17  1  0.213408  0.485952  0.079587  1
  Ba  Ba18  1  0.939123  0.976225  0.336869  1
  Ba  Ba19  1  0.786592  0.514048  0.920413  1
  Ba  Ba20  1  0.779597  0.509506  0.583382  1
  Ba  Ba21  1  0.709571  0.473034  0.250470  1
  Ba  Ba22  1  0.455631  0.981469  0.165298  1
  Ba  Ba23  1  0.668947  0.802983  0.116162  1
  Ba  Ba24  1  0.380128  0.160415  0.290967  1
  Ba  Ba25  1  0.633209  0.797545  0.307669  1
  Ba  Ba26  1  0.366791  0.202455  0.692331  1
  Ba  Ba27  1  0.544369  0.018531  0.834702  1
  Ba  Ba28  1  0.908266  0.330192  0.585612  1
  Ba  Ba29  1  0.924858  0.295384  0.195712  1
  Ba  Ba30  1  0.000000  0.000000  0.000000  1
  Ba  Ba31  1  0.619872  0.839585  0.709033  1
  B  B32  1  0.638321  0.611700  0.325885  1
  B  B33  1  0.500611  0.644572  0.888310  1
  B  B34  1  0.095467  0.888137  0.838314  1
  B  B35  1  0.330826  0.351318  0.297429  1
  B  B36  1  0.079440  0.852116  0.216561  1
  B  B37  1  0.342327  0.381397  0.920450  1
  B  B38  1  0.505128  0.369409  0.484044  1
  B  B39  1  0.499389  0.355428  0.111690  1
  B  B40  1  0.093591  0.880978  0.590189  1
  B  B41  1  0.738314  0.133677  0.968084  1
  B  B42  1  0.904533  0.111863  0.161686  1
  B  B43  1  0.757141  0.142078  0.597724  1
  B  B44  1  0.920560  0.147884  0.783439  1
  B  B45  1  0.261686  0.866323  0.031916  1
  B  B46  1  0.242859  0.857922  0.402276  1
  B  B47  1  0.494872  0.630591  0.515956  1
  B  B48  1  0.669174  0.648682  0.702571  1
  B  B49  1  0.657673  0.618603  0.079550  1
  B  B50  1  0.361679  0.388300  0.674115  1
  B  B51  1  0.906409  0.119022  0.409811  1
  N  N52  1  0.370538  0.310176  0.489600  1
  N  N53  1  0.405389  0.326463  0.889869  1
  N  N54  1  0.122379  0.808893  0.016196  1
  N  N55  1  0.191756  0.406462  0.306109  1
  N  N56  1  0.674206  0.407878  0.129091  1
  N  N57  1  0.586229  0.669737  0.303744  1
  N  N58  1  0.003072  0.066767  0.437113  1
  N  N59  1  0.311915  0.577507  0.522935  1
  N  N60  1  0.363673  0.298435  0.093347  1
  N  N61  1  0.154314  0.833272  0.807069  1
  N  N62  1  0.554517  0.081449  0.953988  1
  N  N63  1  0.840794  0.176511  0.388010  1
  N  N64  1  0.170351  0.791700  0.211878  1
  N  N65  1  0.108503  0.799025  0.408430  1
  N  N66  1  0.577922  0.088517  0.605222  1
  N  N67  1  0.263123  0.431109  0.957312  1
  N  N68  1  0.629462  0.689824  0.510400  1
  N  N69  1  0.636327  0.701565  0.906653  1
  N  N70  1  0.976791  0.062331  0.123732  1
  N  N71  1  0.445483  0.918551  0.046012  1
  N  N72  1  0.719607  0.558790  0.354107  1
  N  N73  1  0.688085  0.422493  0.477065  1
  N  N74  1  0.996928  0.933233  0.562887  1
  N  N75  1  0.936866  0.907215  0.219458  1
  N  N76  1  0.829649  0.208300  0.788122  1
  N  N77  1  0.413771  0.330263  0.696256  1
  N  N78  1  0.422078  0.911483  0.394778  1
  N  N79  1  0.877621  0.191107  0.983804  1
  N  N80  1  0.280393  0.441210  0.645893  1
  N  N81  1  0.570506  0.708025  0.710511  1
  N  N82  1  0.891497  0.200975  0.591570  1
  N  N83  1  0.023209  0.937669  0.876268  1
  N  N84  1  0.594611  0.673537  0.110131  1
  N  N85  1  0.325794  0.592122  0.870909  1
  N  N86  1  0.808244  0.593538  0.693891  1
  N  N87  1  0.063134  0.092785  0.780542  1
  N  N88  1  0.159206  0.823489  0.611990  1
  N  N89  1  0.845686  0.166728  0.192931  1
  N  N90  1  0.736877  0.568891  0.042688  1
  N  N91  1  0.429494  0.291975  0.289489  1
  F  F92  1  0.552450  0.965497  0.716835  1
  F  F93  1  0.447550  0.034503  0.283165  1
  F  F94  1  0.784282  0.465762  0.801891  1
  F  F95  1  0.215718  0.534238  0.198109  1
