# generated using pymatgen
data_Tl8Sb21As19(PbS17)4
_symmetry_space_group_name_H-M   'P 1'
_cell_length_a   8.59967533
_cell_length_b   17.04317359
_cell_length_c   21.71991540
_cell_angle_alpha   84.91318471
_cell_angle_beta   84.51674075
_cell_angle_gamma   89.34210080
_symmetry_Int_Tables_number   1
_chemical_formula_structural   Tl8Sb21As19(PbS17)4
_chemical_formula_sum   'Tl8 Sb21 As19 Pb4 S68'
_cell_volume   3156.33419207
_cell_formula_units_Z   1
loop_
 _symmetry_equiv_pos_site_id
 _symmetry_equiv_pos_as_xyz
  1  'x, y, z'
loop_
 _atom_site_type_symbol
 _atom_site_label
 _atom_site_symmetry_multiplicity
 _atom_site_fract_x
 _atom_site_fract_y
 _atom_site_fract_z
 _atom_site_occupancy
  Tl  Tl0  1  0.408347  0.729198  0.323147  1
  Tl  Tl1  1  0.556038  0.274643  0.688144  1
  Tl  Tl2  1  0.066307  0.776635  0.688202  1
  Tl  Tl3  1  0.076901  0.281707  0.687868  1
  Tl  Tl4  1  0.428887  0.235759  0.315548  1
  Tl  Tl5  1  0.904592  0.229929  0.317989  1
  Tl  Tl6  1  0.915376  0.736287  0.317529  1
  Tl  Tl7  1  0.573604  0.785296  0.683303  1
  Sb  Sb8  1  0.939083  0.163495  0.056888  1
  Sb  Sb9  1  0.828505  0.004903  0.610637  1
  Sb  Sb10  1  0.869591  0.342685  0.485424  1
  Sb  Sb11  1  0.479515  0.842031  0.934019  1
  Sb  Sb12  1  0.215682  0.833803  0.119863  1
  Sb  Sb13  1  0.111754  0.170851  0.521062  1
  Sb  Sb14  1  0.153010  0.509949  0.395045  1
  Sb  Sb15  1  0.763103  0.679914  0.887106  1
  Sb  Sb16  1  0.412164  0.492211  0.240701  1
  Sb  Sb17  1  0.724277  0.491384  0.981339  1
  Sb  Sb18  1  0.940412  0.663085  0.058440  1
  Sb  Sb19  1  0.331544  0.500444  0.614043  1
  Sb  Sb20  1  0.043831  0.527444  0.766567  1
  Sb  Sb21  1  0.576827  0.022961  0.765171  1
  Sb  Sb22  1  0.762709  0.183219  0.884561  1
  Sb  Sb23  1  0.247677  0.676509  0.873123  1
  Sb  Sb24  1  0.217076  0.336074  0.125030  1
  Sb  Sb25  1  0.957263  0.979446  0.234545  1
  Sb  Sb26  1  0.648805  0.014542  0.389133  1
  Sb  Sb27  1  0.612840  0.670211  0.520664  1
  Sb  Sb28  1  0.370057  0.844764  0.484515  1
  As  As29  1  0.632816  0.157762  0.493701  1
  As  As30  1  0.329345  0.999325  0.631492  1
  As  As31  1  0.732826  0.997102  0.961217  1
  As  As32  1  0.820811  0.496900  0.631831  1
  As  As33  1  0.718257  0.327610  0.133058  1
  As  As34  1  0.472648  0.346302  0.933577  1
  As  As35  1  0.740249  0.828375  0.137153  1
  As  As36  1  0.060704  0.850642  0.937268  1
  As  As37  1  0.515011  0.166201  0.069055  1
  As  As38  1  0.651824  0.514340  0.374145  1
  As  As39  1  0.064486  0.349072  0.943286  1
  As  As40  1  0.521406  0.673726  0.077039  1
  As  As41  1  0.258722  0.017408  0.037562  1
  As  As42  1  0.258709  0.523196  0.046199  1
  As  As43  1  0.850139  0.856606  0.510487  1
  As  As44  1  0.261445  0.186896  0.872415  1
  As  As45  1  0.349638  0.355346  0.510712  1
  As  As46  1  0.132636  0.658306  0.495076  1
  As  As47  1  0.161143  0.014806  0.370877  1
  Pb  Pb48  1  0.454665  0.003071  0.224846  1
  Pb  Pb49  1  0.927409  0.493039  0.229116  1
  Pb  Pb50  1  0.054437  0.021061  0.777710  1
  Pb  Pb51  1  0.547460  0.513265  0.778050  1
  S  S52  1  0.548986  0.089929  0.935627  1
  S  S53  1  0.691565  0.372387  0.228292  1
  S  S54  1  0.105765  0.279410  0.432470  1
  S  S55  1  0.671966  0.596316  0.286938  1
  S  S56  1  0.696988  0.579215  0.104254  1
  S  S57  1  0.875049  0.234094  0.573869  1
  S  S58  1  0.917083  0.239846  0.154869  1
  S  S59  1  0.068197  0.280020  0.853610  1
  S  S60  1  0.435130  0.427134  0.072215  1
  S  S61  1  0.372993  0.934343  0.355588  1
  S  S62  1  0.050279  0.781666  0.847627  1
  S  S63  1  0.828818  0.735875  0.568200  1
  S  S64  1  0.032904  0.906669  0.567982  1
  S  S65  1  0.776753  0.130258  0.769200  1
  S  S66  1  0.691807  0.076805  0.100068  1
  S  S67  1  0.482288  0.762802  0.839126  1
  S  S68  1  0.444094  0.108379  0.438556  1
  S  S69  1  0.947755  0.072386  0.923713  1
  S  S70  1  0.153416  0.778936  0.437217  1
  S  S71  1  0.283988  0.098428  0.118922  1
  S  S72  1  0.280486  0.433250  0.907813  1
  S  S73  1  0.712956  0.922143  0.877192  1
  S  S74  1  0.517820  0.749703  0.163805  1
  S  S75  1  0.606020  0.781095  0.432057  1
  S  S76  1  0.325511  0.235916  0.570394  1
  S  S77  1  0.501079  0.243649  0.155651  1
  S  S78  1  0.948693  0.607594  0.438327  1
  S  S79  1  0.537632  0.592622  0.945001  1
  S  S80  1  0.197912  0.757918  0.990686  1
  S  S81  1  0.790295  0.931770  0.716841  1
  S  S82  1  0.724346  0.876470  0.236408  1
  S  S83  1  0.655158  0.278358  0.435644  1
  S  S84  1  0.773254  0.762669  0.012582  1
  S  S85  1  0.799480  0.629102  0.781353  1
  S  S86  1  0.954336  0.934703  0.347428  1
  S  S87  1  0.291887  0.427729  0.717670  1
  S  S88  1  0.305632  0.916400  0.717711  1
  S  S89  1  0.536148  0.405471  0.566627  1
  S  S90  1  0.841562  0.094967  0.444768  1
  S  S91  1  0.639854  0.920131  0.558873  1
  S  S92  1  0.040937  0.944793  0.077683  1
  S  S93  1  0.271518  0.934747  0.901354  1
  S  S94  1  0.450418  0.432379  0.349679  1
  S  S95  1  0.025531  0.577396  0.656174  1
  S  S96  1  0.342637  0.595181  0.446019  1
  S  S97  1  0.611278  0.578727  0.648070  1
  S  S98  1  0.281754  0.144909  0.776815  1
  S  S99  1  0.775126  0.255930  0.999752  1
  S  S100  1  0.478998  0.269986  0.848376  1
  S  S101  1  0.192066  0.582371  0.288584  1
  S  S102  1  0.439426  0.925072  0.063935  1
  S  S103  1  0.189469  0.880046  0.226882  1
  S  S104  1  0.194580  0.262171  0.003225  1
  S  S105  1  0.531417  0.081344  0.656054  1
  S  S106  1  0.288502  0.603321  0.126767  1
  S  S107  1  0.111777  0.077797  0.650548  1
  S  S108  1  0.206738  0.383497  0.237278  1
  S  S109  1  0.950928  0.575802  0.934501  1
  S  S110  1  0.685820  0.087255  0.285681  1
  S  S111  1  0.376779  0.733895  0.573059  1
  S  S112  1  0.933850  0.738744  0.159152  1
  S  S113  1  0.040183  0.451560  0.086224  1
  S  S114  1  0.690671  0.414289  0.885135  1
  S  S115  1  0.258266  0.633968  0.763022  1
  S  S116  1  0.870016  0.436214  0.355727  1
  S  S117  1  0.796169  0.419283  0.722064  1
  S  S118  1  0.184480  0.091150  0.279913  1
  S  S119  1  0.140716  0.420380  0.557573  1
