# generated using pymatgen
data_YH24C9N6(ClO)3
_symmetry_space_group_name_H-M   'P 1'
_cell_length_a   10.19180822
_cell_length_b   10.19180822
_cell_length_c   10.19180822
_cell_angle_alpha   87.82610560
_cell_angle_beta   87.82610560
_cell_angle_gamma   87.82610560
_symmetry_Int_Tables_number   1
_chemical_formula_structural   YH24C9N6(ClO)3
_chemical_formula_sum   'Y2 H48 C18 N12 Cl6 O6'
_cell_volume   1056.42376408
_cell_formula_units_Z   2
loop_
 _symmetry_equiv_pos_site_id
 _symmetry_equiv_pos_as_xyz
  1  'x, y, z'
loop_
 _atom_site_type_symbol
 _atom_site_label
 _atom_site_symmetry_multiplicity
 _atom_site_fract_x
 _atom_site_fract_y
 _atom_site_fract_z
 _atom_site_occupancy
  Y  Y0  1  0.500000  0.500000  0.500000  1
  Y  Y1  1  0.000000  0.000000  0.000000  1
  H  H2  1  0.257790  0.144538  0.804886  1
  H  H3  1  0.353189  0.490275  0.054600  1
  H  H4  1  0.559815  0.660939  0.153439  1
  H  H5  1  0.820363  0.074670  0.567607  1
  H  H6  1  0.054600  0.353189  0.490275  1
  H  H7  1  0.509725  0.945400  0.646811  1
  H  H8  1  0.796874  0.219056  0.467071  1
  H  H9  1  0.634643  0.131945  0.150589  1
  H  H10  1  0.855462  0.195114  0.742210  1
  H  H11  1  0.793878  0.595369  0.906675  1
  H  H12  1  0.404631  0.093325  0.206122  1
  H  H13  1  0.408820  0.210970  0.331441  1
  H  H14  1  0.144538  0.804886  0.257790  1
  H  H15  1  0.906675  0.793878  0.595369  1
  H  H16  1  0.179637  0.925330  0.432393  1
  H  H17  1  0.925330  0.432393  0.179637  1
  H  H18  1  0.219056  0.467071  0.796874  1
  H  H19  1  0.210970  0.331441  0.408820  1
  H  H20  1  0.591180  0.789030  0.668559  1
  H  H21  1  0.490275  0.054600  0.353189  1
  H  H22  1  0.339061  0.846561  0.440185  1
  H  H23  1  0.074670  0.567607  0.820363  1
  H  H24  1  0.153439  0.559815  0.660939  1
  H  H25  1  0.567607  0.820363  0.074670  1
  H  H26  1  0.131945  0.150589  0.634643  1
  H  H27  1  0.804886  0.257790  0.144538  1
  H  H28  1  0.150589  0.634643  0.131945  1
  H  H29  1  0.945400  0.646811  0.509725  1
  H  H30  1  0.668559  0.591180  0.789030  1
  H  H31  1  0.432393  0.179637  0.925330  1
  H  H32  1  0.789030  0.668559  0.591180  1
  H  H33  1  0.846561  0.440185  0.339061  1
  H  H34  1  0.365357  0.868055  0.849411  1
  H  H35  1  0.203126  0.780944  0.532929  1
  H  H36  1  0.742210  0.855462  0.195114  1
  H  H37  1  0.467071  0.796874  0.219056  1
  H  H38  1  0.780944  0.532929  0.203126  1
  H  H39  1  0.206122  0.404631  0.093325  1
  H  H40  1  0.532929  0.203126  0.780944  1
  H  H41  1  0.093325  0.206122  0.404631  1
  H  H42  1  0.595369  0.906675  0.793878  1
  H  H43  1  0.868055  0.849411  0.365357  1
  H  H44  1  0.660939  0.153439  0.559815  1
  H  H45  1  0.195114  0.742210  0.855462  1
  H  H46  1  0.849411  0.365357  0.868055  1
  H  H47  1  0.646811  0.509725  0.945400  1
  H  H48  1  0.440185  0.339061  0.846561  1
  H  H49  1  0.331441  0.408820  0.210970  1
  C  C50  1  0.830159  0.439471  0.232970  1
  C  C51  1  0.560529  0.767030  0.169841  1
  C  C52  1  0.280455  0.465479  0.133703  1
  C  C53  1  0.133703  0.280455  0.465479  1
  C  C54  1  0.534521  0.866297  0.719545  1
  C  C55  1  0.254024  0.637229  0.299078  1
  C  C56  1  0.299078  0.254024  0.637229  1
  C  C57  1  0.465479  0.133703  0.280455  1
  C  C58  1  0.719545  0.534521  0.866297  1
  C  C59  1  0.637229  0.299078  0.254024  1
  C  C60  1  0.169841  0.560529  0.767030  1
  C  C61  1  0.866297  0.719545  0.534521  1
  C  C62  1  0.232970  0.830159  0.439471  1
  C  C63  1  0.700922  0.745976  0.362771  1
  C  C64  1  0.439471  0.232970  0.830159  1
  C  C65  1  0.362771  0.700922  0.745976  1
  C  C66  1  0.767030  0.169841  0.560529  1
  C  C67  1  0.745976  0.362771  0.700922  1
  N  N68  1  0.582900  0.187658  0.218176  1
  N  N69  1  0.187658  0.218176  0.582900  1
  N  N70  1  0.327172  0.199213  0.756367  1
  N  N71  1  0.218176  0.582900  0.187658  1
  N  N72  1  0.800787  0.243633  0.672828  1
  N  N73  1  0.781824  0.417100  0.812342  1
  N  N74  1  0.199213  0.756367  0.327172  1
  N  N75  1  0.672828  0.800787  0.243633  1
  N  N76  1  0.243633  0.672828  0.800787  1
  N  N77  1  0.756367  0.327172  0.199213  1
  N  N78  1  0.812342  0.781824  0.417100  1
  N  N79  1  0.417100  0.812342  0.781824  1
  Cl  Cl80  1  0.966065  0.020641  0.258323  1
  Cl  Cl81  1  0.979359  0.741677  0.033935  1
  Cl  Cl82  1  0.020641  0.258323  0.966065  1
  Cl  Cl83  1  0.033935  0.979359  0.741677  1
  Cl  Cl84  1  0.741677  0.033935  0.979359  1
  Cl  Cl85  1  0.258323  0.966065  0.020641  1
  O  O86  1  0.623561  0.665472  0.421415  1
  O  O87  1  0.421415  0.623561  0.665472  1
  O  O88  1  0.665472  0.421415  0.623561  1
  O  O89  1  0.334528  0.578585  0.376439  1
  O  O90  1  0.578585  0.376439  0.334528  1
  O  O91  1  0.376439  0.334528  0.578585  1
