# generated using pymatgen
data_NaVCdO4
_symmetry_space_group_name_H-M   'P 1'
_cell_length_a   5.68292267
_cell_length_b   5.68292267
_cell_length_c   6.87477283
_cell_angle_alpha   90.00000000
_cell_angle_beta   90.00000000
_cell_angle_gamma   113.68340224
_symmetry_Int_Tables_number   1
_chemical_formula_structural   NaVCdO4
_chemical_formula_sum   'Na2 V2 Cd2 O8'
_cell_volume   203.32581509
_cell_formula_units_Z   2
loop_
 _symmetry_equiv_pos_site_id
 _symmetry_equiv_pos_as_xyz
  1  'x, y, z'
loop_
 _atom_site_type_symbol
 _atom_site_label
 _atom_site_symmetry_multiplicity
 _atom_site_fract_x
 _atom_site_fract_y
 _atom_site_fract_z
 _atom_site_occupancy
  Na  Na0  1  0.500000  0.500000  1.000000  1
  Na  Na1  1  0.500000  0.500000  0.500000  1
  V  V2  1  0.139841  0.860159  0.250000  1
  V  V3  1  0.860159  0.139841  0.750000  1
  Cd  Cd4  1  0.824552  0.175448  0.250000  1
  Cd  Cd5  1  0.175448  0.824552  0.750000  1
  O  O6  1  0.746715  0.805282  0.750000  1
  O  O7  1  0.194718  0.253285  0.750000  1
  O  O8  1  0.751293  0.248707  0.544261  1
  O  O9  1  0.751293  0.248707  0.955739  1
  O  O10  1  0.248707  0.751293  0.455739  1
  O  O11  1  0.248707  0.751293  0.044261  1
  O  O12  1  0.253285  0.194718  0.250000  1
  O  O13  1  0.805282  0.746715  0.250000  1
