# generated using pymatgen
data_Ho(Mo3S4)2
_symmetry_space_group_name_H-M   'P 1'
_cell_length_a   6.48975242
_cell_length_b   6.48975242
_cell_length_c   6.48975242
_cell_angle_alpha   89.36886198
_cell_angle_beta   89.36886198
_cell_angle_gamma   89.36886198
_symmetry_Int_Tables_number   1
_chemical_formula_structural   Ho(Mo3S4)2
_chemical_formula_sum   'Ho1 Mo6 S8'
_cell_volume   273.27878010
_cell_formula_units_Z   1
loop_
 _symmetry_equiv_pos_site_id
 _symmetry_equiv_pos_as_xyz
  1  'x, y, z'
loop_
 _atom_site_type_symbol
 _atom_site_label
 _atom_site_symmetry_multiplicity
 _atom_site_fract_x
 _atom_site_fract_y
 _atom_site_fract_z
 _atom_site_occupancy
  Ho  Ho0  1  0.000000  0.000000  0.000000  1
  Mo  Mo1  1  0.560439  0.419995  0.222643  1
  Mo  Mo2  1  0.419995  0.222643  0.560439  1
  Mo  Mo3  1  0.439562  0.580005  0.777357  1
  Mo  Mo4  1  0.222643  0.560439  0.419995  1
  Mo  Mo5  1  0.580005  0.777357  0.439562  1
  Mo  Mo6  1  0.777357  0.439562  0.580005  1
  S  S7  1  0.631562  0.246570  0.871999  1
  S  S8  1  0.128001  0.368438  0.753430  1
  S  S9  1  0.368438  0.753430  0.128001  1
  S  S10  1  0.762145  0.762145  0.762145  1
  S  S11  1  0.246570  0.871999  0.631562  1
  S  S12  1  0.871999  0.631562  0.246570  1
  S  S13  1  0.237855  0.237855  0.237855  1
  S  S14  1  0.753430  0.128001  0.368438  1
