# generated using pymatgen
data_Na2TeO4
_symmetry_space_group_name_H-M   'P 1'
_cell_length_a   10.79476478
_cell_length_b   5.25066855
_cell_length_c   14.07218407
_cell_angle_alpha   90.00000000
_cell_angle_beta   103.49072987
_cell_angle_gamma   90.00000000
_symmetry_Int_Tables_number   1
_chemical_formula_structural   Na2TeO4
_chemical_formula_sum   'Na16 Te8 O32'
_cell_volume   775.59977435
_cell_formula_units_Z   8
loop_
 _symmetry_equiv_pos_site_id
 _symmetry_equiv_pos_as_xyz
  1  'x, y, z'
loop_
 _atom_site_type_symbol
 _atom_site_label
 _atom_site_symmetry_multiplicity
 _atom_site_fract_x
 _atom_site_fract_y
 _atom_site_fract_z
 _atom_site_occupancy
  Na  Na0  1  0.955971  0.109797  0.315268  1
  Na  Na1  1  0.567018  0.748054  0.400699  1
  Na  Na2  1  0.643989  0.262933  0.803275  1
  Na  Na3  1  0.356011  0.737067  0.196725  1
  Na  Na4  1  0.432982  0.248054  0.099301  1
  Na  Na5  1  0.643989  0.237067  0.303275  1
  Na  Na6  1  0.356011  0.762933  0.696725  1
  Na  Na7  1  0.955971  0.390203  0.815268  1
  Na  Na8  1  0.870529  0.754126  0.465477  1
  Na  Na9  1  0.044029  0.890203  0.684732  1
  Na  Na10  1  0.567018  0.751946  0.900699  1
  Na  Na11  1  0.044029  0.609797  0.184732  1
  Na  Na12  1  0.432982  0.251946  0.599301  1
  Na  Na13  1  0.870529  0.745874  0.965477  1
  Na  Na14  1  0.129471  0.254126  0.034523  1
  Na  Na15  1  0.129471  0.245874  0.534523  1
  Te  Te16  1  0.709334  0.724223  0.183236  1
  Te  Te17  1  0.290666  0.275777  0.816764  1
  Te  Te18  1  0.290666  0.224223  0.316764  1
  Te  Te19  1  0.777223  0.276017  0.577265  1
  Te  Te20  1  0.222777  0.723983  0.422735  1
  Te  Te21  1  0.222777  0.776017  0.922735  1
  Te  Te22  1  0.777223  0.223983  0.077265  1
  Te  Te23  1  0.709334  0.775777  0.683236  1
  O  O24  1  0.815761  0.094520  0.712975  1
  O  O25  1  0.764674  0.637044  0.809063  1
  O  O26  1  0.861516  0.596693  0.643861  1
  O  O27  1  0.322319  0.452255  0.951640  1
  O  O28  1  0.931181  0.350983  0.058002  1
  O  O29  1  0.677681  0.952255  0.548360  1
  O  O30  1  0.558540  0.583895  0.203813  1
  O  O31  1  0.279671  0.916374  0.046854  1
  O  O32  1  0.861516  0.903307  0.143861  1
  O  O33  1  0.235326  0.137044  0.690937  1
  O  O34  1  0.720329  0.083626  0.953146  1
  O  O35  1  0.677681  0.547745  0.048360  1
  O  O36  1  0.815761  0.405480  0.212975  1
  O  O37  1  0.235326  0.362956  0.190937  1
  O  O38  1  0.369459  0.547474  0.378017  1
  O  O39  1  0.279671  0.583626  0.546854  1
  O  O40  1  0.184239  0.594520  0.787025  1
  O  O41  1  0.322319  0.047745  0.451640  1
  O  O42  1  0.068819  0.850983  0.441998  1
  O  O43  1  0.630541  0.047474  0.121983  1
  O  O44  1  0.441460  0.416105  0.796187  1
  O  O45  1  0.184239  0.905480  0.287025  1
  O  O46  1  0.720329  0.416374  0.453146  1
  O  O47  1  0.138484  0.096693  0.856139  1
  O  O48  1  0.441460  0.083895  0.296187  1
  O  O49  1  0.931181  0.149017  0.558002  1
  O  O50  1  0.138484  0.403307  0.356139  1
  O  O51  1  0.068819  0.649017  0.941998  1
  O  O52  1  0.630541  0.452526  0.621983  1
  O  O53  1  0.369459  0.952526  0.878017  1
  O  O54  1  0.558540  0.916105  0.703813  1
  O  O55  1  0.764674  0.862956  0.309063  1
