# generated using pymatgen
data_KPH5C2S2(NO)3
_symmetry_space_group_name_H-M   'P 1'
_cell_length_a   6.76072823
_cell_length_b   7.02829634
_cell_length_c   10.51338682
_cell_angle_alpha   89.98817240
_cell_angle_beta   101.67527297
_cell_angle_gamma   96.18186344
_symmetry_Int_Tables_number   1
_chemical_formula_structural   KPH5C2S2(NO)3
_chemical_formula_sum   'K2 P2 H10 C4 S4 N6 O6'
_cell_volume   486.25824033
_cell_formula_units_Z   2
loop_
 _symmetry_equiv_pos_site_id
 _symmetry_equiv_pos_as_xyz
  1  'x, y, z'
loop_
 _atom_site_type_symbol
 _atom_site_label
 _atom_site_symmetry_multiplicity
 _atom_site_fract_x
 _atom_site_fract_y
 _atom_site_fract_z
 _atom_site_occupancy
  K  K0  1  0.666473  0.640773  0.288711  1
  K  K1  1  0.333527  0.359227  0.711289  1
  P  P2  1  0.091990  0.197132  0.262270  1
  P  P3  1  0.908010  0.802868  0.737730  1
  H  H4  1  0.154658  0.872632  0.270908  1
  H  H5  1  0.845342  0.127368  0.729092  1
  H  H6  1  0.968430  0.411187  0.094928  1
  H  H7  1  0.031570  0.588813  0.905072  1
  H  H8  1  0.420979  0.142563  0.990080  1
  H  H9  1  0.579021  0.857437  0.009920  1
  H  H10  1  0.154989  0.588541  0.392136  1
  H  H11  1  0.845011  0.411459  0.607864  1
  H  H12  1  0.105687  0.756323  0.476009  1
  H  H13  1  0.894313  0.243677  0.523991  1
  C  C14  1  0.300011  0.987087  0.128780  1
  C  C15  1  0.699989  0.012913  0.871220  1
  C  C16  1  0.193021  0.290854  0.030439  1
  C  C17  1  0.806979  0.709146  0.969561  1
  S  S18  1  0.320854  0.334047  0.390775  1
  S  S19  1  0.679146  0.665953  0.609225  1
  S  S20  1  0.823658  0.150876  0.308772  1
  S  S21  1  0.176342  0.849124  0.691228  1
  N  N22  1  0.168859  0.990365  0.211383  1
  N  N23  1  0.831141  0.009635  0.788617  1
  N  N24  1  0.066979  0.306035  0.114741  1
  N  N25  1  0.933021  0.693965  0.885259  1
  N  N26  1  0.317645  0.144909  0.050775  1
  N  N27  1  0.682355  0.855091  0.949225  1
  O  O28  1  0.399319  0.849312  0.119574  1
  O  O29  1  0.600681  0.150688  0.880426  1
  O  O30  1  0.082525  0.705041  0.385714  1
  O  O31  1  0.917475  0.294959  0.614286  1
  O  O32  1  0.801385  0.600030  0.063202  1
  O  O33  1  0.198615  0.399970  0.936798  1
