# generated using pymatgen
data_Rb2Cr2O7
_symmetry_space_group_name_H-M   'P 1'
_cell_length_a   7.87839104
_cell_length_b   7.91480815
_cell_length_c   13.84631777
_cell_angle_alpha   82.61342018
_cell_angle_beta   89.08426968
_cell_angle_gamma   86.59103183
_symmetry_Int_Tables_number   1
_chemical_formula_structural   Rb2Cr2O7
_chemical_formula_sum   'Rb8 Cr8 O28'
_cell_volume   854.68985853
_cell_formula_units_Z   4
loop_
 _symmetry_equiv_pos_site_id
 _symmetry_equiv_pos_as_xyz
  1  'x, y, z'
loop_
 _atom_site_type_symbol
 _atom_site_label
 _atom_site_symmetry_multiplicity
 _atom_site_fract_x
 _atom_site_fract_y
 _atom_site_fract_z
 _atom_site_occupancy
  Rb  Rb0  1  0.888656  0.878640  0.864928  1
  Rb  Rb1  1  0.111344  0.121360  0.135072  1
  Rb  Rb2  1  0.780918  0.621081  0.156854  1
  Rb  Rb3  1  0.219082  0.378919  0.843146  1
  Rb  Rb4  1  0.440984  0.806411  0.658138  1
  Rb  Rb5  1  0.559016  0.193589  0.341862  1
  Rb  Rb6  1  0.216350  0.708413  0.368770  1
  Rb  Rb7  1  0.783650  0.291587  0.631230  1
  Cr  Cr8  1  0.715057  0.390613  0.890211  1
  Cr  Cr9  1  0.284943  0.609387  0.109789  1
  Cr  Cr10  1  0.649809  0.137216  0.085228  1
  Cr  Cr11  1  0.350191  0.862784  0.914772  1
  Cr  Cr12  1  0.936042  0.752485  0.611427  1
  Cr  Cr13  1  0.063958  0.247515  0.388573  1
  Cr  Cr14  1  0.697841  0.714163  0.417460  1
  Cr  Cr15  1  0.302159  0.285837  0.582540  1
  O  O16  1  0.581143  0.272198  0.977287  1
  O  O17  1  0.418857  0.727802  0.022713  1
  O  O18  1  0.593797  0.486513  0.802859  1
  O  O19  1  0.406203  0.513487  0.197141  1
  O  O20  1  0.854984  0.258506  0.845570  1
  O  O21  1  0.145016  0.741494  0.154430  1
  O  O22  1  0.813547  0.528340  0.943818  1
  O  O23  1  0.186453  0.471660  0.056182  1
  O  O24  1  0.485716  0.061278  0.145524  1
  O  O25  1  0.514284  0.938722  0.854476  1
  O  O26  1  0.752702  0.250298  0.153709  1
  O  O27  1  0.247298  0.749702  0.846291  1
  O  O28  1  0.780475  0.982329  0.056166  1
  O  O29  1  0.219525  0.017671  0.943834  1
  O  O30  1  0.812712  0.652124  0.528751  1
  O  O31  1  0.187288  0.347876  0.471249  1
  O  O32  1  0.985154  0.605447  0.701998  1
  O  O33  1  0.014846  0.394553  0.298002  1
  O  O34  1  0.822108  0.908458  0.652961  1
  O  O35  1  0.177892  0.091542  0.347039  1
  O  O36  1  0.108271  0.822025  0.557481  1
  O  O37  1  0.891729  0.177975  0.442519  1
  O  O38  1  0.629178  0.542421  0.381250  1
  O  O39  1  0.370822  0.457579  0.618750  1
  O  O40  1  0.819874  0.809224  0.333497  1
  O  O41  1  0.180126  0.190776  0.666503  1
  O  O42  1  0.534091  0.842418  0.438198  1
  O  O43  1  0.465909  0.157582  0.561802  1
