# generated using pymatgen
data_Sr4RhO6
_symmetry_space_group_name_H-M   'P 1'
_cell_length_a   6.93252063
_cell_length_b   6.93252063
_cell_length_c   6.93252063
_cell_angle_alpha   90.26093175
_cell_angle_beta   90.26093175
_cell_angle_gamma   90.26093175
_symmetry_Int_Tables_number   1
_chemical_formula_structural   Sr4RhO6
_chemical_formula_sum   'Sr8 Rh2 O12'
_cell_volume   333.16545131
_cell_formula_units_Z   2
loop_
 _symmetry_equiv_pos_site_id
 _symmetry_equiv_pos_as_xyz
  1  'x, y, z'
loop_
 _atom_site_type_symbol
 _atom_site_label
 _atom_site_symmetry_multiplicity
 _atom_site_fract_x
 _atom_site_fract_y
 _atom_site_fract_z
 _atom_site_occupancy
  Sr  Sr0  1  0.250000  0.882985  0.617015  1
  Sr  Sr1  1  0.750000  0.117015  0.382985  1
  Sr  Sr2  1  0.617015  0.250000  0.882985  1
  Sr  Sr3  1  0.882985  0.617015  0.250000  1
  Sr  Sr4  1  0.750000  0.750000  0.750000  1
  Sr  Sr5  1  0.117015  0.382985  0.750000  1
  Sr  Sr6  1  0.250000  0.250000  0.250000  1
  Sr  Sr7  1  0.382985  0.750000  0.117015  1
  Rh  Rh8  1  0.000000  0.000000  0.000000  1
  Rh  Rh9  1  0.500000  0.500000  0.500000  1
  O  O10  1  0.785398  0.442571  0.571305  1
  O  O11  1  0.442571  0.571305  0.785398  1
  O  O12  1  0.071305  0.942571  0.285398  1
  O  O13  1  0.214602  0.557429  0.428695  1
  O  O14  1  0.428695  0.214602  0.557429  1
  O  O15  1  0.928695  0.057429  0.714602  1
  O  O16  1  0.571305  0.785398  0.442571  1
  O  O17  1  0.057429  0.714602  0.928695  1
  O  O18  1  0.285398  0.071305  0.942571  1
  O  O19  1  0.714602  0.928695  0.057429  1
  O  O20  1  0.557429  0.428695  0.214602  1
  O  O21  1  0.942571  0.285398  0.071305  1
