# generated using pymatgen
data_Fe3C
_symmetry_space_group_name_H-M   'P 1'
_cell_length_a   4.49084468
_cell_length_b   5.03018045
_cell_length_c   6.73930730
_cell_angle_alpha   90.00000000
_cell_angle_beta   90.00000000
_cell_angle_gamma   90.00000000
_symmetry_Int_Tables_number   1
_chemical_formula_structural   Fe3C
_chemical_formula_sum   'Fe12 C4'
_cell_volume   152.23932850
_cell_formula_units_Z   4
loop_
 _symmetry_equiv_pos_site_id
 _symmetry_equiv_pos_as_xyz
  1  'x, y, z'
loop_
 _atom_site_type_symbol
 _atom_site_label
 _atom_site_symmetry_multiplicity
 _atom_site_fract_x
 _atom_site_fract_y
 _atom_site_fract_z
 _atom_site_occupancy
  Fe  Fe0  1  0.837120  0.036661  0.250000  1
  Fe  Fe1  1  0.337120  0.463339  0.750000  1
  Fe  Fe2  1  0.662880  0.536661  0.250000  1
  Fe  Fe3  1  0.162880  0.963339  0.750000  1
  Fe  Fe4  1  0.332101  0.177370  0.068374  1
  Fe  Fe5  1  0.832101  0.322630  0.931626  1
  Fe  Fe6  1  0.167899  0.677370  0.431626  1
  Fe  Fe7  1  0.667899  0.822630  0.568374  1
  Fe  Fe8  1  0.667899  0.822630  0.931626  1
  Fe  Fe9  1  0.167899  0.677370  0.068374  1
  Fe  Fe10  1  0.832101  0.322630  0.568374  1
  Fe  Fe11  1  0.332101  0.177370  0.431626  1
  C  C12  1  0.439068  0.876994  0.250000  1
  C  C13  1  0.939068  0.623006  0.750000  1
  C  C14  1  0.060932  0.376994  0.250000  1
  C  C15  1  0.560932  0.123006  0.750000  1
