# generated using pymatgen
data_Nd2AlNO3
_symmetry_space_group_name_H-M   'P 1'
_cell_length_a   6.82553513
_cell_length_b   6.82553513
_cell_length_c   6.82553513
_cell_angle_alpha   148.23284750
_cell_angle_beta   148.23284750
_cell_angle_gamma   45.54175317
_symmetry_Int_Tables_number   1
_chemical_formula_structural   Nd2AlNO3
_chemical_formula_sum   'Nd2 Al1 N1 O3'
_cell_volume   87.84693365
_cell_formula_units_Z   1
loop_
 _symmetry_equiv_pos_site_id
 _symmetry_equiv_pos_as_xyz
  1  'x, y, z'
loop_
 _atom_site_type_symbol
 _atom_site_label
 _atom_site_symmetry_multiplicity
 _atom_site_fract_x
 _atom_site_fract_y
 _atom_site_fract_z
 _atom_site_occupancy
  Nd  Nd0  1  0.361613  0.361613  0.000000  1
  Nd  Nd1  1  0.650413  0.650413  0.000000  1
  Al  Al2  1  0.012461  0.012461  0.000000  1
  N  N3  1  0.173215  0.173215  0.000000  1
  O  O4  1  0.839990  0.839990  0.000000  1
  O  O5  1  0.499804  0.999804  0.500000  1
  O  O6  1  0.999804  0.499804  0.500000  1
