# generated using pymatgen
data_Hg2Mo5O16
_symmetry_space_group_name_H-M   'P 1'
_cell_length_a   9.40430194
_cell_length_b   5.64023078
_cell_length_c   14.57298263
_cell_angle_alpha   90.00000000
_cell_angle_beta   109.40153054
_cell_angle_gamma   90.00000000
_symmetry_Int_Tables_number   1
_chemical_formula_structural   Hg2Mo5O16
_chemical_formula_sum   'Hg4 Mo10 O32'
_cell_volume   729.09148319
_cell_formula_units_Z   2
loop_
 _symmetry_equiv_pos_site_id
 _symmetry_equiv_pos_as_xyz
  1  'x, y, z'
loop_
 _atom_site_type_symbol
 _atom_site_label
 _atom_site_symmetry_multiplicity
 _atom_site_fract_x
 _atom_site_fract_y
 _atom_site_fract_z
 _atom_site_occupancy
  Hg  Hg0  1  0.411262  0.728100  0.802016  1
  Hg  Hg1  1  0.588738  0.728100  0.697984  1
  Hg  Hg2  1  0.588738  0.271900  0.197984  1
  Hg  Hg3  1  0.411262  0.271900  0.302016  1
  Mo  Mo4  1  0.000000  0.624836  0.750000  1
  Mo  Mo5  1  0.000000  0.375164  0.250000  1
  Mo  Mo6  1  0.231879  0.277024  0.928740  1
  Mo  Mo7  1  0.768121  0.277024  0.571260  1
  Mo  Mo8  1  0.768121  0.722976  0.071260  1
  Mo  Mo9  1  0.231879  0.722976  0.428740  1
  Mo  Mo10  1  0.129049  0.176370  0.586641  1
  Mo  Mo11  1  0.870951  0.176370  0.913359  1
  Mo  Mo12  1  0.870951  0.823630  0.413359  1
  Mo  Mo13  1  0.129049  0.823630  0.086641  1
  O  O14  1  0.402065  0.330813  0.020511  1
  O  O15  1  0.597935  0.330813  0.479489  1
  O  O16  1  0.597935  0.669187  0.979489  1
  O  O17  1  0.402065  0.669187  0.520511  1
  O  O18  1  0.305218  0.143353  0.672904  1
  O  O19  1  0.694782  0.143353  0.827096  1
  O  O20  1  0.694782  0.856647  0.327096  1
  O  O21  1  0.305218  0.856647  0.172904  1
  O  O22  1  0.278576  0.043947  0.866117  1
  O  O23  1  0.721424  0.043947  0.633883  1
  O  O24  1  0.721424  0.956053  0.133883  1
  O  O25  1  0.278576  0.956053  0.366117  1
  O  O26  1  0.211679  0.538200  0.833951  1
  O  O27  1  0.788321  0.538200  0.666049  1
  O  O28  1  0.011432  0.677473  0.155109  1
  O  O29  1  0.988568  0.677473  0.344891  1
  O  O30  1  0.988568  0.322527  0.844891  1
  O  O31  1  0.011432  0.322527  0.655109  1
  O  O32  1  0.061640  0.817534  0.677015  1
  O  O33  1  0.938360  0.817534  0.822985  1
  O  O34  1  0.938360  0.182466  0.322985  1
  O  O35  1  0.061640  0.182466  0.177015  1
  O  O36  1  0.119906  0.901973  0.499512  1
  O  O37  1  0.880094  0.901973  0.000488  1
  O  O38  1  0.880094  0.098027  0.500488  1
  O  O39  1  0.119906  0.098027  0.999512  1
  O  O40  1  0.154758  0.593950  0.013209  1
  O  O41  1  0.845242  0.593950  0.486791  1
  O  O42  1  0.845242  0.406050  0.986791  1
  O  O43  1  0.154758  0.406050  0.513209  1
  O  O44  1  0.211679  0.461800  0.333951  1
  O  O45  1  0.788321  0.461800  0.166049  1
