# generated using pymatgen
data_Sr2YGaCu2O7
_symmetry_space_group_name_H-M   'P 1'
_cell_length_a   12.24141706
_cell_length_b   12.24141706
_cell_length_c   12.24141706
_cell_angle_alpha   154.41446571
_cell_angle_beta   153.89218648
_cell_angle_gamma   36.87857132
_symmetry_Int_Tables_number   1
_chemical_formula_structural   Sr2YGaCu2O7
_chemical_formula_sum   'Sr4 Y2 Ga2 Cu4 O14'
_cell_volume   348.13437839
_cell_formula_units_Z   2
loop_
 _symmetry_equiv_pos_site_id
 _symmetry_equiv_pos_as_xyz
  1  'x, y, z'
loop_
 _atom_site_type_symbol
 _atom_site_label
 _atom_site_symmetry_multiplicity
 _atom_site_fract_x
 _atom_site_fract_y
 _atom_site_fract_z
 _atom_site_occupancy
  Sr  Sr0  1  0.866864  0.845184  0.014646  1
  Sr  Sr1  1  0.133136  0.147782  0.978319  1
  Sr  Sr2  1  0.330538  0.345184  0.978319  1
  Sr  Sr3  1  0.669462  0.647782  0.014646  1
  Y  Y4  1  0.500000  0.499968  0.999968  1
  Y  Y5  1  0.000000  0.999968  0.999968  1
  Ga  Ga6  1  0.319551  0.710381  0.529932  1
  Ga  Ga7  1  0.680449  0.210381  0.390830  1
  Cu  Cu8  1  0.072043  0.571094  0.500855  1
  Cu  Cu9  1  0.429761  0.928812  0.500855  1
  Cu  Cu10  1  0.570239  0.071094  0.499051  1
  Cu  Cu11  1  0.927957  0.428812  0.499051  1
  O  O12  1  0.189909  0.687126  0.999884  1
  O  O13  1  0.365669  0.357402  0.223071  1
  O  O14  1  0.187242  0.187126  0.497217  1
  O  O15  1  0.721472  0.202697  0.570325  1
  O  O16  1  0.313062  0.813858  0.999132  1
  O  O17  1  0.314726  0.313858  0.500796  1
  O  O18  1  0.634331  0.857402  0.991733  1
  O  O19  1  0.812758  0.309975  0.999884  1
  O  O20  1  0.810091  0.809975  0.497217  1
  O  O21  1  0.132373  0.702697  0.481225  1
  O  O22  1  0.278528  0.848852  0.481225  1
  O  O23  1  0.867627  0.348852  0.570325  1
  O  O24  1  0.686938  0.686070  0.500796  1
  O  O25  1  0.685274  0.186070  0.999132  1
