# generated using pymatgen
data_H5CNO3
_symmetry_space_group_name_H-M   'P 1'
_cell_length_a   7.36305545
_cell_length_b   8.77217550
_cell_length_c   10.74273714
_cell_angle_alpha   90.00000000
_cell_angle_beta   90.00000000
_cell_angle_gamma   90.00000000
_symmetry_Int_Tables_number   1
_chemical_formula_structural   H5CNO3
_chemical_formula_sum   'H40 C8 N8 O24'
_cell_volume   693.87354897
_cell_formula_units_Z   8
loop_
 _symmetry_equiv_pos_site_id
 _symmetry_equiv_pos_as_xyz
  1  'x, y, z'
loop_
 _atom_site_type_symbol
 _atom_site_label
 _atom_site_symmetry_multiplicity
 _atom_site_fract_x
 _atom_site_fract_y
 _atom_site_fract_z
 _atom_site_occupancy
  H  H0  1  0.632787  0.367542  0.466592  1
  H  H1  1  0.867213  0.867542  0.466592  1
  H  H2  1  0.662605  0.448335  0.061268  1
  H  H3  1  0.018378  0.378012  0.765269  1
  H  H4  1  0.632787  0.867542  0.033408  1
  H  H5  1  0.701494  0.008295  0.938441  1
  H  H6  1  0.018378  0.878012  0.734731  1
  H  H7  1  0.309433  0.663761  0.065980  1
  H  H8  1  0.809433  0.336239  0.565980  1
  H  H9  1  0.690567  0.836239  0.565980  1
  H  H10  1  0.162605  0.051665  0.938732  1
  H  H11  1  0.132787  0.132458  0.533408  1
  H  H12  1  0.701494  0.508295  0.561559  1
  H  H13  1  0.309433  0.163761  0.434020  1
  H  H14  1  0.809433  0.836239  0.934020  1
  H  H15  1  0.190567  0.663761  0.434020  1
  H  H16  1  0.837395  0.948335  0.061268  1
  H  H17  1  0.201494  0.491705  0.061559  1
  H  H18  1  0.867213  0.367542  0.033408  1
  H  H19  1  0.201494  0.991705  0.438441  1
  H  H20  1  0.798506  0.508295  0.938441  1
  H  H21  1  0.337395  0.051665  0.561268  1
  H  H22  1  0.981622  0.621988  0.234731  1
  H  H23  1  0.190567  0.163761  0.065980  1
  H  H24  1  0.690567  0.336239  0.934020  1
  H  H25  1  0.367213  0.632458  0.533408  1
  H  H26  1  0.298506  0.991705  0.061559  1
  H  H27  1  0.837395  0.448335  0.438732  1
  H  H28  1  0.367213  0.132458  0.966592  1
  H  H29  1  0.298506  0.491705  0.438441  1
  H  H30  1  0.337395  0.551665  0.938732  1
  H  H31  1  0.518378  0.121988  0.234731  1
  H  H32  1  0.981622  0.121988  0.265269  1
  H  H33  1  0.798506  0.008295  0.561559  1
  H  H34  1  0.481622  0.878012  0.765269  1
  H  H35  1  0.162605  0.551665  0.561268  1
  H  H36  1  0.481622  0.378012  0.734731  1
  H  H37  1  0.132787  0.632458  0.966592  1
  H  H38  1  0.662605  0.948335  0.438732  1
  H  H39  1  0.518378  0.621988  0.265269  1
  C  C40  1  0.489659  0.844853  0.251474  1
  C  C41  1  0.510341  0.655147  0.751474  1
  C  C42  1  0.989659  0.155147  0.751474  1
  C  C43  1  0.489659  0.344853  0.248526  1
  C  C44  1  0.989659  0.655147  0.748526  1
  C  C45  1  0.010341  0.344853  0.251474  1
  C  C46  1  0.010341  0.844853  0.248526  1
  C  C47  1  0.510341  0.155147  0.748526  1
  N  N48  1  0.745731  0.915826  0.991162  1
  N  N49  1  0.745731  0.415826  0.508838  1
  N  N50  1  0.245731  0.084174  0.491162  1
  N  N51  1  0.754269  0.415826  0.991162  1
  N  N52  1  0.245731  0.584174  0.008838  1
  N  N53  1  0.254269  0.584174  0.491162  1
  N  N54  1  0.754269  0.915826  0.508838  1
  N  N55  1  0.254269  0.084174  0.008838  1
  O  O56  1  0.968945  0.219846  0.317851  1
  O  O57  1  0.483055  0.528564  0.807756  1
  O  O58  1  0.531055  0.219846  0.182149  1
  O  O59  1  0.929838  0.668269  0.859828  1
  O  O60  1  0.429838  0.331731  0.359828  1
  O  O61  1  0.031055  0.780154  0.682149  1
  O  O62  1  0.570162  0.668269  0.640172  1
  O  O63  1  0.016945  0.028564  0.807756  1
  O  O64  1  0.070162  0.831731  0.359828  1
  O  O65  1  0.429838  0.831731  0.140172  1
  O  O66  1  0.968945  0.719846  0.182149  1
  O  O67  1  0.516945  0.971436  0.307756  1
  O  O68  1  0.031055  0.280154  0.817851  1
  O  O69  1  0.929838  0.168269  0.640172  1
  O  O70  1  0.468945  0.780154  0.817851  1
  O  O71  1  0.570162  0.168269  0.859828  1
  O  O72  1  0.483055  0.028564  0.692244  1
  O  O73  1  0.468945  0.280154  0.682149  1
  O  O74  1  0.983055  0.971436  0.192244  1
  O  O75  1  0.983055  0.471436  0.307756  1
  O  O76  1  0.516945  0.471436  0.192244  1
  O  O77  1  0.070162  0.331731  0.140172  1
  O  O78  1  0.531055  0.719846  0.317851  1
  O  O79  1  0.016945  0.528564  0.692244  1
