# generated using pymatgen
data_LaMgSi2
_symmetry_space_group_name_H-M   'P 1'
_cell_length_a   18.76802522
_cell_length_b   18.76802522
_cell_length_c   18.76802522
_cell_angle_alpha   166.77894594
_cell_angle_beta   166.77894594
_cell_angle_gamma   18.73935144
_symmetry_Int_Tables_number   1
_chemical_formula_structural   LaMgSi2
_chemical_formula_sum   'La4 Mg4 Si8'
_cell_volume   345.76544296
_cell_formula_units_Z   4
loop_
 _symmetry_equiv_pos_site_id
 _symmetry_equiv_pos_as_xyz
  1  'x, y, z'
loop_
 _atom_site_type_symbol
 _atom_site_label
 _atom_site_symmetry_multiplicity
 _atom_site_fract_x
 _atom_site_fract_y
 _atom_site_fract_z
 _atom_site_occupancy
  La  La0  1  0.673034  0.173034  0.500000  1
  La  La1  1  0.923034  0.923034  0.000000  1
  La  La2  1  0.826966  0.326966  0.500000  1
  La  La3  1  0.076966  0.076966  0.000000  1
  Mg  Mg4  1  0.499927  0.999927  0.500000  1
  Mg  Mg5  1  0.000073  0.500073  0.500000  1
  Mg  Mg6  1  0.749927  0.749927  0.000000  1
  Mg  Mg7  1  0.250073  0.250073  0.000000  1
  Si  Si8  1  0.139198  0.639198  0.500000  1
  Si  Si9  1  0.360802  0.860802  0.500000  1
  Si  Si10  1  0.297738  0.797738  0.500000  1
  Si  Si11  1  0.202262  0.702262  0.500000  1
  Si  Si12  1  0.610802  0.610802  0.000000  1
  Si  Si13  1  0.389198  0.389198  0.000000  1
  Si  Si14  1  0.452262  0.452262  0.000000  1
  Si  Si15  1  0.547738  0.547738  0.000000  1
