# generated using pymatgen
data_LaGaSe2O
_symmetry_space_group_name_H-M   'P 1'
_cell_length_a   5.99136817
_cell_length_b   6.01113089
_cell_length_c   12.44816869
_cell_angle_alpha   90.00000000
_cell_angle_beta   90.00000000
_cell_angle_gamma   90.00000000
_symmetry_Int_Tables_number   1
_chemical_formula_structural   LaGaSe2O
_chemical_formula_sum   'La4 Ga4 Se8 O4'
_cell_volume   448.31952914
_cell_formula_units_Z   4
loop_
 _symmetry_equiv_pos_site_id
 _symmetry_equiv_pos_as_xyz
  1  'x, y, z'
loop_
 _atom_site_type_symbol
 _atom_site_label
 _atom_site_symmetry_multiplicity
 _atom_site_fract_x
 _atom_site_fract_y
 _atom_site_fract_z
 _atom_site_occupancy
  La  La0  1  0.756085  0.497258  0.094186  1
  La  La1  1  0.256085  0.002742  0.094186  1
  La  La2  1  0.256085  0.502742  0.905814  1
  La  La3  1  0.756085  0.997258  0.905814  1
  Ga  Ga4  1  0.657828  0.077148  0.397950  1
  Ga  Ga5  1  0.157828  0.922852  0.602050  1
  Ga  Ga6  1  0.657828  0.577148  0.602050  1
  Ga  Ga7  1  0.157828  0.422852  0.397950  1
  Se  Se8  1  0.752927  0.993653  0.219358  1
  Se  Se9  1  0.249896  0.023563  0.414481  1
  Se  Se10  1  0.252927  0.506347  0.219358  1
  Se  Se11  1  0.749896  0.476437  0.414481  1
  Se  Se12  1  0.249896  0.523563  0.585519  1
  Se  Se13  1  0.749896  0.976437  0.585519  1
  Se  Se14  1  0.752927  0.493653  0.780642  1
  Se  Se15  1  0.252927  0.006347  0.780642  1
  O  O16  1  0.002563  0.249640  0.998664  1
  O  O17  1  0.002563  0.749640  0.001336  1
  O  O18  1  0.502563  0.750360  0.001336  1
  O  O19  1  0.502563  0.250360  0.998664  1
