# generated using pymatgen
data_Mn(PO3)3
_symmetry_space_group_name_H-M   'P 1'
_cell_length_a   6.99256041
_cell_length_b   7.20019670
_cell_length_c   7.38677736
_cell_angle_alpha   83.70006704
_cell_angle_beta   85.12238525
_cell_angle_gamma   75.21656479
_symmetry_Int_Tables_number   1
_chemical_formula_structural   Mn(PO3)3
_chemical_formula_sum   'Mn2 P6 O18'
_cell_volume   356.79548633
_cell_formula_units_Z   2
loop_
 _symmetry_equiv_pos_site_id
 _symmetry_equiv_pos_as_xyz
  1  'x, y, z'
loop_
 _atom_site_type_symbol
 _atom_site_label
 _atom_site_symmetry_multiplicity
 _atom_site_fract_x
 _atom_site_fract_y
 _atom_site_fract_z
 _atom_site_occupancy
  Mn  Mn0  1  0.562340  0.150568  0.173795  1
  Mn  Mn1  1  0.437660  0.849432  0.826205  1
  P  P2  1  0.250521  0.562525  0.140818  1
  P  P3  1  0.863647  0.769505  0.303195  1
  P  P4  1  0.454792  0.776078  0.361044  1
  P  P5  1  0.545208  0.223922  0.638956  1
  P  P6  1  0.136353  0.230495  0.696805  1
  P  P7  1  0.749479  0.437475  0.859182  1
  O  O8  1  0.700615  0.328545  0.035245  1
  O  O9  1  0.313198  0.344765  0.145785  1
  O  O10  1  0.018489  0.614820  0.181624  1
  O  O11  1  0.798521  0.947759  0.164752  1
  O  O12  1  0.409329  0.952750  0.221032  1
  O  O13  1  0.340002  0.625154  0.310426  1
  O  O14  1  0.681495  0.661964  0.321918  1
  O  O15  1  0.589843  0.196061  0.442216  1
  O  O16  1  0.063039  0.213730  0.521140  1
  O  O17  1  0.936961  0.786270  0.478860  1
  O  O18  1  0.410157  0.803939  0.557784  1
  O  O19  1  0.318505  0.338036  0.678082  1
  O  O20  1  0.659998  0.374846  0.689574  1
  O  O21  1  0.590671  0.047250  0.778968  1
  O  O22  1  0.201479  0.052241  0.835248  1
  O  O23  1  0.981511  0.385180  0.818376  1
  O  O24  1  0.686802  0.655235  0.854215  1
  O  O25  1  0.299385  0.671455  0.964755  1
