# generated using pymatgen
data_Sb2N5F11
_symmetry_space_group_name_H-M   'P 1'
_cell_length_a   8.54355139
_cell_length_b   8.54355139
_cell_length_c   17.11307915
_cell_angle_alpha   80.51291736
_cell_angle_beta   99.48708264
_cell_angle_gamma   81.83758551
_symmetry_Int_Tables_number   1
_chemical_formula_structural   Sb2N5F11
_chemical_formula_sum   'Sb8 N20 F44'
_cell_volume   1196.67802758
_cell_formula_units_Z   4
loop_
 _symmetry_equiv_pos_site_id
 _symmetry_equiv_pos_as_xyz
  1  'x, y, z'
loop_
 _atom_site_type_symbol
 _atom_site_label
 _atom_site_symmetry_multiplicity
 _atom_site_fract_x
 _atom_site_fract_y
 _atom_site_fract_z
 _atom_site_occupancy
  Sb  Sb0  1  0.705538  0.239698  0.596763  1
  Sb  Sb1  1  0.239698  0.705538  0.903237  1
  Sb  Sb2  1  0.294462  0.760302  0.403237  1
  Sb  Sb3  1  0.760302  0.294462  0.096763  1
  Sb  Sb4  1  0.889002  0.643083  0.620046  1
  Sb  Sb5  1  0.643083  0.889002  0.879954  1
  Sb  Sb6  1  0.110998  0.356917  0.379954  1
  Sb  Sb7  1  0.356917  0.110998  0.120046  1
  N  N8  1  0.162204  0.210594  0.841542  1
  N  N9  1  0.210594  0.162204  0.658458  1
  N  N10  1  0.837796  0.789406  0.158458  1
  N  N11  1  0.789406  0.837796  0.341542  1
  N  N12  1  0.041731  0.253701  0.856544  1
  N  N13  1  0.253701  0.041731  0.643456  1
  N  N14  1  0.958269  0.746299  0.143456  1
  N  N15  1  0.746299  0.958269  0.356544  1
  N  N16  1  0.924863  0.298696  0.890776  1
  N  N17  1  0.298696  0.924863  0.609224  1
  N  N18  1  0.075137  0.701304  0.109224  1
  N  N19  1  0.701304  0.075137  0.390776  1
  N  N20  1  0.786427  0.338534  0.843386  1
  N  N21  1  0.338534  0.786427  0.656614  1
  N  N22  1  0.213573  0.661466  0.156614  1
  N  N23  1  0.661466  0.213573  0.343386  1
  N  N24  1  0.654669  0.378296  0.815511  1
  N  N25  1  0.378296  0.654669  0.684489  1
  N  N26  1  0.345331  0.621704  0.184489  1
  N  N27  1  0.621704  0.345331  0.315511  1
  F  F28  1  0.538916  0.352276  0.638205  1
  F  F29  1  0.352276  0.538916  0.861795  1
  F  F30  1  0.461084  0.647724  0.361795  1
  F  F31  1  0.647724  0.461084  0.138205  1
  F  F32  1  0.839697  0.198078  0.701614  1
  F  F33  1  0.198078  0.839697  0.798386  1
  F  F34  1  0.160303  0.801922  0.298386  1
  F  F35  1  0.801922  0.160303  0.201614  1
  F  F36  1  0.887832  0.156555  0.555627  1
  F  F37  1  0.156555  0.887832  0.944373  1
  F  F38  1  0.112168  0.843445  0.444373  1
  F  F39  1  0.843445  0.112168  0.055627  1
  F  F40  1  0.590691  0.315922  0.488904  1
  F  F41  1  0.315922  0.590691  0.011096  1
  F  F42  1  0.409310  0.684078  0.511096  1
  F  F43  1  0.684078  0.409309  0.988904  1
  F  F44  1  0.623367  0.045516  0.609878  1
  F  F45  1  0.045516  0.623367  0.890122  1
  F  F46  1  0.376633  0.954484  0.390122  1
  F  F47  1  0.954484  0.376633  0.109878  1
  F  F48  1  0.791803  0.456227  0.580017  1
  F  F49  1  0.456227  0.791803  0.919983  1
  F  F50  1  0.208197  0.543773  0.419983  1
  F  F51  1  0.543773  0.208197  0.080017  1
  F  F52  1  0.692397  0.695986  0.655682  1
  F  F53  1  0.695986  0.692397  0.844318  1
  F  F54  1  0.307603  0.304014  0.344318  1
  F  F55  1  0.304014  0.307603  0.155682  1
  F  F56  1  0.966778  0.499126  0.722021  1
  F  F57  1  0.499126  0.966778  0.777979  1
  F  F58  1  0.033222  0.500874  0.277979  1
  F  F59  1  0.500874  0.033222  0.222021  1
  F  F60  1  0.077010  0.556568  0.584898  1
  F  F61  1  0.556568  0.077010  0.915102  1
  F  F62  1  0.922990  0.443432  0.415102  1
  F  F63  1  0.443432  0.922990  0.084898  1
  F  F64  1  0.795926  0.761207  0.514359  1
  F  F65  1  0.761207  0.795926  0.985641  1
  F  F66  1  0.204074  0.238793  0.485641  1
  F  F67  1  0.238793  0.204074  0.014359  1
  F  F68  1  0.984388  0.814095  0.653529  1
  F  F69  1  0.814095  0.984388  0.846471  1
  F  F70  1  0.015612  0.185905  0.346471  1
  F  F71  1  0.185905  0.015612  0.153529  1
