# generated using pymatgen
data_K2FeF5
_symmetry_space_group_name_H-M   'P 1'
_cell_length_a   5.80038404
_cell_length_b   7.49243583
_cell_length_c   23.44111612
_cell_angle_alpha   90.00000000
_cell_angle_beta   90.00000000
_cell_angle_gamma   90.00000000
_symmetry_Int_Tables_number   1
_chemical_formula_structural   K2FeF5
_chemical_formula_sum   'K16 Fe8 F40'
_cell_volume   1018.72758757
_cell_formula_units_Z   8
loop_
 _symmetry_equiv_pos_site_id
 _symmetry_equiv_pos_as_xyz
  1  'x, y, z'
loop_
 _atom_site_type_symbol
 _atom_site_label
 _atom_site_symmetry_multiplicity
 _atom_site_fract_x
 _atom_site_fract_y
 _atom_site_fract_z
 _atom_site_occupancy
  K  K0  1  0.000000  0.633193  0.416753  1
  K  K1  1  0.500000  0.447502  0.167775  1
  K  K2  1  0.000000  0.798202  0.238315  1
  K  K3  1  0.000000  0.201798  0.761685  1
  K  K4  1  0.500000  0.947502  0.332225  1
  K  K5  1  0.500000  0.230158  0.486850  1
  K  K6  1  0.000000  0.701798  0.738315  1
  K  K7  1  0.000000  0.133193  0.083247  1
  K  K8  1  0.500000  0.552498  0.832225  1
  K  K9  1  0.000000  0.298202  0.261685  1
  K  K10  1  0.500000  0.769842  0.513150  1
  K  K11  1  0.000000  0.366807  0.583247  1
  K  K12  1  0.000000  0.866807  0.916753  1
  K  K13  1  0.500000  0.269842  0.986850  1
  K  K14  1  0.500000  0.052498  0.667775  1
  K  K15  1  0.500000  0.730158  0.013150  1
  Fe  Fe16  1  0.500000  0.043137  0.844759  1
  Fe  Fe17  1  0.500000  0.543137  0.655241  1
  Fe  Fe18  1  0.000000  0.380225  0.905898  1
  Fe  Fe19  1  0.500000  0.456863  0.344759  1
  Fe  Fe20  1  0.000000  0.119775  0.405898  1
  Fe  Fe21  1  0.000000  0.619775  0.094102  1
  Fe  Fe22  1  0.500000  0.956863  0.155241  1
  Fe  Fe23  1  0.000000  0.880225  0.594102  1
  F  F24  1  0.748091  0.781424  0.127190  1
  F  F25  1  0.759404  0.035669  0.568048  1
  F  F26  1  0.257775  0.612882  0.320167  1
  F  F27  1  0.240596  0.464331  0.068048  1
  F  F28  1  0.742225  0.612882  0.320167  1
  F  F29  1  0.257775  0.887118  0.820167  1
  F  F30  1  0.500000  0.820757  0.224645  1
  F  F31  1  0.742225  0.887118  0.820167  1
  F  F32  1  0.000000  0.992311  0.669939  1
  F  F33  1  0.251909  0.718576  0.627190  1
  F  F34  1  0.000000  0.007689  0.330061  1
  F  F35  1  0.500000  0.448199  0.577433  1
  F  F36  1  0.257775  0.112882  0.179833  1
  F  F37  1  0.240596  0.964331  0.431952  1
  F  F38  1  0.500000  0.320757  0.275355  1
  F  F39  1  0.000000  0.218445  0.970195  1
  F  F40  1  0.748091  0.281424  0.372810  1
  F  F41  1  0.000000  0.718445  0.529805  1
  F  F42  1  0.257775  0.387118  0.679833  1
  F  F43  1  0.500000  0.179243  0.775355  1
  F  F44  1  0.748091  0.218576  0.872810  1
  F  F45  1  0.000000  0.492311  0.830061  1
  F  F46  1  0.000000  0.507689  0.169939  1
  F  F47  1  0.240596  0.035669  0.568048  1
  F  F48  1  0.251909  0.218576  0.872810  1
  F  F49  1  0.742225  0.112882  0.179833  1
  F  F50  1  0.500000  0.948199  0.922567  1
  F  F51  1  0.748091  0.718576  0.627190  1
  F  F52  1  0.500000  0.551801  0.422567  1
  F  F53  1  0.000000  0.281555  0.470195  1
  F  F54  1  0.500000  0.051801  0.077433  1
  F  F55  1  0.500000  0.679243  0.724645  1
  F  F56  1  0.759404  0.964331  0.431952  1
  F  F57  1  0.251909  0.781424  0.127190  1
  F  F58  1  0.000000  0.781555  0.029805  1
  F  F59  1  0.742225  0.387118  0.679833  1
  F  F60  1  0.759404  0.464331  0.068048  1
  F  F61  1  0.759404  0.535669  0.931952  1
  F  F62  1  0.251909  0.281424  0.372810  1
  F  F63  1  0.240596  0.535669  0.931952  1
