# generated using pymatgen
data_CrI2
_symmetry_space_group_name_H-M   'P 1'
_cell_length_a   4.48004742
_cell_length_b   4.48004742
_cell_length_c   14.65747173
_cell_angle_alpha   90.00000000
_cell_angle_beta   90.00000000
_cell_angle_gamma   127.66800645
_symmetry_Int_Tables_number   1
_chemical_formula_structural   CrI2
_chemical_formula_sum   'Cr2 I4'
_cell_volume   232.86853231
_cell_formula_units_Z   2
loop_
 _symmetry_equiv_pos_site_id
 _symmetry_equiv_pos_as_xyz
  1  'x, y, z'
loop_
 _atom_site_type_symbol
 _atom_site_label
 _atom_site_symmetry_multiplicity
 _atom_site_fract_x
 _atom_site_fract_y
 _atom_site_fract_z
 _atom_site_occupancy
  Cr  Cr0  1  0.295347  0.704653  0.876414  1
  Cr  Cr1  1  0.704653  0.295347  0.376414  1
  I  I2  1  0.708901  0.291099  0.756592  1
  I  I3  1  0.291099  0.708901  0.256592  1
  I  I4  1  0.086805  0.913195  0.487994  1
  I  I5  1  0.913195  0.086805  0.987994  1
