# generated using pymatgen
data_LiFeMoClO4
_symmetry_space_group_name_H-M   'P 1'
_cell_length_a   5.11029025
_cell_length_b   7.00973094
_cell_length_c   7.18900622
_cell_angle_alpha   90.00000000
_cell_angle_beta   91.43218962
_cell_angle_gamma   90.00000000
_symmetry_Int_Tables_number   1
_chemical_formula_structural   LiFeMoClO4
_chemical_formula_sum   'Li2 Fe2 Mo2 Cl2 O8'
_cell_volume   257.44240464
_cell_formula_units_Z   2
loop_
 _symmetry_equiv_pos_site_id
 _symmetry_equiv_pos_as_xyz
  1  'x, y, z'
loop_
 _atom_site_type_symbol
 _atom_site_label
 _atom_site_symmetry_multiplicity
 _atom_site_fract_x
 _atom_site_fract_y
 _atom_site_fract_z
 _atom_site_occupancy
  Li  Li0  1  0.000000  0.500000  0.000000  1
  Li  Li1  1  0.000000  0.000000  0.000000  1
  Fe  Fe2  1  0.317251  0.750000  0.250858  1
  Fe  Fe3  1  0.682749  0.250000  0.749142  1
  Mo  Mo4  1  0.499427  0.250000  0.238141  1
  Mo  Mo5  1  0.500573  0.750000  0.761859  1
  Cl  Cl6  1  0.188493  0.250000  0.774884  1
  Cl  Cl7  1  0.811507  0.750000  0.225116  1
  O  O8  1  0.345515  0.750000  0.539710  1
  O  O9  1  0.249392  0.750000  0.935714  1
  O  O10  1  0.654485  0.250000  0.460290  1
  O  O11  1  0.704442  0.540315  0.789963  1
  O  O12  1  0.704442  0.959685  0.789963  1
  O  O13  1  0.750608  0.250000  0.064286  1
  O  O14  1  0.295558  0.459685  0.210037  1
  O  O15  1  0.295558  0.040315  0.210037  1
