# generated using pymatgen
data_Na2Cu2TeO6
_symmetry_space_group_name_H-M   'P 1'
_cell_length_a   5.27209873
_cell_length_b   5.27209873
_cell_length_c   6.04133825
_cell_angle_alpha   76.44746139
_cell_angle_beta   103.55253861
_cell_angle_gamma   67.56844909
_symmetry_Int_Tables_number   1
_chemical_formula_structural   Na2Cu2TeO6
_chemical_formula_sum   'Na2 Cu2 Te1 O6'
_cell_volume   140.75808150
_cell_formula_units_Z   1
loop_
 _symmetry_equiv_pos_site_id
 _symmetry_equiv_pos_as_xyz
  1  'x, y, z'
loop_
 _atom_site_type_symbol
 _atom_site_label
 _atom_site_symmetry_multiplicity
 _atom_site_fract_x
 _atom_site_fract_y
 _atom_site_fract_z
 _atom_site_occupancy
  Na  Na0  1  0.815667  0.815667  0.500000  1
  Na  Na1  1  0.184333  0.184333  0.500000  1
  Cu  Cu2  1  0.334948  0.334948  0.000000  1
  Cu  Cu3  1  0.665052  0.665052  0.000000  1
  Te  Te4  1  0.000000  0.000000  0.000000  1
  O  O5  1  0.243238  0.756762  0.840623  1
  O  O6  1  0.646950  0.024669  0.783749  1
  O  O7  1  0.756762  0.243238  0.159377  1
  O  O8  1  0.975331  0.353050  0.783749  1
  O  O9  1  0.353050  0.975331  0.216251  1
  O  O10  1  0.024669  0.646950  0.216251  1
