# generated using pymatgen
data_Sb2WO6
_symmetry_space_group_name_H-M   'P 1'
_cell_length_a   5.62345025
_cell_length_b   5.06106138
_cell_length_c   9.37754220
_cell_angle_alpha   90.00000000
_cell_angle_beta   95.70104719
_cell_angle_gamma   90.00000000
_symmetry_Int_Tables_number   1
_chemical_formula_structural   Sb2WO6
_chemical_formula_sum   'Sb4 W2 O12'
_cell_volume   265.57062213
_cell_formula_units_Z   2
loop_
 _symmetry_equiv_pos_site_id
 _symmetry_equiv_pos_as_xyz
  1  'x, y, z'
loop_
 _atom_site_type_symbol
 _atom_site_label
 _atom_site_symmetry_multiplicity
 _atom_site_fract_x
 _atom_site_fract_y
 _atom_site_fract_z
 _atom_site_occupancy
  Sb  Sb0  1  0.388768  0.445551  0.833667  1
  Sb  Sb1  1  0.887669  0.055285  0.833903  1
  Sb  Sb2  1  0.611232  0.945551  0.166333  1
  Sb  Sb3  1  0.112331  0.555285  0.166097  1
  W  W4  1  0.247686  0.021006  0.496088  1
  W  W5  1  0.752314  0.521006  0.503912  1
  O  O6  1  0.528775  0.777860  0.554683  1
  O  O7  1  0.027370  0.735471  0.555667  1
  O  O8  1  0.972630  0.235471  0.444333  1
  O  O9  1  0.471225  0.277860  0.445317  1
  O  O10  1  0.235663  0.860562  0.309375  1
  O  O11  1  0.265325  0.139477  0.691565  1
  O  O12  1  0.734675  0.639477  0.308435  1
  O  O13  1  0.764337  0.360562  0.690625  1
  O  O14  1  0.610651  0.185534  0.941262  1
  O  O15  1  0.108980  0.318165  0.939036  1
  O  O16  1  0.389349  0.685534  0.058738  1
  O  O17  1  0.891020  0.818165  0.060964  1
