# generated using pymatgen
data_Cs2Na2B10O17
_symmetry_space_group_name_H-M   'P 1'
_cell_length_a   11.53294561
_cell_length_b   11.53294561
_cell_length_c   11.20283765
_cell_angle_alpha   76.02277808
_cell_angle_beta   103.97722192
_cell_angle_gamma   146.56583869
_symmetry_Int_Tables_number   1
_chemical_formula_structural   Cs2Na2B10O17
_chemical_formula_sum   'Cs4 Na4 B20 O34'
_cell_volume   794.46232242
_cell_formula_units_Z   2
loop_
 _symmetry_equiv_pos_site_id
 _symmetry_equiv_pos_as_xyz
  1  'x, y, z'
loop_
 _atom_site_type_symbol
 _atom_site_label
 _atom_site_symmetry_multiplicity
 _atom_site_fract_x
 _atom_site_fract_y
 _atom_site_fract_z
 _atom_site_occupancy
  Cs  Cs0  1  0.245126  0.365839  0.403412  1
  Cs  Cs1  1  0.365839  0.245126  0.096588  1
  Cs  Cs2  1  0.754874  0.634161  0.596588  1
  Cs  Cs3  1  0.634161  0.754874  0.903412  1
  Na  Na4  1  0.311945  0.779377  0.816093  1
  Na  Na5  1  0.220623  0.688055  0.316093  1
  Na  Na6  1  0.688055  0.220623  0.183907  1
  Na  Na7  1  0.779377  0.311945  0.683907  1
  B  B8  1  0.252371  0.141392  0.737769  1
  B  B9  1  0.747629  0.858608  0.262231  1
  B  B10  1  0.205921  0.515498  0.650818  1
  B  B11  1  0.515498  0.205921  0.849182  1
  B  B12  1  0.858608  0.747629  0.237769  1
  B  B13  1  0.750184  0.109419  0.996828  1
  B  B14  1  0.966054  0.675751  0.141059  1
  B  B15  1  0.484502  0.794079  0.150818  1
  B  B16  1  0.109419  0.750184  0.503172  1
  B  B17  1  0.794079  0.484502  0.349182  1
  B  B18  1  0.675751  0.966054  0.358941  1
  B  B19  1  0.114468  0.445753  0.062557  1
  B  B20  1  0.324249  0.033946  0.641059  1
  B  B21  1  0.554247  0.885532  0.562557  1
  B  B22  1  0.033946  0.324249  0.858941  1
  B  B23  1  0.141392  0.252371  0.762231  1
  B  B24  1  0.890581  0.249816  0.496828  1
  B  B25  1  0.445753  0.114468  0.437443  1
  B  B26  1  0.249816  0.890581  0.003172  1
  B  B27  1  0.885532  0.554247  0.937443  1
  O  O28  1  0.843612  0.190219  0.382038  1
  O  O29  1  0.549310  0.909995  0.025758  1
  O  O30  1  0.109147  0.109147  0.750000  1
  O  O31  1  0.055615  0.213054  0.857938  1
  O  O32  1  0.746517  0.577246  0.321916  1
  O  O33  1  0.577246  0.746517  0.178084  1
  O  O34  1  0.090005  0.450690  0.525758  1
  O  O35  1  0.086517  0.447689  0.744484  1
  O  O36  1  0.890853  0.890853  0.250000  1
  O  O37  1  0.897832  0.264459  0.082572  1
  O  O38  1  0.156388  0.809781  0.617962  1
  O  O39  1  0.590956  0.249812  0.351126  1
  O  O40  1  0.913483  0.552311  0.255516  1
  O  O41  1  0.102168  0.735541  0.917428  1
  O  O42  1  0.786946  0.944385  0.357938  1
  O  O43  1  0.944385  0.786946  0.142062  1
  O  O44  1  0.190219  0.843612  0.117962  1
  O  O45  1  0.179925  0.467828  0.961621  1
  O  O46  1  0.213054  0.055615  0.642062  1
  O  O47  1  0.532172  0.820075  0.461621  1
  O  O48  1  0.422754  0.253483  0.821916  1
  O  O49  1  0.750188  0.409044  0.851126  1
  O  O50  1  0.249812  0.590956  0.148874  1
  O  O51  1  0.552311  0.913483  0.244484  1
  O  O52  1  0.264459  0.897832  0.417428  1
  O  O53  1  0.409044  0.750188  0.648874  1
  O  O54  1  0.809781  0.156388  0.882038  1
  O  O55  1  0.820075  0.532172  0.038379  1
  O  O56  1  0.735541  0.102168  0.582572  1
  O  O57  1  0.450690  0.090005  0.974242  1
  O  O58  1  0.253483  0.422754  0.678084  1
  O  O59  1  0.909995  0.549310  0.474242  1
  O  O60  1  0.467828  0.179925  0.538379  1
  O  O61  1  0.447689  0.086517  0.755516  1
