# generated using pymatgen
data_TaCo2
_symmetry_space_group_name_H-M   'P 1'
_cell_length_a   4.76078279
_cell_length_b   4.76078279
_cell_length_c   7.76343083
_cell_angle_alpha   90.00000000
_cell_angle_beta   90.00000000
_cell_angle_gamma   120.00000000
_symmetry_Int_Tables_number   1
_chemical_formula_structural   TaCo2
_chemical_formula_sum   'Ta4 Co8'
_cell_volume   152.38459112
_cell_formula_units_Z   4
loop_
 _symmetry_equiv_pos_site_id
 _symmetry_equiv_pos_as_xyz
  1  'x, y, z'
loop_
 _atom_site_type_symbol
 _atom_site_label
 _atom_site_symmetry_multiplicity
 _atom_site_fract_x
 _atom_site_fract_y
 _atom_site_fract_z
 _atom_site_occupancy
  Ta  Ta0  1  0.333333  0.666667  0.065911  1
  Ta  Ta1  1  0.666667  0.333333  0.934089  1
  Ta  Ta2  1  0.333333  0.666667  0.434089  1
  Ta  Ta3  1  0.666667  0.333333  0.565911  1
  Co  Co4  1  0.832253  0.167747  0.250000  1
  Co  Co5  1  0.335493  0.167747  0.250000  1
  Co  Co6  1  0.167747  0.832253  0.750000  1
  Co  Co7  1  0.167747  0.335493  0.750000  1
  Co  Co8  1  0.832253  0.664507  0.250000  1
  Co  Co9  1  0.000000  0.000000  0.000000  1
  Co  Co10  1  0.664507  0.832253  0.750000  1
  Co  Co11  1  0.000000  0.000000  0.500000  1
