# generated using pymatgen
data_ZrCuF6
_symmetry_space_group_name_H-M   'P 1'
_cell_length_a   5.58582588
_cell_length_b   5.59100161
_cell_length_c   5.67918750
_cell_angle_alpha   119.25147695
_cell_angle_beta   118.15779604
_cell_angle_gamma   90.52383426
_symmetry_Int_Tables_number   1
_chemical_formula_structural   ZrCuF6
_chemical_formula_sum   'Zr1 Cu1 F6'
_cell_volume   129.63728740
_cell_formula_units_Z   1
loop_
 _symmetry_equiv_pos_site_id
 _symmetry_equiv_pos_as_xyz
  1  'x, y, z'
loop_
 _atom_site_type_symbol
 _atom_site_label
 _atom_site_symmetry_multiplicity
 _atom_site_fract_x
 _atom_site_fract_y
 _atom_site_fract_z
 _atom_site_occupancy
  Zr  Zr0  1  0.500000  0.500000  0.000000  1
  Cu  Cu1  1  0.000000  0.000000  0.000000  1
  F  F2  1  0.787446  0.287821  0.987995  1
  F  F3  1  0.294628  0.784502  0.519714  1
  F  F4  1  0.212554  0.712179  0.012005  1
  F  F5  1  0.705372  0.215498  0.480286  1
  F  F6  1  0.757934  0.751789  0.078163  1
  F  F7  1  0.242066  0.248211  0.921837  1
