# generated using pymatgen
data_Er3SiSe2O10F
_symmetry_space_group_name_H-M   'P 1'
_cell_length_a   5.91161007
_cell_length_b   10.35854490
_cell_length_c   15.45002281
_cell_angle_alpha   90.00000000
_cell_angle_beta   90.00000000
_cell_angle_gamma   90.00000000
_symmetry_Int_Tables_number   1
_chemical_formula_structural   Er3SiSe2O10F
_chemical_formula_sum   'Er12 Si4 Se8 O40 F4'
_cell_volume   946.09262716
_cell_formula_units_Z   4
loop_
 _symmetry_equiv_pos_site_id
 _symmetry_equiv_pos_as_xyz
  1  'x, y, z'
loop_
 _atom_site_type_symbol
 _atom_site_label
 _atom_site_symmetry_multiplicity
 _atom_site_fract_x
 _atom_site_fract_y
 _atom_site_fract_z
 _atom_site_occupancy
  Er  Er0  1  0.929766  0.886907  0.652150  1
  Er  Er1  1  0.070234  0.113093  0.347850  1
  Er  Er2  1  0.250000  0.372393  0.500000  1
  Er  Er3  1  0.750000  0.627607  0.500000  1
  Er  Er4  1  0.429766  0.113093  0.652150  1
  Er  Er5  1  0.429766  0.386907  0.847850  1
  Er  Er6  1  0.570234  0.613093  0.152150  1
  Er  Er7  1  0.750000  0.872393  0.000000  1
  Er  Er8  1  0.929766  0.613093  0.847850  1
  Er  Er9  1  0.070234  0.386907  0.152150  1
  Er  Er10  1  0.570234  0.886907  0.347850  1
  Er  Er11  1  0.250000  0.127607  0.000000  1
  Si  Si12  1  0.750000  0.358125  0.000000  1
  Si  Si13  1  0.250000  0.858125  0.500000  1
  Si  Si14  1  0.750000  0.141875  0.500000  1
  Si  Si15  1  0.250000  0.641875  0.000000  1
  Se  Se16  1  0.030069  0.883929  0.174941  1
  Se  Se17  1  0.969931  0.116071  0.825059  1
  Se  Se18  1  0.969931  0.383929  0.674941  1
  Se  Se19  1  0.530069  0.116071  0.174941  1
  Se  Se20  1  0.530069  0.383929  0.325059  1
  Se  Se21  1  0.469931  0.616071  0.674941  1
  Se  Se22  1  0.030069  0.616071  0.325059  1
  Se  Se23  1  0.469931  0.883929  0.825059  1
  O  O24  1  0.481154  0.985178  0.914201  1
  O  O25  1  0.981154  0.014822  0.914201  1
  O  O26  1  0.232158  0.552813  0.088680  1
  O  O27  1  0.022345  0.775220  0.526976  1
  O  O28  1  0.380194  0.032869  0.255061  1
  O  O29  1  0.732158  0.447187  0.088680  1
  O  O30  1  0.018846  0.985178  0.085799  1
  O  O31  1  0.732158  0.052813  0.411320  1
  O  O32  1  0.477655  0.724780  0.026976  1
  O  O33  1  0.977655  0.224780  0.473024  1
  O  O34  1  0.477655  0.775220  0.473024  1
  O  O35  1  0.880194  0.967131  0.255061  1
  O  O36  1  0.518846  0.014822  0.085799  1
  O  O37  1  0.817125  0.782377  0.138656  1
  O  O38  1  0.981154  0.485178  0.585799  1
  O  O39  1  0.182875  0.217623  0.861344  1
  O  O40  1  0.880194  0.532869  0.244939  1
  O  O41  1  0.767842  0.052813  0.588680  1
  O  O42  1  0.232158  0.947187  0.411320  1
  O  O43  1  0.119806  0.467131  0.755061  1
  O  O44  1  0.380194  0.467131  0.244939  1
  O  O45  1  0.522345  0.224780  0.526976  1
  O  O46  1  0.317125  0.282377  0.361344  1
  O  O47  1  0.767842  0.447187  0.911320  1
  O  O48  1  0.267842  0.552813  0.911320  1
  O  O49  1  0.317125  0.217623  0.138656  1
  O  O50  1  0.522345  0.275220  0.973024  1
  O  O51  1  0.182875  0.282377  0.638656  1
  O  O52  1  0.481154  0.514822  0.585799  1
  O  O53  1  0.022345  0.724780  0.973024  1
  O  O54  1  0.817125  0.717623  0.361344  1
  O  O55  1  0.619806  0.532869  0.755061  1
  O  O56  1  0.682875  0.782377  0.861344  1
  O  O57  1  0.518846  0.485178  0.414201  1
  O  O58  1  0.267842  0.947187  0.588680  1
  O  O59  1  0.119806  0.032869  0.744939  1
  O  O60  1  0.682875  0.717623  0.638656  1
  O  O61  1  0.018846  0.514822  0.414201  1
  O  O62  1  0.977655  0.275220  0.026976  1
  O  O63  1  0.619806  0.967131  0.744939  1
  F  F64  1  0.439693  0.750000  0.250000  1
  F  F65  1  0.939693  0.250000  0.250000  1
  F  F66  1  0.560307  0.250000  0.750000  1
  F  F67  1  0.060307  0.750000  0.750000  1
