# generated using pymatgen
data_LiBeH3
_symmetry_space_group_name_H-M   'P 1'
_cell_length_a   6.05422491
_cell_length_b   6.16580078
_cell_length_c   13.21218812
_cell_angle_alpha   90.00000000
_cell_angle_beta   97.66504481
_cell_angle_gamma   90.00000000
_symmetry_Int_Tables_number   1
_chemical_formula_structural   LiBeH3
_chemical_formula_sum   'Li12 Be12 H36'
_cell_volume   488.79282295
_cell_formula_units_Z   12
loop_
 _symmetry_equiv_pos_site_id
 _symmetry_equiv_pos_as_xyz
  1  'x, y, z'
loop_
 _atom_site_type_symbol
 _atom_site_label
 _atom_site_symmetry_multiplicity
 _atom_site_fract_x
 _atom_site_fract_y
 _atom_site_fract_z
 _atom_site_occupancy
  Li  Li0  1  0.239264  0.117779  0.593156  1
  Li  Li1  1  0.010488  0.619010  0.252274  1
  Li  Li2  1  0.010488  0.880990  0.752274  1
  Li  Li3  1  0.747222  0.127597  0.899030  1
  Li  Li4  1  0.252778  0.872403  0.100970  1
  Li  Li5  1  0.989512  0.119010  0.247726  1
  Li  Li6  1  0.989512  0.380990  0.747726  1
  Li  Li7  1  0.747222  0.372403  0.399030  1
  Li  Li8  1  0.760736  0.882221  0.406844  1
  Li  Li9  1  0.252778  0.627597  0.600970  1
  Li  Li10  1  0.239264  0.382221  0.093156  1
  Li  Li11  1  0.760736  0.617779  0.906844  1
  Be  Be12  1  0.228483  0.406732  0.412261  1
  Be  Be13  1  0.775827  0.165697  0.591756  1
  Be  Be14  1  0.224173  0.834303  0.408244  1
  Be  Be15  1  0.771517  0.906732  0.087739  1
  Be  Be16  1  0.775827  0.334303  0.091756  1
  Be  Be17  1  0.771517  0.593268  0.587739  1
  Be  Be18  1  0.224173  0.665697  0.908244  1
  Be  Be19  1  0.565680  0.617648  0.186220  1
  Be  Be20  1  0.565680  0.882352  0.686220  1
  Be  Be21  1  0.228483  0.093268  0.912261  1
  Be  Be22  1  0.434320  0.382352  0.813780  1
  Be  Be23  1  0.434320  0.117648  0.313780  1
  H  H24  1  0.292501  0.116998  0.218802  1
  H  H25  1  0.292371  0.880082  0.884059  1
  H  H26  1  0.422498  0.304434  0.380134  1
  H  H27  1  0.027204  0.355792  0.348454  1
  H  H28  1  0.668409  0.381309  0.805977  1
  H  H29  1  0.026033  0.620313  0.841279  1
  H  H30  1  0.972796  0.644208  0.651546  1
  H  H31  1  0.802698  0.368853  0.989843  1
  H  H32  1  0.331591  0.618691  0.194023  1
  H  H33  1  0.973967  0.379687  0.158721  1
  H  H34  1  0.225253  0.376558  0.517890  1
  H  H35  1  0.577502  0.695566  0.619866  1
  H  H36  1  0.774747  0.876558  0.982110  1
  H  H37  1  0.577502  0.804434  0.119866  1
  H  H38  1  0.292371  0.619918  0.384059  1
  H  H39  1  0.424333  0.564368  0.882483  1
  H  H40  1  0.707499  0.616998  0.281198  1
  H  H41  1  0.575667  0.435632  0.117517  1
  H  H42  1  0.027204  0.144208  0.848454  1
  H  H43  1  0.197302  0.868853  0.510157  1
  H  H44  1  0.707629  0.380082  0.615941  1
  H  H45  1  0.225253  0.123442  0.017890  1
  H  H46  1  0.668409  0.118691  0.305977  1
  H  H47  1  0.707499  0.883002  0.781198  1
  H  H48  1  0.424333  0.935632  0.382483  1
  H  H49  1  0.973967  0.120313  0.658721  1
  H  H50  1  0.331591  0.881309  0.694023  1
  H  H51  1  0.802698  0.131147  0.489843  1
  H  H52  1  0.972796  0.855792  0.151546  1
  H  H53  1  0.292501  0.383002  0.718802  1
  H  H54  1  0.422498  0.195566  0.880134  1
  H  H55  1  0.707629  0.119918  0.115941  1
  H  H56  1  0.197302  0.631147  0.010157  1
  H  H57  1  0.575667  0.064368  0.617517  1
  H  H58  1  0.774747  0.623442  0.482110  1
  H  H59  1  0.026033  0.879687  0.341279  1
