# generated using pymatgen
data_YbBr2
_symmetry_space_group_name_H-M   'P 1'
_cell_length_a   6.67976752
_cell_length_b   7.27461530
_cell_length_c   8.13198709
_cell_angle_alpha   90.00000000
_cell_angle_beta   90.00000000
_cell_angle_gamma   90.00000000
_symmetry_Int_Tables_number   1
_chemical_formula_structural   YbBr2
_chemical_formula_sum   'Yb4 Br8'
_cell_volume   395.15552623
_cell_formula_units_Z   4
loop_
 _symmetry_equiv_pos_site_id
 _symmetry_equiv_pos_as_xyz
  1  'x, y, z'
loop_
 _atom_site_type_symbol
 _atom_site_label
 _atom_site_symmetry_multiplicity
 _atom_site_fract_x
 _atom_site_fract_y
 _atom_site_fract_z
 _atom_site_occupancy
  Yb  Yb0  1  0.000000  0.250000  0.151252  1
  Yb  Yb1  1  0.500000  0.750000  0.348748  1
  Yb  Yb2  1  0.000000  0.750000  0.848748  1
  Yb  Yb3  1  0.500000  0.250000  0.651252  1
  Br  Br4  1  0.738374  0.420999  0.391691  1
  Br  Br5  1  0.761626  0.920999  0.108309  1
  Br  Br6  1  0.238374  0.579001  0.108309  1
  Br  Br7  1  0.261626  0.079001  0.391691  1
  Br  Br8  1  0.261626  0.579001  0.608309  1
  Br  Br9  1  0.238374  0.079001  0.891691  1
  Br  Br10  1  0.761626  0.420999  0.891691  1
  Br  Br11  1  0.738374  0.920999  0.608309  1
