# generated using pymatgen
data_Si2Ru
_symmetry_space_group_name_H-M   'P 1'
_cell_length_a   6.52010821
_cell_length_b   6.52010821
_cell_length_c   8.23268375
_cell_angle_alpha   90.00000000
_cell_angle_beta   90.00000000
_cell_angle_gamma   102.86205532
_symmetry_Int_Tables_number   1
_chemical_formula_structural   Si2Ru
_chemical_formula_sum   'Si16 Ru8'
_cell_volume   341.20473077
_cell_formula_units_Z   8
loop_
 _symmetry_equiv_pos_site_id
 _symmetry_equiv_pos_as_xyz
  1  'x, y, z'
loop_
 _atom_site_type_symbol
 _atom_site_label
 _atom_site_symmetry_multiplicity
 _atom_site_fract_x
 _atom_site_fract_y
 _atom_site_fract_z
 _atom_site_occupancy
  Si  Si0  1  0.350444  0.095159  0.555788  1
  Si  Si1  1  0.850444  0.595159  0.944212  1
  Si  Si2  1  0.904841  0.649556  0.444212  1
  Si  Si3  1  0.924089  0.177677  0.275305  1
  Si  Si4  1  0.677677  0.424089  0.224695  1
  Si  Si5  1  0.424089  0.677677  0.224695  1
  Si  Si6  1  0.095159  0.350444  0.555788  1
  Si  Si7  1  0.075911  0.822323  0.724695  1
  Si  Si8  1  0.177677  0.924089  0.275305  1
  Si  Si9  1  0.822323  0.075911  0.724695  1
  Si  Si10  1  0.149556  0.404841  0.055788  1
  Si  Si11  1  0.322323  0.575911  0.775305  1
  Si  Si12  1  0.575911  0.322323  0.775305  1
  Si  Si13  1  0.404841  0.149556  0.055788  1
  Si  Si14  1  0.595159  0.850444  0.944212  1
  Si  Si15  1  0.649556  0.904841  0.444212  1
  Ru  Ru16  1  0.714752  0.285248  0.500000  1
  Ru  Ru17  1  0.785248  0.214752  0.000000  1
  Ru  Ru18  1  0.311514  0.311514  0.317082  1
  Ru  Ru19  1  0.285248  0.714752  0.500000  1
  Ru  Ru20  1  0.811514  0.811514  0.182918  1
  Ru  Ru21  1  0.688486  0.688486  0.682918  1
  Ru  Ru22  1  0.214752  0.785248  0.000000  1
  Ru  Ru23  1  0.188486  0.188486  0.817082  1
