# generated using pymatgen
data_BaLa2Te5O14
_symmetry_space_group_name_H-M   'P 1'
_cell_length_a   10.18076803
_cell_length_b   10.18076803
_cell_length_c   13.42786060
_cell_angle_alpha   73.05347002
_cell_angle_beta   106.94652998
_cell_angle_gamma   145.15306045
_symmetry_Int_Tables_number   1
_chemical_formula_structural   BaLa2Te5O14
_chemical_formula_sum   'Ba2 La4 Te10 O28'
_cell_volume   757.22114691
_cell_formula_units_Z   2
loop_
 _symmetry_equiv_pos_site_id
 _symmetry_equiv_pos_as_xyz
  1  'x, y, z'
loop_
 _atom_site_type_symbol
 _atom_site_label
 _atom_site_symmetry_multiplicity
 _atom_site_fract_x
 _atom_site_fract_y
 _atom_site_fract_z
 _atom_site_occupancy
  Ba  Ba0  1  0.500000  0.000000  0.000000  1
  Ba  Ba1  1  0.000000  0.500000  0.500000  1
  La  La2  1  0.896387  0.548066  0.168329  1
  La  La3  1  0.103613  0.451934  0.831671  1
  La  La4  1  0.548066  0.896387  0.331671  1
  La  La5  1  0.451934  0.103613  0.668329  1
  Te  Te6  1  0.699166  0.807288  0.970486  1
  Te  Te7  1  0.889871  0.603140  0.839423  1
  Te  Te8  1  0.603140  0.889871  0.660577  1
  Te  Te9  1  0.300834  0.192712  0.029514  1
  Te  Te10  1  0.807288  0.699166  0.529514  1
  Te  Te11  1  0.192712  0.300834  0.470486  1
  Te  Te12  1  0.788373  0.788373  0.250000  1
  Te  Te13  1  0.211627  0.211627  0.750000  1
  Te  Te14  1  0.396860  0.110129  0.339423  1
  Te  Te15  1  0.110129  0.396860  0.160577  1
  O  O16  1  0.973318  0.103194  0.911681  1
  O  O17  1  0.531737  0.651887  0.293261  1
  O  O18  1  0.216969  0.811999  0.319541  1
  O  O19  1  0.468263  0.348113  0.706739  1
  O  O20  1  0.317869  0.743246  0.671382  1
  O  O21  1  0.348113  0.468263  0.793261  1
  O  O22  1  0.127151  0.291626  0.595526  1
  O  O23  1  0.511657  0.808073  0.892303  1
  O  O24  1  0.708374  0.872849  0.095526  1
  O  O25  1  0.783031  0.188001  0.680459  1
  O  O26  1  0.808073  0.511657  0.607697  1
  O  O27  1  0.427424  0.090776  0.486215  1
  O  O28  1  0.682131  0.256754  0.328618  1
  O  O29  1  0.811999  0.216969  0.180459  1
  O  O30  1  0.291626  0.127151  0.904474  1
  O  O31  1  0.188001  0.783031  0.819541  1
  O  O32  1  0.026682  0.896806  0.088319  1
  O  O33  1  0.872849  0.708374  0.404474  1
  O  O34  1  0.256754  0.682131  0.171382  1
  O  O35  1  0.896806  0.026682  0.411681  1
  O  O36  1  0.103194  0.973318  0.588319  1
  O  O37  1  0.651887  0.531737  0.206739  1
  O  O38  1  0.572576  0.909224  0.513785  1
  O  O39  1  0.743246  0.317869  0.828618  1
  O  O40  1  0.191927  0.488343  0.392303  1
  O  O41  1  0.488343  0.191927  0.107697  1
  O  O42  1  0.909224  0.572576  0.986215  1
  O  O43  1  0.090776  0.427424  0.013785  1
