# generated using pymatgen
data_Na(RhO2)2
_symmetry_space_group_name_H-M   'P 1'
_cell_length_a   3.10115449
_cell_length_b   9.10194259
_cell_length_c   10.90233257
_cell_angle_alpha   90.00000000
_cell_angle_beta   90.00000000
_cell_angle_gamma   90.00000000
_symmetry_Int_Tables_number   1
_chemical_formula_structural   Na(RhO2)2
_chemical_formula_sum   'Na4 Rh8 O16'
_cell_volume   307.73501878
_cell_formula_units_Z   4
loop_
 _symmetry_equiv_pos_site_id
 _symmetry_equiv_pos_as_xyz
  1  'x, y, z'
loop_
 _atom_site_type_symbol
 _atom_site_label
 _atom_site_symmetry_multiplicity
 _atom_site_fract_x
 _atom_site_fract_y
 _atom_site_fract_z
 _atom_site_occupancy
  Na  Na0  1  0.750000  0.237320  0.657282  1
  Na  Na1  1  0.250000  0.762680  0.342718  1
  Na  Na2  1  0.750000  0.737320  0.842718  1
  Na  Na3  1  0.250000  0.262680  0.157282  1
  Rh  Rh4  1  0.750000  0.586462  0.102958  1
  Rh  Rh5  1  0.250000  0.413538  0.897042  1
  Rh  Rh6  1  0.750000  0.086462  0.397042  1
  Rh  Rh7  1  0.250000  0.913538  0.602958  1
  Rh  Rh8  1  0.750000  0.557385  0.616084  1
  Rh  Rh9  1  0.250000  0.442615  0.383916  1
  Rh  Rh10  1  0.750000  0.057385  0.883916  1
  Rh  Rh11  1  0.250000  0.942615  0.116084  1
  O  O12  1  0.750000  0.803006  0.159565  1
  O  O13  1  0.250000  0.196994  0.840435  1
  O  O14  1  0.750000  0.303006  0.340435  1
  O  O15  1  0.250000  0.696994  0.659565  1
  O  O16  1  0.750000  0.884021  0.479803  1
  O  O17  1  0.250000  0.115979  0.520197  1
  O  O18  1  0.750000  0.384021  0.020197  1
  O  O19  1  0.250000  0.615979  0.979803  1
  O  O20  1  0.750000  0.467280  0.787210  1
  O  O21  1  0.250000  0.532720  0.212790  1
  O  O22  1  0.750000  0.967280  0.712790  1
  O  O23  1  0.250000  0.032720  0.287210  1
  O  O24  1  0.750000  0.581769  0.430101  1
  O  O25  1  0.250000  0.418231  0.569899  1
  O  O26  1  0.750000  0.081769  0.069899  1
  O  O27  1  0.250000  0.918231  0.930101  1
