# generated using pymatgen
data_CsReOF6
_symmetry_space_group_name_H-M   'P 1'
_cell_length_a   8.21828274
_cell_length_b   7.27523534
_cell_length_c   10.98976201
_cell_angle_alpha   90.00000000
_cell_angle_beta   92.65120985
_cell_angle_gamma   90.00000000
_symmetry_Int_Tables_number   1
_chemical_formula_structural   CsReOF6
_chemical_formula_sum   'Cs4 Re4 O4 F24'
_cell_volume   656.37390413
_cell_formula_units_Z   4
loop_
 _symmetry_equiv_pos_site_id
 _symmetry_equiv_pos_as_xyz
  1  'x, y, z'
loop_
 _atom_site_type_symbol
 _atom_site_label
 _atom_site_symmetry_multiplicity
 _atom_site_fract_x
 _atom_site_fract_y
 _atom_site_fract_z
 _atom_site_occupancy
  Cs  Cs0  1  0.219697  0.258713  0.999544  1
  Cs  Cs1  1  0.780303  0.741287  0.000456  1
  Cs  Cs2  1  0.780303  0.758713  0.500456  1
  Cs  Cs3  1  0.219697  0.241287  0.499544  1
  Re  Re4  1  0.716638  0.220176  0.737058  1
  Re  Re5  1  0.716638  0.279824  0.237058  1
  Re  Re6  1  0.283362  0.779824  0.262942  1
  Re  Re7  1  0.283362  0.720176  0.762942  1
  O  O8  1  0.578683  0.239998  0.847907  1
  O  O9  1  0.421317  0.760002  0.152093  1
  O  O10  1  0.578683  0.260002  0.347907  1
  O  O11  1  0.421317  0.739998  0.652093  1
  F  F12  1  0.730447  0.953112  0.753517  1
  F  F13  1  0.269553  0.453112  0.746483  1
  F  F14  1  0.827659  0.446987  0.779268  1
  F  F15  1  0.103924  0.661919  0.649204  1
  F  F16  1  0.730447  0.546888  0.253517  1
  F  F17  1  0.896076  0.161919  0.850796  1
  F  F18  1  0.896076  0.338081  0.350796  1
  F  F19  1  0.377210  0.913406  0.864786  1
  F  F20  1  0.872522  0.186715  0.609221  1
  F  F21  1  0.269553  0.046888  0.246483  1
  F  F22  1  0.440141  0.890089  0.378464  1
  F  F23  1  0.622790  0.413406  0.635214  1
  F  F24  1  0.172341  0.553013  0.220732  1
  F  F25  1  0.103924  0.838081  0.149204  1
  F  F26  1  0.377210  0.586594  0.364786  1
  F  F27  1  0.559859  0.109911  0.621536  1
  F  F28  1  0.127478  0.686715  0.890779  1
  F  F29  1  0.827659  0.053013  0.279268  1
  F  F30  1  0.127478  0.813285  0.390779  1
  F  F31  1  0.559859  0.390089  0.121536  1
  F  F32  1  0.872522  0.313285  0.109221  1
  F  F33  1  0.622790  0.086594  0.135214  1
  F  F34  1  0.440141  0.609911  0.878464  1
  F  F35  1  0.172341  0.946987  0.720732  1
