# generated using pymatgen
data_KP2Au5S8
_symmetry_space_group_name_H-M   'P 1'
_cell_length_a   10.34632485
_cell_length_b   14.00171651
_cell_length_c   12.53122628
_cell_angle_alpha   90.00000000
_cell_angle_beta   105.60886457
_cell_angle_gamma   90.00000000
_symmetry_Int_Tables_number   1
_chemical_formula_structural   KP2Au5S8
_chemical_formula_sum   'K4 P8 Au20 S32'
_cell_volume   1748.40400288
_cell_formula_units_Z   4
loop_
 _symmetry_equiv_pos_site_id
 _symmetry_equiv_pos_as_xyz
  1  'x, y, z'
loop_
 _atom_site_type_symbol
 _atom_site_label
 _atom_site_symmetry_multiplicity
 _atom_site_fract_x
 _atom_site_fract_y
 _atom_site_fract_z
 _atom_site_occupancy
  K  K0  1  0.305611  0.247519  0.668627  1
  K  K1  1  0.694389  0.747519  0.831373  1
  K  K2  1  0.694389  0.752481  0.331373  1
  K  K3  1  0.305611  0.252481  0.168627  1
  P  P4  1  0.055425  0.184242  0.883003  1
  P  P5  1  0.944575  0.815758  0.116997  1
  P  P6  1  0.595348  0.057217  0.294202  1
  P  P7  1  0.944575  0.684242  0.616997  1
  P  P8  1  0.404652  0.557217  0.205798  1
  P  P9  1  0.595348  0.442783  0.794202  1
  P  P10  1  0.404652  0.942783  0.705798  1
  P  P11  1  0.055425  0.315758  0.383003  1
  Au  Au12  1  0.886252  0.455771  0.548326  1
  Au  Au13  1  0.113748  0.544229  0.451674  1
  Au  Au14  1  0.233250  0.737276  0.040570  1
  Au  Au15  1  0.757032  0.255271  0.702339  1
  Au  Au16  1  0.233250  0.762724  0.540570  1
  Au  Au17  1  0.060514  0.910823  0.639883  1
  Au  Au18  1  0.558824  0.095014  0.569330  1
  Au  Au19  1  0.558824  0.404986  0.069330  1
  Au  Au20  1  0.242968  0.744729  0.297661  1
  Au  Au21  1  0.113748  0.955771  0.951674  1
  Au  Au22  1  0.441176  0.904986  0.430670  1
  Au  Au23  1  0.766750  0.262724  0.959430  1
  Au  Au24  1  0.766750  0.237276  0.459430  1
  Au  Au25  1  0.939486  0.089177  0.360117  1
  Au  Au26  1  0.886252  0.044229  0.048326  1
  Au  Au27  1  0.441176  0.595014  0.930670  1
  Au  Au28  1  0.242968  0.755271  0.797661  1
  Au  Au29  1  0.757032  0.244729  0.202339  1
  Au  Au30  1  0.939486  0.410823  0.860117  1
  Au  Au31  1  0.060514  0.589177  0.139883  1
  S  S32  1  0.022207  0.692381  0.472881  1
  S  S33  1  0.779107  0.901979  0.070955  1
  S  S34  1  0.411053  0.626637  0.351370  1
  S  S35  1  0.081499  0.867424  0.253748  1
  S  S36  1  0.566382  0.466746  0.243358  1
  S  S37  1  0.411053  0.873363  0.851370  1
  S  S38  1  0.767210  0.985424  0.371555  1
  S  S39  1  0.232790  0.485424  0.128445  1
  S  S40  1  0.446567  0.668256  0.098935  1
  S  S41  1  0.566382  0.033254  0.743358  1
  S  S42  1  0.588947  0.373363  0.648630  1
  S  S43  1  0.779107  0.598021  0.570955  1
  S  S44  1  0.220893  0.098021  0.929045  1
  S  S45  1  0.081499  0.632576  0.753748  1
  S  S46  1  0.446567  0.831744  0.598935  1
  S  S47  1  0.232790  0.014576  0.628445  1
  S  S48  1  0.131133  0.318456  0.869828  1
  S  S49  1  0.553433  0.331744  0.901065  1
  S  S50  1  0.131133  0.181544  0.369828  1
  S  S51  1  0.553433  0.168256  0.401065  1
  S  S52  1  0.433618  0.533254  0.756642  1
  S  S53  1  0.918501  0.367424  0.246252  1
  S  S54  1  0.918501  0.132576  0.746252  1
  S  S55  1  0.977793  0.307619  0.527119  1
  S  S56  1  0.588947  0.126637  0.148630  1
  S  S57  1  0.022207  0.807619  0.972881  1
  S  S58  1  0.868867  0.818456  0.630172  1
  S  S59  1  0.220893  0.401979  0.429045  1
  S  S60  1  0.977793  0.192381  0.027119  1
  S  S61  1  0.767210  0.514576  0.871555  1
  S  S62  1  0.868867  0.681544  0.130172  1
  S  S63  1  0.433618  0.966746  0.256642  1
