# generated using pymatgen
data_BaNa2Nd2Si4CO15
_symmetry_space_group_name_H-M   'P 1'
_cell_length_a   7.05760600
_cell_length_b   13.61261300
_cell_length_c   14.18709300
_cell_angle_alpha   90.00000000
_cell_angle_beta   90.00000000
_cell_angle_gamma   90.00000000
_symmetry_Int_Tables_number   1
_chemical_formula_structural   BaNa2Nd2Si4CO15
_chemical_formula_sum   'Ba4 Na8 Nd8 Si16 C4 O60'
_cell_volume   1362.98891319
_cell_formula_units_Z   4
loop_
 _symmetry_equiv_pos_site_id
 _symmetry_equiv_pos_as_xyz
  1  'x, y, z'
loop_
 _atom_site_type_symbol
 _atom_site_label
 _atom_site_symmetry_multiplicity
 _atom_site_fract_x
 _atom_site_fract_y
 _atom_site_fract_z
 _atom_site_occupancy
  Ba  Ba0  1  0.410590  0.250000  0.140603  1
  Ba  Ba1  1  0.910590  0.750000  0.359397  1
  Ba  Ba2  1  0.089410  0.250000  0.640603  1
  Ba  Ba3  1  0.589410  0.750000  0.859397  1
  Na  Na4  1  0.763996  0.962776  0.470714  1
  Na  Na5  1  0.236004  0.037224  0.529286  1
  Na  Na6  1  0.263996  0.462776  0.029286  1
  Na  Na7  1  0.763996  0.537224  0.470714  1
  Na  Na8  1  0.736004  0.537224  0.970714  1
  Na  Na9  1  0.236004  0.462776  0.529286  1
  Na  Na10  1  0.263996  0.037224  0.029286  1
  Na  Na11  1  0.736004  0.962776  0.970714  1
  Nd  Nd12  1  0.881018  0.942812  0.712543  1
  Nd  Nd13  1  0.381018  0.057188  0.787457  1
  Nd  Nd14  1  0.118982  0.442812  0.287457  1
  Nd  Nd15  1  0.618982  0.942812  0.212543  1
  Nd  Nd16  1  0.618982  0.557188  0.212543  1
  Nd  Nd17  1  0.381018  0.442812  0.787457  1
  Nd  Nd18  1  0.118982  0.057188  0.287457  1
  Nd  Nd19  1  0.881018  0.557188  0.712543  1
  Si  Si20  1  0.118478  0.866556  0.149504  1
  Si  Si21  1  0.381522  0.866556  0.649504  1
  Si  Si22  1  0.619094  0.137144  0.574416  1
  Si  Si23  1  0.880906  0.137144  0.074416  1
  Si  Si24  1  0.380906  0.862856  0.425584  1
  Si  Si25  1  0.618478  0.366556  0.350496  1
  Si  Si26  1  0.381522  0.633444  0.649504  1
  Si  Si27  1  0.380906  0.637144  0.425584  1
  Si  Si28  1  0.881522  0.133444  0.850496  1
  Si  Si29  1  0.118478  0.633444  0.149504  1
  Si  Si30  1  0.119094  0.637144  0.925584  1
  Si  Si31  1  0.881522  0.366556  0.850496  1
  Si  Si32  1  0.119094  0.862856  0.925584  1
  Si  Si33  1  0.619094  0.362856  0.574416  1
  Si  Si34  1  0.618478  0.133444  0.350496  1
  Si  Si35  1  0.880906  0.362856  0.074416  1
  C  C36  1  0.879393  0.750000  0.598480  1
  C  C37  1  0.620607  0.750000  0.098480  1
  C  C38  1  0.379393  0.250000  0.901520  1
  C  C39  1  0.120607  0.250000  0.401520  1
  O  O40  1  0.051022  0.100413  0.778819  1
  O  O41  1  0.948978  0.899587  0.221181  1
  O  O42  1  0.556668  0.382798  0.461953  1
  O  O43  1  0.868818  0.750000  0.690394  1
  O  O44  1  0.614326  0.833281  0.054105  1
  O  O45  1  0.207302  0.750000  0.918282  1
  O  O46  1  0.551022  0.600413  0.721181  1
  O  O47  1  0.576016  0.874772  0.366131  1
  O  O48  1  0.576016  0.625228  0.366131  1
  O  O49  1  0.631182  0.750000  0.190394  1
  O  O50  1  0.385674  0.166719  0.945895  1
  O  O51  1  0.293271  0.564078  0.899455  1
  O  O52  1  0.948978  0.600413  0.221181  1
  O  O53  1  0.448978  0.100413  0.278819  1
  O  O54  1  0.293271  0.935922  0.899455  1
  O  O55  1  0.707302  0.250000  0.581718  1
  O  O56  1  0.885674  0.833281  0.554105  1
  O  O57  1  0.292698  0.750000  0.418282  1
  O  O58  1  0.706729  0.435922  0.100545  1
  O  O59  1  0.131182  0.250000  0.309606  1
  O  O60  1  0.204474  0.939232  0.672683  1
  O  O61  1  0.943332  0.117202  0.961953  1
  O  O62  1  0.204474  0.560768  0.672683  1
  O  O63  1  0.795526  0.060768  0.327317  1
  O  O64  1  0.076016  0.374772  0.133869  1
  O  O65  1  0.114326  0.166719  0.445895  1
  O  O66  1  0.169108  0.750000  0.168190  1
  O  O67  1  0.423984  0.125228  0.633869  1
  O  O68  1  0.051022  0.399587  0.778819  1
  O  O69  1  0.368818  0.250000  0.809606  1
  O  O70  1  0.614326  0.666719  0.054105  1
  O  O71  1  0.669108  0.250000  0.331810  1
  O  O72  1  0.923984  0.625228  0.866131  1
  O  O73  1  0.206729  0.564078  0.399455  1
  O  O74  1  0.114326  0.333281  0.445895  1
  O  O75  1  0.295526  0.560768  0.172683  1
  O  O76  1  0.295526  0.939232  0.172683  1
  O  O77  1  0.793271  0.435922  0.600545  1
  O  O78  1  0.206729  0.935922  0.399455  1
  O  O79  1  0.385674  0.333281  0.945895  1
  O  O80  1  0.706729  0.064078  0.100545  1
  O  O81  1  0.330892  0.750000  0.668190  1
  O  O82  1  0.056668  0.882798  0.038047  1
  O  O83  1  0.551022  0.899587  0.721181  1
  O  O84  1  0.443332  0.617202  0.538047  1
  O  O85  1  0.943332  0.382798  0.961953  1
  O  O86  1  0.793271  0.064078  0.600545  1
  O  O87  1  0.056668  0.617202  0.038047  1
  O  O88  1  0.795526  0.439232  0.327317  1
  O  O89  1  0.076016  0.125228  0.133869  1
  O  O90  1  0.556668  0.117202  0.461953  1
  O  O91  1  0.443332  0.882798  0.538047  1
  O  O92  1  0.830892  0.250000  0.831810  1
  O  O93  1  0.923984  0.874772  0.866131  1
  O  O94  1  0.423984  0.374772  0.633869  1
  O  O95  1  0.885674  0.666719  0.554105  1
  O  O96  1  0.704474  0.060768  0.827317  1
  O  O97  1  0.704474  0.439232  0.827317  1
  O  O98  1  0.792698  0.250000  0.081718  1
  O  O99  1  0.448978  0.399587  0.278819  1
