# generated using pymatgen
data_Ti4NiBi2
_symmetry_space_group_name_H-M   'P 1'
_cell_length_a   7.90744157
_cell_length_b   7.90744157
_cell_length_c   7.90744157
_cell_angle_alpha   95.29095529
_cell_angle_beta   95.29095529
_cell_angle_gamma   144.64407783
_symmetry_Int_Tables_number   1
_chemical_formula_structural   Ti4NiBi2
_chemical_formula_sum   'Ti8 Ni2 Bi4'
_cell_volume   272.59554710
_cell_formula_units_Z   2
loop_
 _symmetry_equiv_pos_site_id
 _symmetry_equiv_pos_as_xyz
  1  'x, y, z'
loop_
 _atom_site_type_symbol
 _atom_site_label
 _atom_site_symmetry_multiplicity
 _atom_site_fract_x
 _atom_site_fract_y
 _atom_site_fract_z
 _atom_site_occupancy
  Ti  Ti0  1  0.803338  0.081374  0.884712  1
  Ti  Ti1  1  0.918626  0.803338  0.721964  1
  Ti  Ti2  1  0.581374  0.303338  0.884712  1
  Ti  Ti3  1  0.696662  0.581374  0.278036  1
  Ti  Ti4  1  0.081374  0.196662  0.278036  1
  Ti  Ti5  1  0.196662  0.918626  0.115288  1
  Ti  Ti6  1  0.303338  0.418626  0.721964  1
  Ti  Ti7  1  0.418626  0.696662  0.115288  1
  Ni  Ni8  1  0.750000  0.750000  0.000000  1
  Ni  Ni9  1  0.250000  0.250000  0.000000  1
  Bi  Bi10  1  0.860490  0.360490  0.220980  1
  Bi  Bi11  1  0.139510  0.639510  0.779020  1
  Bi  Bi12  1  0.360490  0.139510  0.500000  1
  Bi  Bi13  1  0.639510  0.860490  0.500000  1
