# generated using pymatgen
data_SiC
_symmetry_space_group_name_H-M   'P 1'
_cell_length_a   3.09470905
_cell_length_b   3.09470905
_cell_length_c   68.33205373
_cell_angle_alpha   90.00000000
_cell_angle_beta   90.00000000
_cell_angle_gamma   120.00000000
_symmetry_Int_Tables_number   1
_chemical_formula_structural   SiC
_chemical_formula_sum   'Si27 C27'
_cell_volume   566.75421165
_cell_formula_units_Z   27
loop_
 _symmetry_equiv_pos_site_id
 _symmetry_equiv_pos_as_xyz
  1  'x, y, z'
loop_
 _atom_site_type_symbol
 _atom_site_label
 _atom_site_symmetry_multiplicity
 _atom_site_fract_x
 _atom_site_fract_y
 _atom_site_fract_z
 _atom_site_occupancy
  Si  Si0  1  0.000000  0.000000  0.222214  1
  Si  Si1  1  0.666667  0.333333  0.962950  1
  Si  Si2  1  0.666667  0.333333  0.407378  1
  Si  Si3  1  0.333333  0.666667  0.296264  1
  Si  Si4  1  0.333333  0.666667  0.518486  1
  Si  Si5  1  0.666667  0.333333  0.629597  1
  Si  Si6  1  0.000000  0.000000  0.925892  1
  Si  Si7  1  0.000000  0.000000  0.777768  1
  Si  Si8  1  0.000000  0.000000  0.444434  1
  Si  Si9  1  0.333333  0.666667  0.740708  1
  Si  Si10  1  0.333333  0.666667  0.148138  1
  Si  Si11  1  0.000000  0.000000  0.666653  1
  Si  Si12  1  0.666667  0.333333  0.185172  1
  Si  Si13  1  0.666667  0.333333  0.481486  1
  Si  Si14  1  0.333333  0.666667  0.888897  1
  Si  Si15  1  0.666667  0.333333  0.111071  1
  Si  Si16  1  0.333333  0.666667  0.814795  1
  Si  Si17  1  0.666667  0.333333  0.259265  1
  Si  Si18  1  0.000000  0.000000  0.999983  1
  Si  Si19  1  0.666667  0.333333  0.851838  1
  Si  Si20  1  0.000000  0.000000  0.555547  1
  Si  Si21  1  0.000000  0.000000  0.074075  1
  Si  Si22  1  0.000000  0.000000  0.333325  1
  Si  Si23  1  0.666667  0.333333  0.703707  1
  Si  Si24  1  0.333333  0.666667  0.592601  1
  Si  Si25  1  0.333333  0.666667  0.370380  1
  Si  Si26  1  0.333333  0.666667  0.037027  1
  C  C27  1  0.000000  0.000000  0.805625  1
  C  C28  1  0.666667  0.333333  0.509263  1
  C  C29  1  0.333333  0.666667  0.916674  1
  C  C30  1  0.333333  0.666667  0.064881  1
  C  C31  1  0.666667  0.333333  0.990814  1
  C  C32  1  0.666667  0.333333  0.435155  1
  C  C33  1  0.666667  0.333333  0.138857  1
  C  C34  1  0.000000  0.000000  0.472290  1
  C  C35  1  0.333333  0.666667  0.768492  1
  C  C36  1  0.333333  0.666667  0.398152  1
  C  C37  1  0.333333  0.666667  0.620374  1
  C  C38  1  0.000000  0.000000  0.101856  1
  C  C39  1  0.000000  0.000000  0.027737  1
  C  C40  1  0.666667  0.333333  0.212926  1
  C  C41  1  0.000000  0.000000  0.953677  1
  C  C42  1  0.000000  0.000000  0.583394  1
  C  C43  1  0.000000  0.000000  0.694503  1
  C  C44  1  0.666667  0.333333  0.879699  1
  C  C45  1  0.333333  0.666667  0.175994  1
  C  C46  1  0.000000  0.000000  0.361178  1
  C  C47  1  0.666667  0.333333  0.731479  1
  C  C48  1  0.333333  0.666667  0.324044  1
  C  C49  1  0.666667  0.333333  0.657369  1
  C  C50  1  0.666667  0.333333  0.287041  1
  C  C51  1  0.000000  0.000000  0.250070  1
  C  C52  1  0.333333  0.666667  0.546259  1
  C  C53  1  0.333333  0.666667  0.842556  1
