# generated using pymatgen
data_Rb2(ReS2)3
_symmetry_space_group_name_H-M   'P 1'
_cell_length_a   9.92231827
_cell_length_b   9.92231827
_cell_length_c   12.18340680
_cell_angle_alpha   88.83229723
_cell_angle_beta   91.16770277
_cell_angle_gamma   119.72942478
_symmetry_Int_Tables_number   1
_chemical_formula_structural   Rb2(ReS2)3
_chemical_formula_sum   'Rb8 Re12 S24'
_cell_volume   1041.31646827
_cell_formula_units_Z   4
loop_
 _symmetry_equiv_pos_site_id
 _symmetry_equiv_pos_as_xyz
  1  'x, y, z'
loop_
 _atom_site_type_symbol
 _atom_site_label
 _atom_site_symmetry_multiplicity
 _atom_site_fract_x
 _atom_site_fract_y
 _atom_site_fract_z
 _atom_site_occupancy
  Rb  Rb0  1  0.618441  0.618441  0.750000  1
  Rb  Rb1  1  0.863600  0.633077  0.519371  1
  Rb  Rb2  1  0.213744  0.213744  0.750000  1
  Rb  Rb3  1  0.136400  0.366923  0.480629  1
  Rb  Rb4  1  0.786256  0.786256  0.250000  1
  Rb  Rb5  1  0.366923  0.136400  0.019371  1
  Rb  Rb6  1  0.381559  0.381559  0.250000  1
  Rb  Rb7  1  0.633077  0.863600  0.980629  1
  Re  Re8  1  0.997225  0.311861  0.021876  1
  Re  Re9  1  0.538285  0.119364  0.626757  1
  Re  Re10  1  0.119364  0.538285  0.873243  1
  Re  Re11  1  0.880636  0.461715  0.126757  1
  Re  Re12  1  0.002775  0.688139  0.978124  1
  Re  Re13  1  0.399037  0.818205  0.586216  1
  Re  Re14  1  0.181795  0.600963  0.086216  1
  Re  Re15  1  0.818205  0.399037  0.913784  1
  Re  Re16  1  0.311861  0.997225  0.478124  1
  Re  Re17  1  0.688139  0.002775  0.521876  1
  Re  Re18  1  0.461715  0.880636  0.373243  1
  Re  Re19  1  0.600963  0.181795  0.413784  1
  S  S20  1  0.731205  0.063420  0.328823  1
  S  S21  1  0.063420  0.731205  0.171177  1
  S  S22  1  0.949041  0.616965  0.786890  1
  S  S23  1  0.202599  0.723216  0.440371  1
  S  S24  1  0.727416  0.422829  0.296970  1
  S  S25  1  0.577171  0.272584  0.796970  1
  S  S26  1  0.723216  0.202599  0.059629  1
  S  S27  1  0.545145  0.724741  0.482279  1
  S  S28  1  0.276785  0.797401  0.940371  1
  S  S29  1  0.933897  0.997398  0.569672  1
  S  S30  1  0.997398  0.933897  0.930328  1
  S  S31  1  0.616965  0.949041  0.713110  1
  S  S32  1  0.797401  0.276784  0.559629  1
  S  S33  1  0.383035  0.050959  0.286890  1
  S  S34  1  0.268796  0.936580  0.671177  1
  S  S35  1  0.066103  0.002602  0.430328  1
  S  S36  1  0.002602  0.066103  0.069672  1
  S  S37  1  0.272584  0.577171  0.703030  1
  S  S38  1  0.422829  0.727416  0.203030  1
  S  S39  1  0.275259  0.454855  0.982279  1
  S  S40  1  0.050959  0.383035  0.213110  1
  S  S41  1  0.936580  0.268796  0.828823  1
  S  S42  1  0.724741  0.545145  0.017721  1
  S  S43  1  0.454855  0.275259  0.517721  1
