# generated using pymatgen
data_Cs3Mo15Se17
_symmetry_space_group_name_H-M   'P 1'
_cell_length_a   9.84690440
_cell_length_b   9.84690440
_cell_length_c   21.11587777
_cell_angle_alpha   90.00000000
_cell_angle_beta   90.00000000
_cell_angle_gamma   120.00000000
_symmetry_Int_Tables_number   1
_chemical_formula_structural   Cs3Mo15Se17
_chemical_formula_sum   'Cs6 Mo30 Se34'
_cell_volume   1773.12443401
_cell_formula_units_Z   2
loop_
 _symmetry_equiv_pos_site_id
 _symmetry_equiv_pos_as_xyz
  1  'x, y, z'
loop_
 _atom_site_type_symbol
 _atom_site_label
 _atom_site_symmetry_multiplicity
 _atom_site_fract_x
 _atom_site_fract_y
 _atom_site_fract_z
 _atom_site_occupancy
  Cs  Cs0  1  0.000000  0.000000  0.137591  1
  Cs  Cs1  1  0.000000  0.000000  0.637591  1
  Cs  Cs2  1  0.000000  0.000000  0.362409  1
  Cs  Cs3  1  0.000000  0.000000  0.862409  1
  Cs  Cs4  1  0.666667  0.333333  0.750000  1
  Cs  Cs5  1  0.333333  0.666667  0.250000  1
  Mo  Mo6  1  0.644698  0.166644  0.034159  1
  Mo  Mo7  1  0.355302  0.833356  0.534159  1
  Mo  Mo8  1  0.647042  0.168045  0.250000  1
  Mo  Mo9  1  0.500952  0.185458  0.357336  1
  Mo  Mo10  1  0.478054  0.644698  0.534159  1
  Mo  Mo11  1  0.352958  0.831955  0.750000  1
  Mo  Mo12  1  0.478997  0.647042  0.750000  1
  Mo  Mo13  1  0.166644  0.521946  0.534159  1
  Mo  Mo14  1  0.500952  0.185458  0.142664  1
  Mo  Mo15  1  0.684506  0.499048  0.357336  1
  Mo  Mo16  1  0.521946  0.355302  0.034159  1
  Mo  Mo17  1  0.315494  0.500952  0.642664  1
  Mo  Mo18  1  0.185458  0.684506  0.857336  1
  Mo  Mo19  1  0.499048  0.814542  0.642664  1
  Mo  Mo20  1  0.684506  0.499048  0.142664  1
  Mo  Mo21  1  0.168045  0.521003  0.750000  1
  Mo  Mo22  1  0.499048  0.814542  0.857336  1
  Mo  Mo23  1  0.185458  0.684506  0.642664  1
  Mo  Mo24  1  0.315494  0.500952  0.857336  1
  Mo  Mo25  1  0.814542  0.315494  0.357336  1
  Mo  Mo26  1  0.166644  0.521946  0.965841  1
  Mo  Mo27  1  0.833356  0.478054  0.034159  1
  Mo  Mo28  1  0.521946  0.355302  0.465841  1
  Mo  Mo29  1  0.521003  0.352958  0.250000  1
  Mo  Mo30  1  0.644698  0.166644  0.465841  1
  Mo  Mo31  1  0.833356  0.478054  0.465841  1
  Mo  Mo32  1  0.478054  0.644698  0.965841  1
  Mo  Mo33  1  0.355302  0.833356  0.965841  1
  Mo  Mo34  1  0.814542  0.315494  0.142664  1
  Mo  Mo35  1  0.831955  0.478997  0.250000  1
  Se  Se36  1  0.989654  0.619073  0.141764  1
  Se  Se37  1  0.380927  0.370581  0.141764  1
  Se  Se38  1  0.658202  0.953419  0.541796  1
  Se  Se39  1  0.292708  0.339069  0.750000  1
  Se  Se40  1  0.953419  0.295217  0.458204  1
  Se  Se41  1  0.370581  0.989654  0.641764  1
  Se  Se42  1  0.380927  0.370581  0.358236  1
  Se  Se43  1  0.046581  0.704783  0.958204  1
  Se  Se44  1  0.046581  0.704783  0.541796  1
  Se  Se45  1  0.010346  0.380927  0.858236  1
  Se  Se46  1  0.707292  0.660931  0.250000  1
  Se  Se47  1  0.341798  0.046581  0.041796  1
  Se  Se48  1  0.333333  0.666667  0.061831  1
  Se  Se49  1  0.953639  0.292708  0.250000  1
  Se  Se50  1  0.333333  0.666667  0.438169  1
  Se  Se51  1  0.619073  0.629419  0.858236  1
  Se  Se52  1  0.295217  0.341798  0.541796  1
  Se  Se53  1  0.629419  0.010346  0.358236  1
  Se  Se54  1  0.704783  0.658202  0.458204  1
  Se  Se55  1  0.046361  0.707292  0.750000  1
  Se  Se56  1  0.010346  0.380927  0.641764  1
  Se  Se57  1  0.339069  0.046361  0.250000  1
  Se  Se58  1  0.629419  0.010346  0.141764  1
  Se  Se59  1  0.704783  0.658202  0.041796  1
  Se  Se60  1  0.370581  0.989654  0.858236  1
  Se  Se61  1  0.660931  0.953639  0.750000  1
  Se  Se62  1  0.341798  0.046581  0.458204  1
  Se  Se63  1  0.989654  0.619073  0.358236  1
  Se  Se64  1  0.658202  0.953419  0.958204  1
  Se  Se65  1  0.666667  0.333333  0.561831  1
  Se  Se66  1  0.666667  0.333333  0.938169  1
  Se  Se67  1  0.295217  0.341798  0.958204  1
  Se  Se68  1  0.953419  0.295217  0.041796  1
  Se  Se69  1  0.619073  0.629419  0.641764  1
