# generated using pymatgen
data_RbPSe3
_symmetry_space_group_name_H-M   'P 1'
_cell_length_a   7.60059917
_cell_length_b   7.60059917
_cell_length_c   19.60394823
_cell_angle_alpha   90.00000000
_cell_angle_beta   90.00000000
_cell_angle_gamma   120.00000000
_symmetry_Int_Tables_number   1
_chemical_formula_structural   RbPSe3
_chemical_formula_sum   'Rb6 P6 Se18'
_cell_volume   980.77602046
_cell_formula_units_Z   6
loop_
 _symmetry_equiv_pos_site_id
 _symmetry_equiv_pos_as_xyz
  1  'x, y, z'
loop_
 _atom_site_type_symbol
 _atom_site_label
 _atom_site_symmetry_multiplicity
 _atom_site_fract_x
 _atom_site_fract_y
 _atom_site_fract_z
 _atom_site_occupancy
  Rb  Rb0  1  0.582305  0.268683  0.249033  1
  Rb  Rb1  1  0.313622  0.731317  0.417634  1
  Rb  Rb2  1  0.417695  0.686378  0.084301  1
  Rb  Rb3  1  0.731317  0.313622  0.582366  1
  Rb  Rb4  1  0.686378  0.417695  0.915699  1
  Rb  Rb5  1  0.268683  0.582305  0.750967  1
  P  P6  1  0.924450  0.897601  0.719233  1
  P  P7  1  0.102399  0.026849  0.052566  1
  P  P8  1  0.026849  0.102399  0.947434  1
  P  P9  1  0.075550  0.973151  0.614100  1
  P  P10  1  0.897601  0.924450  0.280767  1
  P  P11  1  0.973151  0.075550  0.385900  1
  Se  Se12  1  0.299088  0.255336  0.392899  1
  Se  Se13  1  0.700912  0.956247  0.940434  1
  Se  Se14  1  0.842333  0.760481  0.446767  1
  Se  Se15  1  0.157667  0.918147  0.886566  1
  Se  Se16  1  0.219431  0.796825  0.591863  1
  Se  Se17  1  0.081853  0.239519  0.219899  1
  Se  Se18  1  0.956247  0.700912  0.059566  1
  Se  Se19  1  0.239519  0.081853  0.780101  1
  Se  Se20  1  0.796825  0.219431  0.408137  1
  Se  Se21  1  0.780569  0.577394  0.741470  1
  Se  Se22  1  0.043753  0.744664  0.273767  1
  Se  Se23  1  0.422606  0.203175  0.074803  1
  Se  Se24  1  0.203175  0.422606  0.925197  1
  Se  Se25  1  0.255336  0.299088  0.607101  1
  Se  Se26  1  0.577394  0.780569  0.258530  1
  Se  Se27  1  0.918147  0.157667  0.113434  1
  Se  Se28  1  0.760481  0.842333  0.553233  1
  Se  Se29  1  0.744664  0.043753  0.726233  1
