# generated using pymatgen
data_KIn(WO4)2
_symmetry_space_group_name_H-M   'P 1'
_cell_length_a   5.90397002
_cell_length_b   5.90397002
_cell_length_c   15.14094596
_cell_angle_alpha   90.00000000
_cell_angle_beta   90.00000000
_cell_angle_gamma   120.00000000
_symmetry_Int_Tables_number   1
_chemical_formula_structural   KIn(WO4)2
_chemical_formula_sum   'K2 In2 W4 O16'
_cell_volume   457.05864514
_cell_formula_units_Z   2
loop_
 _symmetry_equiv_pos_site_id
 _symmetry_equiv_pos_as_xyz
  1  'x, y, z'
loop_
 _atom_site_type_symbol
 _atom_site_label
 _atom_site_symmetry_multiplicity
 _atom_site_fract_x
 _atom_site_fract_y
 _atom_site_fract_z
 _atom_site_occupancy
  K  K0  1  0.000000  0.000000  0.250000  1
  K  K1  1  0.000000  0.000000  0.750000  1
  In  In2  1  0.000000  0.000000  0.500000  1
  In  In3  1  0.000000  0.000000  0.000000  1
  W  W4  1  0.333333  0.666667  0.123305  1
  W  W5  1  0.666667  0.333333  0.876695  1
  W  W6  1  0.333333  0.666667  0.623305  1
  W  W7  1  0.666667  0.333333  0.376695  1
  O  O8  1  0.880522  0.210589  0.913199  1
  O  O9  1  0.333333  0.666667  0.740391  1
  O  O10  1  0.666667  0.333333  0.759609  1
  O  O11  1  0.119478  0.330067  0.586801  1
  O  O12  1  0.330067  0.119478  0.913199  1
  O  O13  1  0.669933  0.789411  0.586801  1
  O  O14  1  0.789411  0.119478  0.413199  1
  O  O15  1  0.333333  0.666667  0.240391  1
  O  O16  1  0.210589  0.330067  0.086801  1
  O  O17  1  0.789411  0.669933  0.913199  1
  O  O18  1  0.119478  0.789411  0.086801  1
  O  O19  1  0.669933  0.880522  0.086801  1
  O  O20  1  0.210589  0.880522  0.586801  1
  O  O21  1  0.330067  0.210589  0.413199  1
  O  O22  1  0.666667  0.333333  0.259609  1
  O  O23  1  0.880522  0.669933  0.413199  1
