# generated using pymatgen
data_Na2(ReS2)3
_symmetry_space_group_name_H-M   'P 1'
_cell_length_a   9.39215952
_cell_length_b   9.39215952
_cell_length_c   11.65418954
_cell_angle_alpha   87.68502717
_cell_angle_beta   92.31497283
_cell_angle_gamma   117.56639077
_symmetry_Int_Tables_number   1
_chemical_formula_structural   Na2(ReS2)3
_chemical_formula_sum   'Na8 Re12 S24'
_cell_volume   910.32114138
_cell_formula_units_Z   4
loop_
 _symmetry_equiv_pos_site_id
 _symmetry_equiv_pos_as_xyz
  1  'x, y, z'
loop_
 _atom_site_type_symbol
 _atom_site_label
 _atom_site_symmetry_multiplicity
 _atom_site_fract_x
 _atom_site_fract_y
 _atom_site_fract_z
 _atom_site_occupancy
  Na  Na0  1  0.572786  0.572786  0.250000  1
  Na  Na1  1  0.427214  0.427214  0.750000  1
  Na  Na2  1  0.211129  0.211129  0.250000  1
  Na  Na3  1  0.788871  0.788871  0.750000  1
  Na  Na4  1  0.354892  0.103262  0.507982  1
  Na  Na5  1  0.103262  0.354892  0.992018  1
  Na  Na6  1  0.645108  0.896738  0.492018  1
  Na  Na7  1  0.896738  0.645108  0.007982  1
  Re  Re8  1  0.598281  0.193344  0.914622  1
  Re  Re9  1  0.193344  0.598281  0.585378  1
  Re  Re10  1  0.401719  0.806656  0.085378  1
  Re  Re11  1  0.806656  0.401719  0.414622  1
  Re  Re12  1  0.520713  0.114963  0.132682  1
  Re  Re13  1  0.114963  0.520713  0.367318  1
  Re  Re14  1  0.479287  0.885037  0.867318  1
  Re  Re15  1  0.885037  0.479287  0.632682  1
  Re  Re16  1  0.699309  0.010886  0.032143  1
  Re  Re17  1  0.010886  0.699309  0.467857  1
  Re  Re18  1  0.300691  0.989114  0.967857  1
  Re  Re19  1  0.989114  0.300691  0.532143  1
  S  S20  1  0.753300  0.080080  0.832038  1
  S  S21  1  0.080080  0.753300  0.667962  1
  S  S22  1  0.246700  0.919920  0.167962  1
  S  S23  1  0.919920  0.246700  0.332038  1
  S  S24  1  0.578966  0.727735  0.986627  1
  S  S25  1  0.727735  0.578966  0.513373  1
  S  S26  1  0.421034  0.272265  0.013373  1
  S  S27  1  0.272265  0.421034  0.486627  1
  S  S28  1  0.612471  0.936078  0.228869  1
  S  S29  1  0.936078  0.612471  0.271131  1
  S  S30  1  0.387529  0.063922  0.771131  1
  S  S31  1  0.063922  0.387529  0.728869  1
  S  S32  1  0.791162  0.293362  0.073185  1
  S  S33  1  0.293362  0.791162  0.426815  1
  S  S34  1  0.208838  0.706638  0.926815  1
  S  S35  1  0.706638  0.208838  0.573185  1
  S  S36  1  0.731909  0.459064  0.807815  1
  S  S37  1  0.459064  0.731909  0.692185  1
  S  S38  1  0.268091  0.540936  0.192185  1
  S  S39  1  0.540936  0.268091  0.307815  1
  S  S40  1  0.961498  0.024848  0.077247  1
  S  S41  1  0.024848  0.961498  0.422753  1
  S  S42  1  0.038502  0.975152  0.922753  1
  S  S43  1  0.975152  0.038502  0.577247  1
