# generated using pymatgen
data_Y2C(NO)2
_symmetry_space_group_name_H-M   'P 1'
_cell_length_a   3.74310862
_cell_length_b   3.74310862
_cell_length_c   16.47121592
_cell_angle_alpha   90.00000000
_cell_angle_beta   90.00000000
_cell_angle_gamma   120.00000000
_symmetry_Int_Tables_number   1
_chemical_formula_structural   Y2C(NO)2
_chemical_formula_sum   'Y4 C2 N4 O4'
_cell_volume   199.85782240
_cell_formula_units_Z   2
loop_
 _symmetry_equiv_pos_site_id
 _symmetry_equiv_pos_as_xyz
  1  'x, y, z'
loop_
 _atom_site_type_symbol
 _atom_site_label
 _atom_site_symmetry_multiplicity
 _atom_site_fract_x
 _atom_site_fract_y
 _atom_site_fract_z
 _atom_site_occupancy
  Y  Y0  1  0.666667  0.333333  0.411258  1
  Y  Y1  1  0.333333  0.666667  0.911258  1
  Y  Y2  1  0.666667  0.333333  0.088742  1
  Y  Y3  1  0.333333  0.666667  0.588742  1
  C  C4  1  0.000000  0.000000  0.250000  1
  C  C5  1  0.000000  0.000000  0.750000  1
  N  N6  1  0.000000  0.000000  0.674981  1
  N  N7  1  0.000000  0.000000  0.174981  1
  N  N8  1  0.000000  0.000000  0.825019  1
  N  N9  1  0.000000  0.000000  0.325019  1
  O  O10  1  0.666667  0.333333  0.948231  1
  O  O11  1  0.333333  0.666667  0.051769  1
  O  O12  1  0.333333  0.666667  0.448231  1
  O  O13  1  0.666667  0.333333  0.551769  1
