# generated using pymatgen
data_Yb2CdSb2
_symmetry_space_group_name_H-M   'P 1'
_cell_length_a   9.06471210
_cell_length_b   9.06471210
_cell_length_c   7.26054817
_cell_angle_alpha   90.00000000
_cell_angle_beta   90.00000000
_cell_angle_gamma   150.22273581
_symmetry_Int_Tables_number   1
_chemical_formula_structural   Yb2CdSb2
_chemical_formula_sum   'Yb4 Cd2 Sb4'
_cell_volume   296.28524539
_cell_formula_units_Z   2
loop_
 _symmetry_equiv_pos_site_id
 _symmetry_equiv_pos_as_xyz
  1  'x, y, z'
loop_
 _atom_site_type_symbol
 _atom_site_label
 _atom_site_symmetry_multiplicity
 _atom_site_fract_x
 _atom_site_fract_y
 _atom_site_fract_z
 _atom_site_occupancy
  Yb  Yb0  1  0.520986  0.479014  0.278959  1
  Yb  Yb1  1  0.479014  0.520986  0.778959  1
  Yb  Yb2  1  0.302639  0.697361  0.469286  1
  Yb  Yb3  1  0.697361  0.302639  0.969286  1
  Cd  Cd4  1  0.098558  0.901442  0.604720  1
  Cd  Cd5  1  0.901442  0.098558  0.104720  1
  Sb  Sb6  1  0.679302  0.320698  0.488054  1
  Sb  Sb7  1  0.320698  0.679302  0.988054  1
  Sb  Sb8  1  0.932021  0.067979  0.501471  1
  Sb  Sb9  1  0.067979  0.932021  0.001471  1
