# generated using pymatgen
data_Ba5Ru2ClO9
_symmetry_space_group_name_H-M   'P 1'
_cell_length_a   6.18978551
_cell_length_b   6.18978551
_cell_length_c   18.32687044
_cell_angle_alpha   90.00000000
_cell_angle_beta   90.00000000
_cell_angle_gamma   120.75771221
_symmetry_Int_Tables_number   1
_chemical_formula_structural   Ba5Ru2ClO9
_chemical_formula_sum   'Ba10 Ru4 Cl2 O18'
_cell_volume   603.39723480
_cell_formula_units_Z   2
loop_
 _symmetry_equiv_pos_site_id
 _symmetry_equiv_pos_as_xyz
  1  'x, y, z'
loop_
 _atom_site_type_symbol
 _atom_site_label
 _atom_site_symmetry_multiplicity
 _atom_site_fract_x
 _atom_site_fract_y
 _atom_site_fract_z
 _atom_site_occupancy
  Ba  Ba0  1  0.158131  0.841869  0.018399  1
  Ba  Ba1  1  0.841869  0.158131  0.518399  1
  Ba  Ba2  1  0.832083  0.167917  0.746402  1
  Ba  Ba3  1  0.167917  0.832083  0.246402  1
  Ba  Ba4  1  0.490295  0.509705  0.343585  1
  Ba  Ba5  1  0.509705  0.490295  0.843585  1
  Ba  Ba6  1  0.492692  0.507308  0.648784  1
  Ba  Ba7  1  0.829325  0.170675  0.973657  1
  Ba  Ba8  1  0.507308  0.492692  0.148784  1
  Ba  Ba9  1  0.170675  0.829325  0.473657  1
  Ru  Ru10  1  0.173801  0.826199  0.670981  1
  Ru  Ru11  1  0.161169  0.838831  0.821150  1
  Ru  Ru12  1  0.826199  0.173801  0.170981  1
  Ru  Ru13  1  0.838831  0.161169  0.321150  1
  Cl  Cl14  1  0.457364  0.542636  0.996035  1
  Cl  Cl15  1  0.542636  0.457364  0.496035  1
  O  O16  1  0.462011  0.009829  0.881245  1
  O  O17  1  0.003194  0.996806  0.875984  1
  O  O18  1  0.683037  0.316963  0.250576  1
  O  O19  1  0.319411  0.132954  0.743893  1
  O  O20  1  0.009829  0.462011  0.381245  1
  O  O21  1  0.990171  0.537989  0.881245  1
  O  O22  1  0.034625  0.513787  0.614571  1
  O  O23  1  0.027362  0.972638  0.609230  1
  O  O24  1  0.513787  0.034625  0.114571  1
  O  O25  1  0.867046  0.680589  0.743893  1
  O  O26  1  0.680589  0.867046  0.243893  1
  O  O27  1  0.132954  0.319411  0.243893  1
  O  O28  1  0.996806  0.003194  0.375984  1
  O  O29  1  0.316963  0.683037  0.750576  1
  O  O30  1  0.486213  0.965375  0.614571  1
  O  O31  1  0.965375  0.486213  0.114571  1
  O  O32  1  0.537989  0.990171  0.381245  1
  O  O33  1  0.972638  0.027362  0.109230  1
