# generated using pymatgen
data_Nb2Pd3Se8
_symmetry_space_group_name_H-M   'P 1'
_cell_length_a   3.63011426
_cell_length_b   10.83880565
_cell_length_c   15.43915186
_cell_angle_alpha   90.00000000
_cell_angle_beta   90.00000000
_cell_angle_gamma   90.00000000
_symmetry_Int_Tables_number   1
_chemical_formula_structural   Nb2Pd3Se8
_chemical_formula_sum   'Nb4 Pd6 Se16'
_cell_volume   607.47045857
_cell_formula_units_Z   2
loop_
 _symmetry_equiv_pos_site_id
 _symmetry_equiv_pos_as_xyz
  1  'x, y, z'
loop_
 _atom_site_type_symbol
 _atom_site_label
 _atom_site_symmetry_multiplicity
 _atom_site_fract_x
 _atom_site_fract_y
 _atom_site_fract_z
 _atom_site_occupancy
  Nb  Nb0  1  0.000000  0.786499  0.883445  1
  Nb  Nb1  1  0.000000  0.213501  0.116555  1
  Nb  Nb2  1  0.000000  0.286499  0.616555  1
  Nb  Nb3  1  0.000000  0.713501  0.383445  1
  Pd  Pd4  1  0.500000  0.000000  0.000000  1
  Pd  Pd5  1  0.500000  0.500000  0.500000  1
  Pd  Pd6  1  0.500000  0.619933  0.783784  1
  Pd  Pd7  1  0.500000  0.380067  0.216216  1
  Pd  Pd8  1  0.500000  0.119933  0.716216  1
  Pd  Pd9  1  0.500000  0.880067  0.283784  1
  Se  Se10  1  0.500000  0.770613  0.007549  1
  Se  Se11  1  0.500000  0.229387  0.992451  1
  Se  Se12  1  0.500000  0.270613  0.492451  1
  Se  Se13  1  0.500000  0.729387  0.507549  1
  Se  Se14  1  0.500000  0.955481  0.843224  1
  Se  Se15  1  0.500000  0.044519  0.156776  1
  Se  Se16  1  0.500000  0.455481  0.656776  1
  Se  Se17  1  0.500000  0.544519  0.343224  1
  Se  Se18  1  0.000000  0.748880  0.718881  1
  Se  Se19  1  0.000000  0.251120  0.281119  1
  Se  Se20  1  0.000000  0.248880  0.781119  1
  Se  Se21  1  0.000000  0.751120  0.218881  1
  Se  Se22  1  0.000000  0.547143  0.882549  1
  Se  Se23  1  0.000000  0.452857  0.117451  1
  Se  Se24  1  0.000000  0.047143  0.617451  1
  Se  Se25  1  0.000000  0.952857  0.382549  1
