# generated using pymatgen
data_Ba3LaIr2O9
_symmetry_space_group_name_H-M   'P 1'
_cell_length_a   6.02148917
_cell_length_b   6.02148917
_cell_length_c   15.16986286
_cell_angle_alpha   89.63412392
_cell_angle_beta   90.36587608
_cell_angle_gamma   60.03769485
_symmetry_Int_Tables_number   1
_chemical_formula_structural   Ba3LaIr2O9
_chemical_formula_sum   'Ba6 La2 Ir4 O18'
_cell_volume   476.48535876
_cell_formula_units_Z   2
loop_
 _symmetry_equiv_pos_site_id
 _symmetry_equiv_pos_as_xyz
  1  'x, y, z'
loop_
 _atom_site_type_symbol
 _atom_site_label
 _atom_site_symmetry_multiplicity
 _atom_site_fract_x
 _atom_site_fract_y
 _atom_site_fract_z
 _atom_site_occupancy
  Ba  Ba0  1  0.669683  0.663893  0.102227  1
  Ba  Ba1  1  0.663893  0.669683  0.397773  1
  Ba  Ba2  1  0.336107  0.330317  0.602227  1
  Ba  Ba3  1  0.000878  0.000878  0.250000  1
  Ba  Ba4  1  0.999122  0.999122  0.750000  1
  Ba  Ba5  1  0.330317  0.336107  0.897773  1
  La  La6  1  0.000000  1.000000  0.500000  1
  La  La7  1  0.000000  0.000000  0.000000  1
  Ir  Ir8  1  0.326360  0.339617  0.332964  1
  Ir  Ir9  1  0.339617  0.326360  0.167036  1
  Ir  Ir10  1  0.673640  0.660383  0.667036  1
  Ir  Ir11  1  0.660383  0.673640  0.832964  1
  O  O12  1  0.162676  0.191497  0.406129  1
  O  O13  1  0.191497  0.162676  0.093871  1
  O  O14  1  0.018038  0.492909  0.245755  1
  O  O15  1  0.507091  0.981962  0.745755  1
  O  O16  1  0.837324  0.808503  0.593871  1
  O  O17  1  0.809893  0.373840  0.912999  1
  O  O18  1  0.626160  0.190107  0.412999  1
  O  O19  1  0.164558  0.655090  0.403178  1
  O  O20  1  0.373840  0.809893  0.587001  1
  O  O21  1  0.655090  0.164558  0.096822  1
  O  O22  1  0.492909  0.018038  0.254245  1
  O  O23  1  0.508975  0.508975  0.750000  1
  O  O24  1  0.835442  0.344910  0.596822  1
  O  O25  1  0.344910  0.835442  0.903178  1
  O  O26  1  0.808503  0.837324  0.906129  1
  O  O27  1  0.491025  0.491025  0.250000  1
  O  O28  1  0.981962  0.507091  0.754245  1
  O  O29  1  0.190107  0.626160  0.087001  1
