# generated using pymatgen
data_CrP2O7
_symmetry_space_group_name_H-M   'P 1'
_cell_length_a   6.33587645
_cell_length_b   6.41526259
_cell_length_c   6.90502134
_cell_angle_alpha   89.08847584
_cell_angle_beta   113.74398906
_cell_angle_gamma   94.57539681
_symmetry_Int_Tables_number   1
_chemical_formula_structural   CrP2O7
_chemical_formula_sum   'Cr2 P4 O14'
_cell_volume   256.04738793
_cell_formula_units_Z   2
loop_
 _symmetry_equiv_pos_site_id
 _symmetry_equiv_pos_as_xyz
  1  'x, y, z'
loop_
 _atom_site_type_symbol
 _atom_site_label
 _atom_site_symmetry_multiplicity
 _atom_site_fract_x
 _atom_site_fract_y
 _atom_site_fract_z
 _atom_site_occupancy
  Cr  Cr0  1  0.098133  0.356809  0.206995  1
  Cr  Cr1  1  0.901867  0.643191  0.793005  1
  P  P2  1  0.336983  0.611895  0.650330  1
  P  P3  1  0.663017  0.388105  0.349670  1
  P  P4  1  0.227952  0.862963  0.248625  1
  P  P5  1  0.772048  0.137037  0.751375  1
  O  O6  1  0.406040  0.387468  0.205580  1
  O  O7  1  0.568779  0.100882  0.812991  1
  O  O8  1  0.431221  0.899118  0.187009  1
  O  O9  1  0.907296  0.944420  0.777286  1
  O  O10  1  0.305109  0.805684  0.492492  1
  O  O11  1  0.207944  0.647849  0.788885  1
  O  O12  1  0.061809  0.668713  0.123404  1
  O  O13  1  0.593960  0.612532  0.794420  1
  O  O14  1  0.694891  0.194316  0.507508  1
  O  O15  1  0.240988  0.413288  0.511840  1
  O  O16  1  0.092704  0.055580  0.222714  1
  O  O17  1  0.938191  0.331287  0.876596  1
  O  O18  1  0.792056  0.352151  0.211115  1
  O  O19  1  0.759012  0.586712  0.488160  1
