# generated using pymatgen
data_La5C2I9
_symmetry_space_group_name_H-M   'P 1'
_cell_length_a   8.15459133
_cell_length_b   10.27477164
_cell_length_c   14.62886722
_cell_angle_alpha   79.45143599
_cell_angle_beta   80.79367722
_cell_angle_gamma   85.29255612
_symmetry_Int_Tables_number   1
_chemical_formula_structural   La5C2I9
_chemical_formula_sum   'La10 C4 I18'
_cell_volume   1187.70586963
_cell_formula_units_Z   2
loop_
 _symmetry_equiv_pos_site_id
 _symmetry_equiv_pos_as_xyz
  1  'x, y, z'
loop_
 _atom_site_type_symbol
 _atom_site_label
 _atom_site_symmetry_multiplicity
 _atom_site_fract_x
 _atom_site_fract_y
 _atom_site_fract_z
 _atom_site_occupancy
  La  La0  1  0.778216  0.363384  0.263225  1
  La  La1  1  0.158976  0.530798  0.301316  1
  La  La2  1  0.235585  0.339383  0.081292  1
  La  La3  1  0.950593  0.036041  0.175459  1
  La  La4  1  0.823876  0.853514  0.639976  1
  La  La5  1  0.221784  0.636616  0.736775  1
  La  La6  1  0.764415  0.660617  0.918708  1
  La  La7  1  0.176124  0.146486  0.360024  1
  La  La8  1  0.841024  0.469202  0.698684  1
  La  La9  1  0.049407  0.963959  0.824541  1
  C  C10  1  0.959206  0.775609  0.782828  1
  C  C11  1  0.092628  0.345465  0.242031  1
  C  C12  1  0.907372  0.654535  0.757969  1
  C  C13  1  0.040794  0.224391  0.217172  1
  I  I14  1  0.249423  0.862557  0.273447  1
  I  I15  1  0.802115  0.006873  0.411636  1
  I  I16  1  0.907895  0.349391  0.472500  1
  I  I17  1  0.459237  0.845515  0.800742  1
  I  I18  1  0.576606  0.649767  0.577147  1
  I  I19  1  0.506582  0.448086  0.864582  1
  I  I20  1  0.197885  0.993127  0.588364  1
  I  I21  1  0.752168  0.940738  0.001119  1
  I  I22  1  0.193624  0.320290  0.725568  1
  I  I23  1  0.092105  0.650609  0.527500  1
  I  I24  1  0.806376  0.679710  0.274432  1
  I  I25  1  0.423394  0.350233  0.422853  1
  I  I26  1  0.247832  0.059262  0.998881  1
  I  I27  1  0.493418  0.551914  0.135418  1
  I  I28  1  0.117047  0.657235  0.001721  1
  I  I29  1  0.882953  0.342765  0.998279  1
  I  I30  1  0.540763  0.154485  0.199258  1
  I  I31  1  0.750577  0.137443  0.726553  1
