# generated using pymatgen
data_Ca2VClO4
_symmetry_space_group_name_H-M   'P 1'
_cell_length_a   6.39796028
_cell_length_b   7.20438948
_cell_length_c   11.19028815
_cell_angle_alpha   90.00000000
_cell_angle_beta   90.00000000
_cell_angle_gamma   90.00000000
_symmetry_Int_Tables_number   1
_chemical_formula_structural   Ca2VClO4
_chemical_formula_sum   'Ca8 V4 Cl4 O16'
_cell_volume   515.79840246
_cell_formula_units_Z   4
loop_
 _symmetry_equiv_pos_site_id
 _symmetry_equiv_pos_as_xyz
  1  'x, y, z'
loop_
 _atom_site_type_symbol
 _atom_site_label
 _atom_site_symmetry_multiplicity
 _atom_site_fract_x
 _atom_site_fract_y
 _atom_site_fract_z
 _atom_site_occupancy
  Ca  Ca0  1  0.858883  0.972593  0.250000  1
  Ca  Ca1  1  0.141117  0.472593  0.250000  1
  Ca  Ca2  1  0.379332  0.750000  0.000000  1
  Ca  Ca3  1  0.620668  0.250000  0.500000  1
  Ca  Ca4  1  0.858883  0.527407  0.750000  1
  Ca  Ca5  1  0.141117  0.027407  0.750000  1
  Ca  Ca6  1  0.379332  0.750000  0.500000  1
  Ca  Ca7  1  0.620668  0.250000  0.000000  1
  V  V8  1  0.873142  0.750000  0.000000  1
  V  V9  1  0.126858  0.250000  0.000000  1
  V  V10  1  0.873142  0.750000  0.500000  1
  V  V11  1  0.126858  0.250000  0.500000  1
  Cl  Cl12  1  0.509599  0.804816  0.750000  1
  Cl  Cl13  1  0.490401  0.195184  0.250000  1
  Cl  Cl14  1  0.490401  0.304816  0.750000  1
  Cl  Cl15  1  0.509599  0.695184  0.250000  1
  O  O16  1  0.034995  0.730677  0.124758  1
  O  O17  1  0.291323  0.436053  0.029061  1
  O  O18  1  0.034995  0.769323  0.875242  1
  O  O19  1  0.291323  0.063947  0.529061  1
  O  O20  1  0.965005  0.269323  0.875242  1
  O  O21  1  0.708677  0.563947  0.529061  1
  O  O22  1  0.034995  0.730677  0.375242  1
  O  O23  1  0.291323  0.436053  0.470939  1
  O  O24  1  0.708677  0.936053  0.029061  1
  O  O25  1  0.291323  0.063947  0.970939  1
  O  O26  1  0.708677  0.936053  0.470939  1
  O  O27  1  0.965005  0.230677  0.375242  1
  O  O28  1  0.708677  0.563947  0.970939  1
  O  O29  1  0.965005  0.269323  0.624758  1
  O  O30  1  0.965005  0.230677  0.124758  1
  O  O31  1  0.034995  0.769323  0.624758  1
