# generated using pymatgen
data_Cu3SbS4
_symmetry_space_group_name_H-M   'P 1'
_cell_length_a   6.62700707
_cell_length_b   6.62700707
_cell_length_c   6.62700707
_cell_angle_alpha   131.75817316
_cell_angle_beta   131.75817316
_cell_angle_gamma   70.61123528
_symmetry_Int_Tables_number   1
_chemical_formula_structural   Cu3SbS4
_chemical_formula_sum   'Cu3 Sb1 S4'
_cell_volume   158.66366699
_cell_formula_units_Z   1
loop_
 _symmetry_equiv_pos_site_id
 _symmetry_equiv_pos_as_xyz
  1  'x, y, z'
loop_
 _atom_site_type_symbol
 _atom_site_label
 _atom_site_symmetry_multiplicity
 _atom_site_fract_x
 _atom_site_fract_y
 _atom_site_fract_z
 _atom_site_occupancy
  Cu  Cu0  1  0.750000  0.250000  0.500000  1
  Cu  Cu1  1  0.250000  0.750000  0.500000  1
  Cu  Cu2  1  0.500000  0.500000  0.000000  1
  Sb  Sb3  1  0.000000  0.000000  0.000000  1
  S  S4  1  0.130890  0.604483  1.000000  1
  S  S5  1  0.395517  0.395517  0.526407  1
  S  S6  1  0.869110  0.869110  0.473593  1
  S  S7  1  0.604483  0.130890  1.000000  1
