# generated using pymatgen
data_SiO2
_symmetry_space_group_name_H-M   'P 1'
_cell_length_a   10.22992775
_cell_length_b   10.22992775
_cell_length_c   14.14375300
_cell_angle_alpha   90.00000000
_cell_angle_beta   90.00000000
_cell_angle_gamma   136.58488277
_symmetry_Int_Tables_number   1
_chemical_formula_structural   SiO2
_chemical_formula_sum   'Si18 O36'
_cell_volume   1017.28581980
_cell_formula_units_Z   18
loop_
 _symmetry_equiv_pos_site_id
 _symmetry_equiv_pos_as_xyz
  1  'x, y, z'
loop_
 _atom_site_type_symbol
 _atom_site_label
 _atom_site_symmetry_multiplicity
 _atom_site_fract_x
 _atom_site_fract_y
 _atom_site_fract_z
 _atom_site_occupancy
  Si  Si0  1  0.530438  0.883102  0.949019  1
  Si  Si1  1  0.079662  0.920338  0.540018  1
  Si  Si2  1  0.469562  0.116898  0.449019  1
  Si  Si3  1  0.883102  0.530438  0.449019  1
  Si  Si4  1  0.139747  0.860253  0.750000  1
  Si  Si5  1  0.116898  0.469562  0.550981  1
  Si  Si6  1  0.469562  0.116898  0.050981  1
  Si  Si7  1  0.860253  0.139747  0.250000  1
  Si  Si8  1  0.033766  0.558180  0.250000  1
  Si  Si9  1  0.116898  0.469562  0.949019  1
  Si  Si10  1  0.966234  0.441820  0.750000  1
  Si  Si11  1  0.883102  0.530438  0.050981  1
  Si  Si12  1  0.558180  0.033766  0.750000  1
  Si  Si13  1  0.920337  0.079662  0.040018  1
  Si  Si14  1  0.920337  0.079662  0.459982  1
  Si  Si15  1  0.079662  0.920338  0.959982  1
  Si  Si16  1  0.530438  0.883102  0.550981  1
  Si  Si17  1  0.441820  0.966234  0.250000  1
  O  O18  1  0.655746  0.344254  0.040506  1
  O  O19  1  0.344253  0.655747  0.540506  1
  O  O20  1  0.000000  0.500000  0.500000  1
  O  O21  1  0.572961  0.944882  0.838915  1
  O  O22  1  0.635213  0.018263  0.250000  1
  O  O23  1  0.063800  0.293881  0.501595  1
  O  O24  1  0.089079  0.910921  0.655809  1
  O  O25  1  0.572961  0.944882  0.661085  1
  O  O26  1  0.089079  0.910921  0.844191  1
  O  O27  1  0.706119  0.936200  0.998405  1
  O  O28  1  0.000000  0.000000  0.000000  1
  O  O29  1  0.981737  0.364787  0.250000  1
  O  O30  1  0.293881  0.063800  0.001595  1
  O  O31  1  0.936200  0.706119  0.001595  1
  O  O32  1  0.055118  0.427039  0.661085  1
  O  O33  1  0.910921  0.089079  0.155809  1
  O  O34  1  0.706119  0.936200  0.501595  1
  O  O35  1  0.265208  0.734793  0.250000  1
  O  O36  1  0.910921  0.089079  0.344191  1
  O  O37  1  0.734792  0.265208  0.750000  1
  O  O38  1  0.944882  0.572961  0.338915  1
  O  O39  1  0.655746  0.344254  0.459494  1
  O  O40  1  0.500000  0.000000  0.000000  1
  O  O41  1  0.055118  0.427039  0.838915  1
  O  O42  1  0.936200  0.706119  0.498405  1
  O  O43  1  0.944882  0.572961  0.161085  1
  O  O44  1  0.293881  0.063800  0.498405  1
  O  O45  1  0.344253  0.655747  0.959494  1
  O  O46  1  0.000000  0.000000  0.500000  1
  O  O47  1  0.364787  0.981737  0.750000  1
  O  O48  1  0.427039  0.055118  0.338915  1
  O  O49  1  0.427039  0.055118  0.161085  1
  O  O50  1  0.018263  0.635213  0.750000  1
  O  O51  1  0.000000  0.500000  0.000000  1
  O  O52  1  0.063800  0.293881  0.998405  1
  O  O53  1  0.500000  0.000000  0.500000  1
