# generated using pymatgen
data_Cs2Al2P2O9
_symmetry_space_group_name_H-M   'P 1'
_cell_length_a   4.98809882
_cell_length_b   7.21972836
_cell_length_c   8.24040227
_cell_angle_alpha   96.76844982
_cell_angle_beta   106.95812037
_cell_angle_gamma   108.59890369
_symmetry_Int_Tables_number   1
_chemical_formula_structural   Cs2Al2P2O9
_chemical_formula_sum   'Cs2 Al2 P2 O9'
_cell_volume   261.65110631
_cell_formula_units_Z   1
loop_
 _symmetry_equiv_pos_site_id
 _symmetry_equiv_pos_as_xyz
  1  'x, y, z'
loop_
 _atom_site_type_symbol
 _atom_site_label
 _atom_site_symmetry_multiplicity
 _atom_site_fract_x
 _atom_site_fract_y
 _atom_site_fract_z
 _atom_site_occupancy
  Cs  Cs0  1  0.771731  0.204520  0.350510  1
  Cs  Cs1  1  0.228269  0.795480  0.649490  1
  Al  Al2  1  0.148102  0.234900  0.967173  1
  Al  Al3  1  0.851898  0.765100  0.032827  1
  P  P4  1  0.611310  0.350117  0.774385  1
  P  P5  1  0.388690  0.649883  0.225615  1
  O  O6  1  0.097401  0.700228  0.199933  1
  O  O7  1  0.599823  0.732314  0.411854  1
  O  O8  1  0.470430  0.257126  0.907383  1
  O  O9  1  0.718866  0.584726  0.831213  1
  O  O10  1  0.902599  0.299772  0.800067  1
  O  O11  1  0.281134  0.415274  0.168787  1
  O  O12  1  0.400177  0.267686  0.588146  1
  O  O13  1  0.000000  0.000000  0.000000  1
  O  O14  1  0.529570  0.742874  0.092617  1
