# generated using pymatgen
data_H8C3N2O
_symmetry_space_group_name_H-M   'P 1'
_cell_length_a   8.81598273
_cell_length_b   6.11167794
_cell_length_c   10.54812984
_cell_angle_alpha   90.00000000
_cell_angle_beta   122.41766181
_cell_angle_gamma   90.00000000
_symmetry_Int_Tables_number   1
_chemical_formula_structural   H8C3N2O
_chemical_formula_sum   'H32 C12 N8 O4'
_cell_volume   479.76970809
_cell_formula_units_Z   4
loop_
 _symmetry_equiv_pos_site_id
 _symmetry_equiv_pos_as_xyz
  1  'x, y, z'
loop_
 _atom_site_type_symbol
 _atom_site_label
 _atom_site_symmetry_multiplicity
 _atom_site_fract_x
 _atom_site_fract_y
 _atom_site_fract_z
 _atom_site_occupancy
  H  H0  1  0.219149  0.248743  0.957460  1
  H  H1  1  0.175845  0.946153  0.629787  1
  H  H2  1  0.529444  0.046722  0.621078  1
  H  H3  1  0.199234  0.999467  0.035700  1
  H  H4  1  0.470556  0.953278  0.378922  1
  H  H5  1  0.060893  0.344043  0.160906  1
  H  H6  1  0.824155  0.446153  0.870213  1
  H  H7  1  0.703473  0.818963  0.262082  1
  H  H8  1  0.011993  0.398668  0.363015  1
  H  H9  1  0.988007  0.898668  0.136985  1
  H  H10  1  0.824155  0.053847  0.370213  1
  H  H11  1  0.296527  0.181037  0.737918  1
  H  H12  1  0.529444  0.453278  0.121078  1
  H  H13  1  0.988007  0.601332  0.636985  1
  H  H14  1  0.800766  0.000533  0.964300  1
  H  H15  1  0.627034  0.258430  0.265147  1
  H  H16  1  0.219149  0.251257  0.457460  1
  H  H17  1  0.372966  0.741570  0.734853  1
  H  H18  1  0.175845  0.553847  0.129787  1
  H  H19  1  0.780851  0.748743  0.542540  1
  H  H20  1  0.703473  0.681037  0.762082  1
  H  H21  1  0.470556  0.546722  0.878922  1
  H  H22  1  0.939107  0.844043  0.339094  1
  H  H23  1  0.296527  0.318963  0.237918  1
  H  H24  1  0.199234  0.500533  0.535700  1
  H  H25  1  0.939107  0.655957  0.839094  1
  H  H26  1  0.627034  0.241570  0.765147  1
  H  H27  1  0.372966  0.758430  0.234853  1
  H  H28  1  0.780851  0.751257  0.042540  1
  H  H29  1  0.060893  0.155957  0.660906  1
  H  H30  1  0.011993  0.101332  0.863015  1
  H  H31  1  0.800766  0.499467  0.464300  1
  C  C32  1  0.159295  0.416180  0.430967  1
  C  C33  1  0.812036  0.934931  0.287518  1
  C  C34  1  0.674345  0.278214  0.590265  1
  C  C35  1  0.812036  0.565069  0.787518  1
  C  C36  1  0.187964  0.065069  0.712482  1
  C  C37  1  0.674345  0.221786  0.090265  1
  C  C38  1  0.159295  0.083820  0.930967  1
  C  C39  1  0.325655  0.778214  0.909735  1
  C  C40  1  0.187964  0.434931  0.212482  1
  C  C41  1  0.840705  0.916180  0.069033  1
  C  C42  1  0.325655  0.721786  0.409735  1
  C  C43  1  0.840705  0.583820  0.569033  1
  N  N44  1  0.218976  0.959558  0.848072  1
  N  N45  1  0.781024  0.459558  0.651928  1
  N  N46  1  0.613143  0.178882  0.669967  1
  N  N47  1  0.386857  0.678882  0.830033  1
  N  N48  1  0.218976  0.540442  0.348072  1
  N  N49  1  0.386857  0.821118  0.330033  1
  N  N50  1  0.613143  0.321118  0.169967  1
  N  N51  1  0.781024  0.040442  0.151928  1
  O  O52  1  0.362329  0.800459  0.534412  1
  O  O53  1  0.637671  0.300459  0.965588  1
  O  O54  1  0.362329  0.699541  0.034412  1
  O  O55  1  0.637671  0.199541  0.465588  1
