# generated using pymatgen
data_Nd5Sn4
_symmetry_space_group_name_H-M   'P 1'
_cell_length_a   8.32966510
_cell_length_b   8.46942880
_cell_length_c   16.00787341
_cell_angle_alpha   90.00000000
_cell_angle_beta   90.00000000
_cell_angle_gamma   90.00000000
_symmetry_Int_Tables_number   1
_chemical_formula_structural   Nd5Sn4
_chemical_formula_sum   'Nd20 Sn16'
_cell_volume   1129.31553731
_cell_formula_units_Z   4
loop_
 _symmetry_equiv_pos_site_id
 _symmetry_equiv_pos_as_xyz
  1  'x, y, z'
loop_
 _atom_site_type_symbol
 _atom_site_label
 _atom_site_symmetry_multiplicity
 _atom_site_fract_x
 _atom_site_fract_y
 _atom_site_fract_z
 _atom_site_occupancy
  Nd  Nd0  1  0.017633  0.180764  0.400837  1
  Nd  Nd1  1  0.368137  0.837106  0.120130  1
  Nd  Nd2  1  0.131863  0.337106  0.620130  1
  Nd  Nd3  1  0.482367  0.680764  0.900837  1
  Nd  Nd4  1  0.868137  0.662894  0.120130  1
  Nd  Nd5  1  0.131863  0.337106  0.879870  1
  Nd  Nd6  1  0.199336  0.502363  0.250000  1
  Nd  Nd7  1  0.699336  0.997637  0.250000  1
  Nd  Nd8  1  0.482367  0.680764  0.599163  1
  Nd  Nd9  1  0.300664  0.002363  0.750000  1
  Nd  Nd10  1  0.631863  0.162894  0.620130  1
  Nd  Nd11  1  0.800664  0.497637  0.750000  1
  Nd  Nd12  1  0.868137  0.662894  0.379870  1
  Nd  Nd13  1  0.017633  0.180764  0.099163  1
  Nd  Nd14  1  0.982367  0.819236  0.900837  1
  Nd  Nd15  1  0.631863  0.162894  0.879870  1
  Nd  Nd16  1  0.517633  0.319236  0.099163  1
  Nd  Nd17  1  0.368137  0.837106  0.379870  1
  Nd  Nd18  1  0.982367  0.819236  0.599163  1
  Nd  Nd19  1  0.517633  0.319236  0.400837  1
  Sn  Sn20  1  0.790719  0.464316  0.542358  1
  Sn  Sn21  1  0.709281  0.964316  0.457642  1
  Sn  Sn22  1  0.677069  0.857907  0.750000  1
  Sn  Sn23  1  0.209281  0.535684  0.457642  1
  Sn  Sn24  1  0.290719  0.035684  0.957642  1
  Sn  Sn25  1  0.822931  0.357907  0.250000  1
  Sn  Sn26  1  0.790719  0.464316  0.957642  1
  Sn  Sn27  1  0.568182  0.614800  0.250000  1
  Sn  Sn28  1  0.209281  0.535684  0.042358  1
  Sn  Sn29  1  0.431818  0.385200  0.750000  1
  Sn  Sn30  1  0.177069  0.642093  0.750000  1
  Sn  Sn31  1  0.931818  0.114800  0.750000  1
  Sn  Sn32  1  0.290719  0.035684  0.542358  1
  Sn  Sn33  1  0.709281  0.964316  0.042358  1
  Sn  Sn34  1  0.322931  0.142093  0.250000  1
  Sn  Sn35  1  0.068182  0.885200  0.250000  1
