# generated using pymatgen
data_Nd4Os6O19
_symmetry_space_group_name_H-M   'P 1'
_cell_length_a   7.88084017
_cell_length_b   7.88084017
_cell_length_c   7.88084017
_cell_angle_alpha   109.47122063
_cell_angle_beta   109.47122063
_cell_angle_gamma   109.47122063
_symmetry_Int_Tables_number   1
_chemical_formula_structural   Nd4Os6O19
_chemical_formula_sum   'Nd4 Os6 O19'
_cell_volume   376.78679067
_cell_formula_units_Z   1
loop_
 _symmetry_equiv_pos_site_id
 _symmetry_equiv_pos_as_xyz
  1  'x, y, z'
loop_
 _atom_site_type_symbol
 _atom_site_label
 _atom_site_symmetry_multiplicity
 _atom_site_fract_x
 _atom_site_fract_y
 _atom_site_fract_z
 _atom_site_occupancy
  Nd  Nd0  1  0.308017  0.308017  0.308017  1
  Nd  Nd1  1  1.000000  0.691983  0.000000  1
  Nd  Nd2  1  1.000000  1.000000  0.691983  1
  Nd  Nd3  1  0.691983  1.000000  0.000000  1
  Os  Os4  1  0.500000  0.362329  0.862329  1
  Os  Os5  1  0.637671  0.137671  0.500000  1
  Os  Os6  1  0.137671  0.500000  0.637671  1
  Os  Os7  1  0.362329  0.862329  0.500000  1
  Os  Os8  1  0.862329  0.500000  0.362329  1
  Os  Os9  1  0.500000  0.637671  0.137671  1
  O  O10  1  1.000000  0.321622  0.321622  1
  O  O11  1  0.678378  0.678378  0.000000  1
  O  O12  1  0.678378  1.000000  0.678378  1
  O  O13  1  0.321622  0.321622  0.000000  1
  O  O14  1  0.321622  1.000000  0.321622  1
  O  O15  1  1.000000  0.678378  0.678378  1
  O  O16  1  0.000000  0.000000  0.000000  1
  O  O17  1  0.276797  0.335261  0.624208  1
  O  O18  1  0.652589  0.375792  0.711053  1
  O  O19  1  0.941536  0.288947  0.664739  1
  O  O20  1  0.347411  0.058464  0.723203  1
  O  O21  1  0.375792  0.711053  0.652589  1
  O  O22  1  0.664739  0.941536  0.288947  1
  O  O23  1  0.058464  0.723203  0.347411  1
  O  O24  1  0.624208  0.276797  0.335261  1
  O  O25  1  0.335261  0.624208  0.276797  1
  O  O26  1  0.711053  0.652589  0.375792  1
  O  O27  1  0.288947  0.664739  0.941536  1
  O  O28  1  0.723203  0.347411  0.058464  1
