# generated using pymatgen
data_Ta2Tl4Se11
_symmetry_space_group_name_H-M   'P 1'
_cell_length_a   8.28480989
_cell_length_b   9.40097024
_cell_length_c   14.12693356
_cell_angle_alpha   107.16029459
_cell_angle_beta   89.21686086
_cell_angle_gamma   94.31027409
_symmetry_Int_Tables_number   1
_chemical_formula_structural   Ta2Tl4Se11
_chemical_formula_sum   'Ta4 Tl8 Se22'
_cell_volume   1048.28347160
_cell_formula_units_Z   2
loop_
 _symmetry_equiv_pos_site_id
 _symmetry_equiv_pos_as_xyz
  1  'x, y, z'
loop_
 _atom_site_type_symbol
 _atom_site_label
 _atom_site_symmetry_multiplicity
 _atom_site_fract_x
 _atom_site_fract_y
 _atom_site_fract_z
 _atom_site_occupancy
  Ta  Ta0  1  0.664078  0.111680  0.811754  1
  Ta  Ta1  1  0.335922  0.888320  0.188246  1
  Ta  Ta2  1  0.875109  0.364857  0.696040  1
  Ta  Ta3  1  0.124891  0.635143  0.303960  1
  Tl  Tl4  1  0.953029  0.763077  0.018737  1
  Tl  Tl5  1  0.046971  0.236923  0.981263  1
  Tl  Tl6  1  0.789802  0.976439  0.425929  1
  Tl  Tl7  1  0.210198  0.023561  0.574071  1
  Tl  Tl8  1  0.494278  0.271013  0.109900  1
  Tl  Tl9  1  0.505722  0.728987  0.890100  1
  Tl  Tl10  1  0.766740  0.416653  0.419108  1
  Tl  Tl11  1  0.233260  0.583347  0.580892  1
  Se  Se12  1  0.727414  0.038209  0.958852  1
  Se  Se13  1  0.272586  0.961791  0.041148  1
  Se  Se14  1  0.538352  0.688881  0.118166  1
  Se  Se15  1  0.461648  0.311119  0.881834  1
  Se  Se16  1  0.741057  0.402038  0.887761  1
  Se  Se17  1  0.258943  0.597962  0.112239  1
  Se  Se18  1  0.966082  0.132509  0.750427  1
  Se  Se19  1  0.033918  0.867491  0.249573  1
  Se  Se20  1  0.595129  0.072947  0.247576  1
  Se  Se21  1  0.404871  0.927053  0.752424  1
  Se  Se22  1  0.654765  0.864892  0.668422  1
  Se  Se23  1  0.345235  0.135108  0.331578  1
  Se  Se24  1  0.604179  0.441104  0.647451  1
  Se  Se25  1  0.395821  0.558896  0.352549  1
  Se  Se26  1  0.889487  0.498658  0.184749  1
  Se  Se27  1  0.110513  0.501342  0.815251  1
  Se  Se28  1  0.946862  0.651882  0.749787  1
  Se  Se29  1  0.053138  0.348118  0.250213  1
  Se  Se30  1  0.612821  0.178666  0.629769  1
  Se  Se31  1  0.387179  0.821334  0.370231  1
  Se  Se32  1  0.984161  0.711688  0.464422  1
  Se  Se33  1  0.015839  0.288312  0.535578  1
