# generated using pymatgen
data_Pb(SeO3)2
_symmetry_space_group_name_H-M   'P 1'
_cell_length_a   4.97852757
_cell_length_b   9.02668916
_cell_length_c   7.30455656
_cell_angle_alpha   90.00000000
_cell_angle_beta   110.22532279
_cell_angle_gamma   90.00000000
_symmetry_Int_Tables_number   1
_chemical_formula_structural   Pb(SeO3)2
_chemical_formula_sum   'Pb2 Se4 O12'
_cell_volume   308.02334933
_cell_formula_units_Z   2
loop_
 _symmetry_equiv_pos_site_id
 _symmetry_equiv_pos_as_xyz
  1  'x, y, z'
loop_
 _atom_site_type_symbol
 _atom_site_label
 _atom_site_symmetry_multiplicity
 _atom_site_fract_x
 _atom_site_fract_y
 _atom_site_fract_z
 _atom_site_occupancy
  Pb  Pb0  1  0.500000  0.500000  0.500000  1
  Pb  Pb1  1  0.500000  0.000000  0.000000  1
  Se  Se2  1  0.140508  0.651513  0.813845  1
  Se  Se3  1  0.859492  0.348487  0.186155  1
  Se  Se4  1  0.140508  0.848487  0.313845  1
  Se  Se5  1  0.859492  0.151513  0.686155  1
  O  O6  1  0.414220  0.943198  0.270198  1
  O  O7  1  0.133175  0.153447  0.913700  1
  O  O8  1  0.225316  0.836045  0.793349  1
  O  O9  1  0.225316  0.663955  0.293349  1
  O  O10  1  0.585780  0.443198  0.229802  1
  O  O11  1  0.585780  0.056802  0.729802  1
  O  O12  1  0.414220  0.556802  0.770198  1
  O  O13  1  0.774684  0.336045  0.706651  1
  O  O14  1  0.774684  0.163955  0.206651  1
  O  O15  1  0.866825  0.653447  0.586300  1
  O  O16  1  0.133175  0.346553  0.413700  1
  O  O17  1  0.866825  0.846553  0.086300  1
