# generated using pymatgen
data_Te7(OF5)6
_symmetry_space_group_name_H-M   'P 1'
_cell_length_a   9.10331892
_cell_length_b   9.31288941
_cell_length_c   9.35085854
_cell_angle_alpha   115.43608945
_cell_angle_beta   100.22953856
_cell_angle_gamma   99.90437530
_symmetry_Int_Tables_number   1
_chemical_formula_structural   Te7(OF5)6
_chemical_formula_sum   'Te7 O6 F30'
_cell_volume   676.47181997
_cell_formula_units_Z   1
loop_
 _symmetry_equiv_pos_site_id
 _symmetry_equiv_pos_as_xyz
  1  'x, y, z'
loop_
 _atom_site_type_symbol
 _atom_site_label
 _atom_site_symmetry_multiplicity
 _atom_site_fract_x
 _atom_site_fract_y
 _atom_site_fract_z
 _atom_site_occupancy
  Te  Te0  1  0.000000  0.000000  0.000000  1
  Te  Te1  1  0.248687  0.394245  0.084363  1
  Te  Te2  1  0.751313  0.605755  0.915637  1
  Te  Te3  1  0.773791  0.242152  0.239131  1
  Te  Te4  1  0.226209  0.757848  0.760869  1
  Te  Te5  1  0.241745  0.074966  0.392842  1
  Te  Te6  1  0.758255  0.925034  0.607158  1
  O  O7  1  0.059187  0.220137  0.016800  1
  O  O8  1  0.940813  0.779863  0.983200  1
  O  O9  1  0.883674  0.074918  0.162327  1
  O  O10  1  0.116326  0.925082  0.837673  1
  O  O11  1  0.188475  0.054175  0.172938  1
  O  O12  1  0.811525  0.945825  0.827062  1
  F  F13  1  0.131188  0.545246  0.140314  1
  F  F14  1  0.868812  0.454754  0.859686  1
  F  F15  1  0.296873  0.427073  0.300986  1
  F  F16  1  0.703127  0.572927  0.699014  1
  F  F17  1  0.369654  0.246076  0.028876  1
  F  F18  1  0.630346  0.753924  0.971124  1
  F  F19  1  0.205436  0.370143  0.871204  1
  F  F20  1  0.794564  0.629857  0.128796  1
  F  F21  1  0.424637  0.567651  0.147179  1
  F  F22  1  0.575363  0.432349  0.852821  1
  F  F23  1  0.820001  0.243934  0.442525  1
  F  F24  1  0.179999  0.756066  0.557475  1
  F  F25  1  0.954412  0.414864  0.314047  1
  F  F26  1  0.045588  0.585136  0.685953  1
  F  F27  1  0.724820  0.244118  0.037236  1
  F  F28  1  0.275180  0.755882  0.962764  1
  F  F29  1  0.590674  0.074851  0.169678  1
  F  F30  1  0.409326  0.925149  0.830322  1
  F  F31  1  0.665977  0.398890  0.320136  1
  F  F32  1  0.334023  0.601110  0.679864  1
  F  F33  1  0.428781  0.227271  0.438595  1
  F  F34  1  0.571219  0.772729  0.561405  1
  F  F35  1  0.150469  0.247571  0.475575  1
  F  F36  1  0.849531  0.752429  0.524425  1
  F  F37  1  0.056236  0.921242  0.349931  1
  F  F38  1  0.943764  0.078758  0.650069  1
  F  F39  1  0.337132  0.904883  0.319247  1
  F  F40  1  0.662868  0.095117  0.680753  1
  F  F41  1  0.303681  0.099390  0.605043  1
  F  F42  1  0.696319  0.900610  0.394957  1
