# generated using pymatgen
data_Pr3OsI3
_symmetry_space_group_name_H-M   'P 1'
_cell_length_a   9.43649335
_cell_length_b   4.37538692
_cell_length_c   12.74279149
_cell_angle_alpha   90.00000000
_cell_angle_beta   93.08322409
_cell_angle_gamma   90.00000000
_symmetry_Int_Tables_number   1
_chemical_formula_structural   Pr3OsI3
_chemical_formula_sum   'Pr6 Os2 I6'
_cell_volume   525.36672899
_cell_formula_units_Z   2
loop_
 _symmetry_equiv_pos_site_id
 _symmetry_equiv_pos_as_xyz
  1  'x, y, z'
loop_
 _atom_site_type_symbol
 _atom_site_label
 _atom_site_symmetry_multiplicity
 _atom_site_fract_x
 _atom_site_fract_y
 _atom_site_fract_z
 _atom_site_occupancy
  Pr  Pr0  1  0.191510  0.750000  0.881091  1
  Pr  Pr1  1  0.383639  0.250000  0.668542  1
  Pr  Pr2  1  0.808490  0.250000  0.118909  1
  Pr  Pr3  1  0.405694  0.250000  0.109581  1
  Pr  Pr4  1  0.616361  0.750000  0.331458  1
  Pr  Pr5  1  0.594306  0.750000  0.890419  1
  Os  Os6  1  0.389528  0.250000  0.879796  1
  Os  Os7  1  0.610472  0.750000  0.120204  1
  I  I8  1  0.894981  0.250000  0.868325  1
  I  I9  1  0.630249  0.750000  0.618316  1
  I  I10  1  0.105019  0.750000  0.131675  1
  I  I11  1  0.864839  0.250000  0.376004  1
  I  I12  1  0.135161  0.750000  0.623996  1
  I  I13  1  0.369751  0.250000  0.381684  1
