# generated using pymatgen
data_BaAl2(GeO4)2
_symmetry_space_group_name_H-M   'P 1'
_cell_length_a   9.66901988
_cell_length_b   9.66901988
_cell_length_c   8.91742360
_cell_angle_alpha   82.21909012
_cell_angle_beta   97.78090988
_cell_angle_gamma   91.04484864
_symmetry_Int_Tables_number   1
_chemical_formula_structural   BaAl2(GeO4)2
_chemical_formula_sum   'Ba4 Al8 Ge8 O32'
_cell_volume   818.40856194
_cell_formula_units_Z   4
loop_
 _symmetry_equiv_pos_site_id
 _symmetry_equiv_pos_as_xyz
  1  'x, y, z'
loop_
 _atom_site_type_symbol
 _atom_site_label
 _atom_site_symmetry_multiplicity
 _atom_site_fract_x
 _atom_site_fract_y
 _atom_site_fract_z
 _atom_site_occupancy
  Ba  Ba0  1  0.433573  0.065777  0.710540  1
  Ba  Ba1  1  0.566427  0.934223  0.289460  1
  Ba  Ba2  1  0.934223  0.566427  0.210540  1
  Ba  Ba3  1  0.065777  0.433573  0.789460  1
  Al  Al4  1  0.294285  0.567730  0.108715  1
  Al  Al5  1  0.567730  0.294285  0.391285  1
  Al  Al6  1  0.945759  0.792779  0.526347  1
  Al  Al7  1  0.207221  0.054241  0.026347  1
  Al  Al8  1  0.432270  0.705715  0.608715  1
  Al  Al9  1  0.705715  0.432270  0.891285  1
  Al  Al10  1  0.792779  0.945759  0.973653  1
  Al  Al11  1  0.054241  0.207221  0.473653  1
  Ge  Ge12  1  0.291164  0.444354  0.476660  1
  Ge  Ge13  1  0.555646  0.708836  0.976660  1
  Ge  Ge14  1  0.070275  0.792145  0.894579  1
  Ge  Ge15  1  0.792145  0.070275  0.605421  1
  Ge  Ge16  1  0.708836  0.555646  0.523340  1
  Ge  Ge17  1  0.929725  0.207855  0.105421  1
  Ge  Ge18  1  0.444354  0.291164  0.023340  1
  Ge  Ge19  1  0.207855  0.929725  0.394579  1
  O  O20  1  0.368418  0.866065  0.501517  1
  O  O21  1  0.133935  0.631582  0.001517  1
  O  O22  1  0.646854  0.855623  0.039665  1
  O  O23  1  0.475840  0.761867  0.789010  1
  O  O24  1  0.238133  0.524160  0.289010  1
  O  O25  1  0.023877  0.738418  0.714279  1
  O  O26  1  0.933016  0.185901  0.607300  1
  O  O27  1  0.761867  0.475840  0.710990  1
  O  O28  1  0.677833  0.573607  0.991032  1
  O  O29  1  0.261582  0.976123  0.214279  1
  O  O30  1  0.814099  0.066984  0.107300  1
  O  O31  1  0.066984  0.814099  0.392700  1
  O  O32  1  0.866065  0.368418  0.998483  1
  O  O33  1  0.681932  0.437164  0.388879  1
  O  O34  1  0.823395  0.928570  0.508463  1
  O  O35  1  0.976123  0.261582  0.285721  1
  O  O36  1  0.524160  0.238133  0.210990  1
  O  O37  1  0.322167  0.426393  0.008968  1
  O  O38  1  0.573607  0.677833  0.508968  1
  O  O39  1  0.855623  0.646854  0.460335  1
  O  O40  1  0.437164  0.681932  0.111121  1
  O  O41  1  0.318068  0.562836  0.611121  1
  O  O42  1  0.738418  0.023877  0.785721  1
  O  O43  1  0.426393  0.322167  0.491032  1
  O  O44  1  0.353146  0.144377  0.960335  1
  O  O45  1  0.928570  0.823395  0.991537  1
  O  O46  1  0.185901  0.933016  0.892700  1
  O  O47  1  0.631582  0.133935  0.498483  1
  O  O48  1  0.176605  0.071430  0.491537  1
  O  O49  1  0.562836  0.318068  0.888879  1
  O  O50  1  0.144377  0.353146  0.539665  1
  O  O51  1  0.071430  0.176605  0.008463  1
