# generated using pymatgen
data_NbAgO3
_symmetry_space_group_name_H-M   'P 1'
_cell_length_a   5.67056394
_cell_length_b   5.74775136
_cell_length_c   15.76260209
_cell_angle_alpha   90.00000000
_cell_angle_beta   90.00000000
_cell_angle_gamma   90.00000000
_symmetry_Int_Tables_number   1
_chemical_formula_structural   NbAgO3
_chemical_formula_sum   'Nb8 Ag8 O24'
_cell_volume   513.75035748
_cell_formula_units_Z   8
loop_
 _symmetry_equiv_pos_site_id
 _symmetry_equiv_pos_as_xyz
  1  'x, y, z'
loop_
 _atom_site_type_symbol
 _atom_site_label
 _atom_site_symmetry_multiplicity
 _atom_site_fract_x
 _atom_site_fract_y
 _atom_site_fract_z
 _atom_site_occupancy
  Nb  Nb0  1  0.242406  0.214532  0.124993  1
  Nb  Nb1  1  0.242406  0.285468  0.875007  1
  Nb  Nb2  1  0.757594  0.714532  0.375007  1
  Nb  Nb3  1  0.757594  0.785468  0.624993  1
  Nb  Nb4  1  0.757594  0.785468  0.875007  1
  Nb  Nb5  1  0.757594  0.714532  0.124993  1
  Nb  Nb6  1  0.242406  0.285468  0.624993  1
  Nb  Nb7  1  0.242406  0.214532  0.375007  1
  Ag  Ag8  1  0.740286  0.250000  0.000000  1
  Ag  Ag9  1  0.259714  0.750000  0.500000  1
  Ag  Ag10  1  0.259714  0.750000  0.000000  1
  Ag  Ag11  1  0.740286  0.250000  0.500000  1
  Ag  Ag12  1  0.735179  0.215783  0.250000  1
  Ag  Ag13  1  0.735179  0.284217  0.750000  1
  Ag  Ag14  1  0.264821  0.715783  0.250000  1
  Ag  Ag15  1  0.264821  0.784217  0.750000  1
  O  O16  1  0.805059  0.725733  0.750000  1
  O  O17  1  0.805059  0.774267  0.250000  1
  O  O18  1  0.194941  0.225733  0.750000  1
  O  O19  1  0.194941  0.274267  0.250000  1
  O  O20  1  0.546418  0.462491  0.359699  1
  O  O21  1  0.546418  0.037509  0.640301  1
  O  O22  1  0.453582  0.962491  0.140301  1
  O  O23  1  0.453582  0.537509  0.859699  1
  O  O24  1  0.453582  0.537509  0.640301  1
  O  O25  1  0.453582  0.962491  0.359699  1
  O  O26  1  0.546418  0.037509  0.859699  1
  O  O27  1  0.546418  0.462491  0.140301  1
  O  O28  1  0.958961  0.043482  0.390332  1
  O  O29  1  0.958961  0.456518  0.609668  1
  O  O30  1  0.041039  0.543482  0.109668  1
  O  O31  1  0.041039  0.956518  0.890332  1
  O  O32  1  0.311232  0.250000  0.000000  1
  O  O33  1  0.688768  0.750000  0.500000  1
  O  O34  1  0.688768  0.750000  0.000000  1
  O  O35  1  0.311232  0.250000  0.500000  1
  O  O36  1  0.958961  0.043482  0.109668  1
  O  O37  1  0.958961  0.456518  0.890332  1
  O  O38  1  0.041039  0.543482  0.390332  1
  O  O39  1  0.041039  0.956518  0.609668  1
