# generated using pymatgen
data_Cs2Np2PO4F7
_symmetry_space_group_name_H-M   'P 1'
_cell_length_a   7.90043830
_cell_length_b   16.50873426
_cell_length_c   8.99859305
_cell_angle_alpha   90.00000000
_cell_angle_beta   112.50481527
_cell_angle_gamma   90.00000000
_symmetry_Int_Tables_number   1
_chemical_formula_structural   Cs2Np2PO4F7
_chemical_formula_sum   'Cs8 Np8 P4 O16 F28'
_cell_volume   1084.27588833
_cell_formula_units_Z   4
loop_
 _symmetry_equiv_pos_site_id
 _symmetry_equiv_pos_as_xyz
  1  'x, y, z'
loop_
 _atom_site_type_symbol
 _atom_site_label
 _atom_site_symmetry_multiplicity
 _atom_site_fract_x
 _atom_site_fract_y
 _atom_site_fract_z
 _atom_site_occupancy
  Cs  Cs0  1  0.264537  0.506845  0.646858  1
  Cs  Cs1  1  0.764537  0.993155  0.646858  1
  Cs  Cs2  1  0.086948  0.829814  0.972051  1
  Cs  Cs3  1  0.913052  0.170186  0.027949  1
  Cs  Cs4  1  0.413052  0.329814  0.027949  1
  Cs  Cs5  1  0.235463  0.006845  0.353142  1
  Cs  Cs6  1  0.586948  0.670186  0.972051  1
  Cs  Cs7  1  0.735463  0.493155  0.353142  1
  Np  Np8  1  0.994556  0.760493  0.457619  1
  Np  Np9  1  0.169858  0.579679  0.148613  1
  Np  Np10  1  0.669858  0.920321  0.148613  1
  Np  Np11  1  0.005444  0.239507  0.542381  1
  Np  Np12  1  0.330142  0.079679  0.851387  1
  Np  Np13  1  0.494556  0.739507  0.457619  1
  Np  Np14  1  0.505444  0.260493  0.542381  1
  Np  Np15  1  0.830142  0.420321  0.851387  1
  P  P16  1  0.882576  0.626862  0.728260  1
  P  P17  1  0.117424  0.373138  0.271740  1
  P  P18  1  0.617424  0.126862  0.271740  1
  P  P19  1  0.382576  0.873138  0.728260  1
  O  O20  1  0.303742  0.327121  0.324191  1
  O  O21  1  0.696258  0.672879  0.675809  1
  O  O22  1  0.003184  0.645559  0.907127  1
  O  O23  1  0.011271  0.347105  0.377688  1
  O  O24  1  0.196258  0.827121  0.675809  1
  O  O25  1  0.838757  0.534808  0.706745  1
  O  O26  1  0.661243  0.034808  0.293255  1
  O  O27  1  0.803742  0.172879  0.324191  1
  O  O28  1  0.996816  0.354441  0.092873  1
  O  O29  1  0.988729  0.652895  0.622312  1
  O  O30  1  0.338757  0.965192  0.706745  1
  O  O31  1  0.511271  0.152895  0.377688  1
  O  O32  1  0.503184  0.854441  0.907127  1
  O  O33  1  0.496816  0.145559  0.092873  1
  O  O34  1  0.488729  0.847105  0.622312  1
  O  O35  1  0.161243  0.465192  0.293255  1
  F  F36  1  0.588816  0.401348  0.605225  1
  F  F37  1  0.911184  0.901348  0.394775  1
  F  F38  1  0.978536  0.351854  0.717404  1
  F  F39  1  0.699229  0.693484  0.348806  1
  F  F40  1  0.813629  0.795624  0.175821  1
  F  F41  1  0.701020  0.304845  0.433004  1
  F  F42  1  0.478536  0.148146  0.717404  1
  F  F43  1  0.910962  0.948834  0.098909  1
  F  F44  1  0.589038  0.448834  0.901091  1
  F  F45  1  0.874818  0.527451  0.046521  1
  F  F46  1  0.411184  0.598652  0.394775  1
  F  F47  1  0.089038  0.051166  0.901091  1
  F  F48  1  0.313629  0.704376  0.175821  1
  F  F49  1  0.300771  0.306516  0.651194  1
  F  F50  1  0.374818  0.972549  0.046521  1
  F  F51  1  0.199229  0.806516  0.348806  1
  F  F52  1  0.410962  0.551166  0.098909  1
  F  F53  1  0.798980  0.804845  0.566996  1
  F  F54  1  0.686371  0.295624  0.824179  1
  F  F55  1  0.298980  0.695155  0.566996  1
  F  F56  1  0.521464  0.851854  0.282596  1
  F  F57  1  0.800771  0.193484  0.651194  1
  F  F58  1  0.021464  0.648146  0.282596  1
  F  F59  1  0.201020  0.195155  0.433004  1
  F  F60  1  0.125182  0.472549  0.953479  1
  F  F61  1  0.088816  0.098652  0.605225  1
  F  F62  1  0.625182  0.027451  0.953479  1
  F  F63  1  0.186371  0.204376  0.824179  1
