# generated using pymatgen
data_BaPt2S3
_symmetry_space_group_name_H-M   'P 1'
_cell_length_a   11.20913018
_cell_length_b   11.20913018
_cell_length_c   13.33911623
_cell_angle_alpha   90.00000000
_cell_angle_beta   90.00000000
_cell_angle_gamma   90.00000000
_symmetry_Int_Tables_number   1
_chemical_formula_structural   BaPt2S3
_chemical_formula_sum   'Ba12 Pt24 S36'
_cell_volume   1675.98791496
_cell_formula_units_Z   12
loop_
 _symmetry_equiv_pos_site_id
 _symmetry_equiv_pos_as_xyz
  1  'x, y, z'
loop_
 _atom_site_type_symbol
 _atom_site_label
 _atom_site_symmetry_multiplicity
 _atom_site_fract_x
 _atom_site_fract_y
 _atom_site_fract_z
 _atom_site_occupancy
  Ba  Ba0  1  0.898630  0.677470  0.249859  1
  Ba  Ba1  1  0.822530  0.398630  0.499859  1
  Ba  Ba2  1  0.677470  0.898630  0.750141  1
  Ba  Ba3  1  0.601370  0.177470  0.000141  1
  Ba  Ba4  1  0.177470  0.601370  0.999859  1
  Ba  Ba5  1  0.101370  0.322530  0.749859  1
  Ba  Ba6  1  0.394129  0.394129  0.500000  1
  Ba  Ba7  1  0.322530  0.101370  0.250141  1
  Ba  Ba8  1  0.398630  0.822530  0.500141  1
  Ba  Ba9  1  0.105871  0.894129  0.750000  1
  Ba  Ba10  1  0.894129  0.105871  0.250000  1
  Ba  Ba11  1  0.605871  0.605871  0.000000  1
  Pt  Pt12  1  0.634303  0.039686  0.366946  1
  Pt  Pt13  1  0.357835  0.269687  0.867876  1
  Pt  Pt14  1  0.111265  0.111265  0.000000  1
  Pt  Pt15  1  0.039686  0.634303  0.633054  1
  Pt  Pt16  1  0.386554  0.613446  0.750000  1
  Pt  Pt17  1  0.888735  0.888735  0.500000  1
  Pt  Pt18  1  0.769687  0.142165  0.617876  1
  Pt  Pt19  1  0.134303  0.460314  0.383054  1
  Pt  Pt20  1  0.886554  0.886554  0.000000  1
  Pt  Pt21  1  0.730313  0.642165  0.632124  1
  Pt  Pt22  1  0.857835  0.230313  0.882124  1
  Pt  Pt23  1  0.230313  0.857835  0.117876  1
  Pt  Pt24  1  0.611265  0.388735  0.750000  1
  Pt  Pt25  1  0.460314  0.134303  0.616946  1
  Pt  Pt26  1  0.539686  0.865697  0.116946  1
  Pt  Pt27  1  0.113446  0.113446  0.500000  1
  Pt  Pt28  1  0.142165  0.769687  0.382124  1
  Pt  Pt29  1  0.642165  0.730313  0.367876  1
  Pt  Pt30  1  0.865697  0.539686  0.883054  1
  Pt  Pt31  1  0.388735  0.611265  0.250000  1
  Pt  Pt32  1  0.960314  0.365697  0.133054  1
  Pt  Pt33  1  0.613446  0.386554  0.250000  1
  Pt  Pt34  1  0.365697  0.960314  0.866946  1
  Pt  Pt35  1  0.269687  0.357835  0.132124  1
  S  S36  1  0.114285  0.322599  0.251272  1
  S  S37  1  0.177401  0.614285  0.501272  1
  S  S38  1  0.598506  0.598506  0.500000  1
  S  S39  1  0.319847  0.112500  0.980354  1
  S  S40  1  0.597632  0.594550  0.238768  1
  S  S41  1  0.680153  0.887500  0.480354  1
  S  S42  1  0.098506  0.901494  0.250000  1
  S  S43  1  0.094550  0.902368  0.988768  1
  S  S44  1  0.324097  0.104900  0.482607  1
  S  S45  1  0.822599  0.385715  0.001272  1
  S  S46  1  0.097632  0.905450  0.511232  1
  S  S47  1  0.175903  0.604900  0.767393  1
  S  S48  1  0.395100  0.824097  0.732607  1
  S  S49  1  0.902368  0.094550  0.011232  1
  S  S50  1  0.824097  0.395100  0.267393  1
  S  S51  1  0.322599  0.114285  0.748728  1
  S  S52  1  0.895100  0.675903  0.017393  1
  S  S53  1  0.112500  0.319847  0.019646  1
  S  S54  1  0.612500  0.180153  0.730354  1
  S  S55  1  0.614285  0.177401  0.498728  1
  S  S56  1  0.401494  0.401494  0.000000  1
  S  S57  1  0.675903  0.895100  0.982607  1
  S  S58  1  0.905450  0.097632  0.488768  1
  S  S59  1  0.402368  0.405450  0.738768  1
  S  S60  1  0.180153  0.612500  0.269646  1
  S  S61  1  0.604900  0.175903  0.232607  1
  S  S62  1  0.819847  0.387500  0.769646  1
  S  S63  1  0.901494  0.098506  0.750000  1
  S  S64  1  0.885715  0.677401  0.751272  1
  S  S65  1  0.387500  0.819847  0.230354  1
  S  S66  1  0.887500  0.680153  0.519646  1
  S  S67  1  0.594550  0.597632  0.761232  1
  S  S68  1  0.677401  0.885715  0.248728  1
  S  S69  1  0.104900  0.324097  0.517393  1
  S  S70  1  0.385715  0.822599  0.998728  1
  S  S71  1  0.405450  0.402368  0.261232  1
