# generated using pymatgen
data_BaPb2BrF5
_symmetry_space_group_name_H-M   'P 1'
_cell_length_a   6.04260168
_cell_length_b   6.04260168
_cell_length_c   9.87400176
_cell_angle_alpha   90.00000000
_cell_angle_beta   90.00000000
_cell_angle_gamma   90.00000000
_symmetry_Int_Tables_number   1
_chemical_formula_structural   BaPb2BrF5
_chemical_formula_sum   'Ba2 Pb4 Br2 F10'
_cell_volume   360.52977248
_cell_formula_units_Z   2
loop_
 _symmetry_equiv_pos_site_id
 _symmetry_equiv_pos_as_xyz
  1  'x, y, z'
loop_
 _atom_site_type_symbol
 _atom_site_label
 _atom_site_symmetry_multiplicity
 _atom_site_fract_x
 _atom_site_fract_y
 _atom_site_fract_z
 _atom_site_occupancy
  Ba  Ba0  1  0.500000  0.500000  0.000000  1
  Ba  Ba1  1  0.000000  0.000000  0.000000  1
  Pb  Pb2  1  0.000000  0.500000  0.321544  1
  Pb  Pb3  1  0.500000  0.000000  0.678456  1
  Pb  Pb4  1  0.500000  0.000000  0.276022  1
  Pb  Pb5  1  0.000000  0.500000  0.723978  1
  Br  Br6  1  0.500000  0.500000  0.500000  1
  Br  Br7  1  0.000000  0.000000  0.500000  1
  F  F8  1  0.000000  0.500000  0.959592  1
  F  F9  1  0.265498  0.234502  0.811873  1
  F  F10  1  0.234502  0.265498  0.188127  1
  F  F11  1  0.500000  0.000000  0.040408  1
  F  F12  1  0.734502  0.765498  0.811873  1
  F  F13  1  0.234502  0.734502  0.188127  1
  F  F14  1  0.265498  0.765498  0.811873  1
  F  F15  1  0.734502  0.234502  0.811873  1
  F  F16  1  0.765498  0.265498  0.188127  1
  F  F17  1  0.765498  0.734502  0.188127  1
