# generated using pymatgen
data_Te6Mo(OF5)6
_symmetry_space_group_name_H-M   'P 1'
_cell_length_a   9.35011287
_cell_length_b   9.35427794
_cell_length_c   9.46727832
_cell_angle_alpha   111.65406535
_cell_angle_beta   116.26530694
_cell_angle_gamma   82.80518071
_symmetry_Int_Tables_number   1
_chemical_formula_structural   Te6Mo(OF5)6
_chemical_formula_sum   'Te6 Mo1 O6 F30'
_cell_volume   689.42795902
_cell_formula_units_Z   1
loop_
 _symmetry_equiv_pos_site_id
 _symmetry_equiv_pos_as_xyz
  1  'x, y, z'
loop_
 _atom_site_type_symbol
 _atom_site_label
 _atom_site_symmetry_multiplicity
 _atom_site_fract_x
 _atom_site_fract_y
 _atom_site_fract_z
 _atom_site_occupancy
  Te  Te0  1  0.685379  0.250201  0.081295  1
  Te  Te1  1  0.314621  0.749799  0.918705  1
  Te  Te2  1  0.674843  0.759130  0.606501  1
  Te  Te3  1  0.325157  0.240870  0.393499  1
  Te  Te4  1  0.001123  0.230772  0.756694  1
  Te  Te5  1  0.998877  0.769228  0.243306  1
  Mo  Mo6  1  0.000000  0.000000  0.000000  1
  O  O7  1  0.809307  0.075723  0.029539  1
  O  O8  1  0.190693  0.924277  0.970461  1
  O  O9  1  0.872517  0.873011  0.769234  1
  O  O10  1  0.127483  0.126989  0.230766  1
  O  O11  1  0.006939  0.168373  0.930744  1
  O  O12  1  0.993061  0.831627  0.069256  1
  F  F13  1  0.496863  0.128413  0.941913  1
  F  F14  1  0.503137  0.871587  0.058087  1
  F  F15  1  0.566828  0.420742  0.133648  1
  F  F16  1  0.433172  0.579258  0.866352  1
  F  F17  1  0.669405  0.296631  0.899045  1
  F  F18  1  0.330595  0.703369  0.100955  1
  F  F19  1  0.871466  0.376543  0.222588  1
  F  F20  1  0.128534  0.623457  0.777412  1
  F  F21  1  0.696210  0.205802  0.262400  1
  F  F22  1  0.303790  0.794198  0.737600  1
  F  F23  1  0.561112  0.936774  0.649388  1
  F  F24  1  0.438888  0.063226  0.350612  1
  F  F25  1  0.784336  0.579847  0.558763  1
  F  F26  1  0.215664  0.420153  0.441237  1
  F  F27  1  0.689562  0.803173  0.436437  1
  F  F28  1  0.310438  0.196827  0.563563  1
  F  F29  1  0.655328  0.711043  0.772522  1
  F  F30  1  0.344672  0.288957  0.227478  1
  F  F31  1  0.482501  0.648518  0.449248  1
  F  F32  1  0.517499  0.351482  0.550752  1
  F  F33  1  0.802476  0.127307  0.608682  1
  F  F34  1  0.197524  0.872693  0.391318  1
  F  F35  1  0.898659  0.409131  0.825803  1
  F  F36  1  0.101341  0.590869  0.174197  1
  F  F37  1  0.105124  0.053968  0.684266  1
  F  F38  1  0.894876  0.946032  0.315734  1
  F  F39  1  0.198314  0.337072  0.901411  1
  F  F40  1  0.801686  0.662928  0.098589  1
  F  F41  1  0.995907  0.290064  0.586764  1
  F  F42  1  0.004093  0.709936  0.413236  1
