# generated using pymatgen
data_Sc2GaB2Rh5
_symmetry_space_group_name_H-M   'P 1'
_cell_length_a   9.34747577
_cell_length_b   9.34747577
_cell_length_c   3.08165793
_cell_angle_alpha   90.00000000
_cell_angle_beta   90.00000000
_cell_angle_gamma   90.00000000
_symmetry_Int_Tables_number   1
_chemical_formula_structural   Sc2GaB2Rh5
_chemical_formula_sum   'Sc4 Ga2 B4 Rh10'
_cell_volume   269.26079621
_cell_formula_units_Z   2
loop_
 _symmetry_equiv_pos_site_id
 _symmetry_equiv_pos_as_xyz
  1  'x, y, z'
loop_
 _atom_site_type_symbol
 _atom_site_label
 _atom_site_symmetry_multiplicity
 _atom_site_fract_x
 _atom_site_fract_y
 _atom_site_fract_z
 _atom_site_occupancy
  Sc  Sc0  1  0.825146  0.325146  0.000000  1
  Sc  Sc1  1  0.325146  0.174854  0.000000  1
  Sc  Sc2  1  0.674854  0.825146  0.000000  1
  Sc  Sc3  1  0.174854  0.674854  0.000000  1
  Ga  Ga4  1  0.000000  0.000000  0.000000  1
  Ga  Ga5  1  0.500000  0.500000  0.000000  1
  B  B6  1  0.624659  0.124659  0.000000  1
  B  B7  1  0.124659  0.375341  0.000000  1
  B  B8  1  0.875341  0.624659  0.000000  1
  B  B9  1  0.375341  0.875341  0.000000  1
  Rh  Rh10  1  0.070968  0.216570  0.500000  1
  Rh  Rh11  1  0.216570  0.929032  0.500000  1
  Rh  Rh12  1  0.783430  0.070968  0.500000  1
  Rh  Rh13  1  0.929032  0.783430  0.500000  1
  Rh  Rh14  1  0.429032  0.716570  0.500000  1
  Rh  Rh15  1  0.570968  0.283430  0.500000  1
  Rh  Rh16  1  0.716570  0.570968  0.500000  1
  Rh  Rh17  1  0.283430  0.429032  0.500000  1
  Rh  Rh18  1  0.500000  0.000000  0.500000  1
  Rh  Rh19  1  0.000000  0.500000  0.500000  1
