# generated using pymatgen
data_Sr3Cu3(PO4)4
_symmetry_space_group_name_H-M   'P 1'
_cell_length_a   9.35665638
_cell_length_b   5.01746456
_cell_length_c   17.44428168
_cell_angle_alpha   90.00000000
_cell_angle_beta   119.54520864
_cell_angle_gamma   90.00000000
_symmetry_Int_Tables_number   1
_chemical_formula_structural   Sr3Cu3(PO4)4
_chemical_formula_sum   'Sr6 Cu6 P8 O32'
_cell_volume   712.46052396
_cell_formula_units_Z   2
loop_
 _symmetry_equiv_pos_site_id
 _symmetry_equiv_pos_as_xyz
  1  'x, y, z'
loop_
 _atom_site_type_symbol
 _atom_site_label
 _atom_site_symmetry_multiplicity
 _atom_site_fract_x
 _atom_site_fract_y
 _atom_site_fract_z
 _atom_site_occupancy
  Sr  Sr0  1  0.194130  0.034796  0.736061  1
  Sr  Sr1  1  0.805870  0.965204  0.263939  1
  Sr  Sr2  1  0.194130  0.465204  0.236061  1
  Sr  Sr3  1  0.500000  0.500000  0.500000  1
  Sr  Sr4  1  0.805870  0.534796  0.763939  1
  Sr  Sr5  1  0.500000  0.000000  0.000000  1
  Cu  Cu6  1  0.293861  0.536417  0.621015  1
  Cu  Cu7  1  0.293861  0.963583  0.121015  1
  Cu  Cu8  1  0.706139  0.036417  0.878985  1
  Cu  Cu9  1  0.706139  0.463583  0.378985  1
  Cu  Cu10  1  0.000000  0.000000  0.500000  1
  Cu  Cu11  1  0.000000  0.500000  0.000000  1
  P  P12  1  0.533065  0.020614  0.663075  1
  P  P13  1  0.533065  0.479386  0.163075  1
  P  P14  1  0.466935  0.520614  0.836925  1
  P  P15  1  0.061292  0.509872  0.412251  1
  P  P16  1  0.938708  0.490128  0.587749  1
  P  P17  1  0.938708  0.009872  0.087749  1
  P  P18  1  0.061292  0.990128  0.912251  1
  P  P19  1  0.466935  0.979386  0.336925  1
  O  O20  1  0.927880  0.808322  0.918471  1
  O  O21  1  0.995988  0.714075  0.093848  1
  O  O22  1  0.769668  0.060313  0.004717  1
  O  O23  1  0.673569  0.520474  0.261818  1
  O  O24  1  0.230332  0.939687  0.995283  1
  O  O25  1  0.326431  0.479526  0.738182  1
  O  O26  1  0.522814  0.324488  0.643385  1
  O  O27  1  0.636233  0.424100  0.850584  1
  O  O28  1  0.934777  0.414577  0.671598  1
  O  O29  1  0.592779  0.636170  0.108981  1
  O  O30  1  0.995988  0.785925  0.593848  1
  O  O31  1  0.004012  0.214075  0.406152  1
  O  O32  1  0.407221  0.136170  0.391019  1
  O  O33  1  0.769668  0.439687  0.504717  1
  O  O34  1  0.326431  0.020474  0.238182  1
  O  O35  1  0.072120  0.191678  0.081529  1
  O  O36  1  0.363767  0.924100  0.649416  1
  O  O37  1  0.230332  0.560313  0.495283  1
  O  O38  1  0.477186  0.675512  0.356615  1
  O  O39  1  0.004012  0.285925  0.906152  1
  O  O40  1  0.934777  0.085423  0.171598  1
  O  O41  1  0.673569  0.979526  0.761818  1
  O  O42  1  0.407221  0.363830  0.891019  1
  O  O43  1  0.522814  0.175512  0.143385  1
  O  O44  1  0.065223  0.914577  0.828402  1
  O  O45  1  0.072120  0.308322  0.581529  1
  O  O46  1  0.363767  0.575900  0.149416  1
  O  O47  1  0.477186  0.824488  0.856615  1
  O  O48  1  0.592779  0.863830  0.608981  1
  O  O49  1  0.636233  0.075900  0.350584  1
  O  O50  1  0.065223  0.585423  0.328402  1
  O  O51  1  0.927880  0.691678  0.418471  1
