# generated using pymatgen
data_Ca7(B7Rh10)2
_symmetry_space_group_name_H-M   'P 1'
_cell_length_a   20.87641035
_cell_length_b   20.49006442
_cell_length_c   5.62374233
_cell_angle_alpha   86.10752795
_cell_angle_beta   78.30190652
_cell_angle_gamma   15.59056553
_symmetry_Int_Tables_number   1
_chemical_formula_structural   Ca7(B7Rh10)2
_chemical_formula_sum   'Ca7 B14 Rh20'
_cell_volume   553.96737352
_cell_formula_units_Z   1
loop_
 _symmetry_equiv_pos_site_id
 _symmetry_equiv_pos_as_xyz
  1  'x, y, z'
loop_
 _atom_site_type_symbol
 _atom_site_label
 _atom_site_symmetry_multiplicity
 _atom_site_fract_x
 _atom_site_fract_y
 _atom_site_fract_z
 _atom_site_occupancy
  Ca  Ca0  1  0.353465  0.353465  0.646535  1
  Ca  Ca1  1  0.722199  0.722199  0.277801  1
  Ca  Ca2  1  0.277801  0.277801  0.722199  1
  Ca  Ca3  1  0.500000  0.500000  0.500000  1
  Ca  Ca4  1  0.646535  0.646535  0.353465  1
  Ca  Ca5  1  0.427061  0.427061  0.572939  1
  Ca  Ca6  1  0.572939  0.572939  0.427061  1
  B  B7  1  0.238642  0.905753  0.094247  1
  B  B8  1  0.977674  0.310876  0.689124  1
  B  B9  1  0.689124  0.022326  0.977674  1
  B  B10  1  0.022326  0.689124  0.310876  1
  B  B11  1  0.622185  0.944842  0.055158  1
  B  B12  1  0.761358  0.094247  0.905753  1
  B  B13  1  0.833673  0.166327  0.833673  1
  B  B14  1  0.944842  0.622185  0.377815  1
  B  B15  1  0.094247  0.761358  0.238642  1
  B  B16  1  0.905753  0.238642  0.761358  1
  B  B17  1  0.166327  0.833673  0.166327  1
  B  B18  1  0.055158  0.377815  0.622185  1
  B  B19  1  0.310876  0.977674  0.022326  1
  B  B20  1  0.377815  0.055158  0.944842  1
  Rh  Rh21  1  0.180269  0.180269  0.319731  1
  Rh  Rh22  1  0.891967  0.891967  0.108033  1
  Rh  Rh23  1  0.536031  0.536031  0.963969  1
  Rh  Rh24  1  0.180714  0.180714  0.819286  1
  Rh  Rh25  1  0.891708  0.891708  0.608292  1
  Rh  Rh26  1  0.108033  0.108033  0.891967  1
  Rh  Rh27  1  0.964024  0.964024  0.035976  1
  Rh  Rh28  1  0.391708  0.391708  0.108292  1
  Rh  Rh29  1  0.319731  0.319731  0.180269  1
  Rh  Rh30  1  0.963969  0.963969  0.536031  1
  Rh  Rh31  1  0.463969  0.463969  0.036031  1
  Rh  Rh32  1  0.819731  0.819731  0.680269  1
  Rh  Rh33  1  0.108292  0.108292  0.391708  1
  Rh  Rh34  1  0.250000  0.250000  0.250000  1
  Rh  Rh35  1  0.036031  0.036031  0.463969  1
  Rh  Rh36  1  0.819286  0.819286  0.180714  1
  Rh  Rh37  1  0.035976  0.035976  0.964024  1
  Rh  Rh38  1  0.608292  0.608292  0.891708  1
  Rh  Rh39  1  0.750000  0.750000  0.750000  1
  Rh  Rh40  1  0.680269  0.680269  0.819731  1
