# generated using pymatgen
data_K8Th(MoO4)6
_symmetry_space_group_name_H-M   'P 1'
_cell_length_a   10.50619533
_cell_length_b   10.51680527
_cell_length_c   14.75313586
_cell_angle_alpha   75.81537316
_cell_angle_beta   83.13806786
_cell_angle_gamma   61.72157703
_symmetry_Int_Tables_number   1
_chemical_formula_structural   K8Th(MoO4)6
_chemical_formula_sum   'K16 Th2 Mo12 O48'
_cell_volume   1391.77569414
_cell_formula_units_Z   2
loop_
 _symmetry_equiv_pos_site_id
 _symmetry_equiv_pos_as_xyz
  1  'x, y, z'
loop_
 _atom_site_type_symbol
 _atom_site_label
 _atom_site_symmetry_multiplicity
 _atom_site_fract_x
 _atom_site_fract_y
 _atom_site_fract_z
 _atom_site_occupancy
  K  K0  1  0.995365  0.355788  0.456583  1
  K  K1  1  0.666320  0.504176  0.949826  1
  K  K2  1  0.990436  0.154285  0.041340  1
  K  K3  1  0.333680  0.495824  0.050174  1
  K  K4  1  0.009564  0.845715  0.958660  1
  K  K5  1  0.323740  0.982908  0.552818  1
  K  K6  1  0.310890  0.205160  0.951488  1
  K  K7  1  0.689110  0.794840  0.048512  1
  K  K8  1  0.004635  0.644212  0.543417  1
  K  K9  1  0.016328  0.248850  0.748060  1
  K  K10  1  0.983672  0.751150  0.251940  1
  K  K11  1  0.676260  0.017092  0.447182  1
  K  K12  1  0.332977  0.576467  0.751591  1
  K  K13  1  0.669353  0.321920  0.541393  1
  K  K14  1  0.667023  0.423533  0.248409  1
  K  K15  1  0.330647  0.678080  0.458607  1
  Th  Th16  1  0.308563  0.068538  0.248797  1
  Th  Th17  1  0.691437  0.931462  0.751203  1
  Mo  Mo18  1  0.670462  0.111848  0.155905  1
  Mo  Mo19  1  0.348363  0.270403  0.646556  1
  Mo  Mo20  1  0.990709  0.949257  0.645529  1
  Mo  Mo21  1  0.331035  0.390919  0.343108  1
  Mo  Mo22  1  0.668965  0.609081  0.656892  1
  Mo  Mo23  1  0.001560  0.446169  0.149658  1
  Mo  Mo24  1  0.329538  0.888152  0.844095  1
  Mo  Mo25  1  0.334237  0.803357  0.143676  1
  Mo  Mo26  1  0.998440  0.553831  0.850342  1
  Mo  Mo27  1  0.651637  0.729597  0.353444  1
  Mo  Mo28  1  0.665763  0.196643  0.856324  1
  Mo  Mo29  1  0.009291  0.050743  0.354471  1
  O  O30  1  0.372024  0.432100  0.602271  1
  O  O31  1  0.202460  0.281704  0.588241  1
  O  O32  1  0.498630  0.099808  0.166073  1
  O  O33  1  0.358821  0.706301  0.901211  1
  O  O34  1  0.007422  0.616963  0.103479  1
  O  O35  1  0.175192  0.807173  0.110135  1
  O  O36  1  0.797540  0.718296  0.411759  1
  O  O37  1  0.992578  0.383037  0.896521  1
  O  O38  1  0.642493  0.509487  0.767415  1
  O  O39  1  0.852843  0.193155  0.394918  1
  O  O40  1  0.803736  0.983390  0.092260  1
  O  O41  1  0.512544  0.096371  0.633538  1
  O  O42  1  0.965730  0.429558  0.271260  1
  O  O43  1  0.305696  0.257149  0.767359  1
  O  O44  1  0.822841  0.482679  0.603008  1
  O  O45  1  0.488909  0.321484  0.411093  1
  O  O46  1  0.696480  0.764819  0.670752  1
  O  O47  1  0.501370  0.900192  0.833927  1
  O  O48  1  0.303520  0.235181  0.329248  1
  O  O49  1  0.053248  0.093716  0.230764  1
  O  O50  1  0.177159  0.517321  0.396992  1
  O  O51  1  0.660793  0.196301  0.733041  1
  O  O52  1  0.857699  0.448617  0.094268  1
  O  O53  1  0.627976  0.567900  0.397729  1
  O  O54  1  0.034270  0.570442  0.728740  1
  O  O55  1  0.010854  0.876147  0.393850  1
  O  O56  1  0.511091  0.678516  0.588907  1
  O  O57  1  0.946752  0.906284  0.769236  1
  O  O58  1  0.196264  0.016610  0.907740  1
  O  O59  1  0.339207  0.803699  0.266959  1
  O  O60  1  0.744004  0.071718  0.268067  1
  O  O61  1  0.171380  0.038479  0.398011  1
  O  O62  1  0.672176  0.015276  0.899777  1
  O  O63  1  0.828620  0.961521  0.601989  1
  O  O64  1  0.989146  0.123853  0.606150  1
  O  O65  1  0.357507  0.490513  0.232585  1
  O  O66  1  0.824808  0.192827  0.889865  1
  O  O67  1  0.487456  0.903629  0.366462  1
  O  O68  1  0.147157  0.806845  0.605082  1
  O  O69  1  0.142301  0.551383  0.905732  1
  O  O70  1  0.327824  0.984724  0.100223  1
  O  O71  1  0.255996  0.928282  0.731933  1
  O  O72  1  0.179882  0.289255  0.132244  1
  O  O73  1  0.494877  0.668497  0.100718  1
  O  O74  1  0.694304  0.742851  0.232641  1
  O  O75  1  0.641179  0.293699  0.098789  1
  O  O76  1  0.505123  0.331503  0.899282  1
  O  O77  1  0.820118  0.710745  0.867756  1
