# generated using pymatgen
data_Cr3C2
_symmetry_space_group_name_H-M   'P 1'
_cell_length_a   4.82156574
_cell_length_b   4.82156574
_cell_length_c   6.91668791
_cell_angle_alpha   90.00000000
_cell_angle_beta   90.00000000
_cell_angle_gamma   146.04819069
_symmetry_Int_Tables_number   1
_chemical_formula_structural   Cr3C2
_chemical_formula_sum   'Cr6 C4'
_cell_volume   89.80364763
_cell_formula_units_Z   2
loop_
 _symmetry_equiv_pos_site_id
 _symmetry_equiv_pos_as_xyz
  1  'x, y, z'
loop_
 _atom_site_type_symbol
 _atom_site_label
 _atom_site_symmetry_multiplicity
 _atom_site_fract_x
 _atom_site_fract_y
 _atom_site_fract_z
 _atom_site_occupancy
  Cr  Cr0  1  0.098884  0.901116  0.750000  1
  Cr  Cr1  1  0.356498  0.643502  0.929988  1
  Cr  Cr2  1  0.901116  0.098884  0.250000  1
  Cr  Cr3  1  0.643502  0.356498  0.070012  1
  Cr  Cr4  1  0.356498  0.643502  0.570012  1
  Cr  Cr5  1  0.643502  0.356498  0.429988  1
  C  C6  1  0.746029  0.253971  0.750000  1
  C  C7  1  0.253971  0.746029  0.250000  1
  C  C8  1  0.000000  0.000000  0.000000  1
  C  C9  1  0.000000  0.000000  0.500000  1
