# generated using pymatgen
data_Li2U3P2O15
_symmetry_space_group_name_H-M   'P 1'
_cell_length_a   13.67743424
_cell_length_b   13.67743424
_cell_length_c   13.67743424
_cell_angle_alpha   149.41633037
_cell_angle_beta   149.41633037
_cell_angle_gamma   43.79884698
_symmetry_Int_Tables_number   1
_chemical_formula_structural   Li2U3P2O15
_chemical_formula_sum   'Li4 U6 P4 O30'
_cell_volume   660.51771278
_cell_formula_units_Z   2
loop_
 _symmetry_equiv_pos_site_id
 _symmetry_equiv_pos_as_xyz
  1  'x, y, z'
loop_
 _atom_site_type_symbol
 _atom_site_label
 _atom_site_symmetry_multiplicity
 _atom_site_fract_x
 _atom_site_fract_y
 _atom_site_fract_z
 _atom_site_occupancy
  Li  Li0  1  0.315859  0.315859  0.000000  1
  Li  Li1  1  0.065859  0.565859  0.500000  1
  Li  Li2  1  0.434141  0.934141  0.500000  1
  Li  Li3  1  0.684141  0.684141  0.000000  1
  U  U4  1  0.083679  0.083679  0.000000  1
  U  U5  1  0.666321  0.166321  0.500000  1
  U  U6  1  0.916321  0.916321  0.000000  1
  U  U7  1  0.500000  0.500000  0.000000  1
  U  U8  1  0.833679  0.333679  0.500000  1
  U  U9  1  0.250000  0.750000  0.500000  1
  P  P10  1  0.788304  0.788304  0.000000  1
  P  P11  1  0.538304  0.038304  0.500000  1
  P  P12  1  0.961696  0.461696  0.500000  1
  P  P13  1  0.211696  0.211696  0.000000  1
  O  O14  1  0.662752  0.415314  0.752561  1
  O  O15  1  0.000000  0.000000  0.000000  1
  O  O16  1  0.248542  0.076733  0.828191  1
  O  O17  1  0.826830  0.658934  0.832104  1
  O  O18  1  0.087248  0.834686  0.747439  1
  O  O19  1  0.248542  0.420351  0.171809  1
  O  O20  1  0.170351  0.498542  0.671809  1
  O  O21  1  0.089809  0.337248  0.752561  1
  O  O22  1  0.744726  0.076830  0.667896  1
  O  O23  1  0.408934  0.076830  0.332104  1
  O  O24  1  0.087248  0.339809  0.252561  1
  O  O25  1  0.584686  0.337248  0.247439  1
  O  O26  1  0.923170  0.255274  0.332104  1
  O  O27  1  0.826733  0.498542  0.328191  1
  O  O28  1  0.662752  0.910191  0.247439  1
  O  O29  1  0.320888  0.820888  0.500000  1
  O  O30  1  0.660191  0.912752  0.747439  1
  O  O31  1  0.429112  0.429112  0.000000  1
  O  O32  1  0.005274  0.173170  0.832104  1
  O  O33  1  0.923267  0.751458  0.171809  1
  O  O34  1  0.923170  0.591066  0.667896  1
  O  O35  1  0.341066  0.173170  0.167896  1
  O  O36  1  0.501458  0.173267  0.671809  1
  O  O37  1  0.179112  0.679112  0.500000  1
  O  O38  1  0.826830  0.994726  0.167896  1
  O  O39  1  0.570888  0.570888  0.000000  1
  O  O40  1  0.165314  0.912752  0.252561  1
  O  O41  1  0.579649  0.751458  0.828191  1
  O  O42  1  0.501458  0.829649  0.328191  1
  O  O43  1  0.750000  0.250000  0.500000  1
