# generated using pymatgen
data_Hf2P2O9
_symmetry_space_group_name_H-M   'P 1'
_cell_length_a   7.65650097
_cell_length_b   7.65650097
_cell_length_c   10.16019720
_cell_angle_alpha   53.07175081
_cell_angle_beta   126.92824919
_cell_angle_gamma   128.74623726
_symmetry_Int_Tables_number   1
_chemical_formula_structural   Hf2P2O9
_chemical_formula_sum   'Hf4 P4 O18'
_cell_volume   346.36730309
_cell_formula_units_Z   2
loop_
 _symmetry_equiv_pos_site_id
 _symmetry_equiv_pos_as_xyz
  1  'x, y, z'
loop_
 _atom_site_type_symbol
 _atom_site_label
 _atom_site_symmetry_multiplicity
 _atom_site_fract_x
 _atom_site_fract_y
 _atom_site_fract_z
 _atom_site_occupancy
  Hf  Hf0  1  0.315488  0.684512  0.364265  1
  Hf  Hf1  1  0.684512  0.315488  0.635735  1
  Hf  Hf2  1  0.056811  0.943189  0.903251  1
  Hf  Hf3  1  0.943189  0.056811  0.096749  1
  P  P4  1  0.407151  0.592849  0.163752  1
  P  P5  1  0.829471  0.170529  0.458345  1
  P  P6  1  0.592849  0.407151  0.836248  1
  P  P7  1  0.170529  0.829471  0.541655  1
  O  O8  1  0.483880  0.516120  0.366820  1
  O  O9  1  0.726208  0.273792  0.475959  1
  O  O10  1  0.266085  0.733915  0.095691  1
  O  O11  1  0.273792  0.726208  0.524041  1
  O  O12  1  0.995175  0.624123  0.641131  1
  O  O13  1  0.380172  0.240681  0.896535  1
  O  O14  1  0.240681  0.380172  0.103465  1
  O  O15  1  0.885847  0.114153  0.844118  1
  O  O16  1  0.004825  0.375877  0.358869  1
  O  O17  1  0.966675  0.033325  0.644848  1
  O  O18  1  0.516120  0.483880  0.633180  1
  O  O19  1  0.733915  0.266085  0.904309  1
  O  O20  1  0.759319  0.619828  0.896535  1
  O  O21  1  0.033325  0.966675  0.355152  1
  O  O22  1  0.619828  0.759319  0.103465  1
  O  O23  1  0.624123  0.995175  0.358869  1
  O  O24  1  0.114153  0.885847  0.155882  1
  O  O25  1  0.375877  0.004825  0.641131  1
