# generated using pymatgen
data_FePO4
_symmetry_space_group_name_H-M   'P 1'
_cell_length_a   7.50152070
_cell_length_b   7.50152070
_cell_length_c   9.38168342
_cell_angle_alpha   90.00000000
_cell_angle_beta   90.00000000
_cell_angle_gamma   120.00000000
_symmetry_Int_Tables_number   1
_chemical_formula_structural   FePO4
_chemical_formula_sum   'Fe6 P6 O24'
_cell_volume   457.20400888
_cell_formula_units_Z   6
loop_
 _symmetry_equiv_pos_site_id
 _symmetry_equiv_pos_as_xyz
  1  'x, y, z'
loop_
 _atom_site_type_symbol
 _atom_site_label
 _atom_site_symmetry_multiplicity
 _atom_site_fract_x
 _atom_site_fract_y
 _atom_site_fract_z
 _atom_site_occupancy
  Fe  Fe0  1  0.615166  0.554863  0.472667  1
  Fe  Fe1  1  0.384834  0.939697  0.972667  1
  Fe  Fe2  1  0.939697  0.384834  0.472667  1
  Fe  Fe3  1  0.060303  0.445137  0.972667  1
  Fe  Fe4  1  0.445137  0.060303  0.472667  1
  Fe  Fe5  1  0.554863  0.615166  0.972667  1
  P  P6  1  0.666667  0.333333  0.174393  1
  P  P7  1  0.333333  0.666667  0.674393  1
  P  P8  1  0.666667  0.333333  0.782703  1
  P  P9  1  0.333333  0.666667  0.282703  1
  P  P10  1  0.000000  0.000000  0.523036  1
  P  P11  1  0.000000  0.000000  0.023036  1
  O  O12  1  0.880077  0.775163  0.456633  1
  O  O13  1  0.119923  0.895087  0.956633  1
  O  O14  1  0.655080  0.521947  0.125876  1
  O  O15  1  0.344920  0.866867  0.625876  1
  O  O16  1  0.471709  0.888428  0.333577  1
  O  O17  1  0.528291  0.416719  0.833577  1
  O  O18  1  0.111572  0.583281  0.333577  1
  O  O19  1  0.888428  0.471709  0.833577  1
  O  O20  1  0.666667  0.333333  0.609339  1
  O  O21  1  0.000000  0.000000  0.680632  1
  O  O22  1  0.333333  0.666667  0.109339  1
  O  O23  1  0.666667  0.333333  0.347520  1
  O  O24  1  0.333333  0.666667  0.847520  1
  O  O25  1  0.224837  0.104913  0.456633  1
  O  O26  1  0.775163  0.880077  0.956633  1
  O  O27  1  0.866867  0.344920  0.125876  1
  O  O28  1  0.133133  0.478053  0.625876  1
  O  O29  1  0.478053  0.133133  0.125876  1
  O  O30  1  0.521947  0.655080  0.625876  1
  O  O31  1  0.416719  0.528291  0.333577  1
  O  O32  1  0.583281  0.111572  0.833577  1
  O  O33  1  0.895087  0.119923  0.456633  1
  O  O34  1  0.104913  0.224837  0.956633  1
  O  O35  1  0.000000  0.000000  0.180632  1
