# generated using pymatgen
data_SbTe7SXeCl(OF4)9
_symmetry_space_group_name_H-M   'P 1'
_cell_length_a   10.05153686
_cell_length_b   10.28991083
_cell_length_c   19.09554828
_cell_angle_alpha   89.46577104
_cell_angle_beta   83.18222852
_cell_angle_gamma   87.71817957
_symmetry_Int_Tables_number   1
_chemical_formula_structural   SbTe7SXeCl(OF4)9
_chemical_formula_sum   'Sb2 Te14 S2 Xe2 Cl2 O18 F72'
_cell_volume   1959.49938662
_cell_formula_units_Z   2
loop_
 _symmetry_equiv_pos_site_id
 _symmetry_equiv_pos_as_xyz
  1  'x, y, z'
loop_
 _atom_site_type_symbol
 _atom_site_label
 _atom_site_symmetry_multiplicity
 _atom_site_fract_x
 _atom_site_fract_y
 _atom_site_fract_z
 _atom_site_occupancy
  Sb  Sb0  1  0.500000  0.500000  0.000000  1
  Sb  Sb1  1  0.000000  0.500000  0.500000  1
  Te  Te2  1  0.091731  0.111085  0.801333  1
  Te  Te3  1  0.908269  0.888915  0.198667  1
  Te  Te4  1  0.543294  0.323761  0.833294  1
  Te  Te5  1  0.814070  0.335496  0.028722  1
  Te  Te6  1  0.708702  0.306996  0.550015  1
  Te  Te7  1  0.205601  0.205886  0.517439  1
  Te  Te8  1  0.456706  0.676239  0.166706  1
  Te  Te9  1  0.024452  0.600976  0.680267  1
  Te  Te10  1  0.653854  0.785493  0.920286  1
  Te  Te11  1  0.346146  0.214507  0.079714  1
  Te  Te12  1  0.975548  0.399024  0.319733  1
  Te  Te13  1  0.291298  0.693004  0.449985  1
  Te  Te14  1  0.185930  0.664504  0.971278  1
  Te  Te15  1  0.794399  0.794114  0.482561  1
  S  S16  1  0.499049  0.116983  0.297917  1
  S  S17  1  0.500951  0.883017  0.702083  1
  Xe  Xe18  1  0.176910  0.971228  0.288769  1
  Xe  Xe19  1  0.823090  0.028772  0.711231  1
  Cl  Cl20  1  0.542770  0.299938  0.307648  1
  Cl  Cl21  1  0.457230  0.700062  0.692352  1
  O  O22  1  0.624349  0.648084  0.986082  1
  O  O23  1  0.932762  0.666435  0.458764  1
  O  O24  1  0.944623  0.563911  0.598094  1
  O  O25  1  0.635721  0.403729  0.050556  1
  O  O26  1  0.364279  0.596271  0.949444  1
  O  O27  1  0.416171  0.569457  0.093552  1
  O  O28  1  0.375651  0.351916  0.013918  1
  O  O29  1  0.443344  0.938112  0.766796  1
  O  O30  1  0.816061  0.431264  0.499683  1
  O  O31  1  0.556656  0.061888  0.233204  1
  O  O32  1  0.028608  0.846756  0.271225  1
  O  O33  1  0.356178  0.108903  0.322302  1
  O  O34  1  0.183939  0.568736  0.500317  1
  O  O35  1  0.971392  0.153244  0.728775  1
  O  O36  1  0.583829  0.430543  0.906448  1
  O  O37  1  0.067238  0.333565  0.541236  1
  O  O38  1  0.643822  0.891097  0.677698  1
  O  O39  1  0.055377  0.436089  0.401906  1
  F  F40  1  0.946764  0.458173  0.727971  1
  F  F41  1  0.183617  0.501896  0.655114  1
  F  F42  1  0.577522  0.705776  0.846897  1
  F  F43  1  0.578089  0.457336  0.766652  1
  F  F44  1  0.421911  0.542664  0.233348  1
  F  F45  1  0.264370  0.122158  0.013966  1
  F  F46  1  0.694083  0.691734  0.549748  1
  F  F47  1  0.725333  0.269139  0.817136  1
  F  F48  1  0.788498  0.320150  0.633925  1
  F  F49  1  0.225000  0.185167  0.738617  1
  F  F50  1  0.578365  0.434233  0.582824  1
  F  F51  1  0.422478  0.294224  0.153103  1
  F  F52  1  0.092906  0.644798  0.763444  1
  F  F53  1  0.171050  0.832791  0.477745  1
  F  F54  1  0.305917  0.308266  0.450252  1
  F  F55  1  0.661550  0.926480  0.501706  1
  F  F56  1  0.598513  0.182604  0.597277  1
  F  F57  1  0.696260  0.736741  0.412286  1
  F  F58  1  0.507492  0.177890  0.890827  1
  F  F59  1  0.870501  0.704618  0.711021  1
  F  F60  1  0.053236  0.541827  0.272029  1
  F  F61  1  0.421635  0.565767  0.417176  1
  F  F62  1  0.105753  0.749613  0.639223  1
  F  F63  1  0.881568  0.864242  0.554813  1
  F  F64  1  0.401487  0.817396  0.402723  1
  F  F65  1  0.572229  0.055089  0.359227  1
  F  F66  1  0.894247  0.250387  0.360777  1
  F  F67  1  0.877391  0.458832  0.086724  1
  F  F68  1  0.735630  0.877842  0.986034  1
  F  F69  1  0.954459  0.036022  0.861264  1
  F  F70  1  0.828950  0.167209  0.522255  1
  F  F71  1  0.885120  0.907678  0.417669  1
  F  F72  1  0.237186  0.794207  0.030008  1
  F  F73  1  0.122609  0.541168  0.913276  1
  F  F74  1  0.134756  0.947287  0.760202  1
  F  F75  1  0.510604  0.127775  0.051162  1
  F  F76  1  0.212390  0.077851  0.866156  1
  F  F77  1  0.518931  0.217643  0.756198  1
  F  F78  1  0.619716  0.283248  0.470609  1
  F  F79  1  0.045541  0.963978  0.138736  1
  F  F80  1  0.762814  0.205793  0.969992  1
  F  F81  1  0.211502  0.679850  0.366075  1
  F  F82  1  0.489396  0.872225  0.948838  1
  F  F83  1  0.129499  0.295382  0.288979  1
  F  F84  1  0.816383  0.498104  0.344886  1
  F  F85  1  0.820948  0.712895  0.883070  1
  F  F86  1  0.907094  0.355202  0.236556  1
  F  F87  1  0.215408  0.776265  0.893312  1
  F  F88  1  0.787610  0.922149  0.133844  1
  F  F89  1  0.303740  0.263259  0.587714  1
  F  F90  1  0.784592  0.223735  0.106688  1
  F  F91  1  0.640297  0.630345  0.159296  1
  F  F92  1  0.179052  0.287105  0.116930  1
  F  F93  1  0.953119  0.725846  0.159215  1
  F  F94  1  0.854298  0.443608  0.950163  1
  F  F95  1  0.380284  0.716752  0.529391  1
  F  F96  1  0.689786  0.924977  0.856645  1
  F  F97  1  0.310214  0.075023  0.143355  1
  F  F98  1  0.114880  0.092322  0.582331  1
  F  F99  1  0.865244  0.052713  0.239798  1
  F  F100  1  0.427771  0.944911  0.640773  1
  F  F101  1  0.274667  0.730861  0.182864  1
  F  F102  1  0.046881  0.274154  0.840785  1
  F  F103  1  0.118432  0.135758  0.445187  1
  F  F104  1  0.481069  0.782357  0.243802  1
  F  F105  1  0.988731  0.262951  0.011922  1
  F  F106  1  0.492508  0.822110  0.109173  1
  F  F107  1  0.011269  0.737049  0.988078  1
  F  F108  1  0.359703  0.369655  0.840704  1
  F  F109  1  0.775000  0.814833  0.261383  1
  F  F110  1  0.338450  0.073520  0.498294  1
  F  F111  1  0.145702  0.556392  0.049837  1
