# generated using pymatgen
data_KB3O5
_symmetry_space_group_name_H-M   'P 1'
_cell_length_a   9.42914321
_cell_length_b   6.73366902
_cell_length_c   21.44403352
_cell_angle_alpha   90.00000000
_cell_angle_beta   94.57033553
_cell_angle_gamma   90.00000000
_symmetry_Int_Tables_number   1
_chemical_formula_structural   KB3O5
_chemical_formula_sum   'K12 B36 O60'
_cell_volume   1357.21088595
_cell_formula_units_Z   12
loop_
 _symmetry_equiv_pos_site_id
 _symmetry_equiv_pos_as_xyz
  1  'x, y, z'
loop_
 _atom_site_type_symbol
 _atom_site_label
 _atom_site_symmetry_multiplicity
 _atom_site_fract_x
 _atom_site_fract_y
 _atom_site_fract_z
 _atom_site_occupancy
  K  K0  1  0.238361  0.800567  0.036346  1
  K  K1  1  0.598212  0.186903  0.118337  1
  K  K2  1  0.401788  0.813097  0.881663  1
  K  K3  1  0.238361  0.699433  0.536346  1
  K  K4  1  0.761639  0.300567  0.463654  1
  K  K5  1  0.064499  0.046535  0.262580  1
  K  K6  1  0.935501  0.546535  0.237420  1
  K  K7  1  0.401788  0.686903  0.381663  1
  K  K8  1  0.761639  0.199433  0.963654  1
  K  K9  1  0.935501  0.953465  0.737420  1
  K  K10  1  0.598212  0.313097  0.618337  1
  K  K11  1  0.064499  0.453465  0.762580  1
  B  B12  1  0.672991  0.750906  0.537571  1
  B  B13  1  0.208284  0.421223  0.167173  1
  B  B14  1  0.587580  0.981227  0.722566  1
  B  B15  1  0.480642  0.288643  0.870990  1
  B  B16  1  0.141518  0.493041  0.920235  1
  B  B17  1  0.021829  0.297672  0.612626  1
  B  B18  1  0.102795  0.360815  0.399607  1
  B  B19  1  0.978171  0.797672  0.887374  1
  B  B20  1  0.102795  0.139185  0.899607  1
  B  B21  1  0.897205  0.639185  0.600393  1
  B  B22  1  0.357972  0.796909  0.715629  1
  B  B23  1  0.412420  0.018773  0.277434  1
  B  B24  1  0.642028  0.296909  0.784371  1
  B  B25  1  0.357972  0.703091  0.215629  1
  B  B26  1  0.021829  0.202328  0.112626  1
  B  B27  1  0.587580  0.518773  0.222566  1
  B  B28  1  0.480642  0.211357  0.370990  1
  B  B29  1  0.672991  0.749094  0.037571  1
  B  B30  1  0.858482  0.506959  0.079765  1
  B  B31  1  0.791716  0.578777  0.832827  1
  B  B32  1  0.141518  0.006959  0.420235  1
  B  B33  1  0.519358  0.711357  0.129010  1
  B  B34  1  0.791716  0.921223  0.332827  1
  B  B35  1  0.259979  0.257504  0.070896  1
  B  B36  1  0.519358  0.788643  0.629010  1
  B  B37  1  0.259979  0.242496  0.570896  1
  B  B38  1  0.412420  0.481227  0.777434  1
  B  B39  1  0.978171  0.702328  0.387374  1
  B  B40  1  0.642028  0.203091  0.284371  1
  B  B41  1  0.740021  0.757504  0.429104  1
  B  B42  1  0.897205  0.860815  0.100393  1
  B  B43  1  0.858482  0.993041  0.579765  1
  B  B44  1  0.740021  0.742496  0.929104  1
  B  B45  1  0.327009  0.249094  0.462429  1
  B  B46  1  0.327009  0.250906  0.962429  1
  B  B47  1  0.208284  0.078777  0.667174  1
  O  O48  1  0.941513  0.660685  0.108049  1
  O  O49  1  0.473460  0.912740  0.750731  1
  O  O50  1  0.017341  0.499423  0.368726  1
  O  O51  1  0.601995  0.272425  0.345862  1
  O  O52  1  0.526540  0.412740  0.749269  1
  O  O53  1  0.540119  0.766817  0.069050  1
  O  O54  1  0.459881  0.233183  0.930950  1
  O  O55  1  0.620677  0.595730  0.164211  1
  O  O56  1  0.679062  0.372142  0.244934  1
  O  O57  1  0.017341  0.000577  0.868726  1
  O  O58  1  0.229900  0.573011  0.208538  1
  O  O59  1  0.982659  0.999423  0.131274  1
  O  O60  1  0.875390  0.815322  0.935953  1
  O  O61  1  0.941513  0.839315  0.608049  1
  O  O62  1  0.379323  0.095730  0.335789  1
  O  O63  1  0.379323  0.404270  0.835789  1
  O  O64  1  0.105451  0.811431  0.413132  1
  O  O65  1  0.695717  0.621860  0.877836  1
  O  O66  1  0.229900  0.926989  0.708538  1
  O  O67  1  0.679062  0.127858  0.744934  1
  O  O68  1  0.540119  0.733183  0.569050  1
  O  O69  1  0.894549  0.311431  0.086868  1
  O  O70  1  0.770100  0.073011  0.291462  1
  O  O71  1  0.226751  0.404040  0.434149  1
  O  O72  1  0.124610  0.184678  0.064047  1
  O  O73  1  0.912208  0.694726  0.830683  1
  O  O74  1  0.105451  0.688569  0.913132  1
  O  O75  1  0.894549  0.188569  0.586868  1
  O  O76  1  0.359925  0.212334  0.029806  1
  O  O77  1  0.226751  0.095960  0.934149  1
  O  O78  1  0.875390  0.684678  0.435953  1
  O  O79  1  0.982659  0.500577  0.631274  1
  O  O80  1  0.640075  0.787666  0.970194  1
  O  O81  1  0.770100  0.426989  0.791462  1
  O  O82  1  0.640075  0.712334  0.470194  1
  O  O83  1  0.695717  0.878140  0.377836  1
  O  O84  1  0.087792  0.194726  0.669317  1
  O  O85  1  0.058487  0.339315  0.891951  1
  O  O86  1  0.735915  0.547449  0.043587  1
  O  O87  1  0.359925  0.287666  0.529806  1
  O  O88  1  0.601995  0.227575  0.845862  1
  O  O89  1  0.620677  0.904270  0.664211  1
  O  O90  1  0.398005  0.772425  0.154138  1
  O  O91  1  0.304283  0.378140  0.122164  1
  O  O92  1  0.473460  0.587260  0.250731  1
  O  O93  1  0.459881  0.266817  0.430950  1
  O  O94  1  0.264085  0.047449  0.456413  1
  O  O95  1  0.773249  0.595960  0.565851  1
  O  O96  1  0.398005  0.727575  0.654138  1
  O  O97  1  0.735915  0.952551  0.543587  1
  O  O98  1  0.912208  0.805274  0.330683  1
  O  O99  1  0.526540  0.087260  0.249269  1
  O  O100  1  0.058487  0.160685  0.391951  1
  O  O101  1  0.304283  0.121860  0.622164  1
  O  O102  1  0.264085  0.452551  0.956413  1
  O  O103  1  0.320938  0.627858  0.755066  1
  O  O104  1  0.087792  0.305274  0.169317  1
  O  O105  1  0.124610  0.315322  0.564047  1
  O  O106  1  0.320938  0.872142  0.255066  1
  O  O107  1  0.773249  0.904040  0.065851  1
