# generated using pymatgen
data_CaCrF5
_symmetry_space_group_name_H-M   'P 1'
_cell_length_a   5.61160029
_cell_length_b   5.61160029
_cell_length_c   7.68024478
_cell_angle_alpha   69.88587283
_cell_angle_beta   110.11412717
_cell_angle_gamma   108.27149843
_symmetry_Int_Tables_number   1
_chemical_formula_structural   CaCrF5
_chemical_formula_sum   'Ca2 Cr2 F10'
_cell_volume   207.95521977
_cell_formula_units_Z   2
loop_
 _symmetry_equiv_pos_site_id
 _symmetry_equiv_pos_as_xyz
  1  'x, y, z'
loop_
 _atom_site_type_symbol
 _atom_site_label
 _atom_site_symmetry_multiplicity
 _atom_site_fract_x
 _atom_site_fract_y
 _atom_site_fract_z
 _atom_site_occupancy
  Ca  Ca0  1  0.457899  0.457899  0.250000  1
  Ca  Ca1  1  0.542101  0.542101  0.750000  1
  Cr  Cr2  1  0.000000  0.000000  0.000000  1
  Cr  Cr3  1  0.000000  0.000000  0.500000  1
  F  F4  1  0.747802  0.210390  0.380545  1
  F  F5  1  0.210390  0.747802  0.119455  1
  F  F6  1  0.252198  0.789610  0.619455  1
  F  F7  1  0.789610  0.252198  0.880545  1
  F  F8  1  0.076970  0.076970  0.250000  1
  F  F9  1  0.923030  0.923030  0.750000  1
  F  F10  1  0.305224  0.282290  0.971398  1
  F  F11  1  0.282290  0.305224  0.528602  1
  F  F12  1  0.694776  0.717710  0.028602  1
  F  F13  1  0.717710  0.694776  0.471398  1
