# generated using pymatgen
data_V4O7
_symmetry_space_group_name_H-M   'P 1'
_cell_length_a   6.11265026
_cell_length_b   6.16550043
_cell_length_c   6.44145760
_cell_angle_alpha   69.73316328
_cell_angle_beta   87.05716765
_cell_angle_gamma   82.85608562
_symmetry_Int_Tables_number   1
_chemical_formula_structural   V4O7
_chemical_formula_sum   'V8 O14'
_cell_volume   225.95638644
_cell_formula_units_Z   2
loop_
 _symmetry_equiv_pos_site_id
 _symmetry_equiv_pos_as_xyz
  1  'x, y, z'
loop_
 _atom_site_type_symbol
 _atom_site_label
 _atom_site_symmetry_multiplicity
 _atom_site_fract_x
 _atom_site_fract_y
 _atom_site_fract_z
 _atom_site_occupancy
  V  V0  1  0.586179  0.745461  0.985414  1
  V  V1  1  0.413821  0.254539  0.014586  1
  V  V2  1  0.357910  0.181185  0.586341  1
  V  V3  1  0.642090  0.818815  0.413659  1
  V  V4  1  0.134184  0.698974  0.794083  1
  V  V5  1  0.865816  0.301026  0.205917  1
  V  V6  1  0.879991  0.307445  0.726595  1
  V  V7  1  0.120009  0.692555  0.273405  1
  O  O8  1  0.328101  0.438201  0.663546  1
  O  O9  1  0.671899  0.561799  0.336454  1
  O  O10  1  0.925089  0.652743  0.599626  1
  O  O11  1  0.074911  0.347257  0.400374  1
  O  O12  1  0.386988  0.907169  0.185705  1
  O  O13  1  0.613012  0.092831  0.814295  1
  O  O14  1  0.897788  0.981616  0.260002  1
  O  O15  1  0.102212  0.018384  0.739998  1
  O  O16  1  0.316704  0.579468  0.056273  1
  O  O17  1  0.683296  0.420532  0.943727  1
  O  O18  1  0.553325  0.172202  0.342218  1
  O  O19  1  0.446675  0.827798  0.657782  1
  O  O20  1  0.919983  0.697139  0.023164  1
  O  O21  1  0.080017  0.302861  0.976836  1
