# generated using pymatgen
data_Si4Rh3
_symmetry_space_group_name_H-M   'P 1'
_cell_length_a   3.65173571
_cell_length_b   5.86451196
_cell_length_c   18.95551006
_cell_angle_alpha   90.00000000
_cell_angle_beta   90.00000000
_cell_angle_gamma   90.00000000
_symmetry_Int_Tables_number   1
_chemical_formula_structural   Si4Rh3
_chemical_formula_sum   'Si16 Rh12'
_cell_volume   405.94452629
_cell_formula_units_Z   4
loop_
 _symmetry_equiv_pos_site_id
 _symmetry_equiv_pos_as_xyz
  1  'x, y, z'
loop_
 _atom_site_type_symbol
 _atom_site_label
 _atom_site_symmetry_multiplicity
 _atom_site_fract_x
 _atom_site_fract_y
 _atom_site_fract_z
 _atom_site_occupancy
  Si  Si0  1  0.250000  0.387303  0.143255  1
  Si  Si1  1  0.750000  0.612697  0.856745  1
  Si  Si2  1  0.750000  0.887303  0.356745  1
  Si  Si3  1  0.250000  0.112697  0.643255  1
  Si  Si4  1  0.750000  0.220198  0.231849  1
  Si  Si5  1  0.250000  0.779802  0.768151  1
  Si  Si6  1  0.250000  0.720198  0.268151  1
  Si  Si7  1  0.750000  0.279802  0.731849  1
  Si  Si8  1  0.250000  0.430902  0.409661  1
  Si  Si9  1  0.750000  0.569098  0.590339  1
  Si  Si10  1  0.750000  0.930902  0.090339  1
  Si  Si11  1  0.250000  0.069098  0.909661  1
  Si  Si12  1  0.750000  0.479265  0.049354  1
  Si  Si13  1  0.250000  0.520735  0.950646  1
  Si  Si14  1  0.250000  0.979265  0.450646  1
  Si  Si15  1  0.750000  0.020735  0.549354  1
  Rh  Rh16  1  0.250000  0.187911  0.031947  1
  Rh  Rh17  1  0.750000  0.812089  0.968053  1
  Rh  Rh18  1  0.750000  0.687911  0.468053  1
  Rh  Rh19  1  0.250000  0.312089  0.531947  1
  Rh  Rh20  1  0.250000  0.003232  0.176164  1
  Rh  Rh21  1  0.750000  0.996768  0.823836  1
  Rh  Rh22  1  0.750000  0.503232  0.323836  1
  Rh  Rh23  1  0.250000  0.496768  0.676164  1
  Rh  Rh24  1  0.250000  0.114108  0.325431  1
  Rh  Rh25  1  0.750000  0.885892  0.674569  1
  Rh  Rh26  1  0.750000  0.614108  0.174569  1
  Rh  Rh27  1  0.250000  0.385892  0.825431  1
