# generated using pymatgen
data_Lu3Fe5O12
_symmetry_space_group_name_H-M   'P 1'
_cell_length_a   10.73695310
_cell_length_b   10.73695310
_cell_length_c   10.73695310
_cell_angle_alpha   109.47122063
_cell_angle_beta   109.47122063
_cell_angle_gamma   109.47122063
_symmetry_Int_Tables_number   1
_chemical_formula_structural   Lu3Fe5O12
_chemical_formula_sum   'Lu12 Fe20 O48'
_cell_volume   952.84284546
_cell_formula_units_Z   4
loop_
 _symmetry_equiv_pos_site_id
 _symmetry_equiv_pos_as_xyz
  1  'x, y, z'
loop_
 _atom_site_type_symbol
 _atom_site_label
 _atom_site_symmetry_multiplicity
 _atom_site_fract_x
 _atom_site_fract_y
 _atom_site_fract_z
 _atom_site_occupancy
  Lu  Lu0  1  0.375000  0.750000  0.125000  1
  Lu  Lu1  1  0.875000  0.625000  0.250000  1
  Lu  Lu2  1  0.375000  0.125000  0.250000  1
  Lu  Lu3  1  0.625000  0.250000  0.875000  1
  Lu  Lu4  1  0.125000  0.375000  0.750000  1
  Lu  Lu5  1  0.250000  0.875000  0.625000  1
  Lu  Lu6  1  0.875000  0.750000  0.625000  1
  Lu  Lu7  1  0.125000  0.250000  0.375000  1
  Lu  Lu8  1  0.250000  0.375000  0.125000  1
  Lu  Lu9  1  0.625000  0.875000  0.750000  1
  Lu  Lu10  1  0.750000  0.125000  0.375000  1
  Lu  Lu11  1  0.750000  0.625000  0.875000  1
  Fe  Fe12  1  1.000000  1.000000  0.500000  1
  Fe  Fe13  1  0.125000  0.750000  0.875000  1
  Fe  Fe14  1  0.875000  0.125000  0.750000  1
  Fe  Fe15  1  0.500000  1.000000  0.500000  1
  Fe  Fe16  1  0.500000  1.000000  0.000000  1
  Fe  Fe17  1  0.625000  0.750000  0.375000  1
  Fe  Fe18  1  0.000000  0.000000  0.000000  1
  Fe  Fe19  1  1.000000  0.500000  0.000000  1
  Fe  Fe20  1  0.250000  0.625000  0.375000  1
  Fe  Fe21  1  1.000000  0.500000  0.500000  1
  Fe  Fe22  1  0.250000  0.125000  0.875000  1
  Fe  Fe23  1  0.375000  0.250000  0.625000  1
  Fe  Fe24  1  0.875000  0.250000  0.125000  1
  Fe  Fe25  1  0.750000  0.375000  0.625000  1
  Fe  Fe26  1  0.375000  0.625000  0.750000  1
  Fe  Fe27  1  0.500000  0.500000  0.500000  1
  Fe  Fe28  1  0.625000  0.375000  0.250000  1
  Fe  Fe29  1  0.750000  0.875000  0.125000  1
  Fe  Fe30  1  0.500000  0.500000  0.000000  1
  Fe  Fe31  1  0.125000  0.875000  0.250000  1
  O  O32  1  0.211640  0.583934  0.176401  1
  O  O33  1  0.627706  0.416066  0.092467  1
  O  O34  1  0.964761  0.788360  0.872294  1
  O  O35  1  0.592467  0.916066  0.127706  1
  O  O36  1  0.627706  0.711640  0.535239  1
  O  O37  1  0.288360  0.323599  0.916066  1
  O  O38  1  0.092467  0.964761  0.676401  1
  O  O39  1  0.083934  0.711640  0.676401  1
  O  O40  1  0.788360  0.872294  0.964761  1
  O  O41  1  0.083934  0.872294  0.407533  1
  O  O42  1  0.323599  0.916066  0.288360  1
  O  O43  1  0.416066  0.092467  0.627706  1
  O  O44  1  0.583934  0.907533  0.372294  1
  O  O45  1  0.676401  0.083934  0.711640  1
  O  O46  1  0.127706  0.592467  0.916066  1
  O  O47  1  0.872294  0.964761  0.788360  1
  O  O48  1  0.092467  0.627706  0.416066  1
  O  O49  1  0.407533  0.083934  0.872294  1
  O  O50  1  0.823599  0.788360  0.416066  1
  O  O51  1  0.464761  0.372294  0.288360  1
  O  O52  1  0.323599  0.907533  0.035239  1
  O  O53  1  0.823599  0.535239  0.407533  1
  O  O54  1  0.916066  0.127706  0.592467  1
  O  O55  1  0.711640  0.676401  0.083934  1
  O  O56  1  0.583934  0.176401  0.211640  1
  O  O57  1  0.907533  0.035239  0.323599  1
  O  O58  1  0.907533  0.372294  0.583934  1
  O  O59  1  0.711640  0.535239  0.627706  1
  O  O60  1  0.592467  0.176401  0.464761  1
  O  O61  1  0.416066  0.823599  0.788360  1
  O  O62  1  0.035239  0.211640  0.127706  1
  O  O63  1  0.407533  0.823599  0.535239  1
  O  O64  1  0.535239  0.407533  0.823599  1
  O  O65  1  0.372294  0.288360  0.464761  1
  O  O66  1  0.176401  0.211640  0.583934  1
  O  O67  1  0.788360  0.416066  0.823599  1
  O  O68  1  0.035239  0.323599  0.907533  1
  O  O69  1  0.288360  0.464761  0.372294  1
  O  O70  1  0.372294  0.583934  0.907533  1
  O  O71  1  0.964761  0.676401  0.092467  1
  O  O72  1  0.535239  0.627706  0.711640  1
  O  O73  1  0.676401  0.092467  0.964761  1
  O  O74  1  0.464761  0.592467  0.176401  1
  O  O75  1  0.127706  0.035239  0.211640  1
  O  O76  1  0.176401  0.464761  0.592467  1
  O  O77  1  0.872294  0.407533  0.083934  1
  O  O78  1  0.211640  0.127706  0.035239  1
  O  O79  1  0.916066  0.288360  0.323599  1
