# generated using pymatgen
data_LiMnP2O7
_symmetry_space_group_name_H-M   'P 1'
_cell_length_a   8.41197456
_cell_length_b   5.16747849
_cell_length_c   13.86359688
_cell_angle_alpha   90.00000000
_cell_angle_beta   116.85594036
_cell_angle_gamma   90.00000000
_symmetry_Int_Tables_number   1
_chemical_formula_structural   LiMnP2O7
_chemical_formula_sum   'Li4 Mn4 P8 O28'
_cell_volume   537.63568185
_cell_formula_units_Z   4
loop_
 _symmetry_equiv_pos_site_id
 _symmetry_equiv_pos_as_xyz
  1  'x, y, z'
loop_
 _atom_site_type_symbol
 _atom_site_label
 _atom_site_symmetry_multiplicity
 _atom_site_fract_x
 _atom_site_fract_y
 _atom_site_fract_z
 _atom_site_occupancy
  Li  Li0  1  0.939538  0.003535  0.810641  1
  Li  Li1  1  0.939538  0.996465  0.310641  1
  Li  Li2  1  0.503417  0.461059  0.417712  1
  Li  Li3  1  0.503417  0.538941  0.917712  1
  Mn  Mn4  1  0.234057  0.519378  0.484982  1
  Mn  Mn5  1  0.234057  0.480622  0.984982  1
  Mn  Mn6  1  0.767806  0.000326  0.025725  1
  Mn  Mn7  1  0.767806  0.999674  0.525725  1
  P  P8  1  0.809377  0.483857  0.381448  1
  P  P9  1  0.190041  0.035118  0.616470  1
  P  P10  1  0.328252  0.022959  0.859283  1
  P  P11  1  0.809377  0.516143  0.881448  1
  P  P12  1  0.190041  0.964882  0.116470  1
  P  P13  1  0.674601  0.509202  0.643523  1
  P  P14  1  0.674601  0.490798  0.143523  1
  P  P15  1  0.328252  0.977041  0.359283  1
  O  O16  1  0.799533  0.692432  0.134811  1
  O  O17  1  0.518464  0.920183  0.931985  1
  O  O18  1  0.724379  0.368620  0.941631  1
  O  O19  1  0.518464  0.079817  0.431985  1
  O  O20  1  0.484113  0.443990  0.558237  1
  O  O21  1  0.326971  0.010122  0.743338  1
  O  O22  1  0.012398  0.066208  0.108980  1
  O  O23  1  0.179895  0.321356  0.585394  1
  O  O24  1  0.270417  0.865436  0.562313  1
  O  O25  1  0.982957  0.393333  0.890238  1
  O  O26  1  0.799533  0.307568  0.634811  1
  O  O27  1  0.825216  0.808214  0.904062  1
  O  O28  1  0.825216  0.191786  0.404062  1
  O  O29  1  0.303051  0.311373  0.876606  1
  O  O30  1  0.728616  0.208807  0.143559  1
  O  O31  1  0.012398  0.933792  0.608980  1
  O  O32  1  0.303051  0.688627  0.376606  1
  O  O33  1  0.728616  0.791193  0.643559  1
  O  O34  1  0.982957  0.606667  0.390238  1
  O  O35  1  0.666198  0.468576  0.756932  1
  O  O36  1  0.326971  0.989878  0.243338  1
  O  O37  1  0.484113  0.556010  0.058237  1
  O  O38  1  0.724379  0.631380  0.441631  1
  O  O39  1  0.270417  0.134564  0.062313  1
  O  O40  1  0.187079  0.151821  0.363444  1
  O  O41  1  0.666198  0.531424  0.256932  1
  O  O42  1  0.179895  0.678644  0.085394  1
  O  O43  1  0.187079  0.848179  0.863444  1
