# generated using pymatgen
data_RuF5
_symmetry_space_group_name_H-M   'P 1'
_cell_length_a   5.63345134
_cell_length_b   10.21848320
_cell_length_c   12.83177358
_cell_angle_alpha   90.00000000
_cell_angle_beta   100.47441821
_cell_angle_gamma   90.00000000
_symmetry_Int_Tables_number   1
_chemical_formula_structural   RuF5
_chemical_formula_sum   'Ru8 F40'
_cell_volume   726.35626556
_cell_formula_units_Z   8
loop_
 _symmetry_equiv_pos_site_id
 _symmetry_equiv_pos_as_xyz
  1  'x, y, z'
loop_
 _atom_site_type_symbol
 _atom_site_label
 _atom_site_symmetry_multiplicity
 _atom_site_fract_x
 _atom_site_fract_y
 _atom_site_fract_z
 _atom_site_occupancy
  Ru  Ru0  1  0.005182  0.746867  0.998712  1
  Ru  Ru1  1  0.994818  0.246867  0.501288  1
  Ru  Ru2  1  0.994818  0.253133  0.001288  1
  Ru  Ru3  1  0.005182  0.753133  0.498712  1
  Ru  Ru4  1  0.696166  0.995769  0.801370  1
  Ru  Ru5  1  0.303834  0.495769  0.698630  1
  Ru  Ru6  1  0.303834  0.004231  0.198630  1
  Ru  Ru7  1  0.696166  0.504231  0.301370  1
  F  F8  1  0.806837  0.909140  0.945360  1
  F  F9  1  0.193163  0.409140  0.554640  1
  F  F10  1  0.193163  0.090860  0.054640  1
  F  F11  1  0.806837  0.590860  0.445360  1
  F  F12  1  0.901182  0.667908  0.869372  1
  F  F13  1  0.098818  0.167908  0.630628  1
  F  F14  1  0.098818  0.332092  0.130628  1
  F  F15  1  0.901182  0.832092  0.369372  1
  F  F16  1  0.608677  0.083730  0.674990  1
  F  F17  1  0.391323  0.583730  0.825010  1
  F  F18  1  0.391323  0.916270  0.325010  1
  F  F19  1  0.608677  0.416270  0.174990  1
  F  F20  1  0.523340  0.847817  0.754182  1
  F  F21  1  0.476660  0.347817  0.745818  1
  F  F22  1  0.476660  0.152183  0.245818  1
  F  F23  1  0.523340  0.652183  0.254182  1
  F  F24  1  0.187764  0.605487  0.054326  1
  F  F25  1  0.812236  0.105487  0.445674  1
  F  F26  1  0.812236  0.394513  0.945674  1
  F  F27  1  0.187764  0.894513  0.554326  1
  F  F28  1  0.101535  0.845730  0.138329  1
  F  F29  1  0.898465  0.345730  0.361671  1
  F  F30  1  0.898465  0.154270  0.861671  1
  F  F31  1  0.101535  0.654270  0.638329  1
  F  F32  1  0.268104  0.824745  0.952820  1
  F  F33  1  0.731896  0.324745  0.547180  1
  F  F34  1  0.731896  0.175255  0.047180  1
  F  F35  1  0.268104  0.675255  0.452820  1
  F  F36  1  0.438773  0.066868  0.855693  1
  F  F37  1  0.561227  0.566868  0.644307  1
  F  F38  1  0.561227  0.933132  0.144307  1
  F  F39  1  0.438773  0.433132  0.355693  1
  F  F40  1  0.975654  0.929861  0.761149  1
  F  F41  1  0.024346  0.429861  0.738851  1
  F  F42  1  0.024346  0.070139  0.238851  1
  F  F43  1  0.975654  0.570139  0.261149  1
  F  F44  1  0.736117  0.687412  0.050968  1
  F  F45  1  0.263883  0.187412  0.449032  1
  F  F46  1  0.263883  0.312588  0.949032  1
  F  F47  1  0.736117  0.812588  0.550968  1
