# generated using pymatgen
data_Ba3LiOs2O9
_symmetry_space_group_name_H-M   'P 1'
_cell_length_a   5.90026726
_cell_length_b   5.90026726
_cell_length_c   14.21731987
_cell_angle_alpha   90.00000000
_cell_angle_beta   90.00000000
_cell_angle_gamma   120.00000000
_symmetry_Int_Tables_number   1
_chemical_formula_structural   Ba3LiOs2O9
_chemical_formula_sum   'Ba6 Li2 Os4 O18'
_cell_volume   428.63905011
_cell_formula_units_Z   2
loop_
 _symmetry_equiv_pos_site_id
 _symmetry_equiv_pos_as_xyz
  1  'x, y, z'
loop_
 _atom_site_type_symbol
 _atom_site_label
 _atom_site_symmetry_multiplicity
 _atom_site_fract_x
 _atom_site_fract_y
 _atom_site_fract_z
 _atom_site_occupancy
  Ba  Ba0  1  0.000000  0.000000  0.250000  1
  Ba  Ba1  1  0.000000  0.000000  0.750000  1
  Ba  Ba2  1  0.333333  0.666667  0.913144  1
  Ba  Ba3  1  0.666667  0.333333  0.413144  1
  Ba  Ba4  1  0.666667  0.333333  0.086856  1
  Ba  Ba5  1  0.333333  0.666667  0.586856  1
  Li  Li6  1  0.000000  0.000000  0.000000  1
  Li  Li7  1  0.000000  0.000000  0.500000  1
  Os  Os8  1  0.333333  0.666667  0.160017  1
  Os  Os9  1  0.666667  0.333333  0.660017  1
  Os  Os10  1  0.666667  0.333333  0.839983  1
  Os  Os11  1  0.333333  0.666667  0.339983  1
  O  O12  1  0.492025  0.984050  0.250000  1
  O  O13  1  0.507975  0.492025  0.750000  1
  O  O14  1  0.984050  0.492025  0.750000  1
  O  O15  1  0.015950  0.507975  0.250000  1
  O  O16  1  0.492025  0.507975  0.250000  1
  O  O17  1  0.507975  0.015950  0.750000  1
  O  O18  1  0.176913  0.353825  0.412500  1
  O  O19  1  0.823087  0.176913  0.912500  1
  O  O20  1  0.353825  0.176913  0.912500  1
  O  O21  1  0.646175  0.823087  0.412500  1
  O  O22  1  0.176913  0.823087  0.412500  1
  O  O23  1  0.823087  0.646175  0.587500  1
  O  O24  1  0.823087  0.176913  0.587500  1
  O  O25  1  0.823087  0.646175  0.912500  1
  O  O26  1  0.353825  0.176913  0.587500  1
  O  O27  1  0.646175  0.823087  0.087500  1
  O  O28  1  0.176913  0.353825  0.087500  1
  O  O29  1  0.176913  0.823087  0.087500  1
