# generated using pymatgen
data_CsPPbS4
_symmetry_space_group_name_H-M   'P 1'
_cell_length_a   6.50971156
_cell_length_b   6.89285271
_cell_length_c   18.41195995
_cell_angle_alpha   90.00000000
_cell_angle_beta   90.00000000
_cell_angle_gamma   90.00000000
_symmetry_Int_Tables_number   1
_chemical_formula_structural   CsPPbS4
_chemical_formula_sum   'Cs4 P4 Pb4 S16'
_cell_volume   826.15353534
_cell_formula_units_Z   4
loop_
 _symmetry_equiv_pos_site_id
 _symmetry_equiv_pos_as_xyz
  1  'x, y, z'
loop_
 _atom_site_type_symbol
 _atom_site_label
 _atom_site_symmetry_multiplicity
 _atom_site_fract_x
 _atom_site_fract_y
 _atom_site_fract_z
 _atom_site_occupancy
  Cs  Cs0  1  0.937195  0.750000  0.795466  1
  Cs  Cs1  1  0.062805  0.250000  0.204534  1
  Cs  Cs2  1  0.437195  0.250000  0.704534  1
  Cs  Cs3  1  0.562805  0.750000  0.295466  1
  P  P4  1  0.216999  0.250000  0.907214  1
  P  P5  1  0.283001  0.250000  0.407214  1
  P  P6  1  0.716999  0.750000  0.592786  1
  P  P7  1  0.783001  0.750000  0.092786  1
  Pb  Pb8  1  0.211376  0.750000  0.515685  1
  Pb  Pb9  1  0.288624  0.750000  0.015685  1
  Pb  Pb10  1  0.788624  0.250000  0.484315  1
  Pb  Pb11  1  0.711376  0.250000  0.984315  1
  S  S12  1  0.392408  0.490949  0.884887  1
  S  S13  1  0.150882  0.250000  0.016886  1
  S  S14  1  0.107592  0.490949  0.384887  1
  S  S15  1  0.452574  0.750000  0.652776  1
  S  S16  1  0.607592  0.990949  0.115113  1
  S  S17  1  0.392408  0.009051  0.884887  1
  S  S18  1  0.107592  0.009051  0.384887  1
  S  S19  1  0.349118  0.250000  0.516886  1
  S  S20  1  0.849118  0.750000  0.983114  1
  S  S21  1  0.047426  0.750000  0.152776  1
  S  S22  1  0.547426  0.250000  0.347224  1
  S  S23  1  0.892408  0.509051  0.615113  1
  S  S24  1  0.952574  0.250000  0.847224  1
  S  S25  1  0.607592  0.509051  0.115113  1
  S  S26  1  0.892408  0.990949  0.615113  1
  S  S27  1  0.650882  0.750000  0.483114  1
