# generated using pymatgen
data_NaNd(GaSe2)4
_symmetry_space_group_name_H-M   'P 1'
_cell_length_a   15.14430937
_cell_length_b   12.50537886
_cell_length_c   12.48149550
_cell_angle_alpha   74.61465257
_cell_angle_beta   52.76454445
_cell_angle_gamma   52.62080299
_symmetry_Int_Tables_number   1
_chemical_formula_structural   NaNd(GaSe2)4
_chemical_formula_sum   'Na4 Nd4 Ga16 Se32'
_cell_volume   1475.89567570
_cell_formula_units_Z   4
loop_
 _symmetry_equiv_pos_site_id
 _symmetry_equiv_pos_as_xyz
  1  'x, y, z'
loop_
 _atom_site_type_symbol
 _atom_site_label
 _atom_site_symmetry_multiplicity
 _atom_site_fract_x
 _atom_site_fract_y
 _atom_site_fract_z
 _atom_site_occupancy
  Na  Na0  1  0.496626  0.496626  0.003374  1
  Na  Na1  1  0.003374  0.003374  0.496626  1
  Na  Na2  1  0.246626  0.246626  0.753374  1
  Na  Na3  1  0.753374  0.753374  0.246626  1
  Nd  Nd4  1  0.250000  0.250000  0.250000  1
  Nd  Nd5  1  0.000000  1.000000  0.000000  1
  Nd  Nd6  1  0.500000  0.500000  0.500000  1
  Nd  Nd7  1  0.750000  0.750000  0.750000  1
  Ga  Ga8  1  0.741247  0.013991  0.488088  1
  Ga  Ga9  1  0.155444  0.596341  0.984702  1
  Ga  Ga10  1  0.756673  0.488088  0.013991  1
  Ga  Ga11  1  0.265298  0.986487  0.094556  1
  Ga  Ga12  1  0.508753  0.236009  0.761912  1
  Ga  Ga13  1  0.653659  0.094556  0.986487  1
  Ga  Ga14  1  0.488088  0.756673  0.741247  1
  Ga  Ga15  1  0.984702  0.263513  0.155444  1
  Ga  Ga16  1  0.094556  0.653659  0.265298  1
  Ga  Ga17  1  0.596341  0.155444  0.263513  1
  Ga  Ga18  1  0.761912  0.493327  0.508753  1
  Ga  Ga19  1  0.263513  0.984702  0.596341  1
  Ga  Ga20  1  0.236009  0.508753  0.493327  1
  Ga  Ga21  1  0.013991  0.741247  0.756673  1
  Ga  Ga22  1  0.493327  0.761912  0.236009  1
  Ga  Ga23  1  0.986487  0.265298  0.653659  1
  Se  Se24  1  0.220240  0.703179  0.534896  1
  Se  Se25  1  0.036081  0.039813  0.718458  1
  Se  Se26  1  0.442178  0.306891  0.476149  1
  Se  Se27  1  0.718458  0.205648  0.036081  1
  Se  Se28  1  0.708315  0.715104  0.546821  1
  Se  Se29  1  0.475219  0.773851  0.943109  1
  Se  Se30  1  0.531542  0.044352  0.213919  1
  Se  Se31  1  0.967168  0.276271  0.968333  1
  Se  Se32  1  0.039813  0.036081  0.205648  1
  Se  Se33  1  0.774781  0.476149  0.306891  1
  Se  Se34  1  0.029760  0.546821  0.715104  1
  Se  Se35  1  0.282832  0.973729  0.281667  1
  Se  Se36  1  0.541685  0.534896  0.703179  1
  Se  Se37  1  0.276271  0.967168  0.788228  1
  Se  Se38  1  0.973729  0.282832  0.461772  1
  Se  Se39  1  0.205648  0.718458  0.039813  1
  Se  Se40  1  0.807822  0.943109  0.773851  1
  Se  Se41  1  0.788228  0.968333  0.276271  1
  Se  Se42  1  0.476149  0.774781  0.442178  1
  Se  Se43  1  0.943109  0.807822  0.475219  1
  Se  Se44  1  0.773851  0.475219  0.807822  1
  Se  Se45  1  0.534896  0.541685  0.220240  1
  Se  Se46  1  0.968333  0.788228  0.967168  1
  Se  Se47  1  0.213919  0.210187  0.531542  1
  Se  Se48  1  0.715104  0.708315  0.029760  1
  Se  Se49  1  0.703179  0.220240  0.541685  1
  Se  Se50  1  0.281667  0.461772  0.282832  1
  Se  Se51  1  0.306891  0.442178  0.774781  1
  Se  Se52  1  0.044352  0.531542  0.210187  1
  Se  Se53  1  0.461772  0.281667  0.973729  1
  Se  Se54  1  0.546821  0.029760  0.708315  1
  Se  Se55  1  0.210187  0.213919  0.044352  1
