# generated using pymatgen
data_Mg(GaO2)2
_symmetry_space_group_name_H-M   'P 1'
_cell_length_a   5.93530019
_cell_length_b   5.93530019
_cell_length_c   19.65270265
_cell_angle_alpha   81.47070787
_cell_angle_beta   98.52929213
_cell_angle_gamma   119.51962763
_symmetry_Int_Tables_number   1
_chemical_formula_structural   Mg(GaO2)2
_chemical_formula_sum   'Mg8 Ga16 O32'
_cell_volume   593.50459675
_cell_formula_units_Z   8
loop_
 _symmetry_equiv_pos_site_id
 _symmetry_equiv_pos_as_xyz
  1  'x, y, z'
loop_
 _atom_site_type_symbol
 _atom_site_label
 _atom_site_symmetry_multiplicity
 _atom_site_fract_x
 _atom_site_fract_y
 _atom_site_fract_z
 _atom_site_occupancy
  Mg  Mg0  1  0.005742  0.994258  0.001220  1
  Mg  Mg1  1  0.254911  0.745089  0.747673  1
  Mg  Mg2  1  0.783327  0.216673  0.843447  1
  Mg  Mg3  1  0.031657  0.968343  0.592423  1
  Mg  Mg4  1  0.281280  0.718720  0.343627  1
  Mg  Mg5  1  0.155776  0.844224  0.468205  1
  Mg  Mg6  1  0.532786  0.467214  0.094702  1
  Mg  Mg7  1  0.405982  0.594018  0.218618  1
  Ga  Ga8  1  0.305821  0.694179  0.938425  1
  Ga  Ga9  1  0.555560  0.444440  0.688385  1
  Ga  Ga10  1  0.507173  0.492827  0.500295  1
  Ga  Ga11  1  0.657229  0.342771  0.972022  1
  Ga  Ga12  1  0.785067  0.728005  0.843336  1
  Ga  Ga13  1  0.271995  0.214933  0.843336  1
  Ga  Ga14  1  0.758020  0.241980  0.253673  1
  Ga  Ga15  1  0.906694  0.093306  0.721577  1
  Ga  Ga16  1  0.804652  0.195348  0.434671  1
  Ga  Ga17  1  0.032599  0.473675  0.591978  1
  Ga  Ga18  1  0.526325  0.967401  0.591978  1
  Ga  Ga19  1  0.054942  0.945058  0.185278  1
  Ga  Ga20  1  0.281441  0.219084  0.343483  1
  Ga  Ga21  1  0.780916  0.718559  0.343483  1
  Ga  Ga22  1  0.533665  0.972998  0.094648  1
  Ga  Ga23  1  0.027002  0.466335  0.094648  1
  O  O24  1  0.946400  0.526111  0.905455  1
  O  O25  1  0.591377  0.408623  0.786754  1
  O  O26  1  0.473889  0.053600  0.905455  1
  O  O27  1  0.475200  0.524800  0.905117  1
  O  O28  1  0.195908  0.275628  0.655389  1
  O  O29  1  0.084473  0.915527  0.783253  1
  O  O30  1  0.840217  0.159783  0.535608  1
  O  O31  1  0.724372  0.804092  0.655389  1
  O  O32  1  0.087807  0.376535  0.782455  1
  O  O33  1  0.972487  0.027513  0.899343  1
  O  O34  1  0.725446  0.274554  0.655277  1
  O  O35  1  0.623465  0.912193  0.782455  1
  O  O36  1  0.341920  0.658080  0.533070  1
  O  O37  1  0.450235  0.031161  0.403187  1
  O  O38  1  0.091105  0.908895  0.284928  1
  O  O39  1  0.968839  0.549765  0.403187  1
  O  O40  1  0.344153  0.141573  0.533158  1
  O  O41  1  0.221741  0.778259  0.644997  1
  O  O42  1  0.972435  0.027565  0.403079  1
  O  O43  1  0.858427  0.655847  0.533158  1
  O  O44  1  0.589570  0.410430  0.284672  1
  O  O45  1  0.701018  0.782121  0.152959  1
  O  O46  1  0.342011  0.657989  0.036014  1
  O  O47  1  0.593566  0.886781  0.284524  1
  O  O48  1  0.217879  0.298982  0.152959  1
  O  O49  1  0.471356  0.528644  0.401529  1
  O  O50  1  0.221770  0.778230  0.152547  1
  O  O51  1  0.113219  0.406434  0.284524  1
  O  O52  1  0.832418  0.167582  0.034947  1
  O  O53  1  0.836909  0.621916  0.033996  1
  O  O54  1  0.721739  0.278261  0.155489  1
  O  O55  1  0.378084  0.163091  0.033996  1
