# generated using pymatgen
data_Nd12Ni6Sn
_symmetry_space_group_name_H-M   'P 1'
_cell_length_a   8.71674241
_cell_length_b   8.71674241
_cell_length_c   8.71674241
_cell_angle_alpha   109.47122063
_cell_angle_beta   109.47122063
_cell_angle_gamma   109.47122063
_symmetry_Int_Tables_number   1
_chemical_formula_structural   Nd12Ni6Sn
_chemical_formula_sum   'Nd12 Ni6 Sn1'
_cell_volume   509.84803037
_cell_formula_units_Z   1
loop_
 _symmetry_equiv_pos_site_id
 _symmetry_equiv_pos_as_xyz
  1  'x, y, z'
loop_
 _atom_site_type_symbol
 _atom_site_label
 _atom_site_symmetry_multiplicity
 _atom_site_fract_x
 _atom_site_fract_y
 _atom_site_fract_z
 _atom_site_occupancy
  Nd  Nd0  1  0.878319  0.693262  0.185057  1
  Nd  Nd1  1  0.693262  0.814943  0.508205  1
  Nd  Nd2  1  0.185057  0.491795  0.306738  1
  Nd  Nd3  1  0.306738  0.814943  0.121681  1
  Nd  Nd4  1  0.814943  0.508205  0.693262  1
  Nd  Nd5  1  0.306738  0.185057  0.491795  1
  Nd  Nd6  1  0.814943  0.121681  0.306738  1
  Nd  Nd7  1  0.185057  0.878319  0.693262  1
  Nd  Nd8  1  0.693262  0.185057  0.878319  1
  Nd  Nd9  1  0.508205  0.693262  0.814943  1
  Nd  Nd10  1  0.491795  0.306738  0.185057  1
  Nd  Nd11  1  0.121681  0.306738  0.814943  1
  Ni  Ni12  1  0.500000  0.622118  0.122118  1
  Ni  Ni13  1  0.377882  0.877882  0.500000  1
  Ni  Ni14  1  0.877882  0.500000  0.377882  1
  Ni  Ni15  1  0.622118  0.122118  0.500000  1
  Ni  Ni16  1  0.122118  0.500000  0.622118  1
  Ni  Ni17  1  0.500000  0.377882  0.877882  1
  Sn  Sn18  1  0.000000  0.000000  0.000000  1
