# generated using pymatgen
data_Nd(Re2Si)2
_symmetry_space_group_name_H-M   'P 1'
_cell_length_a   4.15741381
_cell_length_b   7.37571091
_cell_length_c   15.48259774
_cell_angle_alpha   90.00000000
_cell_angle_beta   90.00000000
_cell_angle_gamma   90.00000000
_symmetry_Int_Tables_number   1
_chemical_formula_structural   Nd(Re2Si)2
_chemical_formula_sum   'Nd4 Re16 Si8'
_cell_volume   474.75655628
_cell_formula_units_Z   4
loop_
 _symmetry_equiv_pos_site_id
 _symmetry_equiv_pos_as_xyz
  1  'x, y, z'
loop_
 _atom_site_type_symbol
 _atom_site_label
 _atom_site_symmetry_multiplicity
 _atom_site_fract_x
 _atom_site_fract_y
 _atom_site_fract_z
 _atom_site_occupancy
  Nd  Nd0  1  0.000000  0.576635  0.118470  1
  Nd  Nd1  1  0.000000  0.423365  0.881530  1
  Nd  Nd2  1  0.500000  0.076635  0.381530  1
  Nd  Nd3  1  0.500000  0.923365  0.618470  1
  Re  Re4  1  0.000000  0.137911  0.051993  1
  Re  Re5  1  0.000000  0.862089  0.948007  1
  Re  Re6  1  0.500000  0.637911  0.448007  1
  Re  Re7  1  0.500000  0.362089  0.551993  1
  Re  Re8  1  0.000000  0.730491  0.321387  1
  Re  Re9  1  0.000000  0.269509  0.678613  1
  Re  Re10  1  0.500000  0.230491  0.178613  1
  Re  Re11  1  0.500000  0.769509  0.821387  1
  Re  Re12  1  0.000000  0.430747  0.417884  1
  Re  Re13  1  0.000000  0.569253  0.582116  1
  Re  Re14  1  0.500000  0.930747  0.082116  1
  Re  Re15  1  0.500000  0.069253  0.917884  1
  Re  Re16  1  0.000000  0.986628  0.206101  1
  Re  Re17  1  0.000000  0.013372  0.793899  1
  Re  Re18  1  0.500000  0.486628  0.293899  1
  Re  Re19  1  0.500000  0.513372  0.706101  1
  Si  Si20  1  0.000000  0.827638  0.476119  1
  Si  Si21  1  0.000000  0.172362  0.523881  1
  Si  Si22  1  0.500000  0.327638  0.023881  1
  Si  Si23  1  0.500000  0.672362  0.976119  1
  Si  Si24  1  0.000000  0.288309  0.272863  1
  Si  Si25  1  0.000000  0.711691  0.727137  1
  Si  Si26  1  0.500000  0.788309  0.227137  1
  Si  Si27  1  0.500000  0.211691  0.772863  1
