# generated using pymatgen
data_LiV2F6
_symmetry_space_group_name_H-M   'P 1'
_cell_length_a   4.77013378
_cell_length_b   4.77013378
_cell_length_c   9.45602108
_cell_angle_alpha   90.00000000
_cell_angle_beta   90.00000000
_cell_angle_gamma   90.00000000
_symmetry_Int_Tables_number   1
_chemical_formula_structural   LiV2F6
_chemical_formula_sum   'Li2 V4 F12'
_cell_volume   215.16397055
_cell_formula_units_Z   2
loop_
 _symmetry_equiv_pos_site_id
 _symmetry_equiv_pos_as_xyz
  1  'x, y, z'
loop_
 _atom_site_type_symbol
 _atom_site_label
 _atom_site_symmetry_multiplicity
 _atom_site_fract_x
 _atom_site_fract_y
 _atom_site_fract_z
 _atom_site_occupancy
  Li  Li0  1  0.500000  0.500000  0.500000  1
  Li  Li1  1  0.000000  0.000000  0.000000  1
  V  V2  1  0.000000  0.000000  0.667306  1
  V  V3  1  0.500000  0.500000  0.167306  1
  V  V4  1  0.500000  0.500000  0.832694  1
  V  V5  1  0.000000  0.000000  0.332694  1
  F  F6  1  0.699010  0.699010  0.668952  1
  F  F7  1  0.300990  0.300990  0.668952  1
  F  F8  1  0.305705  0.305705  0.000000  1
  F  F9  1  0.194295  0.805705  0.500000  1
  F  F10  1  0.805705  0.194295  0.500000  1
  F  F11  1  0.694295  0.694295  0.000000  1
  F  F12  1  0.300990  0.300990  0.331048  1
  F  F13  1  0.199010  0.800990  0.831048  1
  F  F14  1  0.800990  0.199010  0.831048  1
  F  F15  1  0.800990  0.199010  0.168952  1
  F  F16  1  0.199010  0.800990  0.168952  1
  F  F17  1  0.699010  0.699010  0.331048  1
