# generated using pymatgen
data_K(TeO3)2
_symmetry_space_group_name_H-M   'P 1'
_cell_length_a   7.29685750
_cell_length_b   7.29685750
_cell_length_c   12.19687312
_cell_angle_alpha   76.16810697
_cell_angle_beta   103.83189303
_cell_angle_gamma   119.41403267
_symmetry_Int_Tables_number   1
_chemical_formula_structural   K(TeO3)2
_chemical_formula_sum   'K4 Te8 O24'
_cell_volume   543.58226270
_cell_formula_units_Z   4
loop_
 _symmetry_equiv_pos_site_id
 _symmetry_equiv_pos_as_xyz
  1  'x, y, z'
loop_
 _atom_site_type_symbol
 _atom_site_label
 _atom_site_symmetry_multiplicity
 _atom_site_fract_x
 _atom_site_fract_y
 _atom_site_fract_z
 _atom_site_occupancy
  K  K0  1  0.566793  0.433207  0.692208  1
  K  K1  1  0.433207  0.566793  0.307792  1
  K  K2  1  0.917569  0.082431  0.816270  1
  K  K3  1  0.082431  0.917569  0.183730  1
  Te  Te4  1  0.000000  0.000000  0.500000  1
  Te  Te5  1  0.264170  0.735830  0.742246  1
  Te  Te6  1  0.500000  0.500000  0.000000  1
  Te  Te7  1  0.735830  0.264170  0.257754  1
  Te  Te8  1  0.500000  1.000000  0.500000  1
  Te  Te9  1  1.000000  0.500000  0.000000  1
  Te  Te10  1  0.500000  0.000000  0.000000  1
  Te  Te11  1  1.000000  0.500000  0.500000  1
  O  O12  1  0.996508  0.003492  0.348795  1
  O  O13  1  0.259180  0.740820  0.440916  1
  O  O14  1  0.193171  0.806829  0.982147  1
  O  O15  1  0.806829  0.193171  0.017853  1
  O  O16  1  0.914828  0.682047  0.544857  1
  O  O17  1  0.007751  0.499891  0.156893  1
  O  O18  1  0.682047  0.914828  0.455143  1
  O  O19  1  0.147329  0.481074  0.655279  1
  O  O20  1  0.085172  0.317953  0.455143  1
  O  O21  1  0.223531  0.399247  0.046045  1
  O  O22  1  0.481074  0.147329  0.344721  1
  O  O23  1  0.499891  0.007751  0.843107  1
  O  O24  1  0.399247  0.223531  0.953955  1
  O  O25  1  0.582722  0.417278  0.160957  1
  O  O26  1  0.500109  0.992249  0.156893  1
  O  O27  1  0.600753  0.776469  0.046045  1
  O  O28  1  0.740820  0.259180  0.559084  1
  O  O29  1  0.852671  0.518926  0.344721  1
  O  O30  1  0.417278  0.582722  0.839043  1
  O  O31  1  0.992249  0.500109  0.843107  1
  O  O32  1  0.776469  0.600753  0.953955  1
  O  O33  1  0.518926  0.852671  0.655279  1
  O  O34  1  0.003492  0.996508  0.651205  1
  O  O35  1  0.317953  0.085172  0.544857  1
