# generated using pymatgen
data_KAuCl4
_symmetry_space_group_name_H-M   'P 1'
_cell_length_a   9.10497591
_cell_length_b   6.55330906
_cell_length_c   12.50628887
_cell_angle_alpha   90.00000000
_cell_angle_beta   96.65571434
_cell_angle_gamma   90.00000000
_symmetry_Int_Tables_number   1
_chemical_formula_structural   KAuCl4
_chemical_formula_sum   'K4 Au4 Cl16'
_cell_volume   741.19261833
_cell_formula_units_Z   4
loop_
 _symmetry_equiv_pos_site_id
 _symmetry_equiv_pos_as_xyz
  1  'x, y, z'
loop_
 _atom_site_type_symbol
 _atom_site_label
 _atom_site_symmetry_multiplicity
 _atom_site_fract_x
 _atom_site_fract_y
 _atom_site_fract_z
 _atom_site_occupancy
  K  K0  1  0.713434  0.049221  0.183867  1
  K  K1  1  0.713434  0.450779  0.683867  1
  K  K2  1  0.286566  0.950779  0.816133  1
  K  K3  1  0.286566  0.549221  0.316133  1
  Au  Au4  1  0.500000  0.000000  0.500000  1
  Au  Au5  1  0.500000  0.500000  0.000000  1
  Au  Au6  1  0.000000  0.500000  0.000000  1
  Au  Au7  1  0.000000  0.000000  0.500000  1
  Cl  Cl8  1  0.834791  0.250306  0.430549  1
  Cl  Cl9  1  0.593434  0.547710  0.179335  1
  Cl  Cl10  1  0.593434  0.952290  0.679335  1
  Cl  Cl11  1  0.993311  0.849309  0.331428  1
  Cl  Cl12  1  0.376951  0.208777  0.047203  1
  Cl  Cl13  1  0.165209  0.749694  0.569451  1
  Cl  Cl14  1  0.006689  0.349309  0.168572  1
  Cl  Cl15  1  0.993311  0.650691  0.831428  1
  Cl  Cl16  1  0.006689  0.150691  0.668572  1
  Cl  Cl17  1  0.376951  0.291223  0.547203  1
  Cl  Cl18  1  0.406566  0.047710  0.320665  1
  Cl  Cl19  1  0.834791  0.249694  0.930549  1
  Cl  Cl20  1  0.623049  0.791223  0.952797  1
  Cl  Cl21  1  0.165209  0.750306  0.069451  1
  Cl  Cl22  1  0.623049  0.708777  0.452797  1
  Cl  Cl23  1  0.406566  0.452290  0.820665  1
