# generated using pymatgen
data_Ce2O3
_symmetry_space_group_name_H-M   'P 1'
_cell_length_a   7.45217597
_cell_length_b   7.45217597
_cell_length_c   8.98373086
_cell_angle_alpha   80.08850487
_cell_angle_beta   99.91149513
_cell_angle_gamma   151.21431123
_symmetry_Int_Tables_number   1
_chemical_formula_structural   Ce2O3
_chemical_formula_sum   'Ce6 O9'
_cell_volume   236.41920191
_cell_formula_units_Z   3
loop_
 _symmetry_equiv_pos_site_id
 _symmetry_equiv_pos_as_xyz
  1  'x, y, z'
loop_
 _atom_site_type_symbol
 _atom_site_label
 _atom_site_symmetry_multiplicity
 _atom_site_fract_x
 _atom_site_fract_y
 _atom_site_fract_z
 _atom_site_occupancy
  Ce  Ce0  1  0.633372  0.366628  0.489630  1
  Ce  Ce1  1  0.688775  0.311225  0.138975  1
  Ce  Ce2  1  0.366628  0.633372  0.510370  1
  Ce  Ce3  1  0.967089  0.032911  0.185868  1
  Ce  Ce4  1  0.032911  0.967089  0.814132  1
  Ce  Ce5  1  0.311225  0.688775  0.861025  1
  O  O6  1  0.201958  0.798042  0.626685  1
  O  O7  1  0.872082  0.127918  0.714433  1
  O  O8  1  0.472712  0.527288  0.341405  1
  O  O9  1  0.798042  0.201958  0.373315  1
  O  O10  1  0.823426  0.176574  0.028456  1
  O  O11  1  0.176574  0.823426  0.971544  1
  O  O12  1  0.527288  0.472712  0.658595  1
  O  O13  1  0.500000  0.500000  0.000000  1
  O  O14  1  0.127918  0.872082  0.285567  1
