# generated using pymatgen
data_Pm2O3
_symmetry_space_group_name_H-M   'P 1'
_cell_length_a   9.59402230
_cell_length_b   9.59402230
_cell_length_c   9.59402230
_cell_angle_alpha   109.47122063
_cell_angle_beta   109.47122063
_cell_angle_gamma   109.47122063
_symmetry_Int_Tables_number   1
_chemical_formula_structural   Pm2O3
_chemical_formula_sum   'Pm16 O24'
_cell_volume   679.79862309
_cell_formula_units_Z   8
loop_
 _symmetry_equiv_pos_site_id
 _symmetry_equiv_pos_as_xyz
  1  'x, y, z'
loop_
 _atom_site_type_symbol
 _atom_site_label
 _atom_site_symmetry_multiplicity
 _atom_site_fract_x
 _atom_site_fract_y
 _atom_site_fract_z
 _atom_site_occupancy
  Pm  Pm0  1  0.468686  0.250000  0.718686  1
  Pm  Pm1  1  0.031314  0.750000  0.781314  1
  Pm  Pm2  1  0.250000  0.718686  0.468686  1
  Pm  Pm3  1  0.750000  0.781314  0.031314  1
  Pm  Pm4  1  0.718686  0.468686  0.250000  1
  Pm  Pm5  1  0.781314  0.031314  0.750000  1
  Pm  Pm6  1  0.531314  0.750000  0.281314  1
  Pm  Pm7  1  0.968686  0.250000  0.218686  1
  Pm  Pm8  1  0.750000  0.281314  0.531314  1
  Pm  Pm9  1  0.250000  0.218686  0.968686  1
  Pm  Pm10  1  0.281314  0.531314  0.750000  1
  Pm  Pm11  1  0.218686  0.968686  0.250000  1
  Pm  Pm12  1  0.500000  0.000000  1.000000  1
  Pm  Pm13  1  0.000000  0.500000  0.000000  1
  Pm  Pm14  1  0.000000  0.000000  0.500000  1
  Pm  Pm15  1  0.500000  0.500000  0.500000  1
  O  O16  1  0.528961  0.769514  0.540834  1
  O  O17  1  0.771320  0.730486  0.259448  1
  O  O18  1  0.971039  0.511873  0.240552  1
  O  O19  1  0.728680  0.988127  0.959166  1
  O  O20  1  0.769514  0.540834  0.528961  1
  O  O21  1  0.730486  0.259448  0.771320  1
  O  O22  1  0.511873  0.240552  0.971039  1
  O  O23  1  0.988127  0.959166  0.728680  1
  O  O24  1  0.540834  0.528961  0.769514  1
  O  O25  1  0.259448  0.771320  0.730486  1
  O  O26  1  0.240552  0.971039  0.511873  1
  O  O27  1  0.959166  0.728680  0.988127  1
  O  O28  1  0.471039  0.230486  0.459166  1
  O  O29  1  0.228680  0.269514  0.740552  1
  O  O30  1  0.028961  0.488127  0.759448  1
  O  O31  1  0.271320  0.011873  0.040834  1
  O  O32  1  0.230486  0.459166  0.471039  1
  O  O33  1  0.269514  0.740552  0.228680  1
  O  O34  1  0.488127  0.759448  0.028961  1
  O  O35  1  0.011873  0.040834  0.271320  1
  O  O36  1  0.459166  0.471039  0.230486  1
  O  O37  1  0.740552  0.228680  0.269514  1
  O  O38  1  0.759448  0.028961  0.488127  1
  O  O39  1  0.040834  0.271320  0.011873  1
