# generated using pymatgen
data_K17Fe5O16
_symmetry_space_group_name_H-M   'P 1'
_cell_length_a   18.63162996
_cell_length_b   18.63162996
_cell_length_c   6.78661185
_cell_angle_alpha   84.87014860
_cell_angle_beta   95.12985140
_cell_angle_gamma   21.00554912
_symmetry_Int_Tables_number   1
_chemical_formula_structural   K17Fe5O16
_chemical_formula_sum   'K17 Fe5 O16'
_cell_volume   735.91281264
_cell_formula_units_Z   1
loop_
 _symmetry_equiv_pos_site_id
 _symmetry_equiv_pos_as_xyz
  1  'x, y, z'
loop_
 _atom_site_type_symbol
 _atom_site_label
 _atom_site_symmetry_multiplicity
 _atom_site_fract_x
 _atom_site_fract_y
 _atom_site_fract_z
 _atom_site_occupancy
  K  K0  1  0.916427  0.914524  0.879593  1
  K  K1  1  0.673031  0.778516  0.457808  1
  K  K2  1  0.172396  0.165748  0.607430  1
  K  K3  1  0.407574  0.313701  0.017907  1
  K  K4  1  0.504556  0.587325  0.457865  1
  K  K5  1  0.002396  0.997604  0.582793  1
  K  K6  1  0.834252  0.827604  0.607430  1
  K  K7  1  0.412675  0.495444  0.457865  1
  K  K8  1  0.325717  0.208329  0.010827  1
  K  K9  1  0.221484  0.326969  0.457808  1
  K  K10  1  0.791671  0.674283  0.010827  1
  K  K11  1  0.085476  0.083573  0.879593  1
  K  K12  1  0.593787  0.681209  0.473722  1
  K  K13  1  0.686299  0.592426  0.017907  1
  K  K14  1  0.590327  0.502801  0.000414  1
  K  K15  1  0.497199  0.409673  0.000414  1
  K  K16  1  0.318791  0.406213  0.473722  1
  Fe  Fe17  1  0.001096  0.998904  0.074576  1
  Fe  Fe18  1  0.821990  0.819228  0.085321  1
  Fe  Fe19  1  0.180772  0.178010  0.085321  1
  Fe  Fe20  1  0.911274  0.909454  0.388881  1
  Fe  Fe21  1  0.090546  0.088726  0.388881  1
  O  O22  1  0.826391  0.359462  0.408697  1
  O  O23  1  0.131631  0.125646  0.195868  1
  O  O24  1  0.360126  0.825657  0.673496  1
  O  O25  1  0.640538  0.173609  0.408697  1
  O  O26  1  0.083579  0.543178  0.066484  1
  O  O27  1  0.174343  0.639874  0.673496  1
  O  O28  1  0.874354  0.868369  0.195868  1
  O  O29  1  0.270203  0.729797  0.057022  1
  O  O30  1  0.789824  0.783672  0.299617  1
  O  O31  1  0.545845  0.082543  0.803259  1
  O  O32  1  0.456822  0.916421  0.066484  1
  O  O33  1  0.216328  0.210176  0.299617  1
  O  O34  1  0.917457  0.454155  0.803259  1
  O  O35  1  0.957948  0.956046  0.244672  1
  O  O36  1  0.734339  0.265661  0.790217  1
  O  O37  1  0.043954  0.042052  0.244672  1
