# generated using pymatgen
data_Na3GaS3
_symmetry_space_group_name_H-M   'P 1'
_cell_length_a   7.70270852
_cell_length_b   12.20304946
_cell_length_c   13.81947314
_cell_angle_alpha   90.00000000
_cell_angle_beta   98.37778326
_cell_angle_gamma   90.00000000
_symmetry_Int_Tables_number   1
_chemical_formula_structural   Na3GaS3
_chemical_formula_sum   'Na24 Ga8 S24'
_cell_volume   1285.12099513
_cell_formula_units_Z   8
loop_
 _symmetry_equiv_pos_site_id
 _symmetry_equiv_pos_as_xyz
  1  'x, y, z'
loop_
 _atom_site_type_symbol
 _atom_site_label
 _atom_site_symmetry_multiplicity
 _atom_site_fract_x
 _atom_site_fract_y
 _atom_site_fract_z
 _atom_site_occupancy
  Na  Na0  1  0.496889  0.749472  0.986149  1
  Na  Na1  1  0.963648  0.307908  0.759312  1
  Na  Na2  1  0.996889  0.750528  0.986149  1
  Na  Na3  1  0.084398  0.263680  0.526136  1
  Na  Na4  1  0.109831  0.911947  0.633432  1
  Na  Na5  1  0.390169  0.411947  0.366568  1
  Na  Na6  1  0.994500  0.328121  0.243054  1
  Na  Na7  1  0.503111  0.250528  0.013851  1
  Na  Na8  1  0.036352  0.692092  0.240688  1
  Na  Na9  1  0.890169  0.088053  0.366568  1
  Na  Na10  1  0.915602  0.736320  0.473864  1
  Na  Na11  1  0.005500  0.671879  0.756946  1
  Na  Na12  1  0.463648  0.192092  0.759312  1
  Na  Na13  1  0.536352  0.807908  0.240688  1
  Na  Na14  1  0.418578  0.481000  0.806490  1
  Na  Na15  1  0.609831  0.588053  0.633432  1
  Na  Na16  1  0.081422  0.981000  0.193510  1
  Na  Na17  1  0.918578  0.019000  0.806490  1
  Na  Na18  1  0.415602  0.763680  0.473864  1
  Na  Na19  1  0.494500  0.171879  0.243054  1
  Na  Na20  1  0.003111  0.249472  0.013851  1
  Na  Na21  1  0.581422  0.519000  0.193510  1
  Na  Na22  1  0.505500  0.828121  0.756946  1
  Na  Na23  1  0.584398  0.236320  0.526136  1
  Ga  Ga24  1  0.178595  0.507508  0.073904  1
  Ga  Ga25  1  0.682771  0.977887  0.566547  1
  Ga  Ga26  1  0.821405  0.492492  0.926096  1
  Ga  Ga27  1  0.678595  0.992492  0.073904  1
  Ga  Ga28  1  0.817229  0.477887  0.433453  1
  Ga  Ga29  1  0.182771  0.522113  0.566547  1
  Ga  Ga30  1  0.317229  0.022113  0.433453  1
  Ga  Ga31  1  0.321405  0.007508  0.926096  1
  S  S32  1  0.235917  0.186325  0.369076  1
  S  S33  1  0.688469  0.641142  0.851805  1
  S  S34  1  0.119738  0.497913  0.902095  1
  S  S35  1  0.264083  0.686325  0.630924  1
  S  S36  1  0.880262  0.502087  0.097905  1
  S  S37  1  0.908568  0.466540  0.604559  1
  S  S38  1  0.091432  0.533460  0.395441  1
  S  S39  1  0.380262  0.997913  0.097905  1
  S  S40  1  0.408568  0.033460  0.604559  1
  S  S41  1  0.735917  0.313675  0.369076  1
  S  S42  1  0.201561  0.170492  0.877095  1
  S  S43  1  0.798439  0.829508  0.122905  1
  S  S44  1  0.764083  0.813675  0.630924  1
  S  S45  1  0.382769  0.389555  0.613786  1
  S  S46  1  0.188469  0.858858  0.851805  1
  S  S47  1  0.619738  0.002087  0.902095  1
  S  S48  1  0.882769  0.110445  0.613786  1
  S  S49  1  0.617231  0.610445  0.386214  1
  S  S50  1  0.591432  0.966540  0.395441  1
  S  S51  1  0.311531  0.358858  0.148195  1
  S  S52  1  0.701561  0.329508  0.877095  1
  S  S53  1  0.117231  0.889555  0.386214  1
  S  S54  1  0.811531  0.141142  0.148195  1
  S  S55  1  0.298439  0.670492  0.122905  1
