# generated using pymatgen
data_CaGe2O5
_symmetry_space_group_name_H-M   'P 1'
_cell_length_a   5.50424149
_cell_length_b   5.60274412
_cell_length_c   6.97046478
_cell_angle_alpha   105.12625138
_cell_angle_beta   102.27663197
_cell_angle_gamma   106.60630593
_symmetry_Int_Tables_number   1
_chemical_formula_structural   CaGe2O5
_chemical_formula_sum   'Ca2 Ge4 O10'
_cell_volume   189.03159965
_cell_formula_units_Z   2
loop_
 _symmetry_equiv_pos_site_id
 _symmetry_equiv_pos_as_xyz
  1  'x, y, z'
loop_
 _atom_site_type_symbol
 _atom_site_label
 _atom_site_symmetry_multiplicity
 _atom_site_fract_x
 _atom_site_fract_y
 _atom_site_fract_z
 _atom_site_occupancy
  Ca  Ca0  1  0.658960  0.313588  0.268118  1
  Ca  Ca1  1  0.341040  0.686412  0.731882  1
  Ge  Ge2  1  0.309482  0.674306  0.244049  1
  Ge  Ge3  1  0.000000  0.000000  0.500000  1
  Ge  Ge4  1  0.690518  0.325694  0.755951  1
  Ge  Ge5  1  0.000000  0.000000  0.000000  1
  O  O6  1  0.928298  0.065240  0.255012  1
  O  O7  1  0.376767  0.229543  0.565443  1
  O  O8  1  0.071702  0.934760  0.744988  1
  O  O9  1  0.623233  0.770457  0.434557  1
  O  O10  1  0.298956  0.881547  0.091416  1
  O  O11  1  0.701044  0.118453  0.908584  1
  O  O12  1  0.256616  0.351400  0.081070  1
  O  O13  1  0.919593  0.308524  0.615953  1
  O  O14  1  0.080407  0.691476  0.384047  1
  O  O15  1  0.743384  0.648600  0.918930  1
