# generated using pymatgen
data_K2In2Sb3
_symmetry_space_group_name_H-M   'P 1'
_cell_length_a   15.56584705
_cell_length_b   7.72625310
_cell_length_c   17.09409828
_cell_angle_alpha   90.00000000
_cell_angle_beta   90.40612257
_cell_angle_gamma   90.00000000
_symmetry_Int_Tables_number   1
_chemical_formula_structural   K2In2Sb3
_chemical_formula_sum   'K16 In16 Sb24'
_cell_volume   2055.78160682
_cell_formula_units_Z   8
loop_
 _symmetry_equiv_pos_site_id
 _symmetry_equiv_pos_as_xyz
  1  'x, y, z'
loop_
 _atom_site_type_symbol
 _atom_site_label
 _atom_site_symmetry_multiplicity
 _atom_site_fract_x
 _atom_site_fract_y
 _atom_site_fract_z
 _atom_site_occupancy
  K  K0  1  0.922377  0.464630  0.112656  1
  K  K1  1  0.441375  0.054765  0.897646  1
  K  K2  1  0.141876  0.466490  0.491643  1
  K  K3  1  0.345864  0.948552  0.477612  1
  K  K4  1  0.858124  0.966490  0.008357  1
  K  K5  1  0.558625  0.554765  0.602354  1
  K  K6  1  0.077623  0.964630  0.387344  1
  K  K7  1  0.858124  0.533510  0.508357  1
  K  K8  1  0.922377  0.035370  0.612656  1
  K  K9  1  0.441375  0.445235  0.397646  1
  K  K10  1  0.077623  0.535370  0.887344  1
  K  K11  1  0.345864  0.551448  0.977612  1
  K  K12  1  0.141876  0.033510  0.991643  1
  K  K13  1  0.558625  0.945235  0.102354  1
  K  K14  1  0.654136  0.051448  0.522388  1
  K  K15  1  0.654136  0.448552  0.022388  1
  In  In16  1  0.592214  0.263812  0.259591  1
  In  In17  1  0.407786  0.763812  0.240409  1
  In  In18  1  0.592214  0.236188  0.759591  1
  In  In19  1  0.683428  0.779970  0.335539  1
  In  In20  1  0.907207  0.786758  0.271518  1
  In  In21  1  0.092793  0.213242  0.728482  1
  In  In22  1  0.407786  0.736188  0.740409  1
  In  In23  1  0.683428  0.720030  0.835539  1
  In  In24  1  0.907207  0.713242  0.771518  1
  In  In25  1  0.092793  0.286758  0.228482  1
  In  In26  1  0.316572  0.220030  0.664461  1
  In  In27  1  0.182199  0.737993  0.673065  1
  In  In28  1  0.182199  0.762007  0.173065  1
  In  In29  1  0.817801  0.237993  0.826935  1
  In  In30  1  0.316572  0.279970  0.164461  1
  In  In31  1  0.817801  0.262007  0.326935  1
  Sb  Sb32  1  0.250406  0.836841  0.826993  1
  Sb  Sb33  1  0.975049  0.463992  0.331692  1
  Sb  Sb34  1  0.024951  0.536008  0.668308  1
  Sb  Sb35  1  0.750041  0.712391  0.677681  1
  Sb  Sb36  1  0.975049  0.036008  0.831692  1
  Sb  Sb37  1  0.749594  0.336841  0.673007  1
  Sb  Sb38  1  0.478751  0.032635  0.658012  1
  Sb  Sb39  1  0.521249  0.532635  0.841988  1
  Sb  Sb40  1  0.838395  0.944903  0.411938  1
  Sb  Sb41  1  0.249959  0.212391  0.822319  1
  Sb  Sb42  1  0.161605  0.055097  0.588062  1
  Sb  Sb43  1  0.667042  0.436164  0.396595  1
  Sb  Sb44  1  0.332958  0.936164  0.103405  1
  Sb  Sb45  1  0.749594  0.163159  0.173007  1
  Sb  Sb46  1  0.249959  0.287609  0.322319  1
  Sb  Sb47  1  0.838395  0.555097  0.911938  1
  Sb  Sb48  1  0.750041  0.787609  0.177681  1
  Sb  Sb49  1  0.024951  0.963992  0.168308  1
  Sb  Sb50  1  0.161605  0.444903  0.088062  1
  Sb  Sb51  1  0.478751  0.467365  0.158012  1
  Sb  Sb52  1  0.667042  0.063836  0.896595  1
  Sb  Sb53  1  0.521249  0.967365  0.341988  1
  Sb  Sb54  1  0.250406  0.663159  0.326993  1
  Sb  Sb55  1  0.332958  0.563836  0.603405  1
