# generated using pymatgen
data_Y3(SiRh)2
_symmetry_space_group_name_H-M   'P 1'
_cell_length_a   5.62999786
_cell_length_b   7.82480776
_cell_length_c   13.02618108
_cell_angle_alpha   90.00000000
_cell_angle_beta   90.00000000
_cell_angle_gamma   90.00000000
_symmetry_Int_Tables_number   1
_chemical_formula_structural   Y3(SiRh)2
_chemical_formula_sum   'Y12 Si8 Rh8'
_cell_volume   573.85083443
_cell_formula_units_Z   4
loop_
 _symmetry_equiv_pos_site_id
 _symmetry_equiv_pos_as_xyz
  1  'x, y, z'
loop_
 _atom_site_type_symbol
 _atom_site_label
 _atom_site_symmetry_multiplicity
 _atom_site_fract_x
 _atom_site_fract_y
 _atom_site_fract_z
 _atom_site_occupancy
  Y  Y0  1  0.137730  0.606704  0.103440  1
  Y  Y1  1  0.137730  0.893296  0.896560  1
  Y  Y2  1  0.862270  0.106704  0.396560  1
  Y  Y3  1  0.862270  0.393296  0.603440  1
  Y  Y4  1  0.862270  0.393296  0.896560  1
  Y  Y5  1  0.862270  0.106704  0.103440  1
  Y  Y6  1  0.137730  0.893296  0.603440  1
  Y  Y7  1  0.137730  0.606704  0.396560  1
  Y  Y8  1  0.371198  0.248477  0.250000  1
  Y  Y9  1  0.371198  0.251523  0.750000  1
  Y  Y10  1  0.628802  0.748477  0.250000  1
  Y  Y11  1  0.628802  0.751523  0.750000  1
  Si  Si12  1  0.858715  0.394404  0.250000  1
  Si  Si13  1  0.858715  0.105596  0.750000  1
  Si  Si14  1  0.141285  0.894404  0.250000  1
  Si  Si15  1  0.141285  0.605596  0.750000  1
  Si  Si16  1  0.381393  0.250000  0.000000  1
  Si  Si17  1  0.618607  0.750000  0.500000  1
  Si  Si18  1  0.618607  0.750000  0.000000  1
  Si  Si19  1  0.381393  0.250000  0.500000  1
  Rh  Rh20  1  0.636297  0.469217  0.090920  1
  Rh  Rh21  1  0.636297  0.030783  0.909080  1
  Rh  Rh22  1  0.363703  0.969217  0.409080  1
  Rh  Rh23  1  0.363703  0.530783  0.590920  1
  Rh  Rh24  1  0.363703  0.530783  0.909080  1
  Rh  Rh25  1  0.363703  0.969217  0.090920  1
  Rh  Rh26  1  0.636297  0.030783  0.590920  1
  Rh  Rh27  1  0.636297  0.469217  0.409080  1
