# generated using pymatgen
data_Ba4PrMn3O12
_symmetry_space_group_name_H-M   'P 1'
_cell_length_a   10.55242069
_cell_length_b   10.55242069
_cell_length_c   10.55242069
_cell_angle_alpha   32.55570434
_cell_angle_beta   32.55570434
_cell_angle_gamma   32.55570434
_symmetry_Int_Tables_number   1
_chemical_formula_structural   Ba4PrMn3O12
_chemical_formula_sum   'Ba4 Pr1 Mn3 O12'
_cell_volume   302.58740131
_cell_formula_units_Z   1
loop_
 _symmetry_equiv_pos_site_id
 _symmetry_equiv_pos_as_xyz
  1  'x, y, z'
loop_
 _atom_site_type_symbol
 _atom_site_label
 _atom_site_symmetry_multiplicity
 _atom_site_fract_x
 _atom_site_fract_y
 _atom_site_fract_z
 _atom_site_occupancy
  Ba  Ba0  1  0.722288  0.722288  0.722288  1
  Ba  Ba1  1  0.869418  0.869418  0.869418  1
  Ba  Ba2  1  0.277712  0.277712  0.277712  1
  Ba  Ba3  1  0.130582  0.130582  0.130582  1
  Pr  Pr4  1  0.000000  0.000000  0.000000  1
  Mn  Mn5  1  0.414039  0.414039  0.414039  1
  Mn  Mn6  1  0.585961  0.585961  0.585961  1
  Mn  Mn7  1  0.500000  0.500000  0.500000  1
  O  O8  1  0.605888  0.166205  0.605888  1
  O  O9  1  0.394112  0.394112  0.833795  1
  O  O10  1  0.309676  0.773280  0.773280  1
  O  O11  1  0.773280  0.773280  0.309676  1
  O  O12  1  0.605888  0.605888  0.166205  1
  O  O13  1  0.226720  0.690324  0.226720  1
  O  O14  1  0.833795  0.394112  0.394112  1
  O  O15  1  0.773280  0.309676  0.773280  1
  O  O16  1  0.226720  0.226720  0.690324  1
  O  O17  1  0.166205  0.605888  0.605888  1
  O  O18  1  0.394112  0.833795  0.394112  1
  O  O19  1  0.690324  0.226720  0.226720  1
