# generated using pymatgen
data_H2O
_symmetry_space_group_name_H-M   'P 1'
_cell_length_a   3.96751249
_cell_length_b   8.12138675
_cell_length_c   8.32015926
_cell_angle_alpha   90.00000000
_cell_angle_beta   90.00000000
_cell_angle_gamma   90.00000000
_symmetry_Int_Tables_number   1
_chemical_formula_structural   H2O
_chemical_formula_sum   'H24 O12'
_cell_volume   268.08970352
_cell_formula_units_Z   12
loop_
 _symmetry_equiv_pos_site_id
 _symmetry_equiv_pos_as_xyz
  1  'x, y, z'
loop_
 _atom_site_type_symbol
 _atom_site_label
 _atom_site_symmetry_multiplicity
 _atom_site_fract_x
 _atom_site_fract_y
 _atom_site_fract_z
 _atom_site_occupancy
  H  H0  1  0.148286  0.076134  0.596870  1
  H  H1  1  0.513879  0.547294  0.156405  1
  H  H2  1  0.385880  0.660799  0.663087  1
  H  H3  1  0.066013  0.219514  0.477640  1
  H  H4  1  0.337609  0.224167  0.965739  1
  H  H5  1  0.772424  0.088368  0.216144  1
  H  H6  1  0.662391  0.724167  0.534261  1
  H  H7  1  0.986121  0.452706  0.656405  1
  H  H8  1  0.227576  0.588368  0.283856  1
  H  H9  1  0.614120  0.160799  0.836913  1
  H  H10  1  0.885880  0.839201  0.336913  1
  H  H11  1  0.486121  0.047294  0.343595  1
  H  H12  1  0.933987  0.719514  0.022360  1
  H  H13  1  0.648286  0.423866  0.403130  1
  H  H14  1  0.272424  0.411632  0.783856  1
  H  H15  1  0.433987  0.780486  0.977640  1
  H  H16  1  0.114120  0.339201  0.163087  1
  H  H17  1  0.727576  0.911632  0.716144  1
  H  H18  1  0.351714  0.923866  0.096870  1
  H  H19  1  0.566013  0.280486  0.522360  1
  H  H20  1  0.837609  0.275833  0.034261  1
  H  H21  1  0.013879  0.952706  0.843595  1
  H  H22  1  0.162391  0.775833  0.465739  1
  H  H23  1  0.851714  0.576134  0.903130  1
  O  O24  1  0.626019  0.997912  0.257099  1
  O  O25  1  0.126019  0.502088  0.742901  1
  O  O26  1  0.873981  0.002088  0.757099  1
  O  O27  1  0.755195  0.638113  0.995297  1
  O  O28  1  0.018231  0.239344  0.110730  1
  O  O29  1  0.744805  0.361887  0.495297  1
  O  O30  1  0.518231  0.260656  0.889270  1
  O  O31  1  0.373981  0.497912  0.242901  1
  O  O32  1  0.981769  0.739344  0.389270  1
  O  O33  1  0.244805  0.138113  0.504703  1
  O  O34  1  0.481769  0.760656  0.610730  1
  O  O35  1  0.255195  0.861887  0.004703  1
