# generated using pymatgen
data_KNd2NbO6
_symmetry_space_group_name_H-M   'P 1'
_cell_length_a   6.96699868
_cell_length_b   6.96699868
_cell_length_c   8.84191282
_cell_angle_alpha   75.58935631
_cell_angle_beta   104.41064369
_cell_angle_gamma   131.14716172
_symmetry_Int_Tables_number   1
_chemical_formula_structural   KNd2NbO6
_chemical_formula_sum   'K2 Nd4 Nb2 O12'
_cell_volume   310.87357152
_cell_formula_units_Z   2
loop_
 _symmetry_equiv_pos_site_id
 _symmetry_equiv_pos_as_xyz
  1  'x, y, z'
loop_
 _atom_site_type_symbol
 _atom_site_label
 _atom_site_symmetry_multiplicity
 _atom_site_fract_x
 _atom_site_fract_y
 _atom_site_fract_z
 _atom_site_occupancy
  K  K0  1  0.884343  0.115657  0.521256  1
  K  K1  1  0.115657  0.884343  0.478744  1
  Nd  Nd2  1  0.870695  0.129305  0.070254  1
  Nd  Nd3  1  0.411982  0.588018  0.797557  1
  Nd  Nd4  1  0.588018  0.411982  0.202443  1
  Nd  Nd5  1  0.129305  0.870695  0.929746  1
  Nb  Nb6  1  0.341151  0.658849  0.297464  1
  Nb  Nb7  1  0.658849  0.341151  0.702536  1
  O  O8  1  0.469437  0.999502  0.166782  1
  O  O9  1  0.314014  0.218610  0.708869  1
  O  O10  1  0.250604  0.250604  0.000000  1
  O  O11  1  0.685986  0.781390  0.291131  1
  O  O12  1  0.781390  0.685986  0.708869  1
  O  O13  1  0.749396  0.749396  0.000000  1
  O  O14  1  0.218610  0.314014  0.291131  1
  O  O15  1  0.530563  0.000498  0.833218  1
  O  O16  1  0.325635  0.674365  0.501147  1
  O  O17  1  0.674365  0.325635  0.498853  1
  O  O18  1  0.999502  0.469437  0.833218  1
  O  O19  1  0.000498  0.530563  0.166782  1
