# generated using pymatgen
data_NdPt
_symmetry_space_group_name_H-M   'P 1'
_cell_length_a   5.78941800
_cell_length_b   5.78941800
_cell_length_c   4.59936195
_cell_angle_alpha   90.00000000
_cell_angle_beta   90.00000000
_cell_angle_gamma   140.58042018
_symmetry_Int_Tables_number   1
_chemical_formula_structural   NdPt
_chemical_formula_sum   'Nd2 Pt2'
_cell_volume   97.88978991
_cell_formula_units_Z   2
loop_
 _symmetry_equiv_pos_site_id
 _symmetry_equiv_pos_as_xyz
  1  'x, y, z'
loop_
 _atom_site_type_symbol
 _atom_site_label
 _atom_site_symmetry_multiplicity
 _atom_site_fract_x
 _atom_site_fract_y
 _atom_site_fract_z
 _atom_site_occupancy
  Nd  Nd0  1  0.137431  0.862569  0.750000  1
  Nd  Nd1  1  0.862569  0.137431  0.250000  1
  Pt  Pt2  1  0.587433  0.412567  0.250000  1
  Pt  Pt3  1  0.412567  0.587433  0.750000  1
