# generated using pymatgen
data_K3Li3TeO6
_symmetry_space_group_name_H-M   'P 1'
_cell_length_a   6.07384112
_cell_length_b   9.83397381
_cell_length_c   11.85758473
_cell_angle_alpha   90.00000000
_cell_angle_beta   90.00000000
_cell_angle_gamma   90.00000000
_symmetry_Int_Tables_number   1
_chemical_formula_structural   K3Li3TeO6
_chemical_formula_sum   'K12 Li12 Te4 O24'
_cell_volume   708.25347071
_cell_formula_units_Z   4
loop_
 _symmetry_equiv_pos_site_id
 _symmetry_equiv_pos_as_xyz
  1  'x, y, z'
loop_
 _atom_site_type_symbol
 _atom_site_label
 _atom_site_symmetry_multiplicity
 _atom_site_fract_x
 _atom_site_fract_y
 _atom_site_fract_z
 _atom_site_occupancy
  K  K0  1  0.750000  0.707463  0.006454  1
  K  K1  1  0.750000  0.792537  0.506454  1
  K  K2  1  0.750000  0.040899  0.962176  1
  K  K3  1  0.750000  0.459101  0.462176  1
  K  K4  1  0.250000  0.871947  0.472105  1
  K  K5  1  0.250000  0.207463  0.493546  1
  K  K6  1  0.250000  0.628053  0.972105  1
  K  K7  1  0.750000  0.371947  0.027895  1
  K  K8  1  0.750000  0.128053  0.527895  1
  K  K9  1  0.250000  0.540899  0.537824  1
  K  K10  1  0.250000  0.959101  0.037824  1
  K  K11  1  0.250000  0.292537  0.993546  1
  Li  Li12  1  0.250000  0.090669  0.251123  1
  Li  Li13  1  0.506177  0.835629  0.256626  1
  Li  Li14  1  0.250000  0.409331  0.751123  1
  Li  Li15  1  0.493823  0.164371  0.743374  1
  Li  Li16  1  0.993823  0.664371  0.756626  1
  Li  Li17  1  0.506177  0.664371  0.756626  1
  Li  Li18  1  0.493823  0.335629  0.243374  1
  Li  Li19  1  0.006177  0.335629  0.243374  1
  Li  Li20  1  0.750000  0.909331  0.748877  1
  Li  Li21  1  0.993823  0.835629  0.256626  1
  Li  Li22  1  0.750000  0.590669  0.248877  1
  Li  Li23  1  0.006177  0.164371  0.743374  1
  Te  Te24  1  0.250000  0.913103  0.755610  1
  Te  Te25  1  0.750000  0.086897  0.244390  1
  Te  Te26  1  0.250000  0.586897  0.255610  1
  Te  Te27  1  0.750000  0.413103  0.744390  1
  O  O28  1  0.512028  0.161148  0.147073  1
  O  O29  1  0.987972  0.161148  0.147073  1
  O  O30  1  0.486397  0.514558  0.157893  1
  O  O31  1  0.250000  0.737918  0.676079  1
  O  O32  1  0.250000  0.090632  0.835516  1
  O  O33  1  0.250000  0.762082  0.176079  1
  O  O34  1  0.986397  0.014558  0.342107  1
  O  O35  1  0.750000  0.590632  0.664484  1
  O  O36  1  0.513603  0.485442  0.842107  1
  O  O37  1  0.986397  0.485442  0.842107  1
  O  O38  1  0.750000  0.237918  0.823921  1
  O  O39  1  0.486397  0.985442  0.657893  1
  O  O40  1  0.987972  0.338852  0.647073  1
  O  O41  1  0.513603  0.014558  0.342107  1
  O  O42  1  0.012028  0.661148  0.352927  1
  O  O43  1  0.250000  0.409368  0.335516  1
  O  O44  1  0.487972  0.661148  0.352927  1
  O  O45  1  0.750000  0.262082  0.323921  1
  O  O46  1  0.487972  0.838852  0.852927  1
  O  O47  1  0.750000  0.909368  0.164484  1
  O  O48  1  0.012028  0.838852  0.852927  1
  O  O49  1  0.013603  0.514558  0.157893  1
  O  O50  1  0.013603  0.985442  0.657893  1
  O  O51  1  0.512028  0.338852  0.647073  1
