# generated using pymatgen
data_KFeF4
_symmetry_space_group_name_H-M   'P 1'
_cell_length_a   6.50333101
_cell_length_b   6.50333101
_cell_length_c   7.75559575
_cell_angle_alpha   90.00000000
_cell_angle_beta   90.00000000
_cell_angle_gamma   144.20525266
_symmetry_Int_Tables_number   1
_chemical_formula_structural   KFeF4
_chemical_formula_sum   'K2 Fe2 F8'
_cell_volume   191.84748787
_cell_formula_units_Z   2
loop_
 _symmetry_equiv_pos_site_id
 _symmetry_equiv_pos_as_xyz
  1  'x, y, z'
loop_
 _atom_site_type_symbol
 _atom_site_label
 _atom_site_symmetry_multiplicity
 _atom_site_fract_x
 _atom_site_fract_y
 _atom_site_fract_z
 _atom_site_occupancy
  K  K0  1  0.270993  0.729007  0.750000  1
  K  K1  1  0.729007  0.270993  0.250000  1
  Fe  Fe2  1  0.000000  0.000000  0.000000  1
  Fe  Fe3  1  0.000000  0.000000  0.500000  1
  F  F4  1  0.849707  0.150293  0.552520  1
  F  F5  1  0.150293  0.849707  0.447479  1
  F  F6  1  0.150293  0.849707  0.052520  1
  F  F7  1  0.849707  0.150293  0.947480  1
  F  F8  1  0.500000  0.500000  0.000000  1
  F  F9  1  0.500000  0.500000  0.500000  1
  F  F10  1  0.040336  0.959664  0.750000  1
  F  F11  1  0.959664  0.040336  0.250000  1
