# generated using pymatgen
data_Rb7Th2(P2Se7)3
_symmetry_space_group_name_H-M   'P 1'
_cell_length_a   11.82626855
_cell_length_b   12.66202719
_cell_length_c   16.53794973
_cell_angle_alpha   86.77197763
_cell_angle_beta   75.68141275
_cell_angle_gamma   86.86471480
_symmetry_Int_Tables_number   1
_chemical_formula_structural   Rb7Th2(P2Se7)3
_chemical_formula_sum   'Rb14 Th4 P12 Se42'
_cell_volume   2393.60199645
_cell_formula_units_Z   2
loop_
 _symmetry_equiv_pos_site_id
 _symmetry_equiv_pos_as_xyz
  1  'x, y, z'
loop_
 _atom_site_type_symbol
 _atom_site_label
 _atom_site_symmetry_multiplicity
 _atom_site_fract_x
 _atom_site_fract_y
 _atom_site_fract_z
 _atom_site_occupancy
  Rb  Rb0  1  0.526349  0.996364  0.176344  1
  Rb  Rb1  1  0.411706  0.835720  0.591177  1
  Rb  Rb2  1  0.066951  0.169416  0.894580  1
  Rb  Rb3  1  0.636582  0.291440  0.989646  1
  Rb  Rb4  1  0.959459  0.984543  0.654213  1
  Rb  Rb5  1  0.273659  0.508736  0.748810  1
  Rb  Rb6  1  0.588294  0.164280  0.408823  1
  Rb  Rb7  1  0.726341  0.491264  0.251190  1
  Rb  Rb8  1  0.713401  0.306087  0.677808  1
  Rb  Rb9  1  0.363418  0.708560  0.010354  1
  Rb  Rb10  1  0.933049  0.830584  0.105420  1
  Rb  Rb11  1  0.040541  0.015457  0.345787  1
  Rb  Rb12  1  0.473651  0.003636  0.823656  1
  Rb  Rb13  1  0.286599  0.693913  0.322192  1
  Th  Th14  1  0.198838  0.362009  0.490204  1
  Th  Th15  1  0.142250  0.316455  0.149189  1
  Th  Th16  1  0.857750  0.683545  0.850811  1
  Th  Th17  1  0.801162  0.637991  0.509796  1
  P  P18  1  0.599475  0.656813  0.748466  1
  P  P19  1  0.220004  0.025123  0.085444  1
  P  P20  1  0.423048  0.220694  0.649012  1
  P  P21  1  0.918412  0.464954  0.992280  1
  P  P22  1  0.400525  0.343187  0.251534  1
  P  P23  1  0.073449  0.639210  0.593130  1
  P  P24  1  0.747282  0.847672  0.359660  1
  P  P25  1  0.926551  0.360790  0.406870  1
  P  P26  1  0.081588  0.535046  0.007720  1
  P  P27  1  0.576952  0.779306  0.350988  1
  P  P28  1  0.252718  0.152328  0.640340  1
  P  P29  1  0.779996  0.974877  0.914556  1
  Se  Se30  1  0.958618  0.500993  0.612136  1
  Se  Se31  1  0.745312  0.419388  0.462558  1
  Se  Se32  1  0.432623  0.353174  0.551951  1
  Se  Se33  1  0.268626  0.128279  0.504946  1
  Se  Se34  1  0.922098  0.285098  0.289325  1
  Se  Se35  1  0.011723  0.760768  0.508584  1
  Se  Se36  1  0.569366  0.259000  0.211920  1
  Se  Se37  1  0.599668  0.732808  0.222428  1
  Se  Se38  1  0.254688  0.580612  0.537442  1
  Se  Se39  1  0.438291  0.901843  0.387178  1
  Se  Se40  1  0.259092  0.903538  0.176918  1
  Se  Se41  1  0.406298  0.446361  0.355706  1
  Se  Se42  1  0.359726  0.431890  0.140150  1
  Se  Se43  1  0.731374  0.871721  0.495054  1
  Se  Se44  1  0.045802  0.105425  0.142473  1
  Se  Se45  1  0.430634  0.741000  0.788080  1
  Se  Se46  1  0.663641  0.834304  0.932375  1
  Se  Se47  1  0.077902  0.714902  0.710675  1
  Se  Se48  1  0.089248  0.683158  0.930615  1
  Se  Se49  1  0.121924  0.288026  0.670908  1
  Se  Se50  1  0.786591  0.047718  0.029357  1
  Se  Se51  1  0.777259  0.589408  0.027998  1
  Se  Se52  1  0.400332  0.267192  0.777572  1
  Se  Se53  1  0.954198  0.894575  0.857527  1
  Se  Se54  1  0.786044  0.987131  0.277717  1
  Se  Se55  1  0.640274  0.568110  0.859850  1
  Se  Se56  1  0.336359  0.165696  0.067625  1
  Se  Se57  1  0.222741  0.410592  0.972002  1
  Se  Se58  1  0.567377  0.646826  0.448049  1
  Se  Se59  1  0.762208  0.748687  0.692206  1
  Se  Se60  1  0.213956  0.012869  0.722283  1
  Se  Se61  1  0.041382  0.499007  0.387864  1
  Se  Se62  1  0.237792  0.251313  0.307794  1
  Se  Se63  1  0.946725  0.446896  0.856334  1
  Se  Se64  1  0.910752  0.316842  0.069385  1
  Se  Se65  1  0.561709  0.098157  0.612822  1
  Se  Se66  1  0.213409  0.952282  0.970643  1
  Se  Se67  1  0.740908  0.096462  0.823082  1
  Se  Se68  1  0.053275  0.553104  0.143666  1
  Se  Se69  1  0.593702  0.553639  0.644294  1
  Se  Se70  1  0.988277  0.239232  0.491416  1
  Se  Se71  1  0.878076  0.711974  0.329092  1
