# generated using pymatgen
data_LiMo(PO4)2
_symmetry_space_group_name_H-M   'P 1'
_cell_length_a   4.96715414
_cell_length_b   12.99557211
_cell_length_c   10.90898752
_cell_angle_alpha   90.00000000
_cell_angle_beta   107.64205242
_cell_angle_gamma   90.00000000
_symmetry_Int_Tables_number   1
_chemical_formula_structural   LiMo(PO4)2
_chemical_formula_sum   'Li4 Mo4 P8 O32'
_cell_volume   671.06721988
_cell_formula_units_Z   4
loop_
 _symmetry_equiv_pos_site_id
 _symmetry_equiv_pos_as_xyz
  1  'x, y, z'
loop_
 _atom_site_type_symbol
 _atom_site_label
 _atom_site_symmetry_multiplicity
 _atom_site_fract_x
 _atom_site_fract_y
 _atom_site_fract_z
 _atom_site_occupancy
  Li  Li0  1  0.861244  0.651602  0.030335  1
  Li  Li1  1  0.138756  0.151602  0.469665  1
  Li  Li2  1  0.138756  0.348398  0.969665  1
  Li  Li3  1  0.861244  0.848398  0.530335  1
  Mo  Mo4  1  0.901779  0.925021  0.213936  1
  Mo  Mo5  1  0.901779  0.574979  0.713936  1
  Mo  Mo6  1  0.098221  0.074979  0.786064  1
  Mo  Mo7  1  0.098221  0.425021  0.286064  1
  P  P8  1  0.418740  0.752672  0.209148  1
  P  P9  1  0.418740  0.747328  0.709148  1
  P  P10  1  0.581260  0.247328  0.790852  1
  P  P11  1  0.581260  0.252672  0.290852  1
  P  P12  1  0.304217  0.414996  0.619009  1
  P  P13  1  0.695783  0.914996  0.880991  1
  P  P14  1  0.695783  0.585004  0.380991  1
  P  P15  1  0.304217  0.085004  0.119009  1
  O  O16  1  0.133747  0.441644  0.712082  1
  O  O17  1  0.887533  0.923247  0.371175  1
  O  O18  1  0.553274  0.487120  0.636911  1
  O  O19  1  0.577339  0.799563  0.849411  1
  O  O20  1  0.887533  0.576753  0.871175  1
  O  O21  1  0.240284  0.824445  0.619538  1
  O  O22  1  0.759716  0.324445  0.880462  1
  O  O23  1  0.330425  0.209943  0.836387  1
  O  O24  1  0.446726  0.512880  0.363089  1
  O  O25  1  0.669575  0.790057  0.163613  1
  O  O26  1  0.271222  0.655450  0.750741  1
  O  O27  1  0.271222  0.844550  0.250741  1
  O  O28  1  0.112467  0.423247  0.128825  1
  O  O29  1  0.759716  0.175555  0.380462  1
  O  O30  1  0.422661  0.299563  0.650589  1
  O  O31  1  0.133747  0.058356  0.212082  1
  O  O32  1  0.422661  0.200437  0.150589  1
  O  O33  1  0.728778  0.344550  0.249259  1
  O  O34  1  0.884899  0.906827  0.019328  1
  O  O35  1  0.330425  0.290057  0.336387  1
  O  O36  1  0.240284  0.675555  0.119538  1
  O  O37  1  0.112467  0.076753  0.628825  1
  O  O38  1  0.728778  0.155450  0.749259  1
  O  O39  1  0.866253  0.941644  0.787918  1
  O  O40  1  0.884899  0.593173  0.519328  1
  O  O41  1  0.446726  0.987120  0.863089  1
  O  O42  1  0.115101  0.406827  0.480672  1
  O  O43  1  0.669575  0.709943  0.663613  1
  O  O44  1  0.553274  0.012880  0.136911  1
  O  O45  1  0.577339  0.700437  0.349411  1
  O  O46  1  0.115101  0.093173  0.980672  1
  O  O47  1  0.866253  0.558356  0.287918  1
