# generated using pymatgen
data_La2Co3
_symmetry_space_group_name_H-M   'P 1'
_cell_length_a   5.69328634
_cell_length_b   5.69328634
_cell_length_c   7.74250412
_cell_angle_alpha   90.00000000
_cell_angle_beta   90.00000000
_cell_angle_gamma   130.14857951
_symmetry_Int_Tables_number   1
_chemical_formula_structural   La2Co3
_chemical_formula_sum   'La4 Co6'
_cell_volume   191.82887001
_cell_formula_units_Z   2
loop_
 _symmetry_equiv_pos_site_id
 _symmetry_equiv_pos_as_xyz
  1  'x, y, z'
loop_
 _atom_site_type_symbol
 _atom_site_label
 _atom_site_symmetry_multiplicity
 _atom_site_fract_x
 _atom_site_fract_y
 _atom_site_fract_z
 _atom_site_occupancy
  La  La0  1  0.349549  0.650451  0.588283  1
  La  La1  1  0.650451  0.349549  0.411717  1
  La  La2  1  0.849549  0.150451  0.911717  1
  La  La3  1  0.150451  0.849549  0.088283  1
  Co  Co4  1  0.338735  0.161265  0.750000  1
  Co  Co5  1  0.661265  0.838735  0.250000  1
  Co  Co6  1  0.838735  0.661265  0.750000  1
  Co  Co7  1  0.161265  0.338735  0.250000  1
  Co  Co8  1  0.500000  0.500000  0.000000  1
  Co  Co9  1  0.000000  0.000000  0.500000  1
