# generated using pymatgen
data_KCuPSe3
_symmetry_space_group_name_H-M   'P 1'
_cell_length_a   8.86784183
_cell_length_b   10.83389445
_cell_length_c   20.22779109
_cell_angle_alpha   90.00000000
_cell_angle_beta   92.96677665
_cell_angle_gamma   90.00000000
_symmetry_Int_Tables_number   1
_chemical_formula_structural   KCuPSe3
_chemical_formula_sum   'K12 Cu12 P12 Se36'
_cell_volume   1940.74523640
_cell_formula_units_Z   12
loop_
 _symmetry_equiv_pos_site_id
 _symmetry_equiv_pos_as_xyz
  1  'x, y, z'
loop_
 _atom_site_type_symbol
 _atom_site_label
 _atom_site_symmetry_multiplicity
 _atom_site_fract_x
 _atom_site_fract_y
 _atom_site_fract_z
 _atom_site_occupancy
  K  K0  1  0.477768  0.703497  0.491673  1
  K  K1  1  0.853325  0.491506  0.102252  1
  K  K2  1  0.522232  0.203497  0.008327  1
  K  K3  1  0.146675  0.508494  0.897748  1
  K  K4  1  0.146675  0.991506  0.397748  1
  K  K5  1  0.853325  0.008494  0.602252  1
  K  K6  1  0.477768  0.796503  0.991673  1
  K  K7  1  0.194353  0.174748  0.206989  1
  K  K8  1  0.522232  0.296503  0.508327  1
  K  K9  1  0.194353  0.325252  0.706989  1
  K  K10  1  0.805647  0.674748  0.293011  1
  K  K11  1  0.805647  0.825252  0.793011  1
  Cu  Cu12  1  0.824472  0.992826  0.136661  1
  Cu  Cu13  1  0.470188  0.641947  0.725880  1
  Cu  Cu14  1  0.529812  0.358053  0.274120  1
  Cu  Cu15  1  0.135269  0.706680  0.607962  1
  Cu  Cu16  1  0.175528  0.492826  0.363339  1
  Cu  Cu17  1  0.175528  0.007174  0.863339  1
  Cu  Cu18  1  0.864731  0.293320  0.392038  1
  Cu  Cu19  1  0.864731  0.206680  0.892038  1
  Cu  Cu20  1  0.470188  0.858053  0.225880  1
  Cu  Cu21  1  0.529812  0.141947  0.774120  1
  Cu  Cu22  1  0.824472  0.507174  0.636661  1
  Cu  Cu23  1  0.135269  0.793320  0.107962  1
  P  P24  1  0.395301  0.943626  0.643480  1
  P  P25  1  0.395301  0.556374  0.143480  1
  P  P26  1  0.604699  0.056374  0.356520  1
  P  P27  1  0.732007  0.406794  0.762796  1
  P  P28  1  0.604699  0.443626  0.856520  1
  P  P29  1  0.930851  0.580723  0.478302  1
  P  P30  1  0.732007  0.093206  0.262796  1
  P  P31  1  0.267993  0.593206  0.237204  1
  P  P32  1  0.267993  0.906794  0.737204  1
  P  P33  1  0.069149  0.419277  0.521698  1
  P  P34  1  0.069149  0.080723  0.021698  1
  P  P35  1  0.930851  0.919277  0.978302  1
  Se  Se36  1  0.578664  0.802787  0.651475  1
  Se  Se37  1  0.563945  0.450675  0.678872  1
  Se  Se38  1  0.131183  0.314342  0.431228  1
  Se  Se39  1  0.471100  0.138343  0.651498  1
  Se  Se40  1  0.924829  0.535783  0.757032  1
  Se  Se41  1  0.421336  0.197213  0.348525  1
  Se  Se42  1  0.075171  0.035783  0.742968  1
  Se  Se43  1  0.228698  0.599946  0.060781  1
  Se  Se44  1  0.796043  0.292498  0.272981  1
  Se  Se45  1  0.203957  0.707502  0.727019  1
  Se  Se46  1  0.421336  0.302787  0.848525  1
  Se  Se47  1  0.771302  0.099946  0.439219  1
  Se  Se48  1  0.436055  0.950675  0.821128  1
  Se  Se49  1  0.771302  0.400054  0.939219  1
  Se  Se50  1  0.916763  0.319515  0.586554  1
  Se  Se51  1  0.924829  0.964217  0.257032  1
  Se  Se52  1  0.471100  0.361657  0.151498  1
  Se  Se53  1  0.796043  0.207502  0.772981  1
  Se  Se54  1  0.083237  0.680485  0.413446  1
  Se  Se55  1  0.075171  0.464217  0.242968  1
  Se  Se56  1  0.131183  0.185658  0.931228  1
  Se  Se57  1  0.262271  0.990890  0.076610  1
  Se  Se58  1  0.528900  0.638343  0.848502  1
  Se  Se59  1  0.916763  0.180485  0.086554  1
  Se  Se60  1  0.563945  0.049325  0.178872  1
  Se  Se61  1  0.228698  0.900054  0.560781  1
  Se  Se62  1  0.262271  0.509110  0.576610  1
  Se  Se63  1  0.083237  0.819515  0.913446  1
  Se  Se64  1  0.203957  0.792498  0.227019  1
  Se  Se65  1  0.737729  0.009110  0.923390  1
  Se  Se66  1  0.868817  0.685658  0.568772  1
  Se  Se67  1  0.528900  0.861657  0.348502  1
  Se  Se68  1  0.868817  0.814342  0.068772  1
  Se  Se69  1  0.436055  0.549325  0.321128  1
  Se  Se70  1  0.737729  0.490890  0.423390  1
  Se  Se71  1  0.578664  0.697213  0.151475  1
