# generated using pymatgen
data_Ce3SiPt5
_symmetry_space_group_name_H-M   'P 1'
_cell_length_a   8.34573829
_cell_length_b   8.34573829
_cell_length_c   8.34573829
_cell_angle_alpha   127.75090881
_cell_angle_beta   126.60583098
_cell_angle_gamma   77.96340490
_symmetry_Int_Tables_number   1
_chemical_formula_structural   Ce3SiPt5
_chemical_formula_sum   'Ce6 Si2 Pt10'
_cell_volume   357.56268679
_cell_formula_units_Z   2
loop_
 _symmetry_equiv_pos_site_id
 _symmetry_equiv_pos_as_xyz
  1  'x, y, z'
loop_
 _atom_site_type_symbol
 _atom_site_label
 _atom_site_symmetry_multiplicity
 _atom_site_fract_x
 _atom_site_fract_y
 _atom_site_fract_z
 _atom_site_occupancy
  Ce  Ce0  1  0.770053  0.048066  0.221987  1
  Ce  Ce1  1  0.383619  0.750000  0.133619  1
  Ce  Ce2  1  0.229947  0.951934  0.778013  1
  Ce  Ce3  1  0.616381  0.250000  0.866381  1
  Ce  Ce4  1  0.173921  0.451934  0.221987  1
  Ce  Ce5  1  0.826079  0.548066  0.778013  1
  Si  Si6  1  0.783913  0.750000  0.533913  1
  Si  Si7  1  0.216087  0.250000  0.466087  1
  Pt  Pt8  1  0.542428  0.401876  0.232585  1
  Pt  Pt9  1  0.457572  0.598124  0.767415  1
  Pt  Pt10  1  0.830709  0.690157  0.232585  1
  Pt  Pt11  1  0.169291  0.901876  0.359448  1
  Pt  Pt12  1  0.457572  0.190157  0.359448  1
  Pt  Pt13  1  0.830709  0.098124  0.640552  1
  Pt  Pt14  1  0.169291  0.309843  0.767415  1
  Pt  Pt15  1  0.542428  0.809843  0.640552  1
  Pt  Pt16  1  0.000000  0.500000  0.500000  1
  Pt  Pt17  1  0.000000  0.000000  0.000000  1
