# generated using pymatgen
data_Ba6Na2Cr2Ru2O17
_symmetry_space_group_name_H-M   'P 1'
_cell_length_a   5.92461678
_cell_length_b   5.92461678
_cell_length_c   30.19064554
_cell_angle_alpha   90.00000000
_cell_angle_beta   90.00000000
_cell_angle_gamma   120.00000000
_symmetry_Int_Tables_number   1
_chemical_formula_structural   Ba6Na2Cr2Ru2O17
_chemical_formula_sum   'Ba12 Na4 Cr4 Ru4 O34'
_cell_volume   917.74823726
_cell_formula_units_Z   2
loop_
 _symmetry_equiv_pos_site_id
 _symmetry_equiv_pos_as_xyz
  1  'x, y, z'
loop_
 _atom_site_type_symbol
 _atom_site_label
 _atom_site_symmetry_multiplicity
 _atom_site_fract_x
 _atom_site_fract_y
 _atom_site_fract_z
 _atom_site_occupancy
  Ba  Ba0  1  0.666667  0.333333  0.092096  1
  Ba  Ba1  1  0.333333  0.666667  0.319642  1
  Ba  Ba2  1  0.333333  0.666667  0.180358  1
  Ba  Ba3  1  0.666667  0.333333  0.680358  1
  Ba  Ba4  1  0.333333  0.666667  0.907904  1
  Ba  Ba5  1  0.666667  0.333333  0.407904  1
  Ba  Ba6  1  0.333333  0.666667  0.592096  1
  Ba  Ba7  1  0.000000  0.000000  0.250000  1
  Ba  Ba8  1  0.666667  0.333333  0.819642  1
  Ba  Ba9  1  0.000000  0.000000  0.750000  1
  Ba  Ba10  1  0.000000  0.000000  0.500000  1
  Ba  Ba11  1  0.000000  0.000000  0.000000  1
  Na  Na12  1  0.000000  0.000000  0.124066  1
  Na  Na13  1  0.000000  0.000000  0.875934  1
  Na  Na14  1  0.000000  0.000000  0.375934  1
  Na  Na15  1  0.000000  0.000000  0.624066  1
  Cr  Cr16  1  0.666667  0.333333  0.551979  1
  Cr  Cr17  1  0.333333  0.666667  0.448021  1
  Cr  Cr18  1  0.333333  0.666667  0.051979  1
  Cr  Cr19  1  0.666667  0.333333  0.948021  1
  Ru  Ru20  1  0.666667  0.333333  0.203814  1
  Ru  Ru21  1  0.333333  0.666667  0.796186  1
  Ru  Ru22  1  0.666667  0.333333  0.296186  1
  Ru  Ru23  1  0.333333  0.666667  0.703814  1
  O  O24  1  0.353418  0.176709  0.170222  1
  O  O25  1  0.486223  0.972445  0.750000  1
  O  O26  1  0.353418  0.176709  0.329778  1
  O  O27  1  0.823291  0.176709  0.329778  1
  O  O28  1  0.175388  0.350776  0.072829  1
  O  O29  1  0.646582  0.823291  0.670222  1
  O  O30  1  0.333333  0.666667  0.995372  1
  O  O31  1  0.176709  0.823291  0.670222  1
  O  O32  1  0.175388  0.824612  0.072829  1
  O  O33  1  0.176709  0.353418  0.670222  1
  O  O34  1  0.823291  0.646582  0.170222  1
  O  O35  1  0.350776  0.175388  0.572829  1
  O  O36  1  0.824612  0.649224  0.927171  1
  O  O37  1  0.513777  0.486223  0.250000  1
  O  O38  1  0.666667  0.333333  0.495372  1
  O  O39  1  0.176709  0.353418  0.829778  1
  O  O40  1  0.824612  0.649224  0.572829  1
  O  O41  1  0.513777  0.027555  0.250000  1
  O  O42  1  0.666667  0.333333  0.004628  1
  O  O43  1  0.350776  0.175388  0.927171  1
  O  O44  1  0.649224  0.824612  0.072829  1
  O  O45  1  0.333333  0.666667  0.504628  1
  O  O46  1  0.176709  0.823291  0.829778  1
  O  O47  1  0.972445  0.486223  0.250000  1
  O  O48  1  0.175388  0.350776  0.427171  1
  O  O49  1  0.646582  0.823291  0.829778  1
  O  O50  1  0.824612  0.175388  0.572829  1
  O  O51  1  0.824612  0.175388  0.927171  1
  O  O52  1  0.649224  0.824612  0.427171  1
  O  O53  1  0.175388  0.824612  0.427171  1
  O  O54  1  0.823291  0.646582  0.329778  1
  O  O55  1  0.486223  0.513777  0.750000  1
  O  O56  1  0.027555  0.513777  0.750000  1
  O  O57  1  0.823291  0.176709  0.170222  1
