# generated using pymatgen
data_Na8Nb2Cu4S21
_symmetry_space_group_name_H-M   'P 1'
_cell_length_a   6.82453982
_cell_length_b   7.86123459
_cell_length_c   30.12153459
_cell_angle_alpha   90.00000000
_cell_angle_beta   90.00000000
_cell_angle_gamma   90.00000000
_symmetry_Int_Tables_number   1
_chemical_formula_structural   Na8Nb2Cu4S21
_chemical_formula_sum   'Na16 Nb4 Cu8 S42'
_cell_volume   1615.99950153
_cell_formula_units_Z   2
loop_
 _symmetry_equiv_pos_site_id
 _symmetry_equiv_pos_as_xyz
  1  'x, y, z'
loop_
 _atom_site_type_symbol
 _atom_site_label
 _atom_site_symmetry_multiplicity
 _atom_site_fract_x
 _atom_site_fract_y
 _atom_site_fract_z
 _atom_site_occupancy
  Na  Na0  1  0.442498  0.239314  0.759064  1
  Na  Na1  1  0.857384  0.248348  0.852769  1
  Na  Na2  1  0.836506  0.235017  0.142391  1
  Na  Na3  1  0.240283  0.000000  0.500000  1
  Na  Na4  1  0.142616  0.748348  0.647231  1
  Na  Na5  1  0.163494  0.264983  0.642391  1
  Na  Na6  1  0.557502  0.260686  0.259064  1
  Na  Na7  1  0.163494  0.735017  0.357609  1
  Na  Na8  1  0.142616  0.251652  0.352769  1
  Na  Na9  1  0.759717  0.500000  0.000000  1
  Na  Na10  1  0.540027  0.500000  0.500000  1
  Na  Na11  1  0.836506  0.764983  0.857609  1
  Na  Na12  1  0.557502  0.739314  0.740936  1
  Na  Na13  1  0.459973  0.000000  0.000000  1
  Na  Na14  1  0.442498  0.760686  0.240936  1
  Na  Na15  1  0.857384  0.751652  0.147231  1
  Nb  Nb16  1  0.460011  0.500574  0.107261  1
  Nb  Nb17  1  0.460011  0.499426  0.892739  1
  Nb  Nb18  1  0.539989  0.999426  0.607261  1
  Nb  Nb19  1  0.539989  0.000574  0.392739  1
  Cu  Cu20  1  0.225678  0.751342  0.068937  1
  Cu  Cu21  1  0.223761  0.251745  0.067311  1
  Cu  Cu22  1  0.774322  0.748658  0.568937  1
  Cu  Cu23  1  0.225678  0.248658  0.931063  1
  Cu  Cu24  1  0.774322  0.251342  0.431063  1
  Cu  Cu25  1  0.223761  0.748255  0.932689  1
  Cu  Cu26  1  0.776239  0.751745  0.432689  1
  Cu  Cu27  1  0.776239  0.248255  0.567311  1
  S  S28  1  0.413943  0.996220  0.321792  1
  S  S29  1  0.195698  0.848549  0.791571  1
  S  S30  1  0.004730  0.012298  0.247611  1
  S  S31  1  0.078560  0.219120  0.999250  1
  S  S32  1  0.686349  0.491522  0.339175  1
  S  S33  1  0.881417  0.999802  0.395954  1
  S  S34  1  0.921440  0.280880  0.499250  1
  S  S35  1  0.437708  0.233741  0.567381  1
  S  S36  1  0.876179  0.499452  0.606208  1
  S  S37  1  0.195698  0.151451  0.208429  1
  S  S38  1  0.565427  0.259857  0.929874  1
  S  S39  1  0.253928  0.499580  0.710935  1
  S  S40  1  0.921440  0.719120  0.500750  1
  S  S41  1  0.434573  0.759857  0.570126  1
  S  S42  1  0.586057  0.496220  0.178208  1
  S  S43  1  0.094026  0.500000  0.500000  1
  S  S44  1  0.313651  0.008478  0.839175  1
  S  S45  1  0.413943  0.003780  0.678208  1
  S  S46  1  0.905974  0.000000  0.000000  1
  S  S47  1  0.078560  0.780880  0.000750  1
  S  S48  1  0.118583  0.499802  0.104046  1
  S  S49  1  0.434573  0.240143  0.429874  1
  S  S50  1  0.746072  0.999580  0.789065  1
  S  S51  1  0.123821  0.000548  0.106208  1
  S  S52  1  0.118583  0.500198  0.895954  1
  S  S53  1  0.995270  0.487702  0.747611  1
  S  S54  1  0.876179  0.500548  0.393792  1
  S  S55  1  0.804302  0.348549  0.708429  1
  S  S56  1  0.995270  0.512298  0.252389  1
  S  S57  1  0.565427  0.740143  0.070126  1
  S  S58  1  0.804302  0.651451  0.291571  1
  S  S59  1  0.686349  0.508478  0.660825  1
  S  S60  1  0.437708  0.766259  0.432619  1
  S  S61  1  0.253928  0.500420  0.289065  1
  S  S62  1  0.004730  0.987702  0.752389  1
  S  S63  1  0.881417  0.000198  0.604046  1
  S  S64  1  0.562292  0.266259  0.067381  1
  S  S65  1  0.123821  0.999452  0.893792  1
  S  S66  1  0.586057  0.503780  0.821792  1
  S  S67  1  0.562292  0.733741  0.932619  1
  S  S68  1  0.313651  0.991522  0.160825  1
  S  S69  1  0.746072  0.000420  0.210935  1
