# generated using pymatgen
data_PdSeO3
_symmetry_space_group_name_H-M   'P 1'
_cell_length_a   4.03054123
_cell_length_b   6.56547609
_cell_length_c   6.26215957
_cell_angle_alpha   90.00000000
_cell_angle_beta   95.91008798
_cell_angle_gamma   90.00000000
_symmetry_Int_Tables_number   1
_chemical_formula_structural   PdSeO3
_chemical_formula_sum   'Pd2 Se2 O6'
_cell_volume   164.83110172
_cell_formula_units_Z   2
loop_
 _symmetry_equiv_pos_site_id
 _symmetry_equiv_pos_as_xyz
  1  'x, y, z'
loop_
 _atom_site_type_symbol
 _atom_site_label
 _atom_site_symmetry_multiplicity
 _atom_site_fract_x
 _atom_site_fract_y
 _atom_site_fract_z
 _atom_site_occupancy
  Pd  Pd0  1  0.500000  0.000000  0.500000  1
  Pd  Pd1  1  0.500000  0.500000  0.500000  1
  Se  Se2  1  0.053974  0.750000  0.822016  1
  Se  Se3  1  0.946026  0.250000  0.177984  1
  O  O4  1  0.200955  0.040954  0.218415  1
  O  O5  1  0.219813  0.750000  0.557380  1
  O  O6  1  0.799045  0.959046  0.781585  1
  O  O7  1  0.799045  0.540954  0.781585  1
  O  O8  1  0.780187  0.250000  0.442620  1
  O  O9  1  0.200955  0.459046  0.218415  1
