# generated using pymatgen
data_Ca2Bi
_symmetry_space_group_name_H-M   'P 1'
_cell_length_a   9.16114244
_cell_length_b   9.16114244
_cell_length_c   9.16114244
_cell_angle_alpha   149.07956267
_cell_angle_beta   149.07956267
_cell_angle_gamma   44.29420711
_symmetry_Int_Tables_number   1
_chemical_formula_structural   Ca2Bi
_chemical_formula_sum   'Ca4 Bi2'
_cell_volume   202.41499757
_cell_formula_units_Z   2
loop_
 _symmetry_equiv_pos_site_id
 _symmetry_equiv_pos_as_xyz
  1  'x, y, z'
loop_
 _atom_site_type_symbol
 _atom_site_label
 _atom_site_symmetry_multiplicity
 _atom_site_fract_x
 _atom_site_fract_y
 _atom_site_fract_z
 _atom_site_occupancy
  Ca  Ca0  1  0.673315  0.673315  0.000000  1
  Ca  Ca1  1  0.000000  0.500000  0.500000  1
  Ca  Ca2  1  0.326685  0.326685  0.000000  1
  Ca  Ca3  1  0.500000  1.000000  0.500000  1
  Bi  Bi4  1  0.136719  0.136719  0.000000  1
  Bi  Bi5  1  0.863281  0.863281  0.000000  1
