# generated using pymatgen
data_Cs2K4Fe2O5
_symmetry_space_group_name_H-M   'P 1'
_cell_length_a   6.80353373
_cell_length_b   6.80353373
_cell_length_c   7.05681124
_cell_angle_alpha   89.96140809
_cell_angle_beta   90.03859191
_cell_angle_gamma   63.05803505
_symmetry_Int_Tables_number   1
_chemical_formula_structural   Cs2K4Fe2O5
_chemical_formula_sum   'Cs2 K4 Fe2 O5'
_cell_volume   291.19369512
_cell_formula_units_Z   1
loop_
 _symmetry_equiv_pos_site_id
 _symmetry_equiv_pos_as_xyz
  1  'x, y, z'
loop_
 _atom_site_type_symbol
 _atom_site_label
 _atom_site_symmetry_multiplicity
 _atom_site_fract_x
 _atom_site_fract_y
 _atom_site_fract_z
 _atom_site_occupancy
  Cs  Cs0  1  0.329579  0.670421  0.698857  1
  Cs  Cs1  1  0.670421  0.329579  0.301143  1
  K  K2  1  0.761416  0.761416  0.000000  1
  K  K3  1  0.238584  0.238584  0.000000  1
  K  K4  1  0.222467  0.222467  0.500000  1
  K  K5  1  0.777533  0.777533  0.500000  1
  Fe  Fe6  1  0.198010  0.801990  0.191322  1
  Fe  Fe7  1  0.801990  0.198010  0.808678  1
  O  O8  1  0.853772  0.436725  0.728077  1
  O  O9  1  0.436725  0.853772  0.271923  1
  O  O10  1  0.146228  0.563275  0.271923  1
  O  O11  1  0.563275  0.146228  0.728077  1
  O  O12  1  0.000000  0.000000  0.000000  1
