# generated using pymatgen
data_K2PbO2
_symmetry_space_group_name_H-M   'P 1'
_cell_length_a   7.45422641
_cell_length_b   7.65825455
_cell_length_c   10.16413057
_cell_angle_alpha   85.13777634
_cell_angle_beta   110.07669628
_cell_angle_gamma   118.73063482
_symmetry_Int_Tables_number   1
_chemical_formula_structural   K2PbO2
_chemical_formula_sum   'K8 Pb4 O8'
_cell_volume   475.60853297
_cell_formula_units_Z   4
loop_
 _symmetry_equiv_pos_site_id
 _symmetry_equiv_pos_as_xyz
  1  'x, y, z'
loop_
 _atom_site_type_symbol
 _atom_site_label
 _atom_site_symmetry_multiplicity
 _atom_site_fract_x
 _atom_site_fract_y
 _atom_site_fract_z
 _atom_site_occupancy
  K  K0  1  0.233598  0.722367  0.505273  1
  K  K1  1  0.080324  0.072730  0.828712  1
  K  K2  1  0.934575  0.452804  0.166085  1
  K  K3  1  0.919676  0.927270  0.171288  1
  K  K4  1  0.601572  0.566175  0.859642  1
  K  K5  1  0.065425  0.547196  0.833915  1
  K  K6  1  0.398428  0.433825  0.140358  1
  K  K7  1  0.766402  0.277633  0.494727  1
  Pb  Pb8  1  0.598635  0.058642  0.867994  1
  Pb  Pb9  1  0.298542  0.285393  0.525069  1
  Pb  Pb10  1  0.701458  0.714607  0.474931  1
  Pb  Pb11  1  0.401365  0.941358  0.132006  1
  O  O12  1  0.498541  0.202261  0.993735  1
  O  O13  1  0.812553  0.600882  0.350594  1
  O  O14  1  0.941741  0.217139  0.982503  1
  O  O15  1  0.501459  0.797739  0.006265  1
  O  O16  1  0.058259  0.782861  0.017497  1
  O  O17  1  0.187447  0.399118  0.649406  1
  O  O18  1  0.664255  0.482320  0.631384  1
  O  O19  1  0.335745  0.517680  0.368616  1
