# generated using pymatgen
data_Na3Zn(BO2)5
_symmetry_space_group_name_H-M   'P 1'
_cell_length_a   6.75610947
_cell_length_b   18.36470964
_cell_length_c   8.03088170
_cell_angle_alpha   90.00000000
_cell_angle_beta   115.54044853
_cell_angle_gamma   90.00000000
_symmetry_Int_Tables_number   1
_chemical_formula_structural   Na3Zn(BO2)5
_chemical_formula_sum   'Na12 Zn4 B20 O40'
_cell_volume   899.05415005
_cell_formula_units_Z   4
loop_
 _symmetry_equiv_pos_site_id
 _symmetry_equiv_pos_as_xyz
  1  'x, y, z'
loop_
 _atom_site_type_symbol
 _atom_site_label
 _atom_site_symmetry_multiplicity
 _atom_site_fract_x
 _atom_site_fract_y
 _atom_site_fract_z
 _atom_site_occupancy
  Na  Na0  1  0.670822  0.420081  0.886108  1
  Na  Na1  1  0.638441  0.429533  0.339297  1
  Na  Na2  1  0.361559  0.570467  0.660703  1
  Na  Na3  1  0.205532  0.257142  0.080590  1
  Na  Na4  1  0.638441  0.070467  0.839297  1
  Na  Na5  1  0.361559  0.929533  0.160703  1
  Na  Na6  1  0.794468  0.757142  0.419410  1
  Na  Na7  1  0.329178  0.579919  0.113892  1
  Na  Na8  1  0.794468  0.742858  0.919410  1
  Na  Na9  1  0.205532  0.242858  0.580590  1
  Na  Na10  1  0.329178  0.920081  0.613892  1
  Na  Na11  1  0.670822  0.079919  0.386108  1
  Zn  Zn12  1  0.151541  0.403728  0.306472  1
  Zn  Zn13  1  0.848459  0.903728  0.193528  1
  Zn  Zn14  1  0.151541  0.096272  0.806472  1
  Zn  Zn15  1  0.848459  0.596272  0.693528  1
  B  B16  1  0.818986  0.922726  0.837575  1
  B  B17  1  0.181014  0.077274  0.162425  1
  B  B18  1  0.196262  0.703244  0.831452  1
  B  B19  1  0.938258  0.165601  0.227486  1
  B  B20  1  0.446007  0.803473  0.997336  1
  B  B21  1  0.803738  0.296756  0.168548  1
  B  B22  1  0.827667  0.572192  0.034574  1
  B  B23  1  0.446007  0.696527  0.497336  1
  B  B24  1  0.061742  0.834399  0.772514  1
  B  B25  1  0.553993  0.196527  0.002664  1
  B  B26  1  0.827667  0.927808  0.534574  1
  B  B27  1  0.172333  0.072192  0.465426  1
  B  B28  1  0.803738  0.203244  0.668548  1
  B  B29  1  0.181014  0.422726  0.662425  1
  B  B30  1  0.553993  0.303473  0.502664  1
  B  B31  1  0.818986  0.577274  0.337575  1
  B  B32  1  0.172333  0.427808  0.965426  1
  B  B33  1  0.061742  0.665601  0.272514  1
  B  B34  1  0.938258  0.334399  0.727486  1
  B  B35  1  0.196262  0.796756  0.331452  1
  O  O36  1  0.062677  0.358394  0.624326  1
  O  O37  1  0.023837  0.129820  0.410560  1
  O  O38  1  0.757147  0.541619  0.865813  1
  O  O39  1  0.937323  0.641606  0.375674  1
  O  O40  1  0.160096  0.630775  0.806157  1
  O  O41  1  0.594849  0.271937  0.041014  1
  O  O42  1  0.372277  0.323535  0.355522  1
  O  O43  1  0.242853  0.458381  0.134187  1
  O  O44  1  0.755930  0.955034  0.957078  1
  O  O45  1  0.244070  0.044966  0.042922  1
  O  O46  1  0.296070  0.646033  0.379919  1
  O  O47  1  0.703930  0.146033  0.120081  1
  O  O48  1  0.976163  0.629820  0.089440  1
  O  O49  1  0.594849  0.228063  0.541014  1
  O  O50  1  0.976163  0.870180  0.589440  1
  O  O51  1  0.252195  0.454166  0.840535  1
  O  O52  1  0.405151  0.728063  0.958986  1
  O  O53  1  0.627723  0.823535  0.144478  1
  O  O54  1  0.242853  0.041619  0.634187  1
  O  O55  1  0.023837  0.370180  0.910560  1
  O  O56  1  0.296070  0.853967  0.879919  1
  O  O57  1  0.062677  0.141606  0.124326  1
  O  O58  1  0.627723  0.676465  0.644478  1
  O  O59  1  0.244070  0.455034  0.542922  1
  O  O60  1  0.755930  0.544966  0.457078  1
  O  O61  1  0.405151  0.771937  0.458986  1
  O  O62  1  0.747805  0.954166  0.659465  1
  O  O63  1  0.937323  0.858394  0.875674  1
  O  O64  1  0.252195  0.045834  0.340535  1
  O  O65  1  0.747805  0.545834  0.159465  1
  O  O66  1  0.035417  0.744997  0.243221  1
  O  O67  1  0.160096  0.869225  0.306157  1
  O  O68  1  0.372277  0.176465  0.855522  1
  O  O69  1  0.839904  0.130775  0.693843  1
  O  O70  1  0.035417  0.755003  0.743221  1
  O  O71  1  0.839904  0.369225  0.193843  1
  O  O72  1  0.703930  0.353967  0.620081  1
  O  O73  1  0.964583  0.255003  0.756779  1
  O  O74  1  0.964583  0.244997  0.256779  1
  O  O75  1  0.757147  0.958381  0.365813  1
