# generated using pymatgen
data_Ta3P
_symmetry_space_group_name_H-M   'P 1'
_cell_length_a   10.22605073
_cell_length_b   10.22605073
_cell_length_c   5.04418067
_cell_angle_alpha   90.00000000
_cell_angle_beta   90.00000000
_cell_angle_gamma   90.00000000
_symmetry_Int_Tables_number   1
_chemical_formula_structural   Ta3P
_chemical_formula_sum   'Ta24 P8'
_cell_volume   527.48063370
_cell_formula_units_Z   8
loop_
 _symmetry_equiv_pos_site_id
 _symmetry_equiv_pos_as_xyz
  1  'x, y, z'
loop_
 _atom_site_type_symbol
 _atom_site_label
 _atom_site_symmetry_multiplicity
 _atom_site_fract_x
 _atom_site_fract_y
 _atom_site_fract_z
 _atom_site_occupancy
  Ta  Ta0  1  0.405621  0.909002  0.493281  1
  Ta  Ta1  1  0.409002  0.094379  0.993281  1
  Ta  Ta2  1  0.590998  0.905621  0.993281  1
  Ta  Ta3  1  0.594379  0.090998  0.493281  1
  Ta  Ta4  1  0.094379  0.590998  0.006719  1
  Ta  Ta5  1  0.090998  0.405621  0.506719  1
  Ta  Ta6  1  0.909002  0.594379  0.506719  1
  Ta  Ta7  1  0.905621  0.409002  0.006719  1
  Ta  Ta8  1  0.003686  0.854390  0.254873  1
  Ta  Ta9  1  0.354390  0.496314  0.754873  1
  Ta  Ta10  1  0.645610  0.503686  0.754873  1
  Ta  Ta11  1  0.996314  0.145610  0.254873  1
  Ta  Ta12  1  0.496314  0.645610  0.245127  1
  Ta  Ta13  1  0.145610  0.003686  0.745127  1
  Ta  Ta14  1  0.854390  0.996314  0.745127  1
  Ta  Ta15  1  0.503686  0.354390  0.245127  1
  Ta  Ta16  1  0.295688  0.802753  0.997419  1
  Ta  Ta17  1  0.302753  0.204312  0.497419  1
  Ta  Ta18  1  0.697247  0.795688  0.497419  1
  Ta  Ta19  1  0.704312  0.197247  0.997419  1
  Ta  Ta20  1  0.204312  0.697247  0.502581  1
  Ta  Ta21  1  0.197247  0.295688  0.002581  1
  Ta  Ta22  1  0.802753  0.704312  0.002581  1
  Ta  Ta23  1  0.795688  0.302753  0.502581  1
  P  P24  1  0.007944  0.792454  0.756253  1
  P  P25  1  0.292454  0.492056  0.256253  1
  P  P26  1  0.707546  0.507944  0.256253  1
  P  P27  1  0.992056  0.207546  0.756253  1
  P  P28  1  0.492056  0.707546  0.743747  1
  P  P29  1  0.207546  0.007944  0.243747  1
  P  P30  1  0.792454  0.992056  0.243747  1
  P  P31  1  0.507944  0.292454  0.743747  1
