# generated using pymatgen
data_K2CuCl3
_symmetry_space_group_name_H-M   'P 1'
_cell_length_a   4.16776541
_cell_length_b   12.23904441
_cell_length_c   12.69238260
_cell_angle_alpha   90.00000000
_cell_angle_beta   90.00000000
_cell_angle_gamma   90.00000000
_symmetry_Int_Tables_number   1
_chemical_formula_structural   K2CuCl3
_chemical_formula_sum   'K8 Cu4 Cl12'
_cell_volume   647.43165798
_cell_formula_units_Z   4
loop_
 _symmetry_equiv_pos_site_id
 _symmetry_equiv_pos_as_xyz
  1  'x, y, z'
loop_
 _atom_site_type_symbol
 _atom_site_label
 _atom_site_symmetry_multiplicity
 _atom_site_fract_x
 _atom_site_fract_y
 _atom_site_fract_z
 _atom_site_occupancy
  K  K0  1  0.750000  0.673952  0.018818  1
  K  K1  1  0.250000  0.487370  0.324199  1
  K  K2  1  0.750000  0.173952  0.481182  1
  K  K3  1  0.750000  0.512630  0.675801  1
  K  K4  1  0.250000  0.826048  0.518818  1
  K  K5  1  0.250000  0.987370  0.175801  1
  K  K6  1  0.250000  0.326048  0.981182  1
  K  K7  1  0.750000  0.012630  0.824199  1
  Cu  Cu8  1  0.750000  0.752482  0.302489  1
  Cu  Cu9  1  0.250000  0.747518  0.802489  1
  Cu  Cu10  1  0.250000  0.247518  0.697511  1
  Cu  Cu11  1  0.750000  0.252482  0.197511  1
  Cl  Cl12  1  0.250000  0.224551  0.287734  1
  Cl  Cl13  1  0.250000  0.724551  0.212266  1
  Cl  Cl14  1  0.750000  0.275449  0.787734  1
  Cl  Cl15  1  0.750000  0.775449  0.712266  1
  Cl  Cl16  1  0.250000  0.564333  0.858907  1
  Cl  Cl17  1  0.750000  0.435667  0.141093  1
  Cl  Cl18  1  0.250000  0.865621  0.946348  1
  Cl  Cl19  1  0.750000  0.634379  0.446348  1
  Cl  Cl20  1  0.750000  0.134379  0.053652  1
  Cl  Cl21  1  0.250000  0.064333  0.641093  1
  Cl  Cl22  1  0.250000  0.365621  0.553652  1
  Cl  Cl23  1  0.750000  0.935667  0.358907  1
