# generated using pymatgen
data_Nb2Se17Cl12
_symmetry_space_group_name_H-M   'P 1'
_cell_length_a   11.98650546
_cell_length_b   13.79868074
_cell_length_c   13.88599707
_cell_angle_alpha   111.19191415
_cell_angle_beta   99.42492938
_cell_angle_gamma   99.59816305
_symmetry_Int_Tables_number   1
_chemical_formula_structural   Nb2Se17Cl12
_chemical_formula_sum   'Nb4 Se34 Cl24'
_cell_volume   2047.77064738
_cell_formula_units_Z   2
loop_
 _symmetry_equiv_pos_site_id
 _symmetry_equiv_pos_as_xyz
  1  'x, y, z'
loop_
 _atom_site_type_symbol
 _atom_site_label
 _atom_site_symmetry_multiplicity
 _atom_site_fract_x
 _atom_site_fract_y
 _atom_site_fract_z
 _atom_site_occupancy
  Nb  Nb0  1  0.313407  0.729250  0.521859  1
  Nb  Nb1  1  0.686593  0.270750  0.478141  1
  Nb  Nb2  1  0.834974  0.717155  0.997204  1
  Nb  Nb3  1  0.165026  0.282845  0.002796  1
  Se  Se4  1  0.478517  0.832469  0.984104  1
  Se  Se5  1  0.119677  0.398202  0.661756  1
  Se  Se6  1  0.734814  0.101834  0.780735  1
  Se  Se7  1  0.689998  0.624762  0.350758  1
  Se  Se8  1  0.320651  0.906378  0.966141  1
  Se  Se9  1  0.122042  0.306442  0.378193  1
  Se  Se10  1  0.187568  0.627628  0.922442  1
  Se  Se11  1  0.812432  0.372372  0.077558  1
  Se  Se12  1  0.392999  0.648955  0.964341  1
  Se  Se13  1  0.040367  0.042706  0.399737  1
  Se  Se14  1  0.152184  0.585899  0.738009  1
  Se  Se15  1  0.444143  0.843806  0.251366  1
  Se  Se16  1  0.555857  0.156194  0.748634  1
  Se  Se17  1  0.679349  0.093622  0.033859  1
  Se  Se18  1  0.959633  0.957294  0.600263  1
  Se  Se19  1  0.673488  0.981206  0.854526  1
  Se  Se20  1  0.746921  0.807872  0.341666  1
  Se  Se21  1  0.238854  0.070823  0.490480  1
  Se  Se22  1  0.070629  0.117878  0.276828  1
  Se  Se23  1  0.612860  0.336052  0.846812  1
  Se  Se24  1  0.761146  0.929177  0.509520  1
  Se  Se25  1  0.847816  0.414101  0.261991  1
  Se  Se26  1  0.521483  0.167531  0.015896  1
  Se  Se27  1  0.315837  0.339931  0.463859  1
  Se  Se28  1  0.310002  0.375238  0.649242  1
  Se  Se29  1  0.880323  0.601798  0.338244  1
  Se  Se30  1  0.253079  0.192128  0.658334  1
  Se  Se31  1  0.877958  0.693558  0.621807  1
  Se  Se32  1  0.929371  0.882122  0.723172  1
  Se  Se33  1  0.387140  0.663948  0.153188  1
  Se  Se34  1  0.607001  0.351045  0.035659  1
  Se  Se35  1  0.684163  0.660069  0.536141  1
  Se  Se36  1  0.265186  0.898166  0.219265  1
  Se  Se37  1  0.326512  0.018794  0.145474  1
  Cl  Cl38  1  0.030751  0.277295  0.854960  1
  Cl  Cl39  1  0.319524  0.388512  0.959328  1
  Cl  Cl40  1  0.309777  0.295655  0.149379  1
  Cl  Cl41  1  0.760255  0.157432  0.342984  1
  Cl  Cl42  1  0.021722  0.174837  0.044185  1
  Cl  Cl43  1  0.239745  0.842568  0.657016  1
  Cl  Cl44  1  0.978278  0.825163  0.955815  1
  Cl  Cl45  1  0.690223  0.704345  0.850621  1
  Cl  Cl46  1  0.392912  0.614397  0.388142  1
  Cl  Cl47  1  0.607088  0.385603  0.611858  1
  Cl  Cl48  1  0.156634  0.579902  0.493623  1
  Cl  Cl49  1  0.788923  0.875618  0.110422  1
  Cl  Cl50  1  0.211077  0.124382  0.889578  1
  Cl  Cl51  1  0.879545  0.558480  0.888009  1
  Cl  Cl52  1  0.969249  0.722705  0.145040  1
  Cl  Cl53  1  0.120455  0.441520  0.111991  1
  Cl  Cl54  1  0.570284  0.312882  0.350448  1
  Cl  Cl55  1  0.462756  0.879019  0.547142  1
  Cl  Cl56  1  0.680476  0.611488  0.040672  1
  Cl  Cl57  1  0.191790  0.759189  0.386727  1
  Cl  Cl58  1  0.808210  0.240811  0.613273  1
  Cl  Cl59  1  0.843366  0.420098  0.506377  1
  Cl  Cl60  1  0.537244  0.120981  0.452858  1
  Cl  Cl61  1  0.429716  0.687118  0.649552  1
