# generated using pymatgen
data_CsCeCuS3
_symmetry_space_group_name_H-M   'P 1'
_cell_length_a   7.91629626
_cell_length_b   7.91629626
_cell_length_c   10.47196621
_cell_angle_alpha   90.00000000
_cell_angle_beta   90.00000000
_cell_angle_gamma   150.21041232
_symmetry_Int_Tables_number   1
_chemical_formula_structural   CsCeCuS3
_chemical_formula_sum   'Cs2 Ce2 Cu2 S6'
_cell_volume   326.03791436
_cell_formula_units_Z   2
loop_
 _symmetry_equiv_pos_site_id
 _symmetry_equiv_pos_as_xyz
  1  'x, y, z'
loop_
 _atom_site_type_symbol
 _atom_site_label
 _atom_site_symmetry_multiplicity
 _atom_site_fract_x
 _atom_site_fract_y
 _atom_site_fract_z
 _atom_site_occupancy
  Cs  Cs0  1  0.740243  0.259757  0.750000  1
  Cs  Cs1  1  0.259757  0.740243  0.250000  1
  Ce  Ce2  1  0.000000  0.000000  0.500000  1
  Ce  Ce3  1  0.000000  0.000000  0.000000  1
  Cu  Cu4  1  0.534491  0.465509  0.250000  1
  Cu  Cu5  1  0.465509  0.534491  0.750000  1
  S  S6  1  0.051331  0.948669  0.750000  1
  S  S7  1  0.612891  0.387109  0.061907  1
  S  S8  1  0.948669  0.051331  0.250000  1
  S  S9  1  0.387109  0.612891  0.938093  1
  S  S10  1  0.612891  0.387109  0.438093  1
  S  S11  1  0.387109  0.612891  0.561907  1
