# generated using pymatgen
data_K8UCr4(NO12)2
_symmetry_space_group_name_H-M   'P 1'
_cell_length_a   7.23612122
_cell_length_b   9.85146390
_cell_length_c   9.88198089
_cell_angle_alpha   105.65623912
_cell_angle_beta   97.42188696
_cell_angle_gamma   93.23657474
_symmetry_Int_Tables_number   1
_chemical_formula_structural   K8UCr4(NO12)2
_chemical_formula_sum   'K8 U1 Cr4 N2 O24'
_cell_volume   669.54804545
_cell_formula_units_Z   1
loop_
 _symmetry_equiv_pos_site_id
 _symmetry_equiv_pos_as_xyz
  1  'x, y, z'
loop_
 _atom_site_type_symbol
 _atom_site_label
 _atom_site_symmetry_multiplicity
 _atom_site_fract_x
 _atom_site_fract_y
 _atom_site_fract_z
 _atom_site_occupancy
  K  K0  1  0.994261  0.737392  0.245172  1
  K  K1  1  0.748078  0.490648  0.459015  1
  K  K2  1  0.251922  0.509352  0.540985  1
  K  K3  1  0.607860  0.304129  0.050405  1
  K  K4  1  0.378759  0.090942  0.348092  1
  K  K5  1  0.005739  0.262608  0.754828  1
  K  K6  1  0.621241  0.909058  0.651908  1
  K  K7  1  0.392140  0.695871  0.949595  1
  U  U8  1  0.000000  0.000000  0.000000  1
  Cr  Cr9  1  0.129490  0.875302  0.638837  1
  Cr  Cr10  1  0.854432  0.613098  0.841415  1
  Cr  Cr11  1  0.870510  0.124698  0.361163  1
  Cr  Cr12  1  0.145568  0.386902  0.158585  1
  N  N13  1  0.495115  0.702449  0.295693  1
  N  N14  1  0.504885  0.297551  0.704307  1
  O  O15  1  0.781502  0.511040  0.933760  1
  O  O16  1  0.327616  0.341803  0.249689  1
  O  O17  1  0.711179  0.204804  0.285133  1
  O  O18  1  0.983104  0.762406  0.959664  1
  O  O19  1  0.528941  0.319900  0.586645  1
  O  O20  1  0.016896  0.237594  0.040336  1
  O  O21  1  0.974787  0.754318  0.525922  1
  O  O22  1  0.218498  0.488960  0.066240  1
  O  O23  1  0.471059  0.680100  0.413355  1
  O  O24  1  0.601710  0.212569  0.752002  1
  O  O25  1  0.672384  0.658197  0.750311  1
  O  O26  1  0.384515  0.360692  0.774016  1
  O  O27  1  0.743896  0.994121  0.955506  1
  O  O28  1  0.233522  0.973771  0.555518  1
  O  O29  1  0.398290  0.787431  0.247998  1
  O  O30  1  0.615485  0.639308  0.225984  1
  O  O31  1  0.015773  0.981628  0.767655  1
  O  O32  1  0.025213  0.245682  0.474078  1
  O  O33  1  0.256104  0.005879  0.044494  1
  O  O34  1  0.766478  0.026229  0.444482  1
  O  O35  1  0.011359  0.472006  0.270585  1
  O  O36  1  0.288821  0.795196  0.714867  1
  O  O37  1  0.988641  0.527994  0.729415  1
  O  O38  1  0.984227  0.018372  0.232345  1
