# generated using pymatgen
data_Na2YbC2O6F
_symmetry_space_group_name_H-M   'P 1'
_cell_length_a   9.33085469
_cell_length_b   9.33085469
_cell_length_c   11.50340470
_cell_angle_alpha   85.67852148
_cell_angle_beta   94.32147852
_cell_angle_gamma   141.39160754
_symmetry_Int_Tables_number   1
_chemical_formula_structural   Na2YbC2O6F
_chemical_formula_sum   'Na8 Yb4 C8 O24 F4'
_cell_volume   622.96125708
_cell_formula_units_Z   4
loop_
 _symmetry_equiv_pos_site_id
 _symmetry_equiv_pos_as_xyz
  1  'x, y, z'
loop_
 _atom_site_type_symbol
 _atom_site_label
 _atom_site_symmetry_multiplicity
 _atom_site_fract_x
 _atom_site_fract_y
 _atom_site_fract_z
 _atom_site_occupancy
  Na  Na0  1  0.833914  0.351979  0.140678  1
  Na  Na1  1  0.351979  0.833914  0.359322  1
  Na  Na2  1  0.166086  0.648021  0.859322  1
  Na  Na3  1  0.478206  0.695056  0.117538  1
  Na  Na4  1  0.521794  0.304944  0.882462  1
  Na  Na5  1  0.695056  0.478206  0.382462  1
  Na  Na6  1  0.648021  0.166086  0.640678  1
  Na  Na7  1  0.304944  0.521794  0.617538  1
  Yb  Yb8  1  0.783076  0.889084  0.867663  1
  Yb  Yb9  1  0.216924  0.110916  0.132337  1
  Yb  Yb10  1  0.110916  0.216924  0.367663  1
  Yb  Yb11  1  0.889084  0.783076  0.632337  1
  C  C12  1  0.877919  0.296652  0.418062  1
  C  C13  1  0.363548  0.229682  0.616063  1
  C  C14  1  0.770318  0.636452  0.116063  1
  C  C15  1  0.636452  0.770318  0.383937  1
  C  C16  1  0.703348  0.122081  0.918062  1
  C  C17  1  0.122081  0.703348  0.581938  1
  C  C18  1  0.296652  0.877919  0.081938  1
  C  C19  1  0.229682  0.363548  0.883937  1
  O  O20  1  0.220941  0.690006  0.075787  1
  O  O21  1  0.746703  0.058723  0.001108  1
  O  O22  1  0.253297  0.941277  0.998892  1
  O  O23  1  0.415205  0.004452  0.172427  1
  O  O24  1  0.058723  0.746703  0.498892  1
  O  O25  1  0.995548  0.584795  0.672427  1
  O  O26  1  0.602944  0.426313  0.083478  1
  O  O27  1  0.941277  0.253297  0.501108  1
  O  O28  1  0.584795  0.995548  0.827573  1
  O  O29  1  0.426313  0.602944  0.416522  1
  O  O30  1  0.309994  0.779059  0.575787  1
  O  O31  1  0.004452  0.415205  0.327573  1
  O  O32  1  0.697489  0.909307  0.300627  1
  O  O33  1  0.779059  0.309994  0.924213  1
  O  O34  1  0.210179  0.196351  0.566577  1
  O  O35  1  0.690006  0.220941  0.424213  1
  O  O36  1  0.302511  0.090693  0.699373  1
  O  O37  1  0.090693  0.302511  0.800627  1
  O  O38  1  0.196351  0.210179  0.933423  1
  O  O39  1  0.573687  0.397056  0.583478  1
  O  O40  1  0.803649  0.789821  0.066577  1
  O  O41  1  0.397056  0.573687  0.916522  1
  O  O42  1  0.909307  0.697489  0.199373  1
  O  O43  1  0.789821  0.803649  0.433423  1
  F  F44  1  0.680966  0.803905  0.681038  1
  F  F45  1  0.803905  0.680966  0.818962  1
  F  F46  1  0.319034  0.196095  0.318962  1
  F  F47  1  0.196095  0.319034  0.181038  1
