# generated using pymatgen
data_Nb6Tl2VCl18
_symmetry_space_group_name_H-M   'P 1'
_cell_length_a   10.06554935
_cell_length_b   10.06554935
_cell_length_c   10.06554935
_cell_angle_alpha   54.98439592
_cell_angle_beta   54.98439592
_cell_angle_gamma   54.98439592
_symmetry_Int_Tables_number   1
_chemical_formula_structural   Nb6Tl2VCl18
_chemical_formula_sum   'Nb6 Tl2 V1 Cl18'
_cell_volume   636.94655785
_cell_formula_units_Z   1
loop_
 _symmetry_equiv_pos_site_id
 _symmetry_equiv_pos_as_xyz
  1  'x, y, z'
loop_
 _atom_site_type_symbol
 _atom_site_label
 _atom_site_symmetry_multiplicity
 _atom_site_fract_x
 _atom_site_fract_y
 _atom_site_fract_z
 _atom_site_occupancy
  Nb  Nb0  1  0.591638  0.703860  0.345537  1
  Nb  Nb1  1  0.296140  0.654463  0.408362  1
  Nb  Nb2  1  0.654463  0.408362  0.296140  1
  Nb  Nb3  1  0.408362  0.296140  0.654463  1
  Nb  Nb4  1  0.345537  0.591638  0.703860  1
  Nb  Nb5  1  0.703860  0.345537  0.591638  1
  Tl  Tl6  1  0.722044  0.722044  0.722044  1
  Tl  Tl7  1  0.277956  0.277956  0.277956  1
  V  V8  1  0.000000  0.000000  0.000000  1
  Cl  Cl9  1  0.216126  0.364782  0.921910  1
  Cl  Cl10  1  0.153677  0.440607  0.573390  1
  Cl  Cl11  1  0.921910  0.216126  0.364782  1
  Cl  Cl12  1  0.573390  0.153677  0.440607  1
  Cl  Cl13  1  0.969118  0.152799  0.705541  1
  Cl  Cl14  1  0.635218  0.078090  0.783874  1
  Cl  Cl15  1  0.783874  0.635218  0.078090  1
  Cl  Cl16  1  0.152799  0.705541  0.969118  1
  Cl  Cl17  1  0.426610  0.846323  0.559393  1
  Cl  Cl18  1  0.847201  0.294459  0.030882  1
  Cl  Cl19  1  0.440607  0.573390  0.153677  1
  Cl  Cl20  1  0.364782  0.921910  0.216126  1
  Cl  Cl21  1  0.559393  0.426610  0.846323  1
  Cl  Cl22  1  0.030882  0.847201  0.294459  1
  Cl  Cl23  1  0.846323  0.559393  0.426610  1
  Cl  Cl24  1  0.078090  0.783874  0.635218  1
  Cl  Cl25  1  0.294459  0.030882  0.847201  1
  Cl  Cl26  1  0.705541  0.969118  0.152799  1
