# generated using pymatgen
data_MgUB2O7
_symmetry_space_group_name_H-M   'P 1'
_cell_length_a   7.39399212
_cell_length_b   8.02298833
_cell_length_c   9.87627679
_cell_angle_alpha   90.00000000
_cell_angle_beta   90.00000000
_cell_angle_gamma   90.00000000
_symmetry_Int_Tables_number   1
_chemical_formula_structural   MgUB2O7
_chemical_formula_sum   'Mg4 U4 B8 O28'
_cell_volume   585.87962747
_cell_formula_units_Z   4
loop_
 _symmetry_equiv_pos_site_id
 _symmetry_equiv_pos_as_xyz
  1  'x, y, z'
loop_
 _atom_site_type_symbol
 _atom_site_label
 _atom_site_symmetry_multiplicity
 _atom_site_fract_x
 _atom_site_fract_y
 _atom_site_fract_z
 _atom_site_occupancy
  Mg  Mg0  1  0.234437  0.750000  0.452045  1
  Mg  Mg1  1  0.765563  0.750000  0.952045  1
  Mg  Mg2  1  0.234437  0.250000  0.047955  1
  Mg  Mg3  1  0.765563  0.250000  0.547955  1
  U  U4  1  0.224344  0.250000  0.447832  1
  U  U5  1  0.775656  0.750000  0.552168  1
  U  U6  1  0.775656  0.250000  0.947832  1
  U  U7  1  0.224344  0.750000  0.052168  1
  B  B8  1  0.871780  0.250000  0.241182  1
  B  B9  1  0.128220  0.750000  0.758818  1
  B  B10  1  0.531557  0.750000  0.212343  1
  B  B11  1  0.531557  0.250000  0.287657  1
  B  B12  1  0.128220  0.250000  0.741182  1
  B  B13  1  0.468443  0.250000  0.787657  1
  B  B14  1  0.468443  0.750000  0.712343  1
  B  B15  1  0.871780  0.750000  0.258818  1
  O  O16  1  0.542965  0.750000  0.074053  1
  O  O17  1  0.072545  0.250000  0.871421  1
  O  O18  1  0.360929  0.250000  0.233611  1
  O  O19  1  0.771689  0.020769  0.951079  1
  O  O20  1  0.228311  0.520769  0.048921  1
  O  O21  1  0.771689  0.479231  0.951079  1
  O  O22  1  0.684645  0.750000  0.297166  1
  O  O23  1  0.228311  0.020769  0.451079  1
  O  O24  1  0.927455  0.750000  0.128579  1
  O  O25  1  0.457035  0.750000  0.574053  1
  O  O26  1  0.020120  0.750000  0.869835  1
  O  O27  1  0.979880  0.250000  0.130165  1
  O  O28  1  0.639071  0.750000  0.766389  1
  O  O29  1  0.979880  0.750000  0.369835  1
  O  O30  1  0.315355  0.250000  0.702834  1
  O  O31  1  0.771689  0.979231  0.548921  1
  O  O32  1  0.927455  0.250000  0.371421  1
  O  O33  1  0.228311  0.979231  0.048921  1
  O  O34  1  0.457035  0.250000  0.925947  1
  O  O35  1  0.228311  0.479231  0.451079  1
  O  O36  1  0.684645  0.250000  0.202834  1
  O  O37  1  0.639071  0.250000  0.733611  1
  O  O38  1  0.020120  0.250000  0.630165  1
  O  O39  1  0.771689  0.520769  0.548921  1
  O  O40  1  0.072545  0.750000  0.628579  1
  O  O41  1  0.315355  0.750000  0.797166  1
  O  O42  1  0.542965  0.250000  0.425947  1
  O  O43  1  0.360929  0.750000  0.266389  1
