# generated using pymatgen
data_Ca2TaMnO6
_symmetry_space_group_name_H-M   'P 1'
_cell_length_a   5.52133041
_cell_length_b   7.70880442
_cell_length_c   5.74148200
_cell_angle_alpha   90.00000000
_cell_angle_beta   93.88629958
_cell_angle_gamma   90.00000000
_symmetry_Int_Tables_number   1
_chemical_formula_structural   Ca2TaMnO6
_chemical_formula_sum   'Ca4 Ta2 Mn2 O12'
_cell_volume   243.81193853
_cell_formula_units_Z   2
loop_
 _symmetry_equiv_pos_site_id
 _symmetry_equiv_pos_as_xyz
  1  'x, y, z'
loop_
 _atom_site_type_symbol
 _atom_site_label
 _atom_site_symmetry_multiplicity
 _atom_site_fract_x
 _atom_site_fract_y
 _atom_site_fract_z
 _atom_site_occupancy
  Ca  Ca0  1  0.982047  0.750000  0.952597  1
  Ca  Ca1  1  0.505973  0.750000  0.433691  1
  Ca  Ca2  1  0.494027  0.250000  0.566309  1
  Ca  Ca3  1  0.017953  0.250000  0.047403  1
  Ta  Ta4  1  0.000000  0.000000  0.500000  1
  Ta  Ta5  1  0.000000  0.500000  0.500000  1
  Mn  Mn6  1  0.500000  0.000000  0.000000  1
  Mn  Mn7  1  0.500000  0.500000  0.000000  1
  O  O8  1  0.201906  0.451650  0.797162  1
  O  O9  1  0.719166  0.548530  0.685153  1
  O  O10  1  0.798094  0.548350  0.202838  1
  O  O11  1  0.280834  0.048530  0.314847  1
  O  O12  1  0.902285  0.250000  0.472003  1
  O  O13  1  0.280834  0.451470  0.314847  1
  O  O14  1  0.719166  0.951470  0.685153  1
  O  O15  1  0.201906  0.048350  0.797162  1
  O  O16  1  0.404892  0.750000  0.027925  1
  O  O17  1  0.798094  0.951650  0.202838  1
  O  O18  1  0.595108  0.250000  0.972075  1
  O  O19  1  0.097715  0.750000  0.527997  1
