# generated using pymatgen
data_KBi(PSe3)2
_symmetry_space_group_name_H-M   'P 1'
_cell_length_a   7.09199656
_cell_length_b   7.83896510
_cell_length_c   10.45420305
_cell_angle_alpha   90.00000000
_cell_angle_beta   91.70277692
_cell_angle_gamma   90.00000000
_symmetry_Int_Tables_number   1
_chemical_formula_structural   KBi(PSe3)2
_chemical_formula_sum   'K2 Bi2 P4 Se12'
_cell_volume   580.93341949
_cell_formula_units_Z   2
loop_
 _symmetry_equiv_pos_site_id
 _symmetry_equiv_pos_as_xyz
  1  'x, y, z'
loop_
 _atom_site_type_symbol
 _atom_site_label
 _atom_site_symmetry_multiplicity
 _atom_site_fract_x
 _atom_site_fract_y
 _atom_site_fract_z
 _atom_site_occupancy
  K  K0  1  0.301812  0.043012  0.500388  1
  K  K1  1  0.698188  0.543012  0.499612  1
  Bi  Bi2  1  0.206886  0.289739  0.018010  1
  Bi  Bi3  1  0.793114  0.789739  0.981990  1
  P  P4  1  0.307873  0.748786  0.174900  1
  P  P5  1  0.692127  0.248786  0.825100  1
  P  P6  1  0.796482  0.029925  0.701371  1
  P  P7  1  0.203518  0.529925  0.298629  1
  Se  Se8  1  0.350198  0.628864  0.980976  1
  Se  Se9  1  0.827432  0.114952  0.507809  1
  Se  Se10  1  0.076216  0.942431  0.173079  1
  Se  Se11  1  0.584448  0.827788  0.730630  1
  Se  Se12  1  0.425817  0.344927  0.742446  1
  Se  Se13  1  0.415552  0.327788  0.269370  1
  Se  Se14  1  0.944496  0.443076  0.187874  1
  Se  Se15  1  0.055504  0.943076  0.812126  1
  Se  Se16  1  0.172568  0.614952  0.492191  1
  Se  Se17  1  0.649802  0.128864  0.019024  1
  Se  Se18  1  0.923784  0.442431  0.826921  1
  Se  Se19  1  0.574183  0.844927  0.257554  1
