# generated using pymatgen
data_KU2(PO4)3
_symmetry_space_group_name_H-M   'P 1'
_cell_length_a   9.92988271
_cell_length_b   9.92988271
_cell_length_c   9.92988271
_cell_angle_alpha   55.43019079
_cell_angle_beta   55.43019079
_cell_angle_gamma   55.43019079
_symmetry_Int_Tables_number   1
_chemical_formula_structural   KU2(PO4)3
_chemical_formula_sum   'K2 U4 P6 O24'
_cell_volume   618.85587491
_cell_formula_units_Z   2
loop_
 _symmetry_equiv_pos_site_id
 _symmetry_equiv_pos_as_xyz
  1  'x, y, z'
loop_
 _atom_site_type_symbol
 _atom_site_label
 _atom_site_symmetry_multiplicity
 _atom_site_fract_x
 _atom_site_fract_y
 _atom_site_fract_z
 _atom_site_occupancy
  K  K0  1  0.500000  0.500000  0.500000  1
  K  K1  1  0.000000  0.000000  1.000000  1
  U  U2  1  0.150286  0.150286  0.150286  1
  U  U3  1  0.849714  0.849714  0.849714  1
  U  U4  1  0.349714  0.349714  0.349714  1
  U  U5  1  0.650286  0.650286  0.650286  1
  P  P6  1  0.456185  0.750000  0.043815  1
  P  P7  1  0.750000  0.043815  0.456185  1
  P  P8  1  0.250000  0.956185  0.543815  1
  P  P9  1  0.043815  0.456185  0.750000  1
  P  P10  1  0.956185  0.543815  0.250000  1
  P  P11  1  0.543815  0.250000  0.956185  1
  O  O12  1  0.268052  0.117183  0.514080  1
  O  O13  1  0.085144  0.927909  0.708994  1
  O  O14  1  0.291006  0.914856  0.072091  1
  O  O15  1  0.791006  0.572091  0.414856  1
  O  O16  1  0.985920  0.382817  0.231948  1
  O  O17  1  0.617183  0.768052  0.014080  1
  O  O18  1  0.208994  0.427909  0.585144  1
  O  O19  1  0.708994  0.085144  0.927909  1
  O  O20  1  0.572091  0.414856  0.791006  1
  O  O21  1  0.231948  0.985920  0.382817  1
  O  O22  1  0.382817  0.231948  0.985920  1
  O  O23  1  0.882817  0.485920  0.731948  1
  O  O24  1  0.514080  0.268052  0.117183  1
  O  O25  1  0.585144  0.208994  0.427909  1
  O  O26  1  0.914856  0.072091  0.291006  1
  O  O27  1  0.427909  0.585144  0.208994  1
  O  O28  1  0.731948  0.882817  0.485920  1
  O  O29  1  0.485920  0.731948  0.882817  1
  O  O30  1  0.014080  0.617183  0.768052  1
  O  O31  1  0.414856  0.791006  0.572091  1
  O  O32  1  0.768052  0.014080  0.617183  1
  O  O33  1  0.072091  0.291006  0.914856  1
  O  O34  1  0.117183  0.514080  0.268052  1
  O  O35  1  0.927909  0.708994  0.085144  1
