# generated using pymatgen
data_Cu7As6(PbO12)2
_symmetry_space_group_name_H-M   'P 1'
_cell_length_a   5.24531686
_cell_length_b   8.50495968
_cell_length_c   11.43103037
_cell_angle_alpha   90.56518990
_cell_angle_beta   90.85677988
_cell_angle_gamma   93.26224700
_symmetry_Int_Tables_number   1
_chemical_formula_structural   Cu7As6(PbO12)2
_chemical_formula_sum   'Cu7 As6 Pb2 O24'
_cell_volume   509.03946782
_cell_formula_units_Z   1
loop_
 _symmetry_equiv_pos_site_id
 _symmetry_equiv_pos_as_xyz
  1  'x, y, z'
loop_
 _atom_site_type_symbol
 _atom_site_label
 _atom_site_symmetry_multiplicity
 _atom_site_fract_x
 _atom_site_fract_y
 _atom_site_fract_z
 _atom_site_occupancy
  Cu  Cu0  1  0.981489  0.282870  0.165874  1
  Cu  Cu1  1  0.967460  0.920392  0.319441  1
  Cu  Cu2  1  0.032540  0.079608  0.680559  1
  Cu  Cu3  1  0.000000  0.000000  0.000000  1
  Cu  Cu4  1  0.018511  0.717130  0.834126  1
  Cu  Cu5  1  0.500000  0.500000  0.000000  1
  Cu  Cu6  1  0.500000  0.000000  0.500000  1
  As  As7  1  0.024194  0.659667  0.114555  1
  As  As8  1  0.965614  0.270156  0.448002  1
  As  As9  1  0.975806  0.340333  0.885445  1
  As  As10  1  0.484612  0.079754  0.220551  1
  As  As11  1  0.515388  0.920246  0.779449  1
  As  As12  1  0.034386  0.729844  0.551998  1
  Pb  Pb13  1  0.501444  0.461223  0.668383  1
  Pb  Pb14  1  0.498556  0.538777  0.331617  1
  O  O15  1  0.883653  0.217600  0.001789  1
  O  O16  1  0.768649  0.902189  0.877145  1
  O  O17  1  0.374594  0.729928  0.774787  1
  O  O18  1  0.814169  0.081757  0.418266  1
  O  O19  1  0.672810  0.980399  0.649631  1
  O  O20  1  0.704286  0.603295  0.123275  1
  O  O21  1  0.269615  0.607812  0.513915  1
  O  O22  1  0.730385  0.392188  0.486085  1
  O  O23  1  0.190216  0.248065  0.555909  1
  O  O24  1  0.185831  0.918243  0.581734  1
  O  O25  1  0.327190  0.019601  0.350369  1
  O  O26  1  0.888491  0.660003  0.678638  1
  O  O27  1  0.116347  0.782400  0.998211  1
  O  O28  1  0.873037  0.255150  0.755859  1
  O  O29  1  0.111509  0.339997  0.321362  1
  O  O30  1  0.625406  0.270072  0.225213  1
  O  O31  1  0.295714  0.396705  0.876725  1
  O  O32  1  0.197352  0.490480  0.101224  1
  O  O33  1  0.802648  0.509520  0.898776  1
  O  O34  1  0.289814  0.049702  0.815324  1
  O  O35  1  0.710186  0.950298  0.184676  1
  O  O36  1  0.231351  0.097811  0.122855  1
  O  O37  1  0.809784  0.751935  0.444091  1
  O  O38  1  0.126963  0.744850  0.244141  1
