# generated using pymatgen
data_GdP5O14
_symmetry_space_group_name_H-M   'P 1'
_cell_length_a   8.85684283
_cell_length_b   9.06424151
_cell_length_c   13.06330427
_cell_angle_alpha   90.00000000
_cell_angle_beta   90.40815712
_cell_angle_gamma   90.00000000
_symmetry_Int_Tables_number   1
_chemical_formula_structural   GdP5O14
_chemical_formula_sum   'Gd4 P20 O56'
_cell_volume   1048.70280444
_cell_formula_units_Z   4
loop_
 _symmetry_equiv_pos_site_id
 _symmetry_equiv_pos_as_xyz
  1  'x, y, z'
loop_
 _atom_site_type_symbol
 _atom_site_label
 _atom_site_symmetry_multiplicity
 _atom_site_fract_x
 _atom_site_fract_y
 _atom_site_fract_z
 _atom_site_occupancy
  Gd  Gd0  1  0.722798  0.688349  0.001172  1
  Gd  Gd1  1  0.277202  0.188349  0.498828  1
  Gd  Gd2  1  0.277202  0.311651  0.998828  1
  Gd  Gd3  1  0.722798  0.811651  0.501172  1
  P  P4  1  0.506860  0.004660  0.701355  1
  P  P5  1  0.316182  0.755078  0.499864  1
  P  P6  1  0.994456  0.502547  0.827947  1
  P  P7  1  0.771133  0.049909  0.835968  1
  P  P8  1  0.005544  0.002547  0.672053  1
  P  P9  1  0.683818  0.244922  0.500136  1
  P  P10  1  0.683818  0.255078  0.000136  1
  P  P11  1  0.228867  0.950091  0.164032  1
  P  P12  1  0.493140  0.504660  0.798645  1
  P  P13  1  0.244261  0.546128  0.335002  1
  P  P14  1  0.005544  0.497453  0.172053  1
  P  P15  1  0.755739  0.453872  0.664998  1
  P  P16  1  0.228867  0.549909  0.664032  1
  P  P17  1  0.244261  0.953872  0.835002  1
  P  P18  1  0.506860  0.495340  0.201355  1
  P  P19  1  0.316182  0.744922  0.999864  1
  P  P20  1  0.755739  0.046128  0.164998  1
  P  P21  1  0.994456  0.997453  0.327947  1
  P  P22  1  0.771133  0.450091  0.335968  1
  P  P23  1  0.493140  0.995340  0.298645  1
  O  O24  1  0.131203  0.580093  0.244467  1
  O  O25  1  0.083656  0.115581  0.379186  1
  O  O26  1  0.470456  0.810887  0.004359  1
  O  O27  1  0.790679  0.314238  0.410270  1
  O  O28  1  0.093671  0.917881  0.238574  1
  O  O29  1  0.767811  0.903506  0.885183  1
  O  O30  1  0.777151  0.594741  0.610133  1
  O  O31  1  0.906329  0.417881  0.261426  1
  O  O32  1  0.593875  0.073758  0.210884  1
  O  O33  1  0.222091  0.690204  0.401118  1
  O  O34  1  0.288942  0.583143  0.000293  1
  O  O35  1  0.411690  0.383901  0.852056  1
  O  O36  1  0.083656  0.384419  0.879186  1
  O  O37  1  0.079866  0.377322  0.113239  1
  O  O38  1  0.232189  0.096494  0.114817  1
  O  O39  1  0.406125  0.926242  0.789116  1
  O  O40  1  0.079866  0.122678  0.613239  1
  O  O41  1  0.529544  0.310887  0.495641  1
  O  O42  1  0.585921  0.882939  0.353262  1
  O  O43  1  0.411690  0.116099  0.352056  1
  O  O44  1  0.593875  0.426242  0.710884  1
  O  O45  1  0.414079  0.117061  0.646738  1
  O  O46  1  0.232189  0.403506  0.614817  1
  O  O47  1  0.093671  0.582119  0.738574  1
  O  O48  1  0.625039  0.403974  0.272841  1
  O  O49  1  0.711058  0.416857  0.999707  1
  O  O50  1  0.222849  0.094741  0.889867  1
  O  O51  1  0.868797  0.080093  0.255533  1
  O  O52  1  0.470456  0.689113  0.504359  1
  O  O53  1  0.222091  0.809796  0.901118  1
  O  O54  1  0.777151  0.905259  0.110133  1
  O  O55  1  0.777909  0.190204  0.098882  1
  O  O56  1  0.767811  0.596494  0.385183  1
  O  O57  1  0.209321  0.814238  0.089730  1
  O  O58  1  0.529544  0.189113  0.995641  1
  O  O59  1  0.777909  0.309796  0.598882  1
  O  O60  1  0.406125  0.573758  0.289116  1
  O  O61  1  0.131203  0.919907  0.744467  1
  O  O62  1  0.916344  0.615581  0.120814  1
  O  O63  1  0.588310  0.616099  0.147944  1
  O  O64  1  0.209321  0.685762  0.589730  1
  O  O65  1  0.790679  0.185762  0.910270  1
  O  O66  1  0.585921  0.617061  0.853262  1
  O  O67  1  0.916344  0.884419  0.620814  1
  O  O68  1  0.374961  0.596026  0.727159  1
  O  O69  1  0.920134  0.877322  0.386761  1
  O  O70  1  0.414079  0.382939  0.146738  1
  O  O71  1  0.625039  0.096026  0.772841  1
  O  O72  1  0.588310  0.883901  0.647944  1
  O  O73  1  0.222849  0.405259  0.389867  1
  O  O74  1  0.711058  0.083143  0.499707  1
  O  O75  1  0.374961  0.903974  0.227159  1
  O  O76  1  0.288942  0.916857  0.500293  1
  O  O77  1  0.868797  0.419907  0.755533  1
  O  O78  1  0.920134  0.622678  0.886761  1
  O  O79  1  0.906329  0.082119  0.761426  1
