# generated using pymatgen
data_La10S19
_symmetry_space_group_name_H-M   'P 1'
_cell_length_a   9.14949893
_cell_length_b   9.14949893
_cell_length_c   16.36936022
_cell_angle_alpha   90.00000000
_cell_angle_beta   90.00000000
_cell_angle_gamma   90.00000000
_symmetry_Int_Tables_number   1
_chemical_formula_structural   La10S19
_chemical_formula_sum   'La20 S38'
_cell_volume   1370.33366495
_cell_formula_units_Z   2
loop_
 _symmetry_equiv_pos_site_id
 _symmetry_equiv_pos_as_xyz
  1  'x, y, z'
loop_
 _atom_site_type_symbol
 _atom_site_label
 _atom_site_symmetry_multiplicity
 _atom_site_fract_x
 _atom_site_fract_y
 _atom_site_fract_z
 _atom_site_occupancy
  La  La0  1  0.291084  0.598185  0.627278  1
  La  La1  1  0.901815  0.791084  0.127278  1
  La  La2  1  0.194189  0.896390  0.351462  1
  La  La3  1  0.401815  0.291084  0.372722  1
  La  La4  1  0.208916  0.901815  0.872722  1
  La  La5  1  0.896390  0.805811  0.648538  1
  La  La6  1  0.500000  0.000000  0.637017  1
  La  La7  1  0.305811  0.603610  0.148538  1
  La  La8  1  0.708916  0.401815  0.627278  1
  La  La9  1  0.500000  0.000000  0.137017  1
  La  La10  1  0.098185  0.208916  0.127278  1
  La  La11  1  0.000000  0.500000  0.362983  1
  La  La12  1  0.791084  0.098185  0.872722  1
  La  La13  1  0.103610  0.194189  0.648538  1
  La  La14  1  0.000000  0.500000  0.862983  1
  La  La15  1  0.598185  0.708916  0.372722  1
  La  La16  1  0.396390  0.305811  0.851462  1
  La  La17  1  0.603610  0.694189  0.851462  1
  La  La18  1  0.694189  0.396390  0.148538  1
  La  La19  1  0.805811  0.103610  0.351462  1
  S  S20  1  0.897912  0.803725  0.312260  1
  S  S21  1  0.803725  0.102088  0.687740  1
  S  S22  1  0.201314  0.901087  0.174490  1
  S  S23  1  0.168814  0.359479  0.500049  1
  S  S24  1  0.500000  0.000000  0.317185  1
  S  S25  1  0.948584  0.280399  0.498920  1
  S  S26  1  0.719601  0.948584  0.501080  1
  S  S27  1  0.780399  0.551416  0.998920  1
  S  S28  1  0.359479  0.831186  0.499951  1
  S  S29  1  0.701314  0.401087  0.325510  1
  S  S30  1  0.401087  0.298686  0.674490  1
  S  S31  1  0.102088  0.196275  0.312260  1
  S  S32  1  0.640521  0.168814  0.499951  1
  S  S33  1  0.901087  0.798686  0.825510  1
  S  S34  1  0.500000  0.000000  0.817185  1
  S  S35  1  0.331186  0.140521  0.999951  1
  S  S36  1  0.303725  0.602088  0.812260  1
  S  S37  1  0.397912  0.303725  0.187740  1
  S  S38  1  0.551416  0.219601  0.001080  1
  S  S39  1  0.051416  0.719601  0.498920  1
  S  S40  1  0.668814  0.859479  0.999951  1
  S  S41  1  0.798686  0.098913  0.174490  1
  S  S42  1  0.500000  0.500000  0.500000  1
  S  S43  1  0.831186  0.640521  0.500049  1
  S  S44  1  0.000000  0.500000  0.182815  1
  S  S45  1  0.219601  0.448584  0.998920  1
  S  S46  1  0.280399  0.051416  0.501080  1
  S  S47  1  0.602088  0.696275  0.187740  1
  S  S48  1  0.140521  0.668814  0.000049  1
  S  S49  1  0.696275  0.397912  0.812260  1
  S  S50  1  0.448584  0.780399  0.001080  1
  S  S51  1  0.196275  0.897912  0.687740  1
  S  S52  1  0.598913  0.701314  0.674490  1
  S  S53  1  0.098913  0.201314  0.825510  1
  S  S54  1  0.000000  0.000000  0.000000  1
  S  S55  1  0.000000  0.500000  0.682815  1
  S  S56  1  0.859479  0.331186  0.000049  1
  S  S57  1  0.298686  0.598913  0.325510  1
