# generated using pymatgen
data_Al23B50
_symmetry_space_group_name_H-M   'P 1'
_cell_length_a   6.11670734
_cell_length_b   10.15127095
_cell_length_c   10.37678508
_cell_angle_alpha   95.93865845
_cell_angle_beta   95.40237654
_cell_angle_gamma   96.37012743
_symmetry_Int_Tables_number   1
_chemical_formula_structural   Al23B50
_chemical_formula_sum   'Al23 B50'
_cell_volume   633.25758366
_cell_formula_units_Z   1
loop_
 _symmetry_equiv_pos_site_id
 _symmetry_equiv_pos_as_xyz
  1  'x, y, z'
loop_
 _atom_site_type_symbol
 _atom_site_label
 _atom_site_symmetry_multiplicity
 _atom_site_fract_x
 _atom_site_fract_y
 _atom_site_fract_z
 _atom_site_occupancy
  Al  Al0  1  0.843269  0.526498  0.606011  1
  Al  Al1  1  0.767417  0.278949  0.392448  1
  Al  Al2  1  0.442169  0.320424  0.598448  1
  Al  Al3  1  0.692738  0.045947  0.197959  1
  Al  Al4  1  0.357132  0.082801  0.393799  1
  Al  Al5  1  0.609813  0.799619  0.992503  1
  Al  Al6  1  0.039254  0.119314  0.599527  1
  Al  Al7  1  0.281635  0.840992  0.197268  1
  Al  Al8  1  0.532633  0.566137  0.800329  1
  Al  Al9  1  0.960746  0.880686  0.400473  1
  Al  Al10  1  0.195451  0.602886  0.995177  1
  Al  Al11  1  0.879056  0.638200  0.197844  1
  Al  Al12  1  0.642868  0.917199  0.606201  1
  Al  Al13  1  0.120944  0.361800  0.802156  1
  Al  Al14  1  0.804549  0.397114  0.004823  1
  Al  Al15  1  0.557831  0.679576  0.401552  1
  Al  Al16  1  0.718365  0.159008  0.802732  1
  Al  Al17  1  0.467367  0.433863  0.199671  1
  Al  Al18  1  0.232583  0.721051  0.607552  1
  Al  Al19  1  0.390187  0.200381  0.007497  1
  Al  Al20  1  0.156731  0.473502  0.393989  1
  Al  Al21  1  0.307262  0.954053  0.802041  1
  Al  Al22  1  0.000000  0.000000  0.000000  1
  B  B23  1  0.221677  0.492095  0.634313  1
  B  B24  1  0.139496  0.586451  0.766477  1
  B  B25  1  0.380137  0.306384  0.366599  1
  B  B26  1  0.059849  0.345957  0.567475  1
  B  B27  1  0.139408  0.253358  0.433516  1
  B  B28  1  0.298940  0.066135  0.166283  1
  B  B29  1  0.383075  0.972044  0.034811  1
  B  B30  1  0.819697  0.292799  0.633464  1
  B  B31  1  0.740779  0.384723  0.767655  1
  B  B32  1  0.979756  0.105934  0.366278  1
  B  B33  1  0.059953  0.012721  0.233126  1
  B  B34  1  0.219368  0.826467  0.966417  1
  B  B35  1  0.297721  0.733502  0.833109  1
  B  B36  1  0.739686  0.052247  0.434183  1
  B  B37  1  0.659950  0.145948  0.566093  1
  B  B38  1  0.901084  0.864374  0.168435  1
  B  B39  1  0.979543  0.773272  0.033196  1
  B  B40  1  0.420502  0.093860  0.633365  1
  B  B41  1  0.340221  0.187192  0.766029  1
  B  B42  1  0.659779  0.812808  0.233971  1
  B  B43  1  0.579498  0.906140  0.366635  1
  B  B44  1  0.820206  0.625701  0.966000  1
  B  B45  1  0.899701  0.532993  0.833133  1
  B  B46  1  0.340050  0.854052  0.433907  1
  B  B47  1  0.260314  0.947753  0.565817  1
  B  B48  1  0.580146  0.572641  0.034329  1
  B  B49  1  0.499397  0.666271  0.166178  1
  B  B50  1  0.940047  0.987279  0.766874  1
  B  B51  1  0.259221  0.615277  0.232345  1
  B  B52  1  0.180303  0.707201  0.366536  1
  B  B53  1  0.020244  0.894066  0.633722  1
  B  B54  1  0.500603  0.333729  0.833822  1
  B  B55  1  0.419854  0.427359  0.965671  1
  B  B56  1  0.179794  0.374299  0.034000  1
  B  B57  1  0.100299  0.467007  0.166867  1
  B  B58  1  0.860592  0.746642  0.566484  1
  B  B59  1  0.940151  0.654043  0.432525  1
  B  B60  1  0.020457  0.226728  0.966804  1
  B  B61  1  0.619863  0.693616  0.633401  1
  B  B62  1  0.542310  0.786523  0.767207  1
  B  B63  1  0.098916  0.135626  0.831565  1
  B  B64  1  0.778323  0.507905  0.365687  1
  B  B65  1  0.860504  0.413549  0.233523  1
  B  B66  1  0.542065  0.453444  0.434120  1
  B  B67  1  0.457935  0.546556  0.565880  1
  B  B68  1  0.780632  0.173533  0.033583  1
  B  B69  1  0.702279  0.266498  0.166891  1
  B  B70  1  0.616925  0.027956  0.965189  1
  B  B71  1  0.457690  0.213477  0.232793  1
  B  B72  1  0.701060  0.933865  0.833717  1
