# generated using pymatgen
data_Ce5Si3
_symmetry_space_group_name_H-M   'P 1'
_cell_length_a   8.46254281
_cell_length_b   8.46254281
_cell_length_c   8.46254281
_cell_angle_alpha   125.54010150
_cell_angle_beta   125.54010150
_cell_angle_gamma   80.64533848
_symmetry_Int_Tables_number   1
_chemical_formula_structural   Ce5Si3
_chemical_formula_sum   'Ce10 Si6'
_cell_volume   386.94917809
_cell_formula_units_Z   2
loop_
 _symmetry_equiv_pos_site_id
 _symmetry_equiv_pos_as_xyz
  1  'x, y, z'
loop_
 _atom_site_type_symbol
 _atom_site_label
 _atom_site_symmetry_multiplicity
 _atom_site_fract_x
 _atom_site_fract_y
 _atom_site_fract_z
 _atom_site_occupancy
  Ce  Ce0  1  0.026574  0.165228  0.500000  1
  Ce  Ce1  1  0.334772  0.473426  0.500000  1
  Ce  Ce2  1  0.834772  0.334772  0.861346  1
  Ce  Ce3  1  0.973426  0.834772  0.500000  1
  Ce  Ce4  1  0.665228  0.526574  0.500000  1
  Ce  Ce5  1  0.000000  0.000000  0.000000  1
  Ce  Ce6  1  0.473426  0.973426  0.138654  1
  Ce  Ce7  1  0.165228  0.665228  0.138654  1
  Ce  Ce8  1  0.500000  0.500000  0.000000  1
  Ce  Ce9  1  0.526574  0.026574  0.861346  1
  Si  Si10  1  0.386065  0.113935  0.500000  1
  Si  Si11  1  0.886065  0.386065  0.272131  1
  Si  Si12  1  0.113935  0.613935  0.727869  1
  Si  Si13  1  0.613935  0.886065  0.500000  1
  Si  Si14  1  0.750000  0.750000  0.000000  1
  Si  Si15  1  0.250000  0.250000  0.000000  1
