# generated using pymatgen
data_Al2Si2H4O9
_symmetry_space_group_name_H-M   'P 1'
_cell_length_a   5.21297934
_cell_length_b   7.47878298
_cell_length_c   9.05154938
_cell_angle_alpha   91.78713803
_cell_angle_beta   89.72805613
_cell_angle_gamma   104.97455208
_symmetry_Int_Tables_number   1
_chemical_formula_structural   Al2Si2H4O9
_chemical_formula_sum   'Al4 Si4 H8 O18'
_cell_volume   340.73867032
_cell_formula_units_Z   2
loop_
 _symmetry_equiv_pos_site_id
 _symmetry_equiv_pos_as_xyz
  1  'x, y, z'
loop_
 _atom_site_type_symbol
 _atom_site_label
 _atom_site_symmetry_multiplicity
 _atom_site_fract_x
 _atom_site_fract_y
 _atom_site_fract_z
 _atom_site_occupancy
  Al  Al0  1  0.640626  0.542793  0.507074  1
  Al  Al1  1  0.644443  0.541737  0.171261  1
  Al  Al2  1  0.137107  0.539777  0.007387  1
  Al  Al3  1  0.147963  0.545653  0.671339  1
  Si  Si4  1  0.941006  0.927865  0.662782  1
  Si  Si5  1  0.927750  0.924554  0.334130  1
  Si  Si6  1  0.441988  0.925202  0.162416  1
  Si  Si7  1  0.426236  0.925747  0.834223  1
  H  H8  1  0.795172  0.690050  0.939553  1
  H  H9  1  0.879551  0.288017  0.828495  1
  H  H10  1  0.899274  0.292746  0.496214  1
  H  H11  1  0.888179  0.286318  0.183312  1
  H  H12  1  0.304397  0.704687  0.442197  1
  H  H13  1  0.383415  0.285907  0.332418  1
  H  H14  1  0.386236  0.285145  0.001776  1
  H  H15  1  0.394939  0.292721  0.686071  1
  O  O16  1  0.889713  0.704860  0.647967  1
  O  O17  1  0.815487  0.701836  0.338169  1
  O  O18  1  0.939496  0.020754  0.500746  1
  O  O19  1  0.727621  0.997841  0.768556  1
  O  O20  1  0.736700  0.018950  0.235595  1
  O  O21  1  0.387339  0.701986  0.147585  1
  O  O22  1  0.316423  0.702880  0.838783  1
  O  O23  1  0.437666  0.019998  0.001606  1
  O  O24  1  0.230430  0.994644  0.269970  1
  O  O25  1  0.234210  0.021472  0.737634  1
  O  O26  1  0.887303  0.690138  0.032961  1
  O  O27  1  0.983860  0.415890  0.834314  1
  O  O28  1  0.903165  0.417865  0.530146  1
  O  O29  1  0.895966  0.405907  0.142089  1
  O  O30  1  0.393546  0.695531  0.534790  1
  O  O31  1  0.483704  0.414782  0.335950  1
  O  O32  1  0.397614  0.413162  0.030877  1
  O  O33  1  0.400473  0.410581  0.642613  1
