# generated using pymatgen
data_CeF4
_symmetry_space_group_name_H-M   'P 1'
_cell_length_a   8.37092037
_cell_length_b   8.37092037
_cell_length_c   8.38321489
_cell_angle_alpha   63.19037813
_cell_angle_beta   116.80962187
_cell_angle_gamma   99.84386308
_symmetry_Int_Tables_number   1
_chemical_formula_structural   CeF4
_chemical_formula_sum   'Ce6 F24'
_cell_volume   467.54387074
_cell_formula_units_Z   6
loop_
 _symmetry_equiv_pos_site_id
 _symmetry_equiv_pos_as_xyz
  1  'x, y, z'
loop_
 _atom_site_type_symbol
 _atom_site_label
 _atom_site_symmetry_multiplicity
 _atom_site_fract_x
 _atom_site_fract_y
 _atom_site_fract_z
 _atom_site_occupancy
  Ce  Ce0  1  0.776055  0.368534  0.329316  1
  Ce  Ce1  1  0.368534  0.776055  0.170684  1
  Ce  Ce2  1  0.223945  0.631466  0.670684  1
  Ce  Ce3  1  0.631466  0.223945  0.829316  1
  Ce  Ce4  1  0.212081  0.212081  0.250000  1
  Ce  Ce5  1  0.787919  0.787919  0.750000  1
  F  F6  1  0.603729  0.603729  0.250000  1
  F  F7  1  0.396271  0.396271  0.750000  1
  F  F8  1  0.261270  0.496998  0.217730  1
  F  F9  1  0.496998  0.261270  0.282270  1
  F  F10  1  0.738730  0.503002  0.782270  1
  F  F11  1  0.503002  0.738730  0.717730  1
  F  F12  1  0.029062  0.276513  0.347579  1
  F  F13  1  0.276513  0.029062  0.152421  1
  F  F14  1  0.970938  0.723487  0.652421  1
  F  F15  1  0.723487  0.970938  0.847579  1
  F  F16  1  0.000000  0.500000  0.500000  1
  F  F17  1  0.500000  0.000000  0.000000  1
  F  F18  1  0.934470  0.173369  0.044643  1
  F  F19  1  0.173369  0.934470  0.455357  1
  F  F20  1  0.065530  0.826631  0.955357  1
  F  F21  1  0.826631  0.065530  0.544643  1
  F  F22  1  0.814675  0.595793  0.072991  1
  F  F23  1  0.595793  0.814675  0.427009  1
  F  F24  1  0.185325  0.404207  0.927009  1
  F  F25  1  0.404207  0.185325  0.572991  1
  F  F26  1  0.682194  0.259831  0.104762  1
  F  F27  1  0.259831  0.682194  0.395238  1
  F  F28  1  0.317806  0.740169  0.895238  1
  F  F29  1  0.740169  0.317806  0.604762  1
