# generated using pymatgen
data_Cr2(PO4)3
_symmetry_space_group_name_H-M   'P 1'
_cell_length_a   8.43345692
_cell_length_b   8.57279858
_cell_length_c   14.45091515
_cell_angle_alpha   90.00000000
_cell_angle_beta   124.81253465
_cell_angle_gamma   90.00000000
_symmetry_Int_Tables_number   1
_chemical_formula_structural   Cr2(PO4)3
_chemical_formula_sum   'Cr8 P12 O48'
_cell_volume   857.78733768
_cell_formula_units_Z   4
loop_
 _symmetry_equiv_pos_site_id
 _symmetry_equiv_pos_as_xyz
  1  'x, y, z'
loop_
 _atom_site_type_symbol
 _atom_site_label
 _atom_site_symmetry_multiplicity
 _atom_site_fract_x
 _atom_site_fract_y
 _atom_site_fract_z
 _atom_site_occupancy
  Cr  Cr0  1  0.134124  0.966663  0.880771  1
  Cr  Cr1  1  0.627585  0.030449  0.381242  1
  Cr  Cr2  1  0.865876  0.033337  0.119229  1
  Cr  Cr3  1  0.372415  0.969551  0.618758  1
  Cr  Cr4  1  0.627585  0.469551  0.881242  1
  Cr  Cr5  1  0.372415  0.530449  0.118758  1
  Cr  Cr6  1  0.865876  0.466663  0.619229  1
  Cr  Cr7  1  0.134124  0.533337  0.380771  1
  P  P8  1  0.033729  0.112314  0.643736  1
  P  P9  1  0.966271  0.612314  0.856264  1
  P  P10  1  0.541001  0.747936  0.508022  1
  P  P11  1  0.458999  0.247936  0.991978  1
  P  P12  1  0.750500  0.117700  0.854256  1
  P  P13  1  0.541001  0.752064  0.008022  1
  P  P14  1  0.033729  0.387686  0.143736  1
  P  P15  1  0.966271  0.887686  0.356264  1
  P  P16  1  0.249500  0.882300  0.145744  1
  P  P17  1  0.249500  0.617700  0.645744  1
  P  P18  1  0.458999  0.252064  0.491978  1
  P  P19  1  0.750500  0.382300  0.354256  1
  O  O20  1  0.900135  0.076459  0.828844  1
  O  O21  1  0.520013  0.625891  0.926781  1
  O  O22  1  0.521788  0.685357  0.100897  1
  O  O23  1  0.091154  0.991393  0.737357  1
  O  O24  1  0.738125  0.832378  0.065898  1
  O  O25  1  0.908846  0.491393  0.762643  1
  O  O26  1  0.709437  0.206399  0.331002  1
  O  O27  1  0.566278  0.019933  0.773177  1
  O  O28  1  0.826461  0.424374  0.475512  1
  O  O29  1  0.173539  0.575626  0.524488  1
  O  O30  1  0.826461  0.075626  0.975512  1
  O  O31  1  0.011459  0.225583  0.179431  1
  O  O32  1  0.479987  0.125891  0.573219  1
  O  O33  1  0.520013  0.874109  0.426781  1
  O  O34  1  0.091154  0.508607  0.237357  1
  O  O35  1  0.173539  0.924374  0.024488  1
  O  O36  1  0.194198  0.385497  0.122564  1
  O  O37  1  0.261875  0.167622  0.934102  1
  O  O38  1  0.709437  0.293601  0.831002  1
  O  O39  1  0.261875  0.332378  0.434102  1
  O  O40  1  0.521788  0.814643  0.600897  1
  O  O41  1  0.988541  0.774417  0.820569  1
  O  O42  1  0.433722  0.519933  0.726823  1
  O  O43  1  0.908846  0.008607  0.262643  1
  O  O44  1  0.738125  0.667622  0.565898  1
  O  O45  1  0.622669  0.128933  0.065045  1
  O  O46  1  0.479987  0.374109  0.073219  1
  O  O47  1  0.478212  0.314643  0.899103  1
  O  O48  1  0.839838  0.438229  0.037773  1
  O  O49  1  0.433722  0.980067  0.226823  1
  O  O50  1  0.839838  0.061771  0.537773  1
  O  O51  1  0.900135  0.423541  0.328844  1
  O  O52  1  0.160162  0.938229  0.462227  1
  O  O53  1  0.099865  0.576459  0.671156  1
  O  O54  1  0.622669  0.371067  0.565045  1
  O  O55  1  0.377331  0.628933  0.434955  1
  O  O56  1  0.805802  0.614503  0.877436  1
  O  O57  1  0.290563  0.793601  0.668998  1
  O  O58  1  0.988541  0.725583  0.320569  1
  O  O59  1  0.290563  0.706399  0.168998  1
  O  O60  1  0.478212  0.185357  0.399103  1
  O  O61  1  0.566278  0.480067  0.273177  1
  O  O62  1  0.099865  0.923541  0.171156  1
  O  O63  1  0.194198  0.114503  0.622564  1
  O  O64  1  0.805802  0.885497  0.377436  1
  O  O65  1  0.160162  0.561771  0.962227  1
  O  O66  1  0.011459  0.274417  0.679431  1
  O  O67  1  0.377331  0.871067  0.934955  1
