# generated using pymatgen
data_LiGa(MoO4)2
_symmetry_space_group_name_H-M   'P 1'
_cell_length_a   6.83020647
_cell_length_b   7.18987824
_cell_length_c   7.49834147
_cell_angle_alpha   91.14344281
_cell_angle_beta   110.59998265
_cell_angle_gamma   104.74849105
_symmetry_Int_Tables_number   1
_chemical_formula_structural   LiGa(MoO4)2
_chemical_formula_sum   'Li2 Ga2 Mo4 O16'
_cell_volume   330.88096545
_cell_formula_units_Z   2
loop_
 _symmetry_equiv_pos_site_id
 _symmetry_equiv_pos_as_xyz
  1  'x, y, z'
loop_
 _atom_site_type_symbol
 _atom_site_label
 _atom_site_symmetry_multiplicity
 _atom_site_fract_x
 _atom_site_fract_y
 _atom_site_fract_z
 _atom_site_occupancy
  Li  Li0  1  0.230962  0.552950  0.751917  1
  Li  Li1  1  0.769038  0.447050  0.248083  1
  Ga  Ga2  1  0.405577  0.099542  0.319482  1
  Ga  Ga3  1  0.594423  0.900458  0.680518  1
  Mo  Mo4  1  0.822757  0.967126  0.211700  1
  Mo  Mo5  1  0.177243  0.032874  0.788300  1
  Mo  Mo6  1  0.668292  0.423653  0.711145  1
  Mo  Mo7  1  0.331708  0.576347  0.288855  1
  O  O8  1  0.244882  0.039716  0.042839  1
  O  O9  1  0.755118  0.960284  0.957161  1
  O  O10  1  0.252667  0.577200  0.041813  1
  O  O11  1  0.688009  0.132012  0.274239  1
  O  O12  1  0.575272  0.157467  0.608947  1
  O  O13  1  0.276553  0.272195  0.743505  1
  O  O14  1  0.723447  0.727805  0.256495  1
  O  O15  1  0.482696  0.383589  0.346019  1
  O  O16  1  0.114430  0.053211  0.340150  1
  O  O17  1  0.517304  0.616411  0.653981  1
  O  O18  1  0.885570  0.946789  0.659850  1
  O  O19  1  0.090312  0.484117  0.328426  1
  O  O20  1  0.909688  0.515883  0.671574  1
  O  O21  1  0.311991  0.867988  0.725761  1
  O  O22  1  0.424728  0.842533  0.391053  1
  O  O23  1  0.747333  0.422800  0.958187  1
