# generated using pymatgen
data_Tl2MoO4
_symmetry_space_group_name_H-M   'P 1'
_cell_length_a   6.40921124
_cell_length_b   6.40921124
_cell_length_c   8.38426093
_cell_angle_alpha   90.00000000
_cell_angle_beta   90.00000000
_cell_angle_gamma   120.00000000
_symmetry_Int_Tables_number   1
_chemical_formula_structural   Tl2MoO4
_chemical_formula_sum   'Tl4 Mo2 O8'
_cell_volume   298.26657621
_cell_formula_units_Z   2
loop_
 _symmetry_equiv_pos_site_id
 _symmetry_equiv_pos_as_xyz
  1  'x, y, z'
loop_
 _atom_site_type_symbol
 _atom_site_label
 _atom_site_symmetry_multiplicity
 _atom_site_fract_x
 _atom_site_fract_y
 _atom_site_fract_z
 _atom_site_occupancy
  Tl  Tl0  1  0.333333  0.666667  0.815748  1
  Tl  Tl1  1  0.000000  0.000000  0.000000  1
  Tl  Tl2  1  0.666667  0.333333  0.184252  1
  Tl  Tl3  1  0.000000  0.000000  0.500000  1
  Mo  Mo4  1  0.666667  0.333333  0.688616  1
  Mo  Mo5  1  0.333333  0.666667  0.311384  1
  O  O6  1  0.180796  0.361591  0.238063  1
  O  O7  1  0.666667  0.333333  0.473888  1
  O  O8  1  0.819204  0.180796  0.761937  1
  O  O9  1  0.819204  0.638409  0.761937  1
  O  O10  1  0.638409  0.819204  0.238063  1
  O  O11  1  0.361591  0.180796  0.761937  1
  O  O12  1  0.180796  0.819204  0.238063  1
  O  O13  1  0.333333  0.666667  0.526112  1
