# generated using pymatgen
data_SrIn4
_symmetry_space_group_name_H-M   'P 1'
_cell_length_a   6.63147521
_cell_length_b   6.63147521
_cell_length_c   10.08940581
_cell_angle_alpha   67.06925745
_cell_angle_beta   112.93074255
_cell_angle_gamma   133.19773306
_symmetry_Int_Tables_number   1
_chemical_formula_structural   SrIn4
_chemical_formula_sum   'Sr2 In8'
_cell_volume   292.85744004
_cell_formula_units_Z   2
loop_
 _symmetry_equiv_pos_site_id
 _symmetry_equiv_pos_as_xyz
  1  'x, y, z'
loop_
 _atom_site_type_symbol
 _atom_site_label
 _atom_site_symmetry_multiplicity
 _atom_site_fract_x
 _atom_site_fract_y
 _atom_site_fract_z
 _atom_site_occupancy
  Sr  Sr0  1  0.833958  0.166042  0.291164  1
  Sr  Sr1  1  0.166042  0.833958  0.708836  1
  In  In2  1  0.152686  0.847314  0.350131  1
  In  In3  1  0.564551  0.435449  0.899334  1
  In  In4  1  0.847314  0.152686  0.649869  1
  In  In5  1  0.422554  0.577446  0.576583  1
  In  In6  1  0.435449  0.564551  0.100666  1
  In  In7  1  0.849551  0.150449  0.947987  1
  In  In8  1  0.577446  0.422554  0.423417  1
  In  In9  1  0.150449  0.849551  0.052013  1
