# generated using pymatgen
data_SbCNCl6
_symmetry_space_group_name_H-M   'P 1'
_cell_length_a   8.08289581
_cell_length_b   10.12700901
_cell_length_c   13.40851037
_cell_angle_alpha   90.00000000
_cell_angle_beta   90.00000000
_cell_angle_gamma   90.00000000
_symmetry_Int_Tables_number   1
_chemical_formula_structural   SbCNCl6
_chemical_formula_sum   'Sb4 C4 N4 Cl24'
_cell_volume   1097.56110760
_cell_formula_units_Z   4
loop_
 _symmetry_equiv_pos_site_id
 _symmetry_equiv_pos_as_xyz
  1  'x, y, z'
loop_
 _atom_site_type_symbol
 _atom_site_label
 _atom_site_symmetry_multiplicity
 _atom_site_fract_x
 _atom_site_fract_y
 _atom_site_fract_z
 _atom_site_occupancy
  Sb  Sb0  1  0.791306  0.250000  0.583072  1
  Sb  Sb1  1  0.291306  0.750000  0.916928  1
  Sb  Sb2  1  0.208694  0.750000  0.416928  1
  Sb  Sb3  1  0.708694  0.250000  0.083072  1
  C  C4  1  0.655385  0.750000  0.055202  1
  C  C5  1  0.155385  0.250000  0.444798  1
  C  C6  1  0.344615  0.250000  0.944798  1
  C  C7  1  0.844615  0.750000  0.555202  1
  N  N8  1  0.460322  0.250000  0.996663  1
  N  N9  1  0.039678  0.250000  0.496663  1
  N  N10  1  0.539678  0.750000  0.003337  1
  N  N11  1  0.960322  0.750000  0.503337  1
  Cl  Cl12  1  0.714764  0.415377  0.466245  1
  Cl  Cl13  1  0.465968  0.750000  0.332327  1
  Cl  Cl14  1  0.082711  0.585152  0.315576  1
  Cl  Cl15  1  0.034032  0.750000  0.832327  1
  Cl  Cl16  1  0.313971  0.250000  0.374070  1
  Cl  Cl17  1  0.965968  0.250000  0.167673  1
  Cl  Cl18  1  0.813971  0.750000  0.125930  1
  Cl  Cl19  1  0.082711  0.914848  0.315576  1
  Cl  Cl20  1  0.285236  0.584623  0.533755  1
  Cl  Cl21  1  0.214764  0.915377  0.033755  1
  Cl  Cl22  1  0.917289  0.085152  0.684424  1
  Cl  Cl23  1  0.214764  0.584623  0.033755  1
  Cl  Cl24  1  0.534032  0.250000  0.667673  1
  Cl  Cl25  1  0.714764  0.084623  0.466245  1
  Cl  Cl26  1  0.917289  0.414848  0.684424  1
  Cl  Cl27  1  0.686029  0.750000  0.625930  1
  Cl  Cl28  1  0.285236  0.915377  0.533755  1
  Cl  Cl29  1  0.186029  0.250000  0.874070  1
  Cl  Cl30  1  0.582711  0.414848  0.184424  1
  Cl  Cl31  1  0.417289  0.914848  0.815576  1
  Cl  Cl32  1  0.582711  0.085152  0.184424  1
  Cl  Cl33  1  0.785236  0.415377  0.966245  1
  Cl  Cl34  1  0.785236  0.084623  0.966245  1
  Cl  Cl35  1  0.417289  0.585152  0.815576  1
