# generated using pymatgen
data_Nd7(S2Cl3)3
_symmetry_space_group_name_H-M   'P 1'
_cell_length_a   7.01849585
_cell_length_b   6.74277329
_cell_length_c   24.57485840
_cell_angle_alpha   90.00000000
_cell_angle_beta   97.75773441
_cell_angle_gamma   90.00000000
_symmetry_Int_Tables_number   1
_chemical_formula_structural   Nd7(S2Cl3)3
_chemical_formula_sum   'Nd14 S12 Cl18'
_cell_volume   1152.33971054
_cell_formula_units_Z   2
loop_
 _symmetry_equiv_pos_site_id
 _symmetry_equiv_pos_as_xyz
  1  'x, y, z'
loop_
 _atom_site_type_symbol
 _atom_site_label
 _atom_site_symmetry_multiplicity
 _atom_site_fract_x
 _atom_site_fract_y
 _atom_site_fract_z
 _atom_site_occupancy
  Nd  Nd0  1  0.750000  0.711210  0.000000  1
  Nd  Nd1  1  0.876325  0.304306  0.142696  1
  Nd  Nd2  1  0.506707  0.717232  0.420890  1
  Nd  Nd3  1  0.250000  0.288790  0.000000  1
  Nd  Nd4  1  0.376325  0.695694  0.142696  1
  Nd  Nd5  1  0.636795  0.695464  0.716434  1
  Nd  Nd6  1  0.006707  0.282768  0.420890  1
  Nd  Nd7  1  0.363205  0.304536  0.283566  1
  Nd  Nd8  1  0.863205  0.695464  0.283566  1
  Nd  Nd9  1  0.136795  0.304536  0.716434  1
  Nd  Nd10  1  0.993293  0.717232  0.579110  1
  Nd  Nd11  1  0.123675  0.695694  0.857304  1
  Nd  Nd12  1  0.493293  0.282768  0.579110  1
  Nd  Nd13  1  0.623675  0.304306  0.857304  1
  S  S14  1  0.617562  0.448067  0.216525  1
  S  S15  1  0.926153  0.464853  0.928586  1
  S  S16  1  0.382438  0.551933  0.783475  1
  S  S17  1  0.573847  0.464853  0.071414  1
  S  S18  1  0.426153  0.535147  0.928586  1
  S  S19  1  0.811660  0.447707  0.640600  1
  S  S20  1  0.188340  0.552293  0.359400  1
  S  S21  1  0.073847  0.535147  0.071414  1
  S  S22  1  0.311660  0.552293  0.640600  1
  S  S23  1  0.117562  0.551933  0.216525  1
  S  S24  1  0.688340  0.447707  0.359400  1
  S  S25  1  0.882438  0.448067  0.783475  1
  Cl  Cl26  1  0.732218  0.932268  0.188930  1
  Cl  Cl27  1  0.267782  0.067732  0.811070  1
  Cl  Cl28  1  0.622512  0.894591  0.557775  1
  Cl  Cl29  1  0.031443  0.083743  0.319217  1
  Cl  Cl30  1  0.468557  0.083743  0.680783  1
  Cl  Cl31  1  0.437260  0.956285  0.059587  1
  Cl  Cl32  1  0.250000  0.551598  0.500000  1
  Cl  Cl33  1  0.377488  0.105409  0.442225  1
  Cl  Cl34  1  0.562740  0.043715  0.940413  1
  Cl  Cl35  1  0.877488  0.894591  0.442225  1
  Cl  Cl36  1  0.531443  0.916257  0.319217  1
  Cl  Cl37  1  0.750000  0.448402  0.500000  1
  Cl  Cl38  1  0.122512  0.105409  0.557775  1
  Cl  Cl39  1  0.968557  0.916257  0.680783  1
  Cl  Cl40  1  0.062740  0.956285  0.940413  1
  Cl  Cl41  1  0.767782  0.932268  0.811070  1
  Cl  Cl42  1  0.937260  0.043715  0.059587  1
  Cl  Cl43  1  0.232218  0.067732  0.188930  1
