# generated using pymatgen
data_Ga(MoSe2)4
_symmetry_space_group_name_H-M   'P 1'
_cell_length_a   7.28172128
_cell_length_b   7.28172128
_cell_length_c   7.28172128
_cell_angle_alpha   60.00000000
_cell_angle_beta   60.00000000
_cell_angle_gamma   60.00000000
_symmetry_Int_Tables_number   1
_chemical_formula_structural   Ga(MoSe2)4
_chemical_formula_sum   'Ga1 Mo4 Se8'
_cell_volume   273.01540746
_cell_formula_units_Z   1
loop_
 _symmetry_equiv_pos_site_id
 _symmetry_equiv_pos_as_xyz
  1  'x, y, z'
loop_
 _atom_site_type_symbol
 _atom_site_label
 _atom_site_symmetry_multiplicity
 _atom_site_fract_x
 _atom_site_fract_y
 _atom_site_fract_z
 _atom_site_occupancy
  Ga  Ga0  1  0.000000  0.000000  0.000000  1
  Mo  Mo1  1  0.199880  0.600040  0.600040  1
  Mo  Mo2  1  0.600040  0.600040  0.199880  1
  Mo  Mo3  1  0.600040  0.600040  0.600040  1
  Mo  Mo4  1  0.600040  0.199880  0.600040  1
  Se  Se5  1  0.411815  0.862728  0.862728  1
  Se  Se6  1  0.862728  0.862728  0.411815  1
  Se  Se7  1  0.862728  0.862728  0.862728  1
  Se  Se8  1  0.364477  0.906569  0.364477  1
  Se  Se9  1  0.364477  0.364477  0.364477  1
  Se  Se10  1  0.364477  0.364477  0.906569  1
  Se  Se11  1  0.906569  0.364477  0.364477  1
  Se  Se12  1  0.862728  0.411815  0.862728  1
