# generated using pymatgen
data_CsBSe3
_symmetry_space_group_name_H-M   'P 1'
_cell_length_a   6.26587523
_cell_length_b   13.12753303
_cell_length_c   7.82474157
_cell_angle_alpha   90.00000000
_cell_angle_beta   106.99607097
_cell_angle_gamma   90.00000000
_symmetry_Int_Tables_number   1
_chemical_formula_structural   CsBSe3
_chemical_formula_sum   'Cs4 B4 Se12'
_cell_volume   615.51733045
_cell_formula_units_Z   4
loop_
 _symmetry_equiv_pos_site_id
 _symmetry_equiv_pos_as_xyz
  1  'x, y, z'
loop_
 _atom_site_type_symbol
 _atom_site_label
 _atom_site_symmetry_multiplicity
 _atom_site_fract_x
 _atom_site_fract_y
 _atom_site_fract_z
 _atom_site_occupancy
  Cs  Cs0  1  0.213447  0.422476  0.259987  1
  Cs  Cs1  1  0.786553  0.577524  0.740013  1
  Cs  Cs2  1  0.286553  0.922476  0.740013  1
  Cs  Cs3  1  0.713447  0.077524  0.259987  1
  B  B4  1  0.156208  0.268759  0.705686  1
  B  B5  1  0.656208  0.231241  0.705686  1
  B  B6  1  0.343792  0.768759  0.294314  1
  B  B7  1  0.843792  0.731241  0.294314  1
  Se  Se8  1  0.661759  0.317008  0.933443  1
  Se  Se9  1  0.835970  0.303036  0.553126  1
  Se  Se10  1  0.684020  0.596724  0.201015  1
  Se  Se11  1  0.184020  0.903276  0.201015  1
  Se  Se12  1  0.335970  0.196964  0.553126  1
  Se  Se13  1  0.161759  0.182992  0.933443  1
  Se  Se14  1  0.164030  0.696964  0.446874  1
  Se  Se15  1  0.815980  0.096724  0.798985  1
  Se  Se16  1  0.664030  0.803036  0.446874  1
  Se  Se17  1  0.338241  0.682992  0.066557  1
  Se  Se18  1  0.838241  0.817008  0.066557  1
  Se  Se19  1  0.315980  0.403276  0.798985  1
