# generated using pymatgen
data_Gd2Br3N
_symmetry_space_group_name_H-M   'P 1'
_cell_length_a   8.39989612
_cell_length_b   8.45896947
_cell_length_c   10.38388250
_cell_angle_alpha   106.79452770
_cell_angle_beta   104.36669562
_cell_angle_gamma   98.47095874
_symmetry_Int_Tables_number   1
_chemical_formula_structural   Gd2Br3N
_chemical_formula_sum   'Gd8 Br12 N4'
_cell_volume   664.90943589
_cell_formula_units_Z   4
loop_
 _symmetry_equiv_pos_site_id
 _symmetry_equiv_pos_as_xyz
  1  'x, y, z'
loop_
 _atom_site_type_symbol
 _atom_site_label
 _atom_site_symmetry_multiplicity
 _atom_site_fract_x
 _atom_site_fract_y
 _atom_site_fract_z
 _atom_site_occupancy
  Gd  Gd0  1  0.099607  0.842292  0.270949  1
  Gd  Gd1  1  0.900393  0.157708  0.729051  1
  Gd  Gd2  1  0.574131  0.920008  0.359229  1
  Gd  Gd3  1  0.425869  0.079992  0.640771  1
  Gd  Gd4  1  0.300348  0.239665  0.322541  1
  Gd  Gd5  1  0.699652  0.760335  0.677459  1
  Gd  Gd6  1  0.152937  0.921460  0.939814  1
  Gd  Gd7  1  0.847063  0.078540  0.060186  1
  Br  Br8  1  0.734428  0.763769  0.119902  1
  Br  Br9  1  0.265572  0.236231  0.880098  1
  Br  Br10  1  0.532071  0.139620  0.172747  1
  Br  Br11  1  0.467929  0.860380  0.827253  1
  Br  Br12  1  0.282277  0.688386  0.092495  1
  Br  Br13  1  0.717723  0.311614  0.907505  1
  Br  Br14  1  0.426951  0.425187  0.631186  1
  Br  Br15  1  0.573049  0.574813  0.368814  1
  Br  Br16  1  0.045501  0.437060  0.251838  1
  Br  Br17  1  0.954499  0.562940  0.748162  1
  Br  Br18  1  0.079229  0.843718  0.560584  1
  Br  Br19  1  0.920771  0.156282  0.439416  1
  N  N20  1  0.348427  0.022708  0.405316  1
  N  N21  1  0.651573  0.977292  0.594684  1
  N  N22  1  0.098555  0.027195  0.147324  1
  N  N23  1  0.901445  0.972805  0.852676  1
