# generated using pymatgen
data_Rb2ZnBr4
_symmetry_space_group_name_H-M   'P 1'
_cell_length_a   7.82895838
_cell_length_b   9.89086702
_cell_length_c   13.73107106
_cell_angle_alpha   90.00000000
_cell_angle_beta   90.00000000
_cell_angle_gamma   90.00000000
_symmetry_Int_Tables_number   1
_chemical_formula_structural   Rb2ZnBr4
_chemical_formula_sum   'Rb8 Zn4 Br16'
_cell_volume   1063.26804483
_cell_formula_units_Z   4
loop_
 _symmetry_equiv_pos_site_id
 _symmetry_equiv_pos_as_xyz
  1  'x, y, z'
loop_
 _atom_site_type_symbol
 _atom_site_label
 _atom_site_symmetry_multiplicity
 _atom_site_fract_x
 _atom_site_fract_y
 _atom_site_fract_z
 _atom_site_occupancy
  Rb  Rb0  1  0.250000  0.984541  0.826059  1
  Rb  Rb1  1  0.750000  0.874578  0.594527  1
  Rb  Rb2  1  0.750000  0.374578  0.905473  1
  Rb  Rb3  1  0.250000  0.625422  0.094527  1
  Rb  Rb4  1  0.250000  0.125422  0.405473  1
  Rb  Rb5  1  0.750000  0.515459  0.326059  1
  Rb  Rb6  1  0.750000  0.015459  0.173941  1
  Rb  Rb7  1  0.250000  0.484541  0.673941  1
  Zn  Zn8  1  0.250000  0.725595  0.422424  1
  Zn  Zn9  1  0.750000  0.774405  0.922424  1
  Zn  Zn10  1  0.250000  0.225595  0.077576  1
  Zn  Zn11  1  0.750000  0.274405  0.577576  1
  Br  Br12  1  0.250000  0.319328  0.912822  1
  Br  Br13  1  0.998166  0.316191  0.158164  1
  Br  Br14  1  0.998166  0.816191  0.341836  1
  Br  Br15  1  0.001834  0.683809  0.841836  1
  Br  Br16  1  0.501834  0.316191  0.158164  1
  Br  Br17  1  0.250000  0.981170  0.083466  1
  Br  Br18  1  0.750000  0.518830  0.583466  1
  Br  Br19  1  0.501834  0.816191  0.341836  1
  Br  Br20  1  0.250000  0.481170  0.416534  1
  Br  Br21  1  0.750000  0.680672  0.087178  1
  Br  Br22  1  0.498166  0.183809  0.658164  1
  Br  Br23  1  0.250000  0.819328  0.587178  1
  Br  Br24  1  0.750000  0.180672  0.412822  1
  Br  Br25  1  0.498166  0.683809  0.841836  1
  Br  Br26  1  0.750000  0.018830  0.916534  1
  Br  Br27  1  0.001834  0.183809  0.658164  1
