# generated using pymatgen
data_LiSb(PO3)4
_symmetry_space_group_name_H-M   'P 1'
_cell_length_a   7.54274775
_cell_length_b   7.54274775
_cell_length_c   10.35860980
_cell_angle_alpha   66.74756190
_cell_angle_beta   113.25243810
_cell_angle_gamma   109.30953766
_symmetry_Int_Tables_number   1
_chemical_formula_structural   LiSb(PO3)4
_chemical_formula_sum   'Li2 Sb2 P8 O24'
_cell_volume   486.69826023
_cell_formula_units_Z   2
loop_
 _symmetry_equiv_pos_site_id
 _symmetry_equiv_pos_as_xyz
  1  'x, y, z'
loop_
 _atom_site_type_symbol
 _atom_site_label
 _atom_site_symmetry_multiplicity
 _atom_site_fract_x
 _atom_site_fract_y
 _atom_site_fract_z
 _atom_site_occupancy
  Li  Li0  1  0.500000  0.000000  0.000000  1
  Li  Li1  1  0.000000  0.500000  0.500000  1
  Sb  Sb2  1  0.043277  0.043277  0.750000  1
  Sb  Sb3  1  0.956723  0.956723  0.250000  1
  P  P4  1  0.280563  0.273190  0.472938  1
  P  P5  1  0.682320  0.296372  0.696116  1
  P  P6  1  0.296372  0.682320  0.803884  1
  P  P7  1  0.273190  0.280563  0.027062  1
  P  P8  1  0.726810  0.719437  0.972938  1
  P  P9  1  0.703628  0.317680  0.196116  1
  P  P10  1  0.317680  0.703628  0.303884  1
  P  P11  1  0.719437  0.726810  0.527062  1
  O  O12  1  0.360287  0.813539  0.162569  1
  O  O13  1  0.194499  0.300638  0.571330  1
  O  O14  1  0.303181  0.470079  0.338021  1
  O  O15  1  0.175475  0.103137  0.410087  1
  O  O16  1  0.279480  0.863168  0.826674  1
  O  O17  1  0.502468  0.243575  0.556171  1
  O  O18  1  0.699362  0.805501  0.071330  1
  O  O19  1  0.103137  0.175475  0.089913  1
  O  O20  1  0.243575  0.502468  0.943829  1
  O  O21  1  0.186461  0.639713  0.662569  1
  O  O22  1  0.470079  0.303181  0.161979  1
  O  O23  1  0.863168  0.279480  0.673326  1
  O  O24  1  0.136832  0.720520  0.326674  1
  O  O25  1  0.529921  0.696819  0.838021  1
  O  O26  1  0.813539  0.360287  0.337431  1
  O  O27  1  0.756425  0.497532  0.056171  1
  O  O28  1  0.896863  0.824525  0.910087  1
  O  O29  1  0.300638  0.194499  0.928670  1
  O  O30  1  0.497532  0.756425  0.443829  1
  O  O31  1  0.720520  0.136832  0.173326  1
  O  O32  1  0.824525  0.896863  0.589913  1
  O  O33  1  0.696819  0.529921  0.661979  1
  O  O34  1  0.805501  0.699362  0.428670  1
  O  O35  1  0.639713  0.186461  0.837431  1
