# generated using pymatgen
data_Li4Mo5O17
_symmetry_space_group_name_H-M   'P 1'
_cell_length_a   6.90489242
_cell_length_b   9.64299171
_cell_length_c   11.08071519
_cell_angle_alpha   106.95325891
_cell_angle_beta   88.54111295
_cell_angle_gamma   110.35703081
_symmetry_Int_Tables_number   1
_chemical_formula_structural   Li4Mo5O17
_chemical_formula_sum   'Li8 Mo10 O34'
_cell_volume   659.27724337
_cell_formula_units_Z   2
loop_
 _symmetry_equiv_pos_site_id
 _symmetry_equiv_pos_as_xyz
  1  'x, y, z'
loop_
 _atom_site_type_symbol
 _atom_site_label
 _atom_site_symmetry_multiplicity
 _atom_site_fract_x
 _atom_site_fract_y
 _atom_site_fract_z
 _atom_site_occupancy
  Li  Li0  1  0.744795  0.050521  0.638838  1
  Li  Li1  1  0.255205  0.949479  0.361162  1
  Li  Li2  1  0.200189  0.283569  0.565393  1
  Li  Li3  1  0.799811  0.716431  0.434607  1
  Li  Li4  1  0.806900  0.596341  0.688272  1
  Li  Li5  1  0.193100  0.403659  0.311728  1
  Li  Li6  1  0.031574  0.784871  0.065585  1
  Li  Li7  1  0.968426  0.215129  0.934415  1
  Mo  Mo8  1  0.638032  0.878592  0.976270  1
  Mo  Mo9  1  0.361968  0.121408  0.023730  1
  Mo  Mo10  1  0.261218  0.543792  0.852597  1
  Mo  Mo11  1  0.738782  0.456208  0.147403  1
  Mo  Mo12  1  0.479536  0.710360  0.203058  1
  Mo  Mo13  1  0.520464  0.289640  0.796942  1
  Mo  Mo14  1  0.383579  0.693183  0.611509  1
  Mo  Mo15  1  0.616421  0.306817  0.388491  1
  Mo  Mo16  1  0.846703  0.057452  0.336453  1
  Mo  Mo17  1  0.153297  0.942548  0.663547  1
  O  O18  1  0.690322  0.068638  0.964450  1
  O  O19  1  0.309678  0.931362  0.035550  1
  O  O20  1  0.657535  0.829313  0.349710  1
  O  O21  1  0.342465  0.170687  0.650290  1
  O  O22  1  0.658561  0.917603  0.157917  1
  O  O23  1  0.341439  0.082397  0.842083  1
  O  O24  1  0.863129  0.839084  0.941872  1
  O  O25  1  0.136871  0.160916  0.058128  1
  O  O26  1  0.211366  0.352082  0.863621  1
  O  O27  1  0.788634  0.647918  0.136379  1
  O  O28  1  0.045709  0.589177  0.904207  1
  O  O29  1  0.954291  0.410823  0.095793  1
  O  O30  1  0.447407  0.664364  0.012325  1
  O  O31  1  0.552593  0.335636  0.987675  1
  O  O32  1  0.247666  0.598562  0.462310  1
  O  O33  1  0.752334  0.401438  0.537690  1
  O  O34  1  0.050344  0.996702  0.271055  1
  O  O35  1  0.949656  0.003298  0.728945  1
  O  O36  1  0.254503  0.753215  0.236502  1
  O  O37  1  0.745497  0.246785  0.763498  1
  O  O38  1  0.415289  0.516385  0.209569  1
  O  O39  1  0.584711  0.483615  0.790431  1
  O  O40  1  0.915056  0.118608  0.502854  1
  O  O41  1  0.084944  0.881392  0.497146  1
  O  O42  1  0.459316  0.752144  0.823131  1
  O  O43  1  0.540684  0.247856  0.176869  1
  O  O44  1  0.452440  0.902293  0.627183  1
  O  O45  1  0.547560  0.097707  0.372817  1
  O  O46  1  0.232295  0.501805  0.674060  1
  O  O47  1  0.767705  0.498195  0.325940  1
  O  O48  1  0.902263  0.244918  0.308030  1
  O  O49  1  0.097737  0.755082  0.691970  1
  O  O50  1  0.630934  0.675770  0.585889  1
  O  O51  1  0.369066  0.324230  0.414111  1
