# generated using pymatgen
data_Ce3CuSnS7
_symmetry_space_group_name_H-M   'P 1'
_cell_length_a   10.17014625
_cell_length_b   10.17014625
_cell_length_c   6.09067031
_cell_angle_alpha   90.00000000
_cell_angle_beta   90.00000000
_cell_angle_gamma   120.00000000
_symmetry_Int_Tables_number   1
_chemical_formula_structural   Ce3CuSnS7
_chemical_formula_sum   'Ce6 Cu2 Sn2 S14'
_cell_volume   545.56954594
_cell_formula_units_Z   2
loop_
 _symmetry_equiv_pos_site_id
 _symmetry_equiv_pos_as_xyz
  1  'x, y, z'
loop_
 _atom_site_type_symbol
 _atom_site_label
 _atom_site_symmetry_multiplicity
 _atom_site_fract_x
 _atom_site_fract_y
 _atom_site_fract_z
 _atom_site_occupancy
  Ce  Ce0  1  0.223072  0.358237  0.758469  1
  Ce  Ce1  1  0.864835  0.223072  0.258469  1
  Ce  Ce2  1  0.358237  0.135165  0.258469  1
  Ce  Ce3  1  0.641763  0.864835  0.758469  1
  Ce  Ce4  1  0.135165  0.776928  0.758469  1
  Ce  Ce5  1  0.776928  0.641763  0.258469  1
  Cu  Cu6  1  0.000000  0.000000  0.714879  1
  Cu  Cu7  1  0.000000  0.000000  0.214879  1
  Sn  Sn8  1  0.333333  0.666667  0.330794  1
  Sn  Sn9  1  0.666667  0.333333  0.830794  1
  S  S10  1  0.333333  0.666667  0.936739  1
  S  S11  1  0.666667  0.333333  0.436739  1
  S  S12  1  0.902670  0.155292  0.729196  1
  S  S13  1  0.747378  0.902670  0.229196  1
  S  S14  1  0.155292  0.252622  0.229196  1
  S  S15  1  0.844708  0.747378  0.729196  1
  S  S16  1  0.252622  0.097330  0.729196  1
  S  S17  1  0.097330  0.844708  0.229196  1
  S  S18  1  0.427611  0.914167  0.504165  1
  S  S19  1  0.513444  0.427611  0.004165  1
  S  S20  1  0.914167  0.486556  0.004165  1
  S  S21  1  0.085833  0.513444  0.504165  1
  S  S22  1  0.486556  0.572389  0.504165  1
  S  S23  1  0.572389  0.085833  0.004165  1
