# generated using pymatgen
data_TlNiO3
_symmetry_space_group_name_H-M   'P 1'
_cell_length_a   5.32786157
_cell_length_b   5.45557851
_cell_length_c   7.74743470
_cell_angle_alpha   90.00000000
_cell_angle_beta   90.00000000
_cell_angle_gamma   90.00000000
_symmetry_Int_Tables_number   1
_chemical_formula_structural   TlNiO3
_chemical_formula_sum   'Tl4 Ni4 O12'
_cell_volume   225.19133045
_cell_formula_units_Z   4
loop_
 _symmetry_equiv_pos_site_id
 _symmetry_equiv_pos_as_xyz
  1  'x, y, z'
loop_
 _atom_site_type_symbol
 _atom_site_label
 _atom_site_symmetry_multiplicity
 _atom_site_fract_x
 _atom_site_fract_y
 _atom_site_fract_z
 _atom_site_occupancy
  Tl  Tl0  1  0.983376  0.049921  0.250000  1
  Tl  Tl1  1  0.483376  0.450079  0.750000  1
  Tl  Tl2  1  0.516624  0.549921  0.250000  1
  Tl  Tl3  1  0.016624  0.950079  0.750000  1
  Ni  Ni4  1  0.500000  0.000000  0.000000  1
  Ni  Ni5  1  0.000000  0.500000  0.000000  1
  Ni  Ni6  1  0.000000  0.500000  0.500000  1
  Ni  Ni7  1  0.500000  0.000000  0.500000  1
  O  O8  1  0.107189  0.454535  0.250000  1
  O  O9  1  0.607190  0.045465  0.750000  1
  O  O10  1  0.392811  0.954535  0.250000  1
  O  O11  1  0.892810  0.545465  0.750000  1
  O  O12  1  0.703808  0.294113  0.058706  1
  O  O13  1  0.203808  0.205887  0.941294  1
  O  O14  1  0.796192  0.794113  0.441294  1
  O  O15  1  0.296192  0.705887  0.558706  1
  O  O16  1  0.296192  0.705887  0.941294  1
  O  O17  1  0.796192  0.794113  0.058706  1
  O  O18  1  0.203808  0.205887  0.558706  1
  O  O19  1  0.703808  0.294113  0.441294  1
