# generated using pymatgen
data_SrAlSi4N7
_symmetry_space_group_name_H-M   'P 1'
_cell_length_a   4.97249490
_cell_length_b   11.81134550
_cell_length_c   21.27812965
_cell_angle_alpha   90.00000000
_cell_angle_beta   90.00000000
_cell_angle_gamma   90.00000000
_symmetry_Int_Tables_number   1
_chemical_formula_structural   SrAlSi4N7
_chemical_formula_sum   'Sr8 Al8 Si32 N56'
_cell_volume   1249.70403083
_cell_formula_units_Z   8
loop_
 _symmetry_equiv_pos_site_id
 _symmetry_equiv_pos_as_xyz
  1  'x, y, z'
loop_
 _atom_site_type_symbol
 _atom_site_label
 _atom_site_symmetry_multiplicity
 _atom_site_fract_x
 _atom_site_fract_y
 _atom_site_fract_z
 _atom_site_occupancy
  Sr  Sr0  1  0.935986  0.226761  0.010512  1
  Sr  Sr1  1  0.435986  0.273239  0.510512  1
  Sr  Sr2  1  0.466761  0.150328  0.797795  1
  Sr  Sr3  1  0.466761  0.650328  0.702205  1
  Sr  Sr4  1  0.435986  0.773239  0.989488  1
  Sr  Sr5  1  0.935986  0.726761  0.489488  1
  Sr  Sr6  1  0.966761  0.349672  0.297795  1
  Sr  Sr7  1  0.966761  0.849672  0.202205  1
  Al  Al8  1  0.229874  0.659956  0.848293  1
  Al  Al9  1  0.729874  0.340044  0.151707  1
  Al  Al10  1  0.737632  0.661220  0.849721  1
  Al  Al11  1  0.237632  0.838780  0.349721  1
  Al  Al12  1  0.237632  0.338780  0.150279  1
  Al  Al13  1  0.729874  0.840044  0.348293  1
  Al  Al14  1  0.737632  0.161220  0.650279  1
  Al  Al15  1  0.229874  0.159956  0.651707  1
  Si  Si16  1  0.457833  0.966042  0.110271  1
  Si  Si17  1  0.468803  0.928861  0.699620  1
  Si  Si18  1  0.949686  0.809883  0.639093  1
  Si  Si19  1  0.470728  0.898537  0.846909  1
  Si  Si20  1  0.470728  0.398537  0.653091  1
  Si  Si21  1  0.457833  0.466042  0.389729  1
  Si  Si22  1  0.459752  0.498881  0.044242  1
  Si  Si23  1  0.449686  0.190117  0.360907  1
  Si  Si24  1  0.968803  0.571139  0.199620  1
  Si  Si25  1  0.968803  0.071139  0.300380  1
  Si  Si26  1  0.957171  0.939812  0.033316  1
  Si  Si27  1  0.946587  0.162325  0.434701  1
  Si  Si28  1  0.468898  0.140794  0.223301  1
  Si  Si29  1  0.946587  0.662325  0.065299  1
  Si  Si30  1  0.957171  0.439812  0.466684  1
  Si  Si31  1  0.949686  0.309883  0.860907  1
  Si  Si32  1  0.959752  0.501119  0.955758  1
  Si  Si33  1  0.446587  0.337675  0.934701  1
  Si  Si34  1  0.446587  0.837675  0.565299  1
  Si  Si35  1  0.968898  0.859206  0.776699  1
  Si  Si36  1  0.457171  0.560188  0.533316  1
  Si  Si37  1  0.468803  0.428861  0.800380  1
  Si  Si38  1  0.970728  0.601463  0.346909  1
  Si  Si39  1  0.968898  0.359206  0.723301  1
  Si  Si40  1  0.449686  0.690117  0.139093  1
  Si  Si41  1  0.457171  0.060188  0.966684  1
  Si  Si42  1  0.959752  0.001119  0.544242  1
  Si  Si43  1  0.957833  0.033958  0.889729  1
  Si  Si44  1  0.459752  0.998881  0.455758  1
  Si  Si45  1  0.957833  0.533958  0.610271  1
  Si  Si46  1  0.468898  0.640794  0.276699  1
  Si  Si47  1  0.970728  0.101463  0.153091  1
  N  N48  1  0.290825  0.132203  0.294630  1
  N  N49  1  0.802699  0.088615  0.226866  1
  N  N50  1  0.805053  0.002924  0.101688  1
  N  N51  1  0.302699  0.411385  0.726866  1
  N  N52  1  0.425658  0.703878  0.532598  1
  N  N53  1  0.801233  0.510549  0.533469  1
  N  N54  1  0.985699  0.932818  0.314730  1
  N  N55  1  0.801233  0.010549  0.966531  1
  N  N56  1  0.297454  0.344748  0.857973  1
  N  N57  1  0.485699  0.567182  0.814730  1
  N  N58  1  0.797454  0.655252  0.142027  1
  N  N59  1  0.982803  0.719747  0.792826  1
  N  N60  1  0.278304  0.944294  0.520964  1
  N  N61  1  0.297454  0.844748  0.642027  1
  N  N62  1  0.778304  0.055706  0.479036  1
  N  N63  1  0.989876  0.107579  0.594941  1
  N  N64  1  0.978769  0.733712  0.375528  1
  N  N65  1  0.300044  0.553187  0.333002  1
  N  N66  1  0.805053  0.502924  0.398312  1
  N  N67  1  0.482803  0.780253  0.292826  1
  N  N68  1  0.789739  0.878087  0.573229  1
  N  N69  1  0.911865  0.668879  0.632538  1
  N  N70  1  0.778304  0.555706  0.020964  1
  N  N71  1  0.989876  0.607579  0.905059  1
  N  N72  1  0.800044  0.946813  0.833002  1
  N  N73  1  0.489876  0.392421  0.094941  1
  N  N74  1  0.289739  0.621913  0.073229  1
  N  N75  1  0.305053  0.497076  0.601688  1
  N  N76  1  0.411865  0.331121  0.367462  1
  N  N77  1  0.982803  0.219747  0.707174  1
  N  N78  1  0.911865  0.168879  0.867462  1
  N  N79  1  0.985699  0.432818  0.185270  1
  N  N80  1  0.290825  0.632203  0.205370  1
  N  N81  1  0.925658  0.796122  0.032598  1
  N  N82  1  0.278304  0.444294  0.979036  1
  N  N83  1  0.302699  0.911385  0.773134  1
  N  N84  1  0.411865  0.831121  0.132538  1
  N  N85  1  0.802699  0.588615  0.273134  1
  N  N86  1  0.800044  0.446813  0.666998  1
  N  N87  1  0.300044  0.053187  0.166998  1
  N  N88  1  0.478769  0.266288  0.624472  1
  N  N89  1  0.425658  0.203878  0.967402  1
  N  N90  1  0.797454  0.155252  0.357973  1
  N  N91  1  0.789739  0.378087  0.926771  1
  N  N92  1  0.482803  0.280253  0.207174  1
  N  N93  1  0.790825  0.867797  0.705370  1
  N  N94  1  0.485699  0.067182  0.685270  1
  N  N95  1  0.790825  0.367797  0.794630  1
  N  N96  1  0.289739  0.121913  0.426771  1
  N  N97  1  0.478769  0.766288  0.875528  1
  N  N98  1  0.301233  0.989451  0.033469  1
  N  N99  1  0.305053  0.997076  0.898312  1
  N  N100  1  0.489876  0.892421  0.405059  1
  N  N101  1  0.978769  0.233712  0.124472  1
  N  N102  1  0.301233  0.489451  0.466531  1
  N  N103  1  0.925658  0.296122  0.467402  1
