# generated using pymatgen
data_Ba3SrSb2O9
_symmetry_space_group_name_H-M   'P 1'
_cell_length_a   6.17291131
_cell_length_b   6.18029586
_cell_length_c   15.37468851
_cell_angle_alpha   91.14029191
_cell_angle_beta   91.88898009
_cell_angle_gamma   119.41923486
_symmetry_Int_Tables_number   1
_chemical_formula_structural   Ba3SrSb2O9
_chemical_formula_sum   'Ba6 Sr2 Sb4 O18'
_cell_volume   510.19780864
_cell_formula_units_Z   2
loop_
 _symmetry_equiv_pos_site_id
 _symmetry_equiv_pos_as_xyz
  1  'x, y, z'
loop_
 _atom_site_type_symbol
 _atom_site_label
 _atom_site_symmetry_multiplicity
 _atom_site_fract_x
 _atom_site_fract_y
 _atom_site_fract_z
 _atom_site_occupancy
  Ba  Ba0  1  0.319002  0.647405  0.406792  1
  Ba  Ba1  1  0.680998  0.352595  0.593208  1
  Ba  Ba2  1  0.655962  0.330841  0.902794  1
  Ba  Ba3  1  0.979582  0.002027  0.250447  1
  Ba  Ba4  1  0.020418  0.997973  0.749553  1
  Ba  Ba5  1  0.344038  0.669159  0.097206  1
  Sr  Sr6  1  0.000000  0.000000  0.000000  1
  Sr  Sr7  1  0.000000  0.000000  0.500000  1
  Sb  Sb8  1  0.300865  0.639579  0.843928  1
  Sb  Sb9  1  0.636788  0.305158  0.343246  1
  Sb  Sb10  1  0.363212  0.694842  0.656754  1
  Sb  Sb11  1  0.699135  0.360421  0.156072  1
  O  O12  1  0.223922  0.419719  0.568682  1
  O  O13  1  0.894054  0.226288  0.102403  1
  O  O14  1  0.259506  0.907186  0.595801  1
  O  O15  1  0.776078  0.580281  0.431318  1
  O  O16  1  0.569410  0.755242  0.934476  1
  O  O17  1  0.464175  0.508194  0.752977  1
  O  O18  1  0.901147  0.693387  0.111327  1
  O  O19  1  0.430590  0.244758  0.065524  1
  O  O20  1  0.098853  0.306613  0.888673  1
  O  O21  1  0.699137  0.853059  0.612947  1
  O  O22  1  0.105946  0.773712  0.897597  1
  O  O23  1  0.050923  0.536064  0.729184  1
  O  O24  1  0.535825  0.491806  0.247023  1
  O  O25  1  0.949077  0.463936  0.270816  1
  O  O26  1  0.740494  0.092814  0.404199  1
  O  O27  1  0.300863  0.146941  0.387053  1
  O  O28  1  0.516487  0.053231  0.231724  1
  O  O29  1  0.483513  0.946769  0.768276  1
