# generated using pymatgen
data_TePbO3
_symmetry_space_group_name_H-M   'P 1'
_cell_length_a   13.82585114
_cell_length_b   13.82585114
_cell_length_c   18.52876217
_cell_angle_alpha   72.95928095
_cell_angle_beta   107.04071905
_cell_angle_gamma   160.57293186
_symmetry_Int_Tables_number   1
_chemical_formula_structural   TePbO3
_chemical_formula_sum   'Te12 Pb12 O36'
_cell_volume   1124.77176237
_cell_formula_units_Z   12
loop_
 _symmetry_equiv_pos_site_id
 _symmetry_equiv_pos_as_xyz
  1  'x, y, z'
loop_
 _atom_site_type_symbol
 _atom_site_label
 _atom_site_symmetry_multiplicity
 _atom_site_fract_x
 _atom_site_fract_y
 _atom_site_fract_z
 _atom_site_occupancy
  Te  Te0  1  0.185666  0.281412  0.629442  1
  Te  Te1  1  0.281412  0.185666  0.870558  1
  Te  Te2  1  0.814334  0.718588  0.370558  1
  Te  Te3  1  0.718588  0.814334  0.129442  1
  Te  Te4  1  0.184689  0.324377  0.292296  1
  Te  Te5  1  0.324377  0.184689  0.207704  1
  Te  Te6  1  0.815311  0.675623  0.707704  1
  Te  Te7  1  0.675623  0.815311  0.792296  1
  Te  Te8  1  0.098784  0.515770  0.405874  1
  Te  Te9  1  0.515770  0.098784  0.094126  1
  Te  Te10  1  0.901216  0.484230  0.594126  1
  Te  Te11  1  0.484230  0.901216  0.905874  1
  Pb  Pb12  1  0.609266  0.977825  0.265465  1
  Pb  Pb13  1  0.977825  0.609266  0.234535  1
  Pb  Pb14  1  0.390734  0.022175  0.734535  1
  Pb  Pb15  1  0.022175  0.390734  0.765465  1
  Pb  Pb16  1  0.712502  0.843381  0.453747  1
  Pb  Pb17  1  0.843381  0.712502  0.046253  1
  Pb  Pb18  1  0.287498  0.156619  0.546253  1
  Pb  Pb19  1  0.156619  0.287498  0.953747  1
  Pb  Pb20  1  0.086973  0.407091  0.088604  1
  Pb  Pb21  1  0.407091  0.086973  0.411396  1
  Pb  Pb22  1  0.913027  0.592909  0.911396  1
  Pb  Pb23  1  0.592909  0.913027  0.588604  1
  O  O24  1  0.165031  0.208975  0.544586  1
  O  O25  1  0.208975  0.165031  0.955414  1
  O  O26  1  0.834969  0.791025  0.455414  1
  O  O27  1  0.791025  0.834969  0.044586  1
  O  O28  1  0.047428  0.282983  0.573420  1
  O  O29  1  0.282983  0.047428  0.926580  1
  O  O30  1  0.952572  0.717017  0.426580  1
  O  O31  1  0.717017  0.952572  0.073420  1
  O  O32  1  0.580834  0.693230  0.629264  1
  O  O33  1  0.693230  0.580834  0.870736  1
  O  O34  1  0.419166  0.306770  0.370736  1
  O  O35  1  0.306770  0.419166  0.129264  1
  O  O36  1  0.094995  0.368104  0.219362  1
  O  O37  1  0.368104  0.094995  0.280638  1
  O  O38  1  0.905005  0.631896  0.780638  1
  O  O39  1  0.631896  0.905005  0.719362  1
  O  O40  1  0.081817  0.270944  0.376139  1
  O  O41  1  0.270944  0.081817  0.123861  1
  O  O42  1  0.918183  0.729056  0.623861  1
  O  O43  1  0.729056  0.918183  0.876139  1
  O  O44  1  0.590910  0.721006  0.308886  1
  O  O45  1  0.721006  0.590910  0.191114  1
  O  O46  1  0.409090  0.278994  0.691114  1
  O  O47  1  0.278994  0.409090  0.808886  1
  O  O48  1  0.000119  0.444388  0.300139  1
  O  O49  1  0.444388  0.000119  0.199861  1
  O  O50  1  0.999881  0.555612  0.699861  1
  O  O51  1  0.555612  0.999881  0.800139  1
  O  O52  1  0.502430  0.872209  0.400790  1
  O  O53  1  0.872209  0.502430  0.099210  1
  O  O54  1  0.497570  0.127791  0.599210  1
  O  O55  1  0.127791  0.497570  0.900790  1
  O  O56  1  0.092217  0.649467  0.397470  1
  O  O57  1  0.649467  0.092217  0.102530  1
  O  O58  1  0.907783  0.350533  0.602530  1
  O  O59  1  0.350533  0.907783  0.897470  1
