# generated using pymatgen
data_K2Al2B2O7
_symmetry_space_group_name_H-M   'P 1'
_cell_length_a   8.66098585
_cell_length_b   8.66098585
_cell_length_c   8.59950253
_cell_angle_alpha   90.00000000
_cell_angle_beta   90.00000000
_cell_angle_gamma   120.00000000
_symmetry_Int_Tables_number   1
_chemical_formula_structural   K2Al2B2O7
_chemical_formula_sum   'K6 Al6 B6 O21'
_cell_volume   558.64847568
_cell_formula_units_Z   3
loop_
 _symmetry_equiv_pos_site_id
 _symmetry_equiv_pos_as_xyz
  1  'x, y, z'
loop_
 _atom_site_type_symbol
 _atom_site_label
 _atom_site_symmetry_multiplicity
 _atom_site_fract_x
 _atom_site_fract_y
 _atom_site_fract_z
 _atom_site_occupancy
  K  K0  1  0.358328  0.000000  0.500000  1
  K  K1  1  0.000000  0.309949  0.000000  1
  K  K2  1  0.309949  0.000000  0.000000  1
  K  K3  1  0.641672  0.641672  0.500000  1
  K  K4  1  0.690051  0.690051  0.000000  1
  K  K5  1  0.000000  0.358328  0.500000  1
  Al  Al6  1  0.000000  0.000000  0.700707  1
  Al  Al7  1  0.666667  0.333333  0.221187  1
  Al  Al8  1  0.333333  0.666667  0.778813  1
  Al  Al9  1  0.000000  0.000000  0.299293  1
  Al  Al10  1  0.333333  0.666667  0.182646  1
  Al  Al11  1  0.666667  0.333333  0.817354  1
  B  B12  1  0.335066  0.333984  0.256588  1
  B  B13  1  0.333984  0.335066  0.743412  1
  B  B14  1  0.001081  0.666016  0.743412  1
  B  B15  1  0.998919  0.664934  0.256588  1
  B  B16  1  0.666016  0.001081  0.256588  1
  B  B17  1  0.664934  0.998919  0.743412  1
  O  O18  1  0.726641  0.178322  0.292518  1
  O  O19  1  0.273359  0.451681  0.707482  1
  O  O20  1  0.157501  0.213796  0.226304  1
  O  O21  1  0.451681  0.273359  0.292518  1
  O  O22  1  0.213796  0.157501  0.773696  1
  O  O23  1  0.882898  0.484657  0.747729  1
  O  O24  1  0.398241  0.515343  0.252271  1
  O  O25  1  0.333333  0.666667  0.980802  1
  O  O26  1  0.117102  0.601759  0.252271  1
  O  O27  1  0.821678  0.548319  0.292518  1
  O  O28  1  0.178322  0.726641  0.707482  1
  O  O29  1  0.484657  0.882898  0.252271  1
  O  O30  1  0.943705  0.786204  0.773696  1
  O  O31  1  0.515343  0.398241  0.747729  1
  O  O32  1  0.056295  0.842499  0.226304  1
  O  O33  1  0.786204  0.943705  0.226304  1
  O  O34  1  0.548319  0.821678  0.707482  1
  O  O35  1  0.666667  0.333333  0.019198  1
  O  O36  1  0.000000  0.000000  0.500000  1
  O  O37  1  0.842499  0.056295  0.773696  1
  O  O38  1  0.601759  0.117102  0.747729  1
