# generated using pymatgen
data_Fe3B7ClO13
_symmetry_space_group_name_H-M   'P 1'
_cell_length_a   8.70715965
_cell_length_b   8.70715965
_cell_length_c   8.70715965
_cell_angle_alpha   60.09888588
_cell_angle_beta   60.09888588
_cell_angle_gamma   60.09888588
_symmetry_Int_Tables_number   1
_chemical_formula_structural   Fe3B7ClO13
_chemical_formula_sum   'Fe6 B14 Cl2 O26'
_cell_volume   467.82832273
_cell_formula_units_Z   2
loop_
 _symmetry_equiv_pos_site_id
 _symmetry_equiv_pos_as_xyz
  1  'x, y, z'
loop_
 _atom_site_type_symbol
 _atom_site_label
 _atom_site_symmetry_multiplicity
 _atom_site_fract_x
 _atom_site_fract_y
 _atom_site_fract_z
 _atom_site_occupancy
  Fe  Fe0  1  0.026937  0.467201  0.025781  1
  Fe  Fe1  1  0.967201  0.526937  0.525781  1
  Fe  Fe2  1  0.526937  0.525781  0.967201  1
  Fe  Fe3  1  0.025781  0.026937  0.467201  1
  Fe  Fe4  1  0.467201  0.025781  0.026937  1
  Fe  Fe5  1  0.525781  0.967201  0.526937  1
  B  B6  1  0.429245  0.426530  0.731881  1
  B  B7  1  0.245452  0.751705  0.754685  1
  B  B8  1  0.896999  0.896999  0.896999  1
  B  B9  1  0.751705  0.754685  0.245452  1
  B  B10  1  0.396999  0.396999  0.396999  1
  B  B11  1  0.926530  0.929245  0.231881  1
  B  B12  1  0.929245  0.231881  0.926530  1
  B  B13  1  0.745452  0.254685  0.251705  1
  B  B14  1  0.254685  0.251705  0.745452  1
  B  B15  1  0.731881  0.429245  0.426530  1
  B  B16  1  0.426530  0.731881  0.429245  1
  B  B17  1  0.231881  0.926530  0.929245  1
  B  B18  1  0.754685  0.245452  0.751705  1
  B  B19  1  0.251705  0.745452  0.254685  1
  Cl  Cl20  1  0.232493  0.232493  0.232493  1
  Cl  Cl21  1  0.732493  0.732493  0.732493  1
  O  O22  1  0.257242  0.396690  0.782516  1
  O  O23  1  0.312878  0.064674  0.884716  1
  O  O24  1  0.513602  0.513602  0.513602  1
  O  O25  1  0.567100  0.250383  0.797435  1
  O  O26  1  0.896690  0.757242  0.282516  1
  O  O27  1  0.782516  0.257242  0.396690  1
  O  O28  1  0.236902  0.553470  0.392010  1
  O  O29  1  0.553470  0.392010  0.236902  1
  O  O30  1  0.736902  0.892010  0.053470  1
  O  O31  1  0.564674  0.812878  0.384716  1
  O  O32  1  0.384716  0.564674  0.812878  1
  O  O33  1  0.282516  0.896690  0.757242  1
  O  O34  1  0.797435  0.567100  0.250383  1
  O  O35  1  0.757242  0.282516  0.896690  1
  O  O36  1  0.250383  0.797435  0.567100  1
  O  O37  1  0.064674  0.884716  0.312878  1
  O  O38  1  0.812878  0.384716  0.564674  1
  O  O39  1  0.892010  0.053470  0.736902  1
  O  O40  1  0.013602  0.013602  0.013602  1
  O  O41  1  0.067100  0.297435  0.750383  1
  O  O42  1  0.396690  0.782516  0.257242  1
  O  O43  1  0.297435  0.750383  0.067100  1
  O  O44  1  0.392010  0.236902  0.553470  1
  O  O45  1  0.053470  0.736902  0.892010  1
  O  O46  1  0.884716  0.312878  0.064674  1
  O  O47  1  0.750383  0.067100  0.297435  1
