# generated using pymatgen
data_Sr2Cu3(ClO2)2
_symmetry_space_group_name_H-M   'P 1'
_cell_length_a   7.55502839
_cell_length_b   7.55502839
_cell_length_c   7.55502839
_cell_angle_alpha   137.38813483
_cell_angle_beta   137.38813483
_cell_angle_gamma   61.84140273
_symmetry_Int_Tables_number   1
_chemical_formula_structural   Sr2Cu3(ClO2)2
_chemical_formula_sum   'Sr2 Cu3 Cl2 O4'
_cell_volume   195.36164853
_cell_formula_units_Z   1
loop_
 _symmetry_equiv_pos_site_id
 _symmetry_equiv_pos_as_xyz
  1  'x, y, z'
loop_
 _atom_site_type_symbol
 _atom_site_label
 _atom_site_symmetry_multiplicity
 _atom_site_fract_x
 _atom_site_fract_y
 _atom_site_fract_z
 _atom_site_occupancy
  Sr  Sr0  1  0.361063  0.361063  0.000000  1
  Sr  Sr1  1  0.638937  0.638937  0.000000  1
  Cu  Cu2  1  1.000000  1.000000  0.000000  1
  Cu  Cu3  1  1.000000  0.500000  0.500000  1
  Cu  Cu4  1  0.500000  1.000000  0.500000  1
  Cl  Cl5  1  0.250000  0.750000  0.500000  1
  Cl  Cl6  1  0.750000  0.250000  0.500000  1
  O  O7  1  0.250679  0.749321  1.000000  1
  O  O8  1  0.749321  0.250679  1.000000  1
  O  O9  1  0.250679  0.250679  0.501358  1
  O  O10  1  0.749321  0.749321  0.498642  1
