# generated using pymatgen
data_SiO2
_symmetry_space_group_name_H-M   'P 1'
_cell_length_a   5.18083559
_cell_length_b   5.32858133
_cell_length_c   7.01502778
_cell_angle_alpha   72.37938436
_cell_angle_beta   74.86180554
_cell_angle_gamma   84.42699037
_symmetry_Int_Tables_number   1
_chemical_formula_structural   SiO2
_chemical_formula_sum   'Si4 O8'
_cell_volume   178.13490580
_cell_formula_units_Z   4
loop_
 _symmetry_equiv_pos_site_id
 _symmetry_equiv_pos_as_xyz
  1  'x, y, z'
loop_
 _atom_site_type_symbol
 _atom_site_label
 _atom_site_symmetry_multiplicity
 _atom_site_fract_x
 _atom_site_fract_y
 _atom_site_fract_z
 _atom_site_occupancy
  Si  Si0  1  0.391759  0.722603  0.591725  1
  Si  Si1  1  0.431224  0.629024  0.051739  1
  Si  Si2  1  0.188218  0.283235  0.438641  1
  Si  Si3  1  0.859936  0.687593  0.248295  1
  O  O4  1  0.449563  0.628652  0.819303  1
  O  O5  1  0.185539  0.976933  0.573503  1
  O  O6  1  0.262787  0.473332  0.561977  1
  O  O7  1  0.711321  0.735089  0.060823  1
  O  O8  1  0.670901  0.821511  0.418216  1
  O  O9  1  0.164864  0.801873  0.137426  1
  O  O10  1  0.897611  0.378623  0.383991  1
  O  O11  1  0.400726  0.329994  0.211681  1
