# generated using pymatgen
data_Li2Cu5(Si2O7)2
_symmetry_space_group_name_H-M   'P 1'
_cell_length_a   5.53674991
_cell_length_b   7.54397347
_cell_length_c   7.86880571
_cell_angle_alpha   115.12662065
_cell_angle_beta   89.83682106
_cell_angle_gamma   106.77743793
_symmetry_Int_Tables_number   1
_chemical_formula_structural   Li2Cu5(Si2O7)2
_chemical_formula_sum   'Li2 Cu5 Si4 O14'
_cell_volume   282.17408784
_cell_formula_units_Z   1
loop_
 _symmetry_equiv_pos_site_id
 _symmetry_equiv_pos_as_xyz
  1  'x, y, z'
loop_
 _atom_site_type_symbol
 _atom_site_label
 _atom_site_symmetry_multiplicity
 _atom_site_fract_x
 _atom_site_fract_y
 _atom_site_fract_z
 _atom_site_occupancy
  Li  Li0  1  0.762436  0.887639  0.551309  1
  Li  Li1  1  0.237564  0.112361  0.448691  1
  Cu  Cu2  1  0.079389  0.387972  0.814594  1
  Cu  Cu3  1  0.920611  0.612028  0.185406  1
  Cu  Cu4  1  0.329333  0.428230  0.285530  1
  Cu  Cu5  1  0.670667  0.571770  0.714470  1
  Cu  Cu6  1  0.000000  0.000000  0.000000  1
  Si  Si7  1  0.801985  0.214052  0.403349  1
  Si  Si8  1  0.494735  0.228394  0.860213  1
  Si  Si9  1  0.505265  0.771606  0.139787  1
  Si  Si10  1  0.198015  0.785948  0.596651  1
  O  O11  1  0.101125  0.825149  0.422911  1
  O  O12  1  0.696577  0.773907  0.980025  1
  O  O13  1  0.409414  0.337500  0.735219  1
  O  O14  1  0.968170  0.812133  0.734201  1
  O  O15  1  0.461365  0.985153  0.715732  1
  O  O16  1  0.590586  0.662500  0.264781  1
  O  O17  1  0.289715  0.585849  0.543649  1
  O  O18  1  0.710285  0.414151  0.456351  1
  O  O19  1  0.031830  0.187867  0.265799  1
  O  O20  1  0.303423  0.226093  0.019975  1
  O  O21  1  0.789806  0.350452  0.960678  1
  O  O22  1  0.898875  0.174851  0.577089  1
  O  O23  1  0.210194  0.649548  0.039322  1
  O  O24  1  0.538635  0.014847  0.284268  1
