# generated using pymatgen
data_Sr2Li3TaN4
_symmetry_space_group_name_H-M   'P 1'
_cell_length_a   7.04132938
_cell_length_b   8.74304720
_cell_length_c   9.03594438
_cell_angle_alpha   90.00000000
_cell_angle_beta   90.00000000
_cell_angle_gamma   90.00000000
_symmetry_Int_Tables_number   1
_chemical_formula_structural   Sr2Li3TaN4
_chemical_formula_sum   'Sr8 Li12 Ta4 N16'
_cell_volume   556.27690827
_cell_formula_units_Z   4
loop_
 _symmetry_equiv_pos_site_id
 _symmetry_equiv_pos_as_xyz
  1  'x, y, z'
loop_
 _atom_site_type_symbol
 _atom_site_label
 _atom_site_symmetry_multiplicity
 _atom_site_fract_x
 _atom_site_fract_y
 _atom_site_fract_z
 _atom_site_occupancy
  Sr  Sr0  1  0.000000  0.242291  0.754113  1
  Sr  Sr1  1  0.000000  0.757709  0.245887  1
  Sr  Sr2  1  0.500000  0.742291  0.745887  1
  Sr  Sr3  1  0.500000  0.257709  0.254113  1
  Sr  Sr4  1  0.260199  0.000000  0.000000  1
  Sr  Sr5  1  0.239801  0.500000  0.500000  1
  Sr  Sr6  1  0.739801  0.000000  0.000000  1
  Sr  Sr7  1  0.760199  0.500000  0.500000  1
  Li  Li8  1  0.237559  0.018967  0.365200  1
  Li  Li9  1  0.237559  0.981033  0.634800  1
  Li  Li10  1  0.262441  0.518967  0.134800  1
  Li  Li11  1  0.262441  0.481033  0.865200  1
  Li  Li12  1  0.762441  0.981033  0.634800  1
  Li  Li13  1  0.762441  0.018967  0.365200  1
  Li  Li14  1  0.737559  0.481033  0.865200  1
  Li  Li15  1  0.737559  0.518967  0.134800  1
  Li  Li16  1  0.000000  0.205880  0.422541  1
  Li  Li17  1  0.000000  0.794120  0.577459  1
  Li  Li18  1  0.500000  0.705880  0.077459  1
  Li  Li19  1  0.500000  0.294120  0.922541  1
  Ta  Ta20  1  0.000000  0.285683  0.137493  1
  Ta  Ta21  1  0.000000  0.714317  0.862507  1
  Ta  Ta22  1  0.500000  0.785683  0.362507  1
  Ta  Ta23  1  0.500000  0.214317  0.637493  1
  N  N24  1  0.234019  0.302077  0.019152  1
  N  N25  1  0.234019  0.697923  0.980848  1
  N  N26  1  0.265981  0.802077  0.480848  1
  N  N27  1  0.265981  0.197923  0.519152  1
  N  N28  1  0.765981  0.697923  0.980848  1
  N  N29  1  0.765981  0.302077  0.019152  1
  N  N30  1  0.734019  0.197923  0.519152  1
  N  N31  1  0.734019  0.802077  0.480848  1
  N  N32  1  0.000000  0.074095  0.220858  1
  N  N33  1  0.000000  0.925905  0.779142  1
  N  N34  1  0.500000  0.574095  0.279142  1
  N  N35  1  0.500000  0.425905  0.720858  1
  N  N36  1  0.000000  0.452599  0.283803  1
  N  N37  1  0.000000  0.547401  0.716197  1
  N  N38  1  0.500000  0.952599  0.216197  1
  N  N39  1  0.500000  0.047401  0.783803  1
