# generated using pymatgen
data_Cs2Bi4O7
_symmetry_space_group_name_H-M   'P 1'
_cell_length_a   13.00015200
_cell_length_b   13.00015200
_cell_length_c   16.14734460
_cell_angle_alpha   85.34704922
_cell_angle_beta   94.65295078
_cell_angle_gamma   118.81929223
_symmetry_Int_Tables_number   1
_chemical_formula_structural   Cs2Bi4O7
_chemical_formula_sum   'Cs16 Bi32 O56'
_cell_volume   2380.32765119
_cell_formula_units_Z   8
loop_
 _symmetry_equiv_pos_site_id
 _symmetry_equiv_pos_as_xyz
  1  'x, y, z'
loop_
 _atom_site_type_symbol
 _atom_site_label
 _atom_site_symmetry_multiplicity
 _atom_site_fract_x
 _atom_site_fract_y
 _atom_site_fract_z
 _atom_site_occupancy
  Cs  Cs0  1  0.377554  0.020847  0.795335  1
  Cs  Cs1  1  0.031786  0.878356  0.705291  1
  Cs  Cs2  1  0.134850  0.455942  0.206198  1
  Cs  Cs3  1  0.121644  0.968214  0.205291  1
  Cs  Cs4  1  0.020847  0.377554  0.704665  1
  Cs  Cs5  1  0.361871  0.533124  0.788644  1
  Cs  Cs6  1  0.544058  0.865150  0.706198  1
  Cs  Cs7  1  0.968214  0.121644  0.294709  1
  Cs  Cs8  1  0.455942  0.134850  0.293802  1
  Cs  Cs9  1  0.638129  0.466876  0.211356  1
  Cs  Cs10  1  0.466876  0.638129  0.288644  1
  Cs  Cs11  1  0.622446  0.979153  0.204665  1
  Cs  Cs12  1  0.865150  0.544058  0.793802  1
  Cs  Cs13  1  0.979153  0.622446  0.295335  1
  Cs  Cs14  1  0.878356  0.031786  0.794709  1
  Cs  Cs15  1  0.533124  0.361871  0.711356  1
  Bi  Bi16  1  0.697723  0.702760  0.619435  1
  Bi  Bi17  1  0.459532  0.598477  0.033472  1
  Bi  Bi18  1  0.905846  0.113880  0.541956  1
  Bi  Bi19  1  0.389741  0.094130  0.043177  1
  Bi  Bi20  1  0.540468  0.401523  0.966528  1
  Bi  Bi21  1  0.599154  0.963057  0.461960  1
  Bi  Bi22  1  0.207820  0.699512  0.886355  1
  Bi  Bi23  1  0.094130  0.389741  0.456823  1
  Bi  Bi24  1  0.886120  0.094154  0.041956  1
  Bi  Bi25  1  0.094154  0.886120  0.458044  1
  Bi  Bi26  1  0.598477  0.459532  0.466528  1
  Bi  Bi27  1  0.297240  0.302277  0.119435  1
  Bi  Bi28  1  0.241027  0.207581  0.879446  1
  Bi  Bi29  1  0.302277  0.297240  0.380565  1
  Bi  Bi30  1  0.207476  0.735187  0.628324  1
  Bi  Bi31  1  0.758973  0.792419  0.120554  1
  Bi  Bi32  1  0.792180  0.300488  0.113645  1
  Bi  Bi33  1  0.401523  0.540468  0.533472  1
  Bi  Bi34  1  0.792419  0.758973  0.379446  1
  Bi  Bi35  1  0.735187  0.207476  0.871676  1
  Bi  Bi36  1  0.300488  0.792180  0.386355  1
  Bi  Bi37  1  0.610259  0.905870  0.956823  1
  Bi  Bi38  1  0.963057  0.599154  0.038040  1
  Bi  Bi39  1  0.699512  0.207820  0.613645  1
  Bi  Bi40  1  0.792524  0.264813  0.371676  1
  Bi  Bi41  1  0.207581  0.241027  0.620554  1
  Bi  Bi42  1  0.264813  0.792524  0.128324  1
  Bi  Bi43  1  0.702760  0.697723  0.880565  1
  Bi  Bi44  1  0.400846  0.036943  0.538040  1
  Bi  Bi45  1  0.113880  0.905846  0.958044  1
  Bi  Bi46  1  0.905870  0.610259  0.543177  1
  Bi  Bi47  1  0.036943  0.400846  0.961960  1
  O  O48  1  0.585063  0.768797  0.101292  1
  O  O49  1  0.434855  0.259452  0.118485  1
  O  O50  1  0.085560  0.221802  0.475167  1
  O  O51  1  0.615627  0.585263  0.027430  1
  O  O52  1  0.024446  0.154573  0.651699  1
  O  O53  1  0.652993  0.024145  0.845004  1
  O  O54  1  0.414737  0.384373  0.527430  1
  O  O55  1  0.116561  0.583200  0.026993  1
  O  O56  1  0.259452  0.434855  0.381515  1
  O  O57  1  0.268175  0.753707  0.758597  1
  O  O58  1  0.740548  0.565145  0.618485  1
  O  O59  1  0.347007  0.975855  0.154996  1
  O  O60  1  0.749586  0.749586  0.750000  1
  O  O61  1  0.221802  0.085560  0.024833  1
  O  O62  1  0.845427  0.975554  0.151699  1
  O  O63  1  0.281872  0.914844  0.977913  1
  O  O64  1  0.761000  0.087962  0.387871  1
  O  O65  1  0.914844  0.281872  0.522087  1
  O  O66  1  0.517696  0.099837  0.646640  1
  O  O67  1  0.414937  0.231203  0.898708  1
  O  O68  1  0.914440  0.778198  0.524833  1
  O  O69  1  0.085156  0.718128  0.477913  1
  O  O70  1  0.416800  0.883439  0.526993  1
  O  O71  1  0.753707  0.268175  0.741403  1
  O  O72  1  0.401486  0.486855  0.145705  1
  O  O73  1  0.024145  0.652993  0.654996  1
  O  O74  1  0.731825  0.246293  0.241403  1
  O  O75  1  0.246293  0.731825  0.258597  1
  O  O76  1  0.253176  0.927681  0.381085  1
  O  O77  1  0.900163  0.482304  0.146640  1
  O  O78  1  0.912038  0.239000  0.887871  1
  O  O79  1  0.239000  0.912038  0.612129  1
  O  O80  1  0.585263  0.615627  0.472570  1
  O  O81  1  0.768797  0.585063  0.398708  1
  O  O82  1  0.975855  0.347007  0.345004  1
  O  O83  1  0.746824  0.072319  0.618915  1
  O  O84  1  0.271499  0.271499  0.750000  1
  O  O85  1  0.250414  0.250414  0.250000  1
  O  O86  1  0.384373  0.414737  0.972570  1
  O  O87  1  0.728501  0.728501  0.250000  1
  O  O88  1  0.718128  0.085156  0.022087  1
  O  O89  1  0.486855  0.401486  0.354295  1
  O  O90  1  0.482304  0.900163  0.353360  1
  O  O91  1  0.072319  0.746824  0.881085  1
  O  O92  1  0.927681  0.253176  0.118915  1
  O  O93  1  0.778198  0.914440  0.975167  1
  O  O94  1  0.513145  0.598514  0.645705  1
  O  O95  1  0.565145  0.740548  0.881515  1
  O  O96  1  0.154573  0.024446  0.848301  1
  O  O97  1  0.087962  0.761000  0.112129  1
  O  O98  1  0.598514  0.513145  0.854295  1
  O  O99  1  0.975554  0.845427  0.348301  1
  O  O100  1  0.099837  0.517696  0.853360  1
  O  O101  1  0.883439  0.416800  0.973007  1
  O  O102  1  0.231203  0.414937  0.601292  1
  O  O103  1  0.583200  0.116561  0.473007  1
