# generated using pymatgen
data_Cd3Se3O10
_symmetry_space_group_name_H-M   'P 1'
_cell_length_a   8.57696753
_cell_length_b   5.45225897
_cell_length_c   10.98533597
_cell_angle_alpha   90.00000000
_cell_angle_beta   108.41863770
_cell_angle_gamma   90.00000000
_symmetry_Int_Tables_number   1
_chemical_formula_structural   Cd3Se3O10
_chemical_formula_sum   'Cd6 Se6 O20'
_cell_volume   487.40056969
_cell_formula_units_Z   2
loop_
 _symmetry_equiv_pos_site_id
 _symmetry_equiv_pos_as_xyz
  1  'x, y, z'
loop_
 _atom_site_type_symbol
 _atom_site_label
 _atom_site_symmetry_multiplicity
 _atom_site_fract_x
 _atom_site_fract_y
 _atom_site_fract_z
 _atom_site_occupancy
  Cd  Cd0  1  0.991085  0.749149  0.125061  1
  Cd  Cd1  1  0.008915  0.249149  0.874939  1
  Cd  Cd2  1  0.975510  0.739270  0.616174  1
  Cd  Cd3  1  0.024490  0.239270  0.383826  1
  Cd  Cd4  1  0.367018  0.264558  0.203857  1
  Cd  Cd5  1  0.632982  0.764558  0.796143  1
  Se  Se6  1  0.251641  0.775690  0.955445  1
  Se  Se7  1  0.748359  0.275690  0.044555  1
  Se  Se8  1  0.264564  0.714190  0.425397  1
  Se  Se9  1  0.735436  0.214190  0.574603  1
  Se  Se10  1  0.650391  0.753089  0.283461  1
  Se  Se11  1  0.349609  0.253089  0.716539  1
  O  O12  1  0.093944  0.871265  0.821835  1
  O  O13  1  0.906056  0.371265  0.178165  1
  O  O14  1  0.114002  0.605140  0.487001  1
  O  O15  1  0.885998  0.105140  0.512999  1
  O  O16  1  0.152113  0.926580  0.310697  1
  O  O17  1  0.847887  0.426580  0.689303  1
  O  O18  1  0.154745  0.546219  0.018813  1
  O  O19  1  0.845255  0.046219  0.981187  1
  O  O20  1  0.222415  0.015414  0.050838  1
  O  O21  1  0.777585  0.515414  0.949162  1
  O  O22  1  0.249744  0.461938  0.326809  1
  O  O23  1  0.750256  0.961938  0.673191  1
  O  O24  1  0.526124  0.956749  0.323361  1
  O  O25  1  0.473876  0.456749  0.676639  1
  O  O26  1  0.533840  0.560852  0.168371  1
  O  O27  1  0.466160  0.060852  0.831629  1
  O  O28  1  0.749353  0.588760  0.412337  1
  O  O29  1  0.250647  0.088760  0.587663  1
  O  O30  1  0.777225  0.903036  0.220789  1
  O  O31  1  0.222775  0.403036  0.779211  1
