# generated using pymatgen
data_CeNiSb3
_symmetry_space_group_name_H-M   'P 1'
_cell_length_a   6.25854298
_cell_length_b   12.23214406
_cell_length_c   12.53379931
_cell_angle_alpha   90.00000000
_cell_angle_beta   90.00000000
_cell_angle_gamma   90.00000000
_symmetry_Int_Tables_number   1
_chemical_formula_structural   CeNiSb3
_chemical_formula_sum   'Ce8 Ni8 Sb24'
_cell_volume   959.53001139
_cell_formula_units_Z   8
loop_
 _symmetry_equiv_pos_site_id
 _symmetry_equiv_pos_as_xyz
  1  'x, y, z'
loop_
 _atom_site_type_symbol
 _atom_site_label
 _atom_site_symmetry_multiplicity
 _atom_site_fract_x
 _atom_site_fract_y
 _atom_site_fract_z
 _atom_site_occupancy
  Ce  Ce0  1  0.281811  0.750000  0.304040  1
  Ce  Ce1  1  0.750000  0.500000  0.300334  1
  Ce  Ce2  1  0.781811  0.750000  0.695960  1
  Ce  Ce3  1  0.750000  0.000000  0.300334  1
  Ce  Ce4  1  0.718189  0.250000  0.695960  1
  Ce  Ce5  1  0.250000  0.000000  0.699666  1
  Ce  Ce6  1  0.218189  0.250000  0.304040  1
  Ce  Ce7  1  0.250000  0.500000  0.699666  1
  Ni  Ni8  1  0.954760  0.136304  0.899948  1
  Ni  Ni9  1  0.045240  0.636304  0.100052  1
  Ni  Ni10  1  0.954760  0.363696  0.899948  1
  Ni  Ni11  1  0.545240  0.636304  0.899948  1
  Ni  Ni12  1  0.545240  0.863696  0.899948  1
  Ni  Ni13  1  0.454760  0.363696  0.100052  1
  Ni  Ni14  1  0.045240  0.863696  0.100052  1
  Ni  Ni15  1  0.454760  0.136304  0.100052  1
  Sb  Sb16  1  0.717561  0.250000  0.227205  1
  Sb  Sb17  1  0.750000  0.500000  0.771720  1
  Sb  Sb18  1  0.483755  0.375936  0.496804  1
  Sb  Sb19  1  0.597405  0.250000  0.941966  1
  Sb  Sb20  1  0.750000  0.000000  0.771720  1
  Sb  Sb21  1  0.282439  0.750000  0.772795  1
  Sb  Sb22  1  0.250000  0.000000  0.970454  1
  Sb  Sb23  1  0.250000  0.500000  0.970454  1
  Sb  Sb24  1  0.483755  0.124064  0.496804  1
  Sb  Sb25  1  0.902595  0.750000  0.941966  1
  Sb  Sb26  1  0.250000  0.000000  0.228280  1
  Sb  Sb27  1  0.016245  0.624064  0.496804  1
  Sb  Sb28  1  0.782439  0.750000  0.227205  1
  Sb  Sb29  1  0.750000  0.000000  0.029546  1
  Sb  Sb30  1  0.402595  0.750000  0.058034  1
  Sb  Sb31  1  0.516245  0.624064  0.503196  1
  Sb  Sb32  1  0.983755  0.375936  0.503196  1
  Sb  Sb33  1  0.750000  0.500000  0.029546  1
  Sb  Sb34  1  0.250000  0.500000  0.228280  1
  Sb  Sb35  1  0.217561  0.250000  0.772795  1
  Sb  Sb36  1  0.516245  0.875936  0.503196  1
  Sb  Sb37  1  0.016245  0.875936  0.496804  1
  Sb  Sb38  1  0.097405  0.250000  0.058034  1
  Sb  Sb39  1  0.983755  0.124064  0.503196  1
