# generated using pymatgen
data_Al17Mo4
_symmetry_space_group_name_H-M   'P 1'
_cell_length_a   5.21592641
_cell_length_b   5.21592641
_cell_length_c   28.97887068
_cell_angle_alpha   84.14548951
_cell_angle_beta   95.85451049
_cell_angle_gamma   123.49616144
_symmetry_Int_Tables_number   1
_chemical_formula_structural   Al17Mo4
_chemical_formula_sum   'Al34 Mo8'
_cell_volume   653.03851467
_cell_formula_units_Z   2
loop_
 _symmetry_equiv_pos_site_id
 _symmetry_equiv_pos_as_xyz
  1  'x, y, z'
loop_
 _atom_site_type_symbol
 _atom_site_label
 _atom_site_symmetry_multiplicity
 _atom_site_fract_x
 _atom_site_fract_y
 _atom_site_fract_z
 _atom_site_occupancy
  Al  Al0  1  0.264390  0.010184  0.007111  1
  Al  Al1  1  0.306038  0.306038  0.750000  1
  Al  Al2  1  0.909059  0.713653  0.605497  1
  Al  Al3  1  0.204780  0.139662  0.200647  1
  Al  Al4  1  0.795220  0.860338  0.799353  1
  Al  Al5  1  0.860338  0.795220  0.700647  1
  Al  Al6  1  0.021768  0.283406  0.585703  1
  Al  Al7  1  0.713653  0.909059  0.894503  1
  Al  Al8  1  0.154139  0.520295  0.130340  1
  Al  Al9  1  0.139662  0.204780  0.299353  1
  Al  Al10  1  0.735610  0.989816  0.992889  1
  Al  Al11  1  0.732239  0.609948  0.156035  1
  Al  Al12  1  0.877202  0.425623  0.772809  1
  Al  Al13  1  0.122798  0.574377  0.227191  1
  Al  Al14  1  0.609948  0.732239  0.343965  1
  Al  Al15  1  0.978232  0.716594  0.414297  1
  Al  Al16  1  0.425623  0.877202  0.727191  1
  Al  Al17  1  0.286347  0.090941  0.105497  1
  Al  Al18  1  0.989816  0.735610  0.507111  1
  Al  Al19  1  0.390052  0.267761  0.656035  1
  Al  Al20  1  0.693962  0.693962  0.250000  1
  Al  Al21  1  0.716594  0.978232  0.085703  1
  Al  Al22  1  0.574377  0.122798  0.272809  1
  Al  Al23  1  0.788112  0.534910  0.054077  1
  Al  Al24  1  0.520295  0.154139  0.369660  1
  Al  Al25  1  0.534910  0.788112  0.445923  1
  Al  Al26  1  0.267761  0.390052  0.843965  1
  Al  Al27  1  0.090941  0.286347  0.394503  1
  Al  Al28  1  0.283406  0.021768  0.914297  1
  Al  Al29  1  0.010184  0.264390  0.492889  1
  Al  Al30  1  0.465090  0.211888  0.554077  1
  Al  Al31  1  0.479705  0.845861  0.630340  1
  Al  Al32  1  0.845861  0.479705  0.869660  1
  Al  Al33  1  0.211888  0.465090  0.945923  1
  Mo  Mo34  1  0.471034  0.247833  0.458850  1
  Mo  Mo35  1  0.641154  0.048448  0.179732  1
  Mo  Mo36  1  0.951552  0.358846  0.679732  1
  Mo  Mo37  1  0.358846  0.951552  0.820268  1
  Mo  Mo38  1  0.528966  0.752167  0.541150  1
  Mo  Mo39  1  0.048448  0.641154  0.320268  1
  Mo  Mo40  1  0.247833  0.471034  0.041150  1
  Mo  Mo41  1  0.752167  0.528966  0.958850  1
