# generated using pymatgen
data_Sc2Si2O7
_symmetry_space_group_name_H-M   'P 1'
_cell_length_a   5.40394129
_cell_length_b   5.40394129
_cell_length_c   4.73692310
_cell_angle_alpha   82.22976650
_cell_angle_beta   97.77023350
_cell_angle_gamma   74.71059353
_symmetry_Int_Tables_number   1
_chemical_formula_structural   Sc2Si2O7
_chemical_formula_sum   'Sc2 Si2 O7'
_cell_volume   130.07957537
_cell_formula_units_Z   1
loop_
 _symmetry_equiv_pos_site_id
 _symmetry_equiv_pos_as_xyz
  1  'x, y, z'
loop_
 _atom_site_type_symbol
 _atom_site_label
 _atom_site_symmetry_multiplicity
 _atom_site_fract_x
 _atom_site_fract_y
 _atom_site_fract_z
 _atom_site_occupancy
  Sc  Sc0  1  0.310272  0.310272  0.000000  1
  Sc  Sc1  1  0.689728  0.689728  0.000000  1
  Si  Si2  1  0.776286  0.223714  0.593365  1
  Si  Si3  1  0.223714  0.776286  0.406635  1
  O  O4  1  0.392299  0.922622  0.211544  1
  O  O5  1  0.922622  0.392299  0.788456  1
  O  O6  1  0.607701  0.077378  0.788456  1
  O  O7  1  0.077378  0.607701  0.211544  1
  O  O8  1  0.000000  1.000000  0.500000  1
  O  O9  1  0.394624  0.605376  0.719638  1
  O  O10  1  0.605376  0.394624  0.280362  1
