# generated using pymatgen
data_Sm2B5
_symmetry_space_group_name_H-M   'P 1'
_cell_length_a   7.21330347
_cell_length_b   7.22120749
_cell_length_c   7.24964863
_cell_angle_alpha   90.00000000
_cell_angle_beta   102.06412190
_cell_angle_gamma   90.00000000
_symmetry_Int_Tables_number   1
_chemical_formula_structural   Sm2B5
_chemical_formula_sum   'Sm8 B20'
_cell_volume   369.28510023
_cell_formula_units_Z   4
loop_
 _symmetry_equiv_pos_site_id
 _symmetry_equiv_pos_as_xyz
  1  'x, y, z'
loop_
 _atom_site_type_symbol
 _atom_site_label
 _atom_site_symmetry_multiplicity
 _atom_site_fract_x
 _atom_site_fract_y
 _atom_site_fract_z
 _atom_site_occupancy
  Sm  Sm0  1  0.241211  0.184403  0.757112  1
  Sm  Sm1  1  0.758789  0.815597  0.242888  1
  Sm  Sm2  1  0.241211  0.315597  0.257112  1
  Sm  Sm3  1  0.233707  0.808568  0.131236  1
  Sm  Sm4  1  0.233707  0.691432  0.631236  1
  Sm  Sm5  1  0.758789  0.684403  0.742888  1
  Sm  Sm6  1  0.766293  0.308568  0.368764  1
  Sm  Sm7  1  0.766293  0.191432  0.868764  1
  B  B8  1  0.497461  0.672625  0.960416  1
  B  B9  1  0.502878  0.538372  0.173162  1
  B  B10  1  0.502539  0.172625  0.539584  1
  B  B11  1  0.497461  0.827375  0.460416  1
  B  B12  1  0.499091  0.410017  0.589966  1
  B  B13  1  0.316297  0.498272  0.962322  1
  B  B14  1  0.921554  0.507556  0.068929  1
  B  B15  1  0.683703  0.501728  0.037678  1
  B  B16  1  0.497122  0.461628  0.826838  1
  B  B17  1  0.078446  0.007556  0.431071  1
  B  B18  1  0.078446  0.492444  0.931071  1
  B  B19  1  0.921554  0.992444  0.568929  1
  B  B20  1  0.499091  0.089983  0.089966  1
  B  B21  1  0.500909  0.589983  0.410034  1
  B  B22  1  0.497122  0.038372  0.326838  1
  B  B23  1  0.502878  0.961628  0.673162  1
  B  B24  1  0.683703  0.998272  0.537678  1
  B  B25  1  0.316297  0.001728  0.462322  1
  B  B26  1  0.500909  0.910017  0.910034  1
  B  B27  1  0.502539  0.327375  0.039584  1
