# generated using pymatgen
data_LiCrPO5
_symmetry_space_group_name_H-M   'P 1'
_cell_length_a   6.76563422
_cell_length_b   6.98311129
_cell_length_c   8.06137188
_cell_angle_alpha   89.65788333
_cell_angle_beta   91.36303252
_cell_angle_gamma   115.60428870
_symmetry_Int_Tables_number   1
_chemical_formula_structural   LiCrPO5
_chemical_formula_sum   'Li4 Cr4 P4 O20'
_cell_volume   343.35935887
_cell_formula_units_Z   4
loop_
 _symmetry_equiv_pos_site_id
 _symmetry_equiv_pos_as_xyz
  1  'x, y, z'
loop_
 _atom_site_type_symbol
 _atom_site_label
 _atom_site_symmetry_multiplicity
 _atom_site_fract_x
 _atom_site_fract_y
 _atom_site_fract_z
 _atom_site_occupancy
  Li  Li0  1  0.700263  0.191524  0.572530  1
  Li  Li1  1  0.220430  0.283585  0.072770  1
  Li  Li2  1  0.299737  0.808476  0.427470  1
  Li  Li3  1  0.779570  0.716415  0.927230  1
  Cr  Cr4  1  0.242864  0.495376  0.744245  1
  Cr  Cr5  1  0.244230  0.998848  0.755825  1
  Cr  Cr6  1  0.757136  0.504624  0.255755  1
  Cr  Cr7  1  0.755770  0.001152  0.244175  1
  P  P8  1  0.237195  0.751499  0.087571  1
  P  P9  1  0.737400  0.755435  0.587099  1
  P  P10  1  0.762805  0.248501  0.912429  1
  P  P11  1  0.262600  0.244565  0.412901  1
  O  O12  1  0.556330  0.084397  0.821586  1
  O  O13  1  0.644185  0.882552  0.474584  1
  O  O14  1  0.081883  0.640162  0.232995  1
  O  O15  1  0.736346  0.740473  0.176006  1
  O  O16  1  0.935376  0.912276  0.690796  1
  O  O17  1  0.717072  0.414319  0.013062  1
  O  O18  1  0.064624  0.087724  0.309204  1
  O  O19  1  0.443670  0.915603  0.178414  1
  O  O20  1  0.131789  0.864550  0.974132  1
  O  O21  1  0.263654  0.259527  0.823994  1
  O  O22  1  0.760297  0.256286  0.316656  1
  O  O23  1  0.239703  0.743714  0.683344  1
  O  O24  1  0.430293  0.374606  0.281071  1
  O  O25  1  0.569707  0.625394  0.718929  1
  O  O26  1  0.805718  0.609255  0.482025  1
  O  O27  1  0.194282  0.390745  0.517975  1
  O  O28  1  0.355815  0.117448  0.525416  1
  O  O29  1  0.868211  0.135450  0.025868  1
  O  O30  1  0.282928  0.585681  0.986938  1
  O  O31  1  0.918117  0.359838  0.767005  1
