# generated using pymatgen
data_KNa(BH4)2
_symmetry_space_group_name_H-M   'P 1'
_cell_length_a   4.70349017
_cell_length_b   4.70349017
_cell_length_c   7.29443079
_cell_angle_alpha   90.00000000
_cell_angle_beta   90.00000000
_cell_angle_gamma   120.00000000
_symmetry_Int_Tables_number   1
_chemical_formula_structural   KNa(BH4)2
_chemical_formula_sum   'K1 Na1 B2 H8'
_cell_volume   139.75344462
_cell_formula_units_Z   1
loop_
 _symmetry_equiv_pos_site_id
 _symmetry_equiv_pos_as_xyz
  1  'x, y, z'
loop_
 _atom_site_type_symbol
 _atom_site_label
 _atom_site_symmetry_multiplicity
 _atom_site_fract_x
 _atom_site_fract_y
 _atom_site_fract_z
 _atom_site_occupancy
  K  K0  1  0.000000  0.000000  0.158577  1
  Na  Na1  1  0.333333  0.666667  0.689493  1
  B  B2  1  0.333333  0.666667  0.339605  1
  B  B3  1  0.666667  0.333333  0.849186  1
  H  H4  1  0.333333  0.666667  0.171165  1
  H  H5  1  0.666667  0.333333  0.017061  1
  H  H6  1  0.809091  0.618181  0.791846  1
  H  H7  1  0.475900  0.951800  0.394445  1
  H  H8  1  0.809091  0.190909  0.791846  1
  H  H9  1  0.381819  0.190909  0.791846  1
  H  H10  1  0.048200  0.524100  0.394445  1
  H  H11  1  0.475900  0.524100  0.394445  1
