# generated using pymatgen
data_Ta4FeS8
_symmetry_space_group_name_H-M   'P 1'
_cell_length_a   6.62859537
_cell_length_b   6.62859537
_cell_length_c   11.74964812
_cell_angle_alpha   90.00000000
_cell_angle_beta   90.00000000
_cell_angle_gamma   120.00000000
_symmetry_Int_Tables_number   1
_chemical_formula_structural   Ta4FeS8
_chemical_formula_sum   'Ta8 Fe2 S16'
_cell_volume   447.09365964
_cell_formula_units_Z   2
loop_
 _symmetry_equiv_pos_site_id
 _symmetry_equiv_pos_as_xyz
  1  'x, y, z'
loop_
 _atom_site_type_symbol
 _atom_site_label
 _atom_site_symmetry_multiplicity
 _atom_site_fract_x
 _atom_site_fract_y
 _atom_site_fract_z
 _atom_site_occupancy
  Ta  Ta0  1  0.493871  0.987742  0.750000  1
  Ta  Ta1  1  0.506129  0.012258  0.250000  1
  Ta  Ta2  1  0.987742  0.493871  0.250000  1
  Ta  Ta3  1  0.493871  0.506129  0.750000  1
  Ta  Ta4  1  0.506129  0.493871  0.250000  1
  Ta  Ta5  1  0.012258  0.506129  0.750000  1
  Ta  Ta6  1  0.000000  0.000000  0.250000  1
  Ta  Ta7  1  0.000000  0.000000  0.750000  1
  Fe  Fe8  1  0.000000  0.000000  0.500000  1
  Fe  Fe9  1  0.000000  0.000000  0.000000  1
  S  S10  1  0.164769  0.835231  0.116162  1
  S  S11  1  0.670463  0.835231  0.383838  1
  S  S12  1  0.666667  0.333333  0.387209  1
  S  S13  1  0.835231  0.164769  0.883838  1
  S  S14  1  0.670463  0.835231  0.116162  1
  S  S15  1  0.329537  0.164769  0.883838  1
  S  S16  1  0.666667  0.333333  0.112791  1
  S  S17  1  0.835231  0.670463  0.616162  1
  S  S18  1  0.329537  0.164769  0.616162  1
  S  S19  1  0.164769  0.329537  0.383838  1
  S  S20  1  0.164769  0.329537  0.116162  1
  S  S21  1  0.835231  0.670463  0.883838  1
  S  S22  1  0.835231  0.164769  0.616162  1
  S  S23  1  0.164769  0.835231  0.383838  1
  S  S24  1  0.333333  0.666667  0.887209  1
  S  S25  1  0.333333  0.666667  0.612791  1
