# generated using pymatgen
data_Tl2CN2
_symmetry_space_group_name_H-M   'P 1'
_cell_length_a   5.40073807
_cell_length_b   7.08841547
_cell_length_c   10.05892163
_cell_angle_alpha   98.01379313
_cell_angle_beta   97.73385943
_cell_angle_gamma   112.00001674
_symmetry_Int_Tables_number   1
_chemical_formula_structural   Tl2CN2
_chemical_formula_sum   'Tl6 C3 N6'
_cell_volume   346.16076425
_cell_formula_units_Z   3
loop_
 _symmetry_equiv_pos_site_id
 _symmetry_equiv_pos_as_xyz
  1  'x, y, z'
loop_
 _atom_site_type_symbol
 _atom_site_label
 _atom_site_symmetry_multiplicity
 _atom_site_fract_x
 _atom_site_fract_y
 _atom_site_fract_z
 _atom_site_occupancy
  Tl  Tl0  1  0.825358  0.202035  0.952360  1
  Tl  Tl1  1  0.876406  0.063778  0.325880  1
  Tl  Tl2  1  0.123594  0.936222  0.674120  1
  Tl  Tl3  1  0.590525  0.468465  0.315357  1
  Tl  Tl4  1  0.174642  0.797965  0.047640  1
  Tl  Tl5  1  0.409475  0.531535  0.684643  1
  C  C6  1  0.771529  0.229447  0.642275  1
  C  C7  1  0.228471  0.770553  0.357725  1
  C  C8  1  0.500000  0.500000  0.000000  1
  N  N9  1  0.597857  0.247302  0.706025  1
  N  N10  1  0.713007  0.504235  0.067302  1
  N  N11  1  0.402143  0.752698  0.293975  1
  N  N12  1  0.286993  0.495765  0.932698  1
  N  N13  1  0.953864  0.211704  0.584921  1
  N  N14  1  0.046136  0.788296  0.415079  1
