# generated using pymatgen
data_SrZrSe3
_symmetry_space_group_name_H-M   'P 1'
_cell_length_a   3.99299359
_cell_length_b   9.06305310
_cell_length_c   14.65583823
_cell_angle_alpha   90.00000000
_cell_angle_beta   90.00000000
_cell_angle_gamma   90.00000000
_symmetry_Int_Tables_number   1
_chemical_formula_structural   SrZrSe3
_chemical_formula_sum   'Sr4 Zr4 Se12'
_cell_volume   530.37592251
_cell_formula_units_Z   4
loop_
 _symmetry_equiv_pos_site_id
 _symmetry_equiv_pos_as_xyz
  1  'x, y, z'
loop_
 _atom_site_type_symbol
 _atom_site_label
 _atom_site_symmetry_multiplicity
 _atom_site_fract_x
 _atom_site_fract_y
 _atom_site_fract_z
 _atom_site_occupancy
  Sr  Sr0  1  0.750000  0.559596  0.678464  1
  Sr  Sr1  1  0.250000  0.440404  0.321536  1
  Sr  Sr2  1  0.750000  0.059596  0.821536  1
  Sr  Sr3  1  0.250000  0.940404  0.178464  1
  Zr  Zr4  1  0.750000  0.830306  0.442608  1
  Zr  Zr5  1  0.250000  0.169694  0.557392  1
  Zr  Zr6  1  0.750000  0.330306  0.057392  1
  Zr  Zr7  1  0.250000  0.669694  0.942608  1
  Se  Se8  1  0.750000  0.980607  0.607751  1
  Se  Se9  1  0.250000  0.019393  0.392249  1
  Se  Se10  1  0.750000  0.480606  0.892249  1
  Se  Se11  1  0.250000  0.519393  0.107751  1
  Se  Se12  1  0.750000  0.839227  0.013300  1
  Se  Se13  1  0.250000  0.160773  0.986700  1
  Se  Se14  1  0.750000  0.339227  0.486700  1
  Se  Se15  1  0.250000  0.660773  0.513300  1
  Se  Se16  1  0.750000  0.710311  0.281031  1
  Se  Se17  1  0.250000  0.289689  0.718969  1
  Se  Se18  1  0.750000  0.210311  0.218969  1
  Se  Se19  1  0.250000  0.789689  0.781031  1
