# generated using pymatgen
data_ZrIr
_symmetry_space_group_name_H-M   'P 1'
_cell_length_a   10.06563506
_cell_length_b   10.06563506
_cell_length_c   4.38077827
_cell_angle_alpha   90.00000000
_cell_angle_beta   90.00000000
_cell_angle_gamma   160.32094501
_symmetry_Int_Tables_number   1
_chemical_formula_structural   ZrIr
_chemical_formula_sum   'Zr4 Ir4'
_cell_volume   149.46607199
_cell_formula_units_Z   4
loop_
 _symmetry_equiv_pos_site_id
 _symmetry_equiv_pos_as_xyz
  1  'x, y, z'
loop_
 _atom_site_type_symbol
 _atom_site_label
 _atom_site_symmetry_multiplicity
 _atom_site_fract_x
 _atom_site_fract_y
 _atom_site_fract_z
 _atom_site_occupancy
  Zr  Zr0  1  0.304835  0.695165  0.250000  1
  Zr  Zr1  1  0.561073  0.438927  0.250000  1
  Zr  Zr2  1  0.695165  0.304835  0.750000  1
  Zr  Zr3  1  0.438927  0.561073  0.750000  1
  Ir  Ir4  1  0.943195  0.056805  0.250000  1
  Ir  Ir5  1  0.167970  0.832030  0.250000  1
  Ir  Ir6  1  0.056805  0.943195  0.750000  1
  Ir  Ir7  1  0.832030  0.167970  0.750000  1
