# generated using pymatgen
data_Fe2(TeO3)3
_symmetry_space_group_name_H-M   'P 1'
_cell_length_a   7.63185524
_cell_length_b   9.65660048
_cell_length_c   11.23929667
_cell_angle_alpha   90.00000000
_cell_angle_beta   90.00000000
_cell_angle_gamma   90.00000000
_symmetry_Int_Tables_number   1
_chemical_formula_structural   Fe2(TeO3)3
_chemical_formula_sum   'Fe8 Te12 O36'
_cell_volume   828.31117882
_cell_formula_units_Z   4
loop_
 _symmetry_equiv_pos_site_id
 _symmetry_equiv_pos_as_xyz
  1  'x, y, z'
loop_
 _atom_site_type_symbol
 _atom_site_label
 _atom_site_symmetry_multiplicity
 _atom_site_fract_x
 _atom_site_fract_y
 _atom_site_fract_z
 _atom_site_occupancy
  Fe  Fe0  1  0.055741  0.226894  0.059027  1
  Fe  Fe1  1  0.444259  0.726894  0.440973  1
  Fe  Fe2  1  0.055741  0.726894  0.440973  1
  Fe  Fe3  1  0.555741  0.273106  0.559027  1
  Fe  Fe4  1  0.555741  0.773106  0.940973  1
  Fe  Fe5  1  0.944259  0.273106  0.559027  1
  Fe  Fe6  1  0.944259  0.773106  0.940973  1
  Fe  Fe7  1  0.444259  0.226894  0.059027  1
  Te  Te8  1  0.250000  0.890554  0.176807  1
  Te  Te9  1  0.750000  0.966927  0.163994  1
  Te  Te10  1  0.750000  0.459109  0.988815  1
  Te  Te11  1  0.750000  0.466927  0.336006  1
  Te  Te12  1  0.250000  0.390554  0.323193  1
  Te  Te13  1  0.750000  0.109446  0.823193  1
  Te  Te14  1  0.750000  0.609446  0.676807  1
  Te  Te15  1  0.250000  0.533073  0.663994  1
  Te  Te16  1  0.250000  0.040891  0.488815  1
  Te  Te17  1  0.250000  0.540891  0.011185  1
  Te  Te18  1  0.250000  0.033073  0.836006  1
  Te  Te19  1  0.750000  0.959109  0.511185  1
  O  O20  1  0.066702  0.597989  0.904390  1
  O  O21  1  0.062786  0.908473  0.843493  1
  O  O22  1  0.250000  0.261912  0.189475  1
  O  O23  1  0.065134  0.800251  0.096293  1
  O  O24  1  0.562786  0.091527  0.156507  1
  O  O25  1  0.750000  0.738088  0.810525  1
  O  O26  1  0.433298  0.097989  0.595610  1
  O  O27  1  0.062786  0.408473  0.656507  1
  O  O28  1  0.937214  0.591527  0.343493  1
  O  O29  1  0.937214  0.091527  0.156507  1
  O  O30  1  0.750000  0.649371  0.036852  1
  O  O31  1  0.250000  0.578713  0.490794  1
  O  O32  1  0.933298  0.402011  0.095610  1
  O  O33  1  0.565134  0.699749  0.596293  1
  O  O34  1  0.566702  0.402011  0.095610  1
  O  O35  1  0.433298  0.597989  0.904390  1
  O  O36  1  0.562786  0.591527  0.343493  1
  O  O37  1  0.250000  0.850629  0.536852  1
  O  O38  1  0.750000  0.421287  0.509206  1
  O  O39  1  0.437214  0.408473  0.656507  1
  O  O40  1  0.066702  0.097989  0.595610  1
  O  O41  1  0.250000  0.350629  0.963148  1
  O  O42  1  0.750000  0.238088  0.689475  1
  O  O43  1  0.750000  0.921287  0.990794  1
  O  O44  1  0.434866  0.300251  0.403707  1
  O  O45  1  0.933298  0.902011  0.404390  1
  O  O46  1  0.250000  0.078713  0.009206  1
  O  O47  1  0.434866  0.800251  0.096293  1
  O  O48  1  0.565134  0.199749  0.903707  1
  O  O49  1  0.934866  0.699749  0.596293  1
  O  O50  1  0.250000  0.761912  0.310525  1
  O  O51  1  0.566702  0.902011  0.404390  1
  O  O52  1  0.750000  0.149371  0.463148  1
  O  O53  1  0.437214  0.908473  0.843493  1
  O  O54  1  0.934866  0.199749  0.903707  1
  O  O55  1  0.065134  0.300251  0.403707  1
