# generated using pymatgen
data_Rb3VS4
_symmetry_space_group_name_H-M   'P 1'
_cell_length_a   9.55534324
_cell_length_b   9.57516822
_cell_length_c   11.14378837
_cell_angle_alpha   90.00000000
_cell_angle_beta   90.00000000
_cell_angle_gamma   90.00000000
_symmetry_Int_Tables_number   1
_chemical_formula_structural   Rb3VS4
_chemical_formula_sum   'Rb12 V4 S16'
_cell_volume   1019.58998400
_cell_formula_units_Z   4
loop_
 _symmetry_equiv_pos_site_id
 _symmetry_equiv_pos_as_xyz
  1  'x, y, z'
loop_
 _atom_site_type_symbol
 _atom_site_label
 _atom_site_symmetry_multiplicity
 _atom_site_fract_x
 _atom_site_fract_y
 _atom_site_fract_z
 _atom_site_occupancy
  Rb  Rb0  1  0.046772  0.791716  0.456731  1
  Rb  Rb1  1  0.453228  0.291716  0.543269  1
  Rb  Rb2  1  0.546772  0.708284  0.043269  1
  Rb  Rb3  1  0.953228  0.208284  0.956731  1
  Rb  Rb4  1  0.953228  0.208284  0.543269  1
  Rb  Rb5  1  0.546772  0.708284  0.456731  1
  Rb  Rb6  1  0.453228  0.291716  0.956731  1
  Rb  Rb7  1  0.046772  0.791716  0.043269  1
  Rb  Rb8  1  0.146240  0.587860  0.750000  1
  Rb  Rb9  1  0.353760  0.087860  0.250000  1
  Rb  Rb10  1  0.646240  0.912140  0.750000  1
  Rb  Rb11  1  0.853760  0.412140  0.250000  1
  V  V12  1  0.780089  0.983117  0.250000  1
  V  V13  1  0.719911  0.483117  0.750000  1
  V  V14  1  0.280089  0.516883  0.250000  1
  V  V15  1  0.219911  0.016883  0.750000  1
  S  S16  1  0.794280  0.757427  0.250000  1
  S  S17  1  0.705720  0.257427  0.750000  1
  S  S18  1  0.294280  0.742573  0.250000  1
  S  S19  1  0.205720  0.242573  0.750000  1
  S  S20  1  0.010028  0.929161  0.750000  1
  S  S21  1  0.489972  0.429161  0.250000  1
  S  S22  1  0.510028  0.570839  0.750000  1
  S  S23  1  0.989972  0.070839  0.250000  1
  S  S24  1  0.328555  0.951063  0.589462  1
  S  S25  1  0.171445  0.451063  0.410538  1
  S  S26  1  0.828555  0.548937  0.910538  1
  S  S27  1  0.671445  0.048937  0.089462  1
  S  S28  1  0.671445  0.048937  0.410538  1
  S  S29  1  0.828555  0.548937  0.589462  1
  S  S30  1  0.171445  0.451063  0.089462  1
  S  S31  1  0.328555  0.951063  0.910538  1
