# generated using pymatgen
data_MnSO3
_symmetry_space_group_name_H-M   'P 1'
_cell_length_a   5.49630595
_cell_length_b   12.44106781
_cell_length_c   8.42641860
_cell_angle_alpha   90.00000000
_cell_angle_beta   100.31574976
_cell_angle_gamma   90.00000000
_symmetry_Int_Tables_number   1
_chemical_formula_structural   MnSO3
_chemical_formula_sum   'Mn8 S8 O24'
_cell_volume   566.88404036
_cell_formula_units_Z   8
loop_
 _symmetry_equiv_pos_site_id
 _symmetry_equiv_pos_as_xyz
  1  'x, y, z'
loop_
 _atom_site_type_symbol
 _atom_site_label
 _atom_site_symmetry_multiplicity
 _atom_site_fract_x
 _atom_site_fract_y
 _atom_site_fract_z
 _atom_site_occupancy
  Mn  Mn0  1  0.667254  0.920434  0.383271  1
  Mn  Mn1  1  0.332746  0.420434  0.116729  1
  Mn  Mn2  1  0.332746  0.079566  0.616729  1
  Mn  Mn3  1  0.667254  0.579566  0.883271  1
  Mn  Mn4  1  0.884291  0.245960  0.841777  1
  Mn  Mn5  1  0.115709  0.745960  0.658223  1
  Mn  Mn6  1  0.115709  0.754040  0.158223  1
  Mn  Mn7  1  0.884291  0.254040  0.341777  1
  S  S8  1  0.520980  0.675773  0.490731  1
  S  S9  1  0.479020  0.175773  0.009269  1
  S  S10  1  0.479020  0.324227  0.509269  1
  S  S11  1  0.520980  0.824227  0.990731  1
  S  S12  1  0.913524  0.518576  0.254617  1
  S  S13  1  0.086476  0.018576  0.245383  1
  S  S14  1  0.086476  0.481424  0.745383  1
  S  S15  1  0.913524  0.981424  0.754617  1
  O  O16  1  0.266345  0.260784  0.995985  1
  O  O17  1  0.733655  0.760784  0.504015  1
  O  O18  1  0.733655  0.739216  0.004015  1
  O  O19  1  0.266345  0.239216  0.495985  1
  O  O20  1  0.670505  0.984593  0.628415  1
  O  O21  1  0.329495  0.484593  0.871585  1
  O  O22  1  0.329495  0.015407  0.371585  1
  O  O23  1  0.670505  0.515407  0.128415  1
  O  O24  1  0.095311  0.921185  0.662699  1
  O  O25  1  0.904689  0.421185  0.837301  1
  O  O26  1  0.904689  0.078815  0.337301  1
  O  O27  1  0.095311  0.578815  0.162699  1
  O  O28  1  0.281362  0.759706  0.923799  1
  O  O29  1  0.718638  0.259706  0.576201  1
  O  O30  1  0.718638  0.240294  0.076201  1
  O  O31  1  0.281362  0.740294  0.423799  1
  O  O32  1  0.974188  0.903551  0.243866  1
  O  O33  1  0.025812  0.403551  0.256134  1
  O  O34  1  0.025812  0.096449  0.756134  1
  O  O35  1  0.974188  0.596449  0.743866  1
  O  O36  1  0.473967  0.840417  0.166021  1
  O  O37  1  0.526033  0.340417  0.333979  1
  O  O38  1  0.526033  0.159583  0.833979  1
  O  O39  1  0.473967  0.659583  0.666021  1
