# generated using pymatgen
data_RbSmGeSe4
_symmetry_space_group_name_H-M   'P 1'
_cell_length_a   6.85565071
_cell_length_b   7.12173595
_cell_length_c   18.12534622
_cell_angle_alpha   90.00000000
_cell_angle_beta   90.00000000
_cell_angle_gamma   90.00000000
_symmetry_Int_Tables_number   1
_chemical_formula_structural   RbSmGeSe4
_chemical_formula_sum   'Rb4 Sm4 Ge4 Se16'
_cell_volume   884.95433485
_cell_formula_units_Z   4
loop_
 _symmetry_equiv_pos_site_id
 _symmetry_equiv_pos_as_xyz
  1  'x, y, z'
loop_
 _atom_site_type_symbol
 _atom_site_label
 _atom_site_symmetry_multiplicity
 _atom_site_fract_x
 _atom_site_fract_y
 _atom_site_fract_z
 _atom_site_occupancy
  Rb  Rb0  1  0.509862  0.995120  0.531459  1
  Rb  Rb1  1  0.990138  0.004880  0.031459  1
  Rb  Rb2  1  0.009862  0.504880  0.468541  1
  Rb  Rb3  1  0.490138  0.495120  0.968541  1
  Sm  Sm4  1  0.792704  0.020765  0.774237  1
  Sm  Sm5  1  0.292704  0.479235  0.225763  1
  Sm  Sm6  1  0.207296  0.520765  0.725763  1
  Sm  Sm7  1  0.707296  0.979235  0.274237  1
  Ge  Ge8  1  0.789781  0.513782  0.163713  1
  Ge  Ge9  1  0.210219  0.013782  0.336287  1
  Ge  Ge10  1  0.710219  0.486218  0.663713  1
  Ge  Ge11  1  0.289781  0.986218  0.836287  1
  Se  Se12  1  0.099558  0.083127  0.214845  1
  Se  Se13  1  0.445594  0.255244  0.358050  1
  Se  Se14  1  0.562882  0.986929  0.915161  1
  Se  Se15  1  0.095829  0.262521  0.850923  1
  Se  Se16  1  0.945594  0.244756  0.641950  1
  Se  Se17  1  0.404171  0.737479  0.350923  1
  Se  Se18  1  0.595829  0.237479  0.149077  1
  Se  Se19  1  0.400442  0.916873  0.714845  1
  Se  Se20  1  0.900442  0.583127  0.285155  1
  Se  Se21  1  0.599558  0.416873  0.785155  1
  Se  Se22  1  0.437118  0.486929  0.584839  1
  Se  Se23  1  0.904171  0.762521  0.649077  1
  Se  Se24  1  0.937118  0.013071  0.415161  1
  Se  Se25  1  0.554406  0.755244  0.141950  1
  Se  Se26  1  0.062882  0.513071  0.084839  1
  Se  Se27  1  0.054406  0.744756  0.858050  1
