# generated using pymatgen
data_MoSeCl7O
_symmetry_space_group_name_H-M   'P 1'
_cell_length_a   8.17154395
_cell_length_b   8.57027827
_cell_length_c   9.98508394
_cell_angle_alpha   89.61957856
_cell_angle_beta   113.03358059
_cell_angle_gamma   108.55392170
_symmetry_Int_Tables_number   1
_chemical_formula_structural   MoSeCl7O
_chemical_formula_sum   'Mo2 Se2 Cl14 O2'
_cell_volume   604.48944910
_cell_formula_units_Z   2
loop_
 _symmetry_equiv_pos_site_id
 _symmetry_equiv_pos_as_xyz
  1  'x, y, z'
loop_
 _atom_site_type_symbol
 _atom_site_label
 _atom_site_symmetry_multiplicity
 _atom_site_fract_x
 _atom_site_fract_y
 _atom_site_fract_z
 _atom_site_occupancy
  Mo  Mo0  1  0.173626  0.347095  0.388010  1
  Mo  Mo1  1  0.826374  0.652905  0.611990  1
  Se  Se2  1  0.504225  0.755844  0.219580  1
  Se  Se3  1  0.495775  0.244156  0.780420  1
  Cl  Cl4  1  0.772135  0.843947  0.193484  1
  Cl  Cl5  1  0.120543  0.233701  0.156336  1
  Cl  Cl6  1  0.391139  0.508984  0.626965  1
  Cl  Cl7  1  0.671750  0.381617  0.003972  1
  Cl  Cl8  1  0.569758  0.017846  0.815184  1
  Cl  Cl9  1  0.296847  0.128744  0.481387  1
  Cl  Cl10  1  0.815588  0.389450  0.700631  1
  Cl  Cl11  1  0.430242  0.982154  0.184816  1
  Cl  Cl12  1  0.227865  0.156053  0.806516  1
  Cl  Cl13  1  0.328250  0.618383  0.996028  1
  Cl  Cl14  1  0.703153  0.871256  0.518613  1
  Cl  Cl15  1  0.879457  0.766299  0.843664  1
  Cl  Cl16  1  0.608861  0.491016  0.373035  1
  Cl  Cl17  1  0.184412  0.610550  0.299369  1
  O  O18  1  0.959858  0.282546  0.395488  1
  O  O19  1  0.040142  0.717454  0.604512  1
