# generated using pymatgen
data_V(MoS2)2
_symmetry_space_group_name_H-M   'P 1'
_cell_length_a   6.60134690
_cell_length_b   6.60134690
_cell_length_c   6.04221660
_cell_angle_alpha   66.46024878
_cell_angle_beta   113.53975122
_cell_angle_gamma   151.70504328
_symmetry_Int_Tables_number   1
_chemical_formula_structural   V(MoS2)2
_chemical_formula_sum   'V1 Mo2 S4'
_cell_volume   113.73180941
_cell_formula_units_Z   1
loop_
 _symmetry_equiv_pos_site_id
 _symmetry_equiv_pos_as_xyz
  1  'x, y, z'
loop_
 _atom_site_type_symbol
 _atom_site_label
 _atom_site_symmetry_multiplicity
 _atom_site_fract_x
 _atom_site_fract_y
 _atom_site_fract_z
 _atom_site_occupancy
  V  V0  1  0.000000  0.000000  0.000000  1
  Mo  Mo1  1  0.258554  0.741446  0.315469  1
  Mo  Mo2  1  0.741446  0.258554  0.684531  1
  S  S3  1  0.895235  0.104765  0.559772  1
  S  S4  1  0.636492  0.363508  0.972484  1
  S  S5  1  0.363508  0.636492  0.027516  1
  S  S6  1  0.104765  0.895235  0.440228  1
