# generated using pymatgen
data_Pr2Al19Co6
_symmetry_space_group_name_H-M   'P 1'
_cell_length_a   10.68696232
_cell_length_b   10.68696232
_cell_length_c   8.22714530
_cell_angle_alpha   78.52722099
_cell_angle_beta   101.47277901
_cell_angle_gamma   111.12061846
_symmetry_Int_Tables_number   1
_chemical_formula_structural   Pr2Al19Co6
_chemical_formula_sum   'Pr4 Al38 Co12'
_cell_volume   850.63788261
_cell_formula_units_Z   2
loop_
 _symmetry_equiv_pos_site_id
 _symmetry_equiv_pos_as_xyz
  1  'x, y, z'
loop_
 _atom_site_type_symbol
 _atom_site_label
 _atom_site_symmetry_multiplicity
 _atom_site_fract_x
 _atom_site_fract_y
 _atom_site_fract_z
 _atom_site_occupancy
  Pr  Pr0  1  0.279224  0.720776  0.257481  1
  Pr  Pr1  1  0.720776  0.279224  0.742519  1
  Pr  Pr2  1  0.280014  0.719986  0.771624  1
  Pr  Pr3  1  0.719986  0.280014  0.228376  1
  Al  Al4  1  0.169466  0.169466  0.000000  1
  Al  Al5  1  0.478533  0.185257  0.447950  1
  Al  Al6  1  0.081604  0.918396  0.647560  1
  Al  Al7  1  0.950031  0.275743  0.047198  1
  Al  Al8  1  0.812089  0.537806  0.943795  1
  Al  Al9  1  0.330664  0.435081  0.845361  1
  Al  Al10  1  0.437603  0.330053  0.648690  1
  Al  Al11  1  0.497677  0.001132  0.761603  1
  Al  Al12  1  0.814743  0.521467  0.447950  1
  Al  Al13  1  0.062966  0.703807  0.465110  1
  Al  Al14  1  0.703807  0.062966  0.534890  1
  Al  Al15  1  0.185257  0.478533  0.552050  1
  Al  Al16  1  0.937034  0.296193  0.534890  1
  Al  Al17  1  0.502323  0.998868  0.238397  1
  Al  Al18  1  0.537806  0.812089  0.056205  1
  Al  Al19  1  0.296193  0.937034  0.465110  1
  Al  Al20  1  0.330053  0.437603  0.351310  1
  Al  Al21  1  0.564919  0.669336  0.845361  1
  Al  Al22  1  0.001132  0.497677  0.238397  1
  Al  Al23  1  0.998868  0.502323  0.761603  1
  Al  Al24  1  0.275743  0.950031  0.952802  1
  Al  Al25  1  0.200267  0.148451  0.363867  1
  Al  Al26  1  0.851549  0.799733  0.363867  1
  Al  Al27  1  0.913509  0.086491  0.817639  1
  Al  Al28  1  0.669336  0.564919  0.154639  1
  Al  Al29  1  0.086491  0.913509  0.182361  1
  Al  Al30  1  0.724257  0.049969  0.047198  1
  Al  Al31  1  0.799733  0.851549  0.636133  1
  Al  Al32  1  0.049969  0.724257  0.952802  1
  Al  Al33  1  0.830534  0.830534  0.000000  1
  Al  Al34  1  0.187911  0.462194  0.056205  1
  Al  Al35  1  0.435081  0.330664  0.154639  1
  Al  Al36  1  0.462194  0.187911  0.943795  1
  Al  Al37  1  0.521467  0.814743  0.552050  1
  Al  Al38  1  0.669947  0.562397  0.648690  1
  Al  Al39  1  0.562397  0.669947  0.351310  1
  Al  Al40  1  0.918396  0.081604  0.352440  1
  Al  Al41  1  0.148451  0.200267  0.636133  1
  Co  Co42  1  0.438658  0.561342  0.594628  1
  Co  Co43  1  0.561534  0.438466  0.905877  1
  Co  Co44  1  0.319080  0.079460  0.189062  1
  Co  Co45  1  0.561342  0.438658  0.405372  1
  Co  Co46  1  0.314552  0.082444  0.672761  1
  Co  Co47  1  0.680920  0.920540  0.810938  1
  Co  Co48  1  0.438466  0.561534  0.094123  1
  Co  Co49  1  0.920540  0.680920  0.189062  1
  Co  Co50  1  0.917556  0.685448  0.672761  1
  Co  Co51  1  0.685448  0.917556  0.327239  1
  Co  Co52  1  0.079460  0.319080  0.810938  1
  Co  Co53  1  0.082444  0.314552  0.327239  1
