# generated using pymatgen
data_Li3FeP2O9
_symmetry_space_group_name_H-M   'P 1'
_cell_length_a   6.87954903
_cell_length_b   7.14403182
_cell_length_c   7.95272066
_cell_angle_alpha   89.79453108
_cell_angle_beta   115.52321599
_cell_angle_gamma   92.30844918
_symmetry_Int_Tables_number   1
_chemical_formula_structural   Li3FeP2O9
_chemical_formula_sum   'Li6 Fe2 P4 O18'
_cell_volume   352.38719378
_cell_formula_units_Z   2
loop_
 _symmetry_equiv_pos_site_id
 _symmetry_equiv_pos_as_xyz
  1  'x, y, z'
loop_
 _atom_site_type_symbol
 _atom_site_label
 _atom_site_symmetry_multiplicity
 _atom_site_fract_x
 _atom_site_fract_y
 _atom_site_fract_z
 _atom_site_occupancy
  Li  Li0  1  0.380774  0.299262  0.728605  1
  Li  Li1  1  0.763796  0.996496  0.000412  1
  Li  Li2  1  0.142544  0.237469  0.206103  1
  Li  Li3  1  0.913361  0.767734  0.794526  1
  Li  Li4  1  0.001649  0.500019  0.505036  1
  Li  Li5  1  0.601273  0.697067  0.269222  1
  Fe  Fe6  1  0.496350  0.002188  0.497575  1
  Fe  Fe7  1  0.999547  0.997572  0.504065  1
  P  P8  1  0.619061  0.243484  0.202981  1
  P  P9  1  0.877056  0.290966  0.753986  1
  P  P10  1  0.387227  0.755069  0.796347  1
  P  P11  1  0.106918  0.708930  0.245792  1
  O  O12  1  0.449682  0.146124  0.261389  1
  O  O13  1  0.181104  0.872369  0.747243  1
  O  O14  1  0.007597  0.231514  0.640656  1
  O  O15  1  0.989262  0.802513  0.058493  1
  O  O16  1  0.954891  0.195323  0.941702  1
  O  O17  1  0.507768  0.755633  0.009238  1
  O  O18  1  0.236072  0.100637  0.473302  1
  O  O19  1  0.630977  0.235241  0.637982  1
  O  O20  1  0.351331  0.776678  0.340590  1
  O  O21  1  0.757363  0.898676  0.526940  1
  O  O22  1  0.548464  0.869971  0.737030  1
  O  O23  1  0.105525  0.495814  0.244021  1
  O  O24  1  0.321746  0.563545  0.701287  1
  O  O25  1  0.514867  0.246182  0.990102  1
  O  O26  1  0.897941  0.503893  0.753943  1
  O  O27  1  0.817234  0.114273  0.256734  1
  O  O28  1  0.691983  0.435919  0.298123  1
  O  O29  1  0.995571  0.759438  0.376574  1
