# generated using pymatgen
data_Pr2Nb11O30
_symmetry_space_group_name_H-M   'P 1'
_cell_length_a   6.32548019
_cell_length_b   6.32548019
_cell_length_c   32.95791035
_cell_angle_alpha   90.00000000
_cell_angle_beta   90.00000000
_cell_angle_gamma   120.00000000
_symmetry_Int_Tables_number   1
_chemical_formula_structural   Pr2Nb11O30
_chemical_formula_sum   'Pr4 Nb22 O60'
_cell_volume   1142.02943881
_cell_formula_units_Z   2
loop_
 _symmetry_equiv_pos_site_id
 _symmetry_equiv_pos_as_xyz
  1  'x, y, z'
loop_
 _atom_site_type_symbol
 _atom_site_label
 _atom_site_symmetry_multiplicity
 _atom_site_fract_x
 _atom_site_fract_y
 _atom_site_fract_z
 _atom_site_occupancy
  Pr  Pr0  1  0.333333  0.666667  0.905255  1
  Pr  Pr1  1  0.333333  0.666667  0.594745  1
  Pr  Pr2  1  0.666667  0.333333  0.405255  1
  Pr  Pr3  1  0.666667  0.333333  0.094745  1
  Nb  Nb4  1  0.639654  0.639489  0.192032  1
  Nb  Nb5  1  0.639489  0.639654  0.692032  1
  Nb  Nb6  1  0.360346  0.999835  0.692032  1
  Nb  Nb7  1  0.999835  0.360346  0.307968  1
  Nb  Nb8  1  0.355784  0.355784  0.000000  1
  Nb  Nb9  1  0.000000  0.644216  0.000000  1
  Nb  Nb10  1  0.360346  0.999835  0.807968  1
  Nb  Nb11  1  0.000000  0.644216  0.500000  1
  Nb  Nb12  1  0.639489  0.639654  0.807968  1
  Nb  Nb13  1  0.644216  0.000000  0.500000  1
  Nb  Nb14  1  0.999835  0.360346  0.192032  1
  Nb  Nb15  1  0.000165  0.360511  0.807968  1
  Nb  Nb16  1  0.666667  0.333333  0.902525  1
  Nb  Nb17  1  0.639654  0.639489  0.307968  1
  Nb  Nb18  1  0.360511  0.000165  0.192032  1
  Nb  Nb19  1  0.333333  0.666667  0.097475  1
  Nb  Nb20  1  0.355784  0.355784  0.500000  1
  Nb  Nb21  1  0.360511  0.000165  0.307968  1
  Nb  Nb22  1  0.333333  0.666667  0.402525  1
  Nb  Nb23  1  0.666667  0.333333  0.597475  1
  Nb  Nb24  1  0.000165  0.360511  0.692032  1
  Nb  Nb25  1  0.644216  0.000000  0.000000  1
  O  O26  1  0.366414  0.959114  0.750000  1
  O  O27  1  0.565019  0.946653  0.441397  1
  O  O28  1  0.243483  0.000000  0.000000  1
  O  O29  1  0.053347  0.618365  0.441397  1
  O  O30  1  0.999657  0.752383  0.689736  1
  O  O31  1  0.000343  0.752726  0.189736  1
  O  O32  1  0.375445  0.949013  0.371106  1
  O  O33  1  0.050987  0.426432  0.128894  1
  O  O34  1  0.000000  0.243483  0.000000  1
  O  O35  1  0.666667  0.333333  0.014334  1
  O  O36  1  0.333333  0.666667  0.675441  1
  O  O37  1  0.666667  0.333333  0.802188  1
  O  O38  1  0.247617  0.247274  0.689736  1
  O  O39  1  0.618365  0.053347  0.558603  1
  O  O40  1  0.426432  0.050987  0.871106  1
  O  O41  1  0.040886  0.407300  0.750000  1
  O  O42  1  0.333333  0.666667  0.985666  1
  O  O43  1  0.407300  0.040886  0.250000  1
  O  O44  1  0.666667  0.333333  0.485666  1
  O  O45  1  0.243483  0.000000  0.500000  1
  O  O46  1  0.333333  0.666667  0.514334  1
  O  O47  1  0.426432  0.050987  0.628894  1
  O  O48  1  0.592700  0.633586  0.750000  1
  O  O49  1  0.381635  0.434981  0.058603  1
  O  O50  1  0.618365  0.053347  0.941397  1
  O  O51  1  0.247617  0.247274  0.810264  1
  O  O52  1  0.666667  0.333333  0.697812  1
  O  O53  1  0.381635  0.434981  0.441397  1
  O  O54  1  0.333333  0.666667  0.824559  1
  O  O55  1  0.000000  0.243483  0.500000  1
  O  O56  1  0.000343  0.752726  0.310264  1
  O  O57  1  0.666667  0.333333  0.175441  1
  O  O58  1  0.999657  0.752383  0.810264  1
  O  O59  1  0.247274  0.247617  0.310264  1
  O  O60  1  0.375445  0.949013  0.128894  1
  O  O61  1  0.333333  0.666667  0.197812  1
  O  O62  1  0.666667  0.333333  0.324559  1
  O  O63  1  0.565019  0.946653  0.058603  1
  O  O64  1  0.624555  0.573568  0.871106  1
  O  O65  1  0.752383  0.999657  0.310264  1
  O  O66  1  0.434981  0.381635  0.558603  1
  O  O67  1  0.053347  0.618365  0.058603  1
  O  O68  1  0.752726  0.000343  0.810264  1
  O  O69  1  0.333333  0.666667  0.302188  1
  O  O70  1  0.752383  0.999657  0.189736  1
  O  O71  1  0.573568  0.624555  0.371106  1
  O  O72  1  0.946653  0.565019  0.941397  1
  O  O73  1  0.949013  0.375445  0.871106  1
  O  O74  1  0.949013  0.375445  0.628894  1
  O  O75  1  0.633586  0.592700  0.250000  1
  O  O76  1  0.946653  0.565019  0.558603  1
  O  O77  1  0.756517  0.756517  0.500000  1
  O  O78  1  0.573568  0.624555  0.128894  1
  O  O79  1  0.247274  0.247617  0.189736  1
  O  O80  1  0.050987  0.426432  0.371106  1
  O  O81  1  0.752726  0.000343  0.689736  1
  O  O82  1  0.434981  0.381635  0.941397  1
  O  O83  1  0.624555  0.573568  0.628894  1
  O  O84  1  0.959114  0.366414  0.250000  1
  O  O85  1  0.756517  0.756517  0.000000  1
