# generated using pymatgen
data_Ba2Co(PO4)2
_symmetry_space_group_name_H-M   'P 1'
_cell_length_a   5.38556878
_cell_length_b   9.01969433
_cell_length_c   17.09798750
_cell_angle_alpha   90.00000000
_cell_angle_beta   107.36886667
_cell_angle_gamma   90.00000000
_symmetry_Int_Tables_number   1
_chemical_formula_structural   Ba2Co(PO4)2
_chemical_formula_sum   'Ba8 Co4 P8 O32'
_cell_volume   792.68390800
_cell_formula_units_Z   4
loop_
 _symmetry_equiv_pos_site_id
 _symmetry_equiv_pos_as_xyz
  1  'x, y, z'
loop_
 _atom_site_type_symbol
 _atom_site_label
 _atom_site_symmetry_multiplicity
 _atom_site_fract_x
 _atom_site_fract_y
 _atom_site_fract_z
 _atom_site_occupancy
  Ba  Ba0  1  0.689513  0.202211  0.481362  1
  Ba  Ba1  1  0.310487  0.702211  0.018638  1
  Ba  Ba2  1  0.310487  0.797789  0.518638  1
  Ba  Ba3  1  0.689513  0.297789  0.981362  1
  Ba  Ba4  1  0.521151  0.655960  0.769427  1
  Ba  Ba5  1  0.478849  0.155960  0.730573  1
  Ba  Ba6  1  0.478849  0.344040  0.230573  1
  Ba  Ba7  1  0.521151  0.844040  0.269427  1
  Co  Co8  1  0.095597  0.017115  0.864459  1
  Co  Co9  1  0.904403  0.517115  0.635541  1
  Co  Co10  1  0.095597  0.482885  0.364459  1
  Co  Co11  1  0.904403  0.982885  0.135541  1
  P  P12  1  0.917923  0.890398  0.666125  1
  P  P13  1  0.082077  0.390398  0.833875  1
  P  P14  1  0.082077  0.109602  0.333875  1
  P  P15  1  0.917923  0.609602  0.166125  1
  P  P16  1  0.685370  0.906651  0.923405  1
  P  P17  1  0.685370  0.593349  0.423405  1
  P  P18  1  0.314630  0.093349  0.076595  1
  P  P19  1  0.314630  0.406651  0.576595  1
  O  O20  1  0.893726  0.975169  0.743345  1
  O  O21  1  0.106274  0.475169  0.756655  1
  O  O22  1  0.106274  0.024831  0.256655  1
  O  O23  1  0.893726  0.524831  0.243345  1
  O  O24  1  0.206767  0.887929  0.665718  1
  O  O25  1  0.793233  0.387929  0.834282  1
  O  O26  1  0.793233  0.112071  0.334282  1
  O  O27  1  0.206767  0.612071  0.165718  1
  O  O28  1  0.813798  0.729003  0.670274  1
  O  O29  1  0.186202  0.229003  0.829726  1
  O  O30  1  0.186202  0.270997  0.329726  1
  O  O31  1  0.813798  0.770997  0.170274  1
  O  O32  1  0.741539  0.969063  0.588262  1
  O  O33  1  0.258461  0.469063  0.911738  1
  O  O34  1  0.258461  0.030937  0.411738  1
  O  O35  1  0.741539  0.530937  0.088262  1
  O  O36  1  0.395593  0.867267  0.874766  1
  O  O37  1  0.604407  0.367267  0.625234  1
  O  O38  1  0.604407  0.132733  0.125234  1
  O  O39  1  0.395593  0.632733  0.374766  1
  O  O40  1  0.716894  0.598811  0.515458  1
  O  O41  1  0.283106  0.098811  0.984542  1
  O  O42  1  0.283106  0.401189  0.484542  1
  O  O43  1  0.716894  0.901189  0.015458  1
  O  O44  1  0.866537  0.707564  0.399584  1
  O  O45  1  0.133463  0.207564  0.100416  1
  O  O46  1  0.749820  0.061526  0.892930  1
  O  O47  1  0.866537  0.792436  0.899584  1
  O  O48  1  0.749820  0.438474  0.392930  1
  O  O49  1  0.250180  0.938474  0.107070  1
  O  O50  1  0.250180  0.561526  0.607070  1
  O  O51  1  0.133463  0.292436  0.600416  1
