# generated using pymatgen
data_Al3Pb5F19
_symmetry_space_group_name_H-M   'P 1'
_cell_length_a   10.94822736
_cell_length_b   10.94822736
_cell_length_c   10.94822736
_cell_angle_alpha   96.46871398
_cell_angle_beta   96.46871398
_cell_angle_gamma   140.77590914
_symmetry_Int_Tables_number   1
_chemical_formula_structural   Al3Pb5F19
_chemical_formula_sum   'Al6 Pb10 F38'
_cell_volume   781.69494701
_cell_formula_units_Z   2
loop_
 _symmetry_equiv_pos_site_id
 _symmetry_equiv_pos_as_xyz
  1  'x, y, z'
loop_
 _atom_site_type_symbol
 _atom_site_label
 _atom_site_symmetry_multiplicity
 _atom_site_fract_x
 _atom_site_fract_y
 _atom_site_fract_z
 _atom_site_occupancy
  Al  Al0  1  0.833782  0.666218  0.500000  1
  Al  Al1  1  0.333782  0.833782  0.167564  1
  Al  Al2  1  0.166218  0.333782  0.500000  1
  Al  Al3  1  0.750000  0.750000  0.000000  1
  Al  Al4  1  0.250000  0.250000  0.000000  1
  Al  Al5  1  0.666218  0.166218  0.832436  1
  Pb  Pb6  1  0.728651  0.427271  0.155922  1
  Pb  Pb7  1  0.271349  0.572729  0.844078  1
  Pb  Pb8  1  0.427271  0.271349  0.698620  1
  Pb  Pb9  1  0.228651  0.072729  0.301380  1
  Pb  Pb10  1  0.072729  0.771349  0.844078  1
  Pb  Pb11  1  0.927271  0.228651  0.155922  1
  Pb  Pb12  1  0.572729  0.728651  0.301380  1
  Pb  Pb13  1  0.250000  0.750000  0.500000  1
  Pb  Pb14  1  0.771349  0.927271  0.698620  1
  Pb  Pb15  1  0.750000  0.250000  0.500000  1
  F  F16  1  0.838020  0.838020  0.176040  1
  F  F17  1  0.338020  0.161980  0.000000  1
  F  F18  1  0.574139  0.946008  0.176813  1
  F  F19  1  0.745168  0.754832  0.500000  1
  F  F20  1  0.769195  0.397326  0.823187  1
  F  F21  1  0.422994  0.922994  0.345987  1
  F  F22  1  0.338020  0.338020  0.176040  1
  F  F23  1  0.000000  0.000000  0.000000  1
  F  F24  1  0.425861  0.053992  0.823187  1
  F  F25  1  0.946008  0.769195  0.371869  1
  F  F26  1  0.397326  0.574139  0.628131  1
  F  F27  1  0.161980  0.161980  0.823960  1
  F  F28  1  0.269195  0.446008  0.371869  1
  F  F29  1  0.661980  0.661980  0.823960  1
  F  F30  1  0.754832  0.254832  0.009664  1
  F  F31  1  0.922994  0.577006  0.500000  1
  F  F32  1  0.230805  0.602674  0.176813  1
  F  F33  1  0.254832  0.245168  0.500000  1
  F  F34  1  0.730805  0.553992  0.628131  1
  F  F35  1  0.661980  0.838020  1.000000  1
  F  F36  1  0.446008  0.074139  0.176813  1
  F  F37  1  0.606501  0.893499  0.500000  1
  F  F38  1  0.102674  0.730805  0.176813  1
  F  F39  1  0.897326  0.269195  0.823187  1
  F  F40  1  0.161980  0.338020  1.000000  1
  F  F41  1  0.053992  0.230805  0.628131  1
  F  F42  1  0.838020  0.661980  0.000000  1
  F  F43  1  0.500000  0.500000  0.000000  1
  F  F44  1  0.553992  0.925861  0.823187  1
  F  F45  1  0.577006  0.077006  0.654013  1
  F  F46  1  0.925861  0.102674  0.371869  1
  F  F47  1  0.077006  0.422994  0.500000  1
  F  F48  1  0.602674  0.425861  0.371869  1
  F  F49  1  0.074139  0.897326  0.628131  1
  F  F50  1  0.893499  0.393499  0.286998  1
  F  F51  1  0.106501  0.606501  0.713002  1
  F  F52  1  0.393499  0.106501  0.500000  1
  F  F53  1  0.245168  0.745168  0.990336  1
