# generated using pymatgen
data_PrMgSi2
_symmetry_space_group_name_H-M   'P 1'
_cell_length_a   18.67756417
_cell_length_b   18.67756417
_cell_length_c   18.67756417
_cell_angle_alpha   166.82629353
_cell_angle_beta   166.82629353
_cell_angle_gamma   18.67193926
_symmetry_Int_Tables_number   1
_chemical_formula_structural   PrMgSi2
_chemical_formula_sum   'Pr4 Mg4 Si8'
_cell_volume   338.39679021
_cell_formula_units_Z   4
loop_
 _symmetry_equiv_pos_site_id
 _symmetry_equiv_pos_as_xyz
  1  'x, y, z'
loop_
 _atom_site_type_symbol
 _atom_site_label
 _atom_site_symmetry_multiplicity
 _atom_site_fract_x
 _atom_site_fract_y
 _atom_site_fract_z
 _atom_site_occupancy
  Pr  Pr0  1  0.672574  0.172574  0.500000  1
  Pr  Pr1  1  0.827426  0.327426  0.500000  1
  Pr  Pr2  1  0.922574  0.922574  0.000000  1
  Pr  Pr3  1  0.077426  0.077426  0.000000  1
  Mg  Mg4  1  0.000134  0.500134  0.500000  1
  Mg  Mg5  1  0.499866  0.999866  0.500000  1
  Mg  Mg6  1  0.250134  0.250134  0.000000  1
  Mg  Mg7  1  0.749866  0.749866  0.000000  1
  Si  Si8  1  0.202257  0.702257  0.500000  1
  Si  Si9  1  0.360871  0.860871  0.500000  1
  Si  Si10  1  0.139129  0.639129  0.500000  1
  Si  Si11  1  0.389129  0.389129  0.000000  1
  Si  Si12  1  0.547743  0.547743  0.000000  1
  Si  Si13  1  0.610871  0.610871  0.000000  1
  Si  Si14  1  0.452257  0.452257  0.000000  1
  Si  Si15  1  0.297743  0.797743  0.500000  1
