# generated using pymatgen
data_CuNi2(PO4)2
_symmetry_space_group_name_H-M   'P 1'
_cell_length_a   4.73046036
_cell_length_b   9.57848640
_cell_length_c   7.98447977
_cell_angle_alpha   90.00000000
_cell_angle_beta   125.83961446
_cell_angle_gamma   90.00000000
_symmetry_Int_Tables_number   1
_chemical_formula_structural   CuNi2(PO4)2
_chemical_formula_sum   'Cu2 Ni4 P4 O16'
_cell_volume   293.28187640
_cell_formula_units_Z   2
loop_
 _symmetry_equiv_pos_site_id
 _symmetry_equiv_pos_as_xyz
  1  'x, y, z'
loop_
 _atom_site_type_symbol
 _atom_site_label
 _atom_site_symmetry_multiplicity
 _atom_site_fract_x
 _atom_site_fract_y
 _atom_site_fract_z
 _atom_site_occupancy
  Cu  Cu0  1  0.000000  0.000000  0.000000  1
  Cu  Cu1  1  0.000000  0.500000  0.500000  1
  Ni  Ni2  1  0.174848  0.625587  0.148193  1
  Ni  Ni3  1  0.825152  0.125587  0.351807  1
  Ni  Ni4  1  0.825152  0.374413  0.851807  1
  Ni  Ni5  1  0.174848  0.874413  0.648193  1
  P  P6  1  0.660414  0.823752  0.149664  1
  P  P7  1  0.339586  0.323752  0.350336  1
  P  P8  1  0.339586  0.176248  0.850336  1
  P  P9  1  0.660414  0.676248  0.649664  1
  O  O10  1  0.612699  0.888841  0.953902  1
  O  O11  1  0.387301  0.388841  0.546098  1
  O  O12  1  0.387301  0.111159  0.046098  1
  O  O13  1  0.612699  0.611159  0.453902  1
  O  O14  1  0.784799  0.672644  0.174748  1
  O  O15  1  0.215201  0.172644  0.325252  1
  O  O16  1  0.215201  0.327356  0.825252  1
  O  O17  1  0.784799  0.827356  0.674748  1
  O  O18  1  0.916067  0.917569  0.339990  1
  O  O19  1  0.083933  0.417569  0.160010  1
  O  O20  1  0.701777  0.324241  0.385127  1
  O  O21  1  0.298223  0.824241  0.114873  1
  O  O22  1  0.298223  0.675759  0.614873  1
  O  O23  1  0.701777  0.175759  0.885127  1
  O  O24  1  0.916067  0.582431  0.839990  1
  O  O25  1  0.083933  0.082431  0.660010  1
