# generated using pymatgen
data_Yb3Ni7B2
_symmetry_space_group_name_H-M   'P 1'
_cell_length_a   5.01116097
_cell_length_b   5.01116097
_cell_length_c   14.01887784
_cell_angle_alpha   90.00000000
_cell_angle_beta   90.00000000
_cell_angle_gamma   120.00000000
_symmetry_Int_Tables_number   1
_chemical_formula_structural   Yb3Ni7B2
_chemical_formula_sum   'Yb6 Ni14 B4'
_cell_volume   304.87414126
_cell_formula_units_Z   2
loop_
 _symmetry_equiv_pos_site_id
 _symmetry_equiv_pos_as_xyz
  1  'x, y, z'
loop_
 _atom_site_type_symbol
 _atom_site_label
 _atom_site_symmetry_multiplicity
 _atom_site_fract_x
 _atom_site_fract_y
 _atom_site_fract_z
 _atom_site_occupancy
  Yb  Yb0  1  0.666667  0.333333  0.534415  1
  Yb  Yb1  1  0.333333  0.666667  0.465585  1
  Yb  Yb2  1  0.333333  0.666667  0.034415  1
  Yb  Yb3  1  0.666667  0.333333  0.750000  1
  Yb  Yb4  1  0.666667  0.333333  0.965585  1
  Yb  Yb5  1  0.333333  0.666667  0.250000  1
  Ni  Ni6  1  0.165531  0.331062  0.649950  1
  Ni  Ni7  1  0.331062  0.165531  0.350050  1
  Ni  Ni8  1  0.331062  0.165531  0.149950  1
  Ni  Ni9  1  0.165531  0.834469  0.850050  1
  Ni  Ni10  1  0.834469  0.668938  0.350050  1
  Ni  Ni11  1  0.834469  0.165531  0.149950  1
  Ni  Ni12  1  0.668938  0.834469  0.649950  1
  Ni  Ni13  1  0.668938  0.834469  0.850050  1
  Ni  Ni14  1  0.165531  0.834469  0.649950  1
  Ni  Ni15  1  0.834469  0.668938  0.149950  1
  Ni  Ni16  1  0.000000  0.000000  0.000000  1
  Ni  Ni17  1  0.165531  0.331062  0.850050  1
  Ni  Ni18  1  0.834469  0.165531  0.350050  1
  Ni  Ni19  1  0.000000  0.000000  0.500000  1
  B  B20  1  0.666667  0.333333  0.250000  1
  B  B21  1  0.000000  0.000000  0.750000  1
  B  B22  1  0.333333  0.666667  0.750000  1
  B  B23  1  0.000000  0.000000  0.250000  1
