# generated using pymatgen
data_CuWO4
_symmetry_space_group_name_H-M   'P 1'
_cell_length_a   4.73308793
_cell_length_b   4.97805640
_cell_length_c   5.92602514
_cell_angle_alpha   87.07257612
_cell_angle_beta   83.25483795
_cell_angle_gamma   86.62002314
_symmetry_Int_Tables_number   1
_chemical_formula_structural   CuWO4
_chemical_formula_sum   'Cu2 W2 O8'
_cell_volume   138.28155226
_cell_formula_units_Z   2
loop_
 _symmetry_equiv_pos_site_id
 _symmetry_equiv_pos_as_xyz
  1  'x, y, z'
loop_
 _atom_site_type_symbol
 _atom_site_label
 _atom_site_symmetry_multiplicity
 _atom_site_fract_x
 _atom_site_fract_y
 _atom_site_fract_z
 _atom_site_occupancy
  Cu  Cu0  1  0.501426  0.253038  0.339262  1
  Cu  Cu1  1  0.498574  0.746962  0.660738  1
  W  W2  1  0.991871  0.253145  0.829640  1
  W  W3  1  0.008129  0.746855  0.170360  1
  O  O4  1  0.749185  0.427292  0.646625  1
  O  O5  1  0.250815  0.572708  0.353375  1
  O  O6  1  0.783718  0.430487  0.119495  1
  O  O7  1  0.216282  0.569513  0.880505  1
  O  O8  1  0.270155  0.092228  0.616298  1
  O  O9  1  0.729845  0.907772  0.383702  1
  O  O10  1  0.215565  0.056424  0.090059  1
  O  O11  1  0.784435  0.943576  0.909941  1
