# generated using pymatgen
data_KSn
_symmetry_space_group_name_H-M   'P 1'
_cell_length_a   12.47524991
_cell_length_b   12.47524991
_cell_length_c   12.47524991
_cell_angle_alpha   124.98839539
_cell_angle_beta   124.98839539
_cell_angle_gamma   81.55725478
_symmetry_Int_Tables_number   1
_chemical_formula_structural   KSn
_chemical_formula_sum   'K16 Sn16'
_cell_volume   1254.35576840
_cell_formula_units_Z   16
loop_
 _symmetry_equiv_pos_site_id
 _symmetry_equiv_pos_as_xyz
  1  'x, y, z'
loop_
 _atom_site_type_symbol
 _atom_site_label
 _atom_site_symmetry_multiplicity
 _atom_site_fract_x
 _atom_site_fract_y
 _atom_site_fract_z
 _atom_site_occupancy
  K  K0  1  0.987456  0.875000  0.612456  1
  K  K1  1  0.128203  0.371797  0.000000  1
  K  K2  1  0.628203  0.628203  0.756406  1
  K  K3  1  0.762544  0.375000  0.887544  1
  K  K4  1  0.871797  0.871797  0.243594  1
  K  K5  1  0.371797  0.128203  1.000000  1
  K  K6  1  0.125000  0.237456  0.612456  1
  K  K7  1  0.262544  0.375000  0.387544  1
  K  K8  1  0.378203  0.121797  0.500000  1
  K  K9  1  0.487456  0.875000  0.112456  1
  K  K10  1  0.625000  0.512544  0.387544  1
  K  K11  1  0.621797  0.878203  0.500000  1
  K  K12  1  0.625000  0.012544  0.887544  1
  K  K13  1  0.878203  0.378203  0.256406  1
  K  K14  1  0.121797  0.621797  0.743594  1
  K  K15  1  0.125000  0.737456  0.112456  1
  Sn  Sn16  1  0.371338  0.693195  0.451964  1
  Sn  Sn17  1  0.008769  0.056805  0.178143  1
  Sn  Sn18  1  0.580626  0.258769  0.451964  1
  Sn  Sn19  1  0.741231  0.193195  0.321857  1
  Sn  Sn20  1  0.306805  0.758769  0.678143  1
  Sn  Sn21  1  0.169374  0.991231  0.048036  1
  Sn  Sn22  1  0.943195  0.121338  0.951964  1
  Sn  Sn23  1  0.080626  0.628662  0.321857  1
  Sn  Sn24  1  0.669374  0.621338  0.178143  1
  Sn  Sn25  1  0.378662  0.556805  0.048036  1
  Sn  Sn26  1  0.878662  0.830626  0.821857  1
  Sn  Sn27  1  0.806805  0.128662  0.548036  1
  Sn  Sn28  1  0.871338  0.419374  0.678143  1
  Sn  Sn29  1  0.241231  0.919374  0.548036  1
  Sn  Sn30  1  0.443195  0.491231  0.821857  1
  Sn  Sn31  1  0.508769  0.330626  0.951964  1
