# generated using pymatgen
data_CaAlSi
_symmetry_space_group_name_H-M   'P 1'
_cell_length_a   4.20654121
_cell_length_b   4.20654121
_cell_length_c   21.78218038
_cell_angle_alpha   90.00000000
_cell_angle_beta   90.00000000
_cell_angle_gamma   120.00000000
_symmetry_Int_Tables_number   1
_chemical_formula_structural   CaAlSi
_chemical_formula_sum   'Ca5 Al5 Si5'
_cell_volume   333.79688415
_cell_formula_units_Z   5
loop_
 _symmetry_equiv_pos_site_id
 _symmetry_equiv_pos_as_xyz
  1  'x, y, z'
loop_
 _atom_site_type_symbol
 _atom_site_label
 _atom_site_symmetry_multiplicity
 _atom_site_fract_x
 _atom_site_fract_y
 _atom_site_fract_z
 _atom_site_occupancy
  Ca  Ca0  1  0.000000  0.000000  0.699024  1
  Ca  Ca1  1  0.000000  0.000000  0.300976  1
  Ca  Ca2  1  0.000000  0.000000  0.098770  1
  Ca  Ca3  1  0.000000  0.000000  0.901230  1
  Ca  Ca4  1  0.000000  0.000000  0.500000  1
  Al  Al5  1  0.333333  0.666667  0.588036  1
  Al  Al6  1  0.333333  0.666667  0.411964  1
  Al  Al7  1  0.666667  0.333333  0.191043  1
  Al  Al8  1  0.666667  0.333333  0.000000  1
  Al  Al9  1  0.666667  0.333333  0.808957  1
  Si  Si10  1  0.666667  0.333333  0.393707  1
  Si  Si11  1  0.333333  0.666667  0.207294  1
  Si  Si12  1  0.333333  0.666667  0.792706  1
  Si  Si13  1  0.666667  0.333333  0.606293  1
  Si  Si14  1  0.333333  0.666667  0.000000  1
