# generated using pymatgen
data_Sr2CuOsO6
_symmetry_space_group_name_H-M   'P 1'
_cell_length_a   5.78727491
_cell_length_b   5.78727491
_cell_length_c   5.78727491
_cell_angle_alpha   123.97736456
_cell_angle_beta   123.97736456
_cell_angle_gamma   83.23884855
_symmetry_Int_Tables_number   1
_chemical_formula_structural   Sr2CuOsO6
_chemical_formula_sum   'Sr2 Cu1 Os1 O6'
_cell_volume   127.84304505
_cell_formula_units_Z   1
loop_
 _symmetry_equiv_pos_site_id
 _symmetry_equiv_pos_as_xyz
  1  'x, y, z'
loop_
 _atom_site_type_symbol
 _atom_site_label
 _atom_site_symmetry_multiplicity
 _atom_site_fract_x
 _atom_site_fract_y
 _atom_site_fract_z
 _atom_site_occupancy
  Sr  Sr0  1  0.250000  0.750000  0.500000  1
  Sr  Sr1  1  0.750000  0.250000  0.500000  1
  Cu  Cu2  1  0.000000  0.000000  0.000000  1
  Os  Os3  1  0.500000  0.500000  0.000000  1
  O  O4  1  0.726326  0.726326  0.000000  1
  O  O5  1  0.687761  0.199899  0.887661  1
  O  O6  1  0.273674  0.273674  0.000000  1
  O  O7  1  0.312239  0.800101  0.112339  1
  O  O8  1  0.199899  0.312239  0.512138  1
  O  O9  1  0.800101  0.687761  0.487862  1
