# generated using pymatgen
data_Fe7SiO10
_symmetry_space_group_name_H-M   'P 1'
_cell_length_a   6.05642319
_cell_length_b   3.04971939
_cell_length_c   21.92385748
_cell_angle_alpha   90.00000000
_cell_angle_beta   97.79927152
_cell_angle_gamma   90.00000000
_symmetry_Int_Tables_number   1
_chemical_formula_structural   Fe7SiO10
_chemical_formula_sum   'Fe14 Si2 O20'
_cell_volume   401.19633372
_cell_formula_units_Z   2
loop_
 _symmetry_equiv_pos_site_id
 _symmetry_equiv_pos_as_xyz
  1  'x, y, z'
loop_
 _atom_site_type_symbol
 _atom_site_label
 _atom_site_symmetry_multiplicity
 _atom_site_fract_x
 _atom_site_fract_y
 _atom_site_fract_z
 _atom_site_occupancy
  Fe  Fe0  1  0.153868  0.750000  0.552271  1
  Fe  Fe1  1  0.655711  0.250000  0.054754  1
  Fe  Fe2  1  0.545404  0.250000  0.839323  1
  Fe  Fe3  1  0.454596  0.750000  0.160677  1
  Fe  Fe4  1  0.639855  0.750000  0.553650  1
  Fe  Fe5  1  0.360145  0.250000  0.446350  1
  Fe  Fe6  1  0.344289  0.750000  0.945246  1
  Fe  Fe7  1  0.846132  0.250000  0.447729  1
  Fe  Fe8  1  0.026151  0.750000  0.803851  1
  Fe  Fe9  1  0.973849  0.250000  0.196149  1
  Fe  Fe10  1  0.955832  0.250000  0.658733  1
  Fe  Fe11  1  0.044168  0.750000  0.341267  1
  Fe  Fe12  1  0.147457  0.250000  0.052609  1
  Fe  Fe13  1  0.852543  0.750000  0.947391  1
  Si  Si14  1  0.532359  0.250000  0.309477  1
  Si  Si15  1  0.467641  0.750000  0.690523  1
  O  O16  1  0.617071  0.250000  0.953847  1
  O  O17  1  0.382929  0.750000  0.046153  1
  O  O18  1  0.089484  0.250000  0.955835  1
  O  O19  1  0.910516  0.750000  0.044165  1
  O  O20  1  0.787789  0.750000  0.853815  1
  O  O21  1  0.212211  0.250000  0.146185  1
  O  O22  1  0.317027  0.750000  0.850494  1
  O  O23  1  0.682973  0.250000  0.149506  1
  O  O24  1  0.994610  0.250000  0.753096  1
  O  O25  1  0.005390  0.750000  0.246904  1
  O  O26  1  0.491408  0.250000  0.730951  1
  O  O27  1  0.508592  0.750000  0.269049  1
  O  O28  1  0.676541  0.750000  0.650618  1
  O  O29  1  0.323459  0.250000  0.349382  1
  O  O30  1  0.216075  0.750000  0.653857  1
  O  O31  1  0.783925  0.250000  0.346143  1
  O  O32  1  0.906123  0.250000  0.561293  1
  O  O33  1  0.093877  0.750000  0.438707  1
  O  O34  1  0.617746  0.750000  0.459293  1
  O  O35  1  0.382254  0.250000  0.540707  1
