# generated using pymatgen
data_K4Sr2SnAs4
_symmetry_space_group_name_H-M   'P 1'
_cell_length_a   18.29855023
_cell_length_b   18.29855023
_cell_length_c   7.76537657
_cell_angle_alpha   90.00000000
_cell_angle_beta   90.00000000
_cell_angle_gamma   120.00000000
_symmetry_Int_Tables_number   1
_chemical_formula_structural   K4Sr2SnAs4
_chemical_formula_sum   'K24 Sr12 Sn6 As24'
_cell_volume   2251.78290558
_cell_formula_units_Z   6
loop_
 _symmetry_equiv_pos_site_id
 _symmetry_equiv_pos_as_xyz
  1  'x, y, z'
loop_
 _atom_site_type_symbol
 _atom_site_label
 _atom_site_symmetry_multiplicity
 _atom_site_fract_x
 _atom_site_fract_y
 _atom_site_fract_z
 _atom_site_occupancy
  K  K0  1  0.659238  0.476977  0.310696  1
  K  K1  1  0.340762  0.523023  0.810696  1
  K  K2  1  0.133497  0.133497  0.791082  1
  K  K3  1  0.340762  0.817739  0.310696  1
  K  K4  1  0.476977  0.817739  0.810696  1
  K  K5  1  0.866503  0.000000  0.791082  1
  K  K6  1  0.182261  0.659238  0.810696  1
  K  K7  1  0.476977  0.659238  0.310696  1
  K  K8  1  0.000000  0.133497  0.291082  1
  K  K9  1  0.133497  0.000000  0.291082  1
  K  K10  1  0.467839  0.467839  0.119568  1
  K  K11  1  0.182261  0.523023  0.310696  1
  K  K12  1  0.866503  0.866503  0.291082  1
  K  K13  1  0.532161  0.000000  0.119568  1
  K  K14  1  0.532161  0.532161  0.619568  1
  K  K15  1  0.467839  0.000000  0.619568  1
  K  K16  1  0.000000  0.532161  0.119568  1
  K  K17  1  0.659238  0.182261  0.810696  1
  K  K18  1  0.523023  0.182261  0.310696  1
  K  K19  1  0.000000  0.866503  0.791082  1
  K  K20  1  0.817739  0.476977  0.810696  1
  K  K21  1  0.000000  0.467839  0.619568  1
  K  K22  1  0.817739  0.340762  0.310696  1
  K  K23  1  0.523023  0.340762  0.810696  1
  Sr  Sr24  1  0.810278  0.670244  0.619522  1
  Sr  Sr25  1  0.140034  0.810278  0.119522  1
  Sr  Sr26  1  0.140034  0.329756  0.619522  1
  Sr  Sr27  1  0.859966  0.670244  0.119522  1
  Sr  Sr28  1  0.670244  0.859966  0.119522  1
  Sr  Sr29  1  0.329756  0.189722  0.119522  1
  Sr  Sr30  1  0.189722  0.859966  0.619522  1
  Sr  Sr31  1  0.810278  0.140034  0.119522  1
  Sr  Sr32  1  0.329756  0.140034  0.619522  1
  Sr  Sr33  1  0.189722  0.329756  0.119522  1
  Sr  Sr34  1  0.859966  0.189722  0.619522  1
  Sr  Sr35  1  0.670244  0.810278  0.619522  1
  Sn  Sn36  1  0.668790  0.668790  0.001784  1
  Sn  Sn37  1  0.000000  0.331210  0.001784  1
  Sn  Sn38  1  0.000000  0.668790  0.501784  1
  Sn  Sn39  1  0.331210  0.331210  0.501784  1
  Sn  Sn40  1  0.668790  0.000000  0.501784  1
  Sn  Sn41  1  0.331210  0.000000  0.001784  1
  As  As42  1  0.193931  0.193931  0.380612  1
  As  As43  1  0.316967  0.000000  0.346770  1
  As  As44  1  0.143948  0.462016  0.894998  1
  As  As45  1  0.806069  0.000000  0.380612  1
  As  As46  1  0.318069  0.856052  0.894998  1
  As  As47  1  0.537984  0.681931  0.894998  1
  As  As48  1  0.683033  0.683033  0.346770  1
  As  As49  1  0.806069  0.806069  0.880612  1
  As  As50  1  0.000000  0.683033  0.846770  1
  As  As51  1  0.462016  0.143948  0.894998  1
  As  As52  1  0.856052  0.318069  0.894998  1
  As  As53  1  0.318069  0.462016  0.394998  1
  As  As54  1  0.681931  0.143948  0.394998  1
  As  As55  1  0.856052  0.537984  0.394998  1
  As  As56  1  0.193931  0.000000  0.880612  1
  As  As57  1  0.000000  0.806069  0.380612  1
  As  As58  1  0.683033  0.000000  0.846770  1
  As  As59  1  0.000000  0.193931  0.880612  1
  As  As60  1  0.143948  0.681931  0.394998  1
  As  As61  1  0.462016  0.318069  0.394998  1
  As  As62  1  0.000000  0.316967  0.346770  1
  As  As63  1  0.681931  0.537984  0.894998  1
  As  As64  1  0.316967  0.316967  0.846770  1
  As  As65  1  0.537984  0.856052  0.394998  1
