# generated using pymatgen
data_Cu3TeS3Cl
_symmetry_space_group_name_H-M   'P 1'
_cell_length_a   5.48177985
_cell_length_b   5.48177985
_cell_length_c   5.48177985
_cell_angle_alpha   85.04969006
_cell_angle_beta   85.04969006
_cell_angle_gamma   85.04969006
_symmetry_Int_Tables_number   1
_chemical_formula_structural   Cu3TeS3Cl
_chemical_formula_sum   'Cu3 Te1 S3 Cl1'
_cell_volume   162.98371205
_cell_formula_units_Z   1
loop_
 _symmetry_equiv_pos_site_id
 _symmetry_equiv_pos_as_xyz
  1  'x, y, z'
loop_
 _atom_site_type_symbol
 _atom_site_label
 _atom_site_symmetry_multiplicity
 _atom_site_fract_x
 _atom_site_fract_y
 _atom_site_fract_z
 _atom_site_occupancy
  Cu  Cu0  1  0.229244  0.229244  0.804022  1
  Cu  Cu1  1  0.229244  0.804022  0.229244  1
  Cu  Cu2  1  0.804022  0.229244  0.229244  1
  Te  Te3  1  0.747591  0.747591  0.747591  1
  S  S4  1  0.528203  0.028585  0.028585  1
  S  S5  1  0.028585  0.528203  0.028585  1
  S  S6  1  0.028585  0.028585  0.528203  1
  Cl  Cl7  1  0.431857  0.431857  0.431857  1
