# generated using pymatgen
data_Ce3Si6N11
_symmetry_space_group_name_H-M   'P 1'
_cell_length_a   10.15738424
_cell_length_b   10.15738424
_cell_length_c   4.88540302
_cell_angle_alpha   90.00000000
_cell_angle_beta   90.00000000
_cell_angle_gamma   90.00000000
_symmetry_Int_Tables_number   1
_chemical_formula_structural   Ce3Si6N11
_chemical_formula_sum   'Ce6 Si12 N22'
_cell_volume   504.03902128
_cell_formula_units_Z   2
loop_
 _symmetry_equiv_pos_site_id
 _symmetry_equiv_pos_as_xyz
  1  'x, y, z'
loop_
 _atom_site_type_symbol
 _atom_site_label
 _atom_site_symmetry_multiplicity
 _atom_site_fract_x
 _atom_site_fract_y
 _atom_site_fract_z
 _atom_site_occupancy
  Ce  Ce0  1  0.181132  0.318868  0.644026  1
  Ce  Ce1  1  0.318868  0.818868  0.644026  1
  Ce  Ce2  1  0.681132  0.181132  0.644026  1
  Ce  Ce3  1  0.818868  0.681132  0.644026  1
  Ce  Ce4  1  0.000000  0.000000  0.654206  1
  Ce  Ce5  1  0.500000  0.500000  0.654206  1
  Si  Si6  1  0.209032  0.078816  0.114806  1
  Si  Si7  1  0.078816  0.790968  0.114806  1
  Si  Si8  1  0.921184  0.209032  0.114806  1
  Si  Si9  1  0.790968  0.921184  0.114806  1
  Si  Si10  1  0.709032  0.421184  0.114806  1
  Si  Si11  1  0.290968  0.578816  0.114806  1
  Si  Si12  1  0.421184  0.290968  0.114806  1
  Si  Si13  1  0.578816  0.709032  0.114806  1
  Si  Si14  1  0.117235  0.617235  0.604123  1
  Si  Si15  1  0.617235  0.882765  0.604123  1
  Si  Si16  1  0.382765  0.117235  0.604123  1
  Si  Si17  1  0.882765  0.382765  0.604123  1
  N  N18  1  0.229683  0.075332  0.468169  1
  N  N19  1  0.075332  0.770317  0.468169  1
  N  N20  1  0.924668  0.229683  0.468169  1
  N  N21  1  0.770317  0.924668  0.468169  1
  N  N22  1  0.729683  0.424668  0.468169  1
  N  N23  1  0.270317  0.575332  0.468169  1
  N  N24  1  0.424668  0.270317  0.468169  1
  N  N25  1  0.575332  0.729683  0.468169  1
  N  N26  1  0.153370  0.653370  0.950898  1
  N  N27  1  0.653370  0.846630  0.950898  1
  N  N28  1  0.346630  0.153370  0.950898  1
  N  N29  1  0.846630  0.346630  0.950898  1
  N  N30  1  0.178999  0.920286  0.001895  1
  N  N31  1  0.920286  0.821001  0.001895  1
  N  N32  1  0.079714  0.178999  0.001895  1
  N  N33  1  0.821001  0.079714  0.001895  1
  N  N34  1  0.678999  0.579714  0.001895  1
  N  N35  1  0.321001  0.420286  0.001895  1
  N  N36  1  0.579714  0.321001  0.001895  1
  N  N37  1  0.420286  0.678999  0.001895  1
  N  N38  1  0.000000  0.500000  0.575989  1
  N  N39  1  0.500000  0.000000  0.575989  1
