# generated using pymatgen
data_Ce10Ga5Br4
_symmetry_space_group_name_H-M   'P 1'
_cell_length_a   16.71205236
_cell_length_b   16.71205236
_cell_length_c   16.71205236
_cell_angle_alpha   152.51464875
_cell_angle_beta   152.51464875
_cell_angle_gamma   39.26221689
_symmetry_Int_Tables_number   1
_chemical_formula_structural   Ce10Ga5Br4
_chemical_formula_sum   'Ce20 Ga10 Br8'
_cell_volume   992.42027332
_cell_formula_units_Z   2
loop_
 _symmetry_equiv_pos_site_id
 _symmetry_equiv_pos_as_xyz
  1  'x, y, z'
loop_
 _atom_site_type_symbol
 _atom_site_label
 _atom_site_symmetry_multiplicity
 _atom_site_fract_x
 _atom_site_fract_y
 _atom_site_fract_z
 _atom_site_occupancy
  Ce  Ce0  1  0.465893  0.965893  0.841859  1
  Ce  Ce1  1  0.258988  0.758988  0.164842  1
  Ce  Ce2  1  0.094146  0.258988  0.500000  1
  Ce  Ce3  1  0.124034  0.624034  0.158141  1
  Ce  Ce4  1  0.034107  0.875966  0.500000  1
  Ce  Ce5  1  0.654603  0.654603  0.000000  1
  Ce  Ce6  1  0.624034  0.465893  0.500000  1
  Ce  Ce7  1  0.845397  0.845397  0.000000  1
  Ce  Ce8  1  0.758988  0.594146  0.500000  1
  Ce  Ce9  1  0.375966  0.534107  0.500000  1
  Ce  Ce10  1  0.594146  0.094146  0.835158  1
  Ce  Ce11  1  0.875966  0.375966  0.841859  1
  Ce  Ce12  1  0.534107  0.034107  0.158141  1
  Ce  Ce13  1  0.154603  0.154603  0.000000  1
  Ce  Ce14  1  0.241012  0.405854  0.500000  1
  Ce  Ce15  1  0.965893  0.124034  0.500000  1
  Ce  Ce16  1  0.405854  0.905854  0.164842  1
  Ce  Ce17  1  0.905854  0.741012  0.500000  1
  Ce  Ce18  1  0.345397  0.345397  0.000000  1
  Ce  Ce19  1  0.741012  0.241012  0.835158  1
  Ga  Ga20  1  0.761502  0.012422  0.500000  1
  Ga  Ga21  1  0.261502  0.761502  0.749079  1
  Ga  Ga22  1  0.738498  0.238498  0.250921  1
  Ga  Ga23  1  0.512422  0.261502  0.500000  1
  Ga  Ga24  1  0.487578  0.738498  0.500000  1
  Ga  Ga25  1  0.238498  0.987578  0.500000  1
  Ga  Ga26  1  0.012422  0.512422  0.250921  1
  Ga  Ga27  1  0.750000  0.750000  0.000000  1
  Ga  Ga28  1  0.987578  0.487578  0.749079  1
  Ga  Ga29  1  0.250000  0.250000  0.000000  1
  Br  Br30  1  0.942834  0.942834  0.000000  1
  Br  Br31  1  0.442834  0.442834  0.000000  1
  Br  Br32  1  0.857597  0.357597  0.215194  1
  Br  Br33  1  0.142403  0.642403  0.784806  1
  Br  Br34  1  0.557166  0.557166  0.000000  1
  Br  Br35  1  0.057166  0.057166  0.000000  1
  Br  Br36  1  0.357597  0.142403  0.500000  1
  Br  Br37  1  0.642403  0.857597  0.500000  1
