# generated using pymatgen
data_RbRe3Br10
_symmetry_space_group_name_H-M   'P 1'
_cell_length_a   9.53959936
_cell_length_b   9.53959936
_cell_length_c   10.67065858
_cell_angle_alpha   88.10696236
_cell_angle_beta   91.89303764
_cell_angle_gamma   108.92211821
_symmetry_Int_Tables_number   1
_chemical_formula_structural   RbRe3Br10
_chemical_formula_sum   'Rb2 Re6 Br20'
_cell_volume   917.83839401
_cell_formula_units_Z   2
loop_
 _symmetry_equiv_pos_site_id
 _symmetry_equiv_pos_as_xyz
  1  'x, y, z'
loop_
 _atom_site_type_symbol
 _atom_site_label
 _atom_site_symmetry_multiplicity
 _atom_site_fract_x
 _atom_site_fract_y
 _atom_site_fract_z
 _atom_site_occupancy
  Rb  Rb0  1  0.789054  0.789054  0.000000  1
  Rb  Rb1  1  0.210946  0.210946  0.000000  1
  Re  Re2  1  0.408542  0.813027  0.626672  1
  Re  Re3  1  0.813027  0.408542  0.373328  1
  Re  Re4  1  0.186973  0.591458  0.626672  1
  Re  Re5  1  0.591458  0.186973  0.373328  1
  Re  Re6  1  0.238353  0.761647  0.806025  1
  Re  Re7  1  0.761647  0.238353  0.193975  1
  Br  Br8  1  0.289992  0.398389  0.700372  1
  Br  Br9  1  0.917564  0.082436  0.262042  1
  Br  Br10  1  0.082436  0.917564  0.737958  1
  Br  Br11  1  0.161153  0.838847  0.034354  1
  Br  Br12  1  0.529140  0.007518  0.189515  1
  Br  Br13  1  0.997704  0.324718  0.503178  1
  Br  Br14  1  0.710008  0.601611  0.299628  1
  Br  Br15  1  0.356482  0.643518  0.436686  1
  Br  Br16  1  0.324718  0.997704  0.496822  1
  Br  Br17  1  0.470860  0.992482  0.810485  1
  Br  Br18  1  0.398389  0.289992  0.299628  1
  Br  Br19  1  0.601611  0.710008  0.700372  1
  Br  Br20  1  0.632683  0.367317  0.045845  1
  Br  Br21  1  0.992482  0.470860  0.189515  1
  Br  Br22  1  0.838847  0.161153  0.965646  1
  Br  Br23  1  0.675281  0.002296  0.503178  1
  Br  Br24  1  0.367317  0.632683  0.954155  1
  Br  Br25  1  0.007518  0.529140  0.810485  1
  Br  Br26  1  0.643518  0.356482  0.563314  1
  Br  Br27  1  0.002296  0.675281  0.496822  1
