# generated using pymatgen
data_RbGd(PO3)4
_symmetry_space_group_name_H-M   'P 1'
_cell_length_a   10.51824398
_cell_length_b   9.05160438
_cell_length_c   12.96664506
_cell_angle_alpha   90.00000000
_cell_angle_beta   124.65520287
_cell_angle_gamma   90.00000000
_symmetry_Int_Tables_number   1
_chemical_formula_structural   RbGd(PO3)4
_chemical_formula_sum   'Rb4 Gd4 P16 O48'
_cell_volume   1015.49844835
_cell_formula_units_Z   4
loop_
 _symmetry_equiv_pos_site_id
 _symmetry_equiv_pos_as_xyz
  1  'x, y, z'
loop_
 _atom_site_type_symbol
 _atom_site_label
 _atom_site_symmetry_multiplicity
 _atom_site_fract_x
 _atom_site_fract_y
 _atom_site_fract_z
 _atom_site_occupancy
  Rb  Rb0  1  0.736576  0.932314  0.541803  1
  Rb  Rb1  1  0.736576  0.567686  0.041803  1
  Rb  Rb2  1  0.263424  0.067686  0.458197  1
  Rb  Rb3  1  0.263424  0.432314  0.958197  1
  Gd  Gd4  1  0.815769  0.226819  0.816863  1
  Gd  Gd5  1  0.184231  0.726819  0.683137  1
  Gd  Gd6  1  0.184231  0.773181  0.183137  1
  Gd  Gd7  1  0.815769  0.273181  0.316863  1
  P  P8  1  0.698583  0.107392  0.022503  1
  P  P9  1  0.301417  0.607392  0.477497  1
  P  P10  1  0.301417  0.892608  0.977497  1
  P  P11  1  0.887026  0.592771  0.740958  1
  P  P12  1  0.887026  0.907229  0.240958  1
  P  P13  1  0.112974  0.407229  0.259042  1
  P  P14  1  0.177146  0.327805  0.637336  1
  P  P15  1  0.822854  0.827805  0.862664  1
  P  P16  1  0.526031  0.973769  0.777373  1
  P  P17  1  0.177146  0.172195  0.137336  1
  P  P18  1  0.698583  0.392608  0.522503  1
  P  P19  1  0.473969  0.473769  0.722627  1
  P  P20  1  0.526031  0.526231  0.277373  1
  P  P21  1  0.112974  0.092771  0.759042  1
  P  P22  1  0.822854  0.672195  0.362664  1
  P  P23  1  0.473969  0.026231  0.222627  1
  O  O24  1  0.337437  0.790042  0.906298  1
  O  O25  1  0.540118  0.454846  0.398726  1
  O  O26  1  0.429959  0.915743  0.284111  1
  O  O27  1  0.777537  0.792232  0.253347  1
  O  O28  1  0.654375  0.842384  0.839580  1
  O  O29  1  0.540118  0.045154  0.898726  1
  O  O30  1  0.222463  0.207768  0.746653  1
  O  O31  1  0.765193  0.548610  0.596234  1
  O  O32  1  0.459882  0.954846  0.101274  1
  O  O33  1  0.654375  0.657616  0.339580  1
  O  O34  1  0.234807  0.451390  0.403766  1
  O  O35  1  0.073038  0.241561  0.010806  1
  O  O36  1  0.570041  0.084257  0.715889  1
  O  O37  1  0.073038  0.258439  0.510806  1
  O  O38  1  0.017876  0.677264  0.754092  1
  O  O39  1  0.200949  0.837121  0.016942  1
  O  O40  1  0.570041  0.415743  0.215889  1
  O  O41  1  0.799051  0.162879  0.983058  1
  O  O42  1  0.926962  0.741561  0.489194  1
  O  O43  1  0.200949  0.662879  0.516942  1
  O  O44  1  0.926962  0.758439  0.989194  1
  O  O45  1  0.662563  0.290042  0.593702  1
  O  O46  1  0.075864  0.538705  0.175821  1
  O  O47  1  0.777537  0.707768  0.753347  1
  O  O48  1  0.368559  0.594109  0.197349  1
  O  O49  1  0.662563  0.209958  0.093702  1
  O  O50  1  0.222463  0.292232  0.246653  1
  O  O51  1  0.924136  0.038705  0.324179  1
  O  O52  1  0.234807  0.048610  0.903766  1
  O  O53  1  0.865501  0.968719  0.828562  1
  O  O54  1  0.075864  0.961295  0.675821  1
  O  O55  1  0.134499  0.031281  0.171438  1
  O  O56  1  0.345625  0.157616  0.160420  1
  O  O57  1  0.631441  0.094109  0.302651  1
  O  O58  1  0.865501  0.531281  0.328562  1
  O  O59  1  0.368559  0.905891  0.697349  1
  O  O60  1  0.799051  0.337121  0.483058  1
  O  O61  1  0.631441  0.405891  0.802651  1
  O  O62  1  0.345625  0.342384  0.660420  1
  O  O63  1  0.765193  0.951390  0.096234  1
  O  O64  1  0.982124  0.177264  0.745908  1
  O  O65  1  0.017876  0.822736  0.254092  1
  O  O66  1  0.924136  0.461295  0.824179  1
  O  O67  1  0.429959  0.584257  0.784111  1
  O  O68  1  0.982124  0.322736  0.245908  1
  O  O69  1  0.337437  0.709958  0.406298  1
  O  O70  1  0.134499  0.468719  0.671438  1
  O  O71  1  0.459882  0.545154  0.601274  1
