# generated using pymatgen
data_Cu9Se4(Cl3O7)2
_symmetry_space_group_name_H-M   'P 1'
_cell_length_a   8.28914612
_cell_length_b   8.28914612
_cell_length_c   13.29033988
_cell_angle_alpha   62.31032278
_cell_angle_beta   117.68967722
_cell_angle_gamma   135.16445170
_symmetry_Int_Tables_number   1
_chemical_formula_structural   Cu9Se4(Cl3O7)2
_chemical_formula_sum   'Cu9 Se4 Cl6 O14'
_cell_volume   556.60176729
_cell_formula_units_Z   1
loop_
 _symmetry_equiv_pos_site_id
 _symmetry_equiv_pos_as_xyz
  1  'x, y, z'
loop_
 _atom_site_type_symbol
 _atom_site_label
 _atom_site_symmetry_multiplicity
 _atom_site_fract_x
 _atom_site_fract_y
 _atom_site_fract_z
 _atom_site_occupancy
  Cu  Cu0  1  0.121621  0.878379  0.093787  1
  Cu  Cu1  1  0.710882  0.289118  0.265266  1
  Cu  Cu2  1  0.615548  0.384452  0.784781  1
  Cu  Cu3  1  0.384452  0.615548  0.215219  1
  Cu  Cu4  1  0.500000  0.500000  0.500000  1
  Cu  Cu5  1  0.878379  0.121621  0.906213  1
  Cu  Cu6  1  0.000000  0.500000  0.000000  1
  Cu  Cu7  1  0.289118  0.710882  0.734734  1
  Cu  Cu8  1  0.500000  1.000000  0.000000  1
  Se  Se9  1  0.039446  0.960554  0.805164  1
  Se  Se10  1  0.960554  0.039446  0.194836  1
  Se  Se11  1  0.745922  0.254078  0.637759  1
  Se  Se12  1  0.254078  0.745922  0.362241  1
  Cl  Cl13  1  0.632881  0.367119  0.070348  1
  Cl  Cl14  1  0.551259  0.448741  0.361191  1
  Cl  Cl15  1  0.367119  0.632881  0.929652  1
  Cl  Cl16  1  0.448741  0.551259  0.638809  1
  Cl  Cl17  1  0.836052  0.163948  0.447023  1
  Cl  Cl18  1  0.163948  0.836052  0.552977  1
  O  O19  1  0.241389  0.758611  0.079101  1
  O  O20  1  0.667568  0.919386  0.154206  1
  O  O21  1  0.631489  0.368511  0.635601  1
  O  O22  1  0.080614  0.332432  0.154206  1
  O  O23  1  0.015844  0.984156  0.920802  1
  O  O24  1  0.004909  0.380883  0.745983  1
  O  O25  1  0.380883  0.004909  0.254017  1
  O  O26  1  0.919386  0.667568  0.845794  1
  O  O27  1  0.332432  0.080614  0.845794  1
  O  O28  1  0.984156  0.015844  0.079198  1
  O  O29  1  0.758611  0.241389  0.920899  1
  O  O30  1  0.368511  0.631489  0.364399  1
  O  O31  1  0.619117  0.995091  0.745983  1
  O  O32  1  0.995091  0.619117  0.254017  1
