# generated using pymatgen
data_Al24Zn3O40
_symmetry_space_group_name_H-M   'P 1'
_cell_length_a   5.69424560
_cell_length_b   5.69424560
_cell_length_c   23.28801258
_cell_angle_alpha   82.94895989
_cell_angle_beta   97.05104011
_cell_angle_gamma   119.65544521
_symmetry_Int_Tables_number   1
_chemical_formula_structural   Al24Zn3O40
_chemical_formula_sum   'Al24 Zn3 O40'
_cell_volume   649.54634344
_cell_formula_units_Z   1
loop_
 _symmetry_equiv_pos_site_id
 _symmetry_equiv_pos_as_xyz
  1  'x, y, z'
loop_
 _atom_site_type_symbol
 _atom_site_label
 _atom_site_symmetry_multiplicity
 _atom_site_fract_x
 _atom_site_fract_y
 _atom_site_fract_z
 _atom_site_occupancy
  Al  Al0  1  0.999597  0.000403  0.999330  1
  Al  Al1  1  0.300751  0.202097  0.897784  1
  Al  Al2  1  0.797903  0.699249  0.897784  1
  Al  Al3  1  0.530930  0.469070  0.572867  1
  Al  Al4  1  0.797720  0.202280  0.897607  1
  Al  Al5  1  0.894349  0.596701  0.702158  1
  Al  Al6  1  0.275763  0.724237  0.829719  1
  Al  Al7  1  0.403299  0.105651  0.702158  1
  Al  Al8  1  0.188719  0.811281  0.596058  1
  Al  Al9  1  0.402167  0.597833  0.701516  1
  Al  Al10  1  0.510130  0.001465  0.501469  1
  Al  Al11  1  0.596651  0.897695  0.295741  1
  Al  Al12  1  0.998535  0.489870  0.501469  1
  Al  Al13  1  0.804412  0.195588  0.398956  1
  Al  Al14  1  0.869911  0.130089  0.625587  1
  Al  Al15  1  0.724771  0.275229  0.172102  1
  Al  Al16  1  0.102305  0.403349  0.295741  1
  Al  Al17  1  0.469496  0.530504  0.423749  1
  Al  Al18  1  0.597409  0.402591  0.295847  1
  Al  Al19  1  0.691704  0.792515  0.105356  1
  Al  Al20  1  0.076656  0.923344  0.229749  1
  Al  Al21  1  0.207485  0.308296  0.105356  1
  Al  Al22  1  0.207307  0.792693  0.105629  1
  Al  Al23  1  0.675361  0.324639  0.027219  1
  Zn  Zn24  1  0.325288  0.674712  0.974154  1
  Zn  Zn25  1  0.925286  0.074714  0.774797  1
  Zn  Zn26  1  0.126423  0.873577  0.372653  1
  O  O27  1  0.689808  0.871542  0.948328  1
  O  O28  1  0.952258  0.047742  0.857347  1
  O  O29  1  0.128458  0.310192  0.948328  1
  O  O30  1  0.129291  0.870709  0.948325  1
  O  O31  1  0.266470  0.265013  0.740104  1
  O  O32  1  0.453588  0.546412  0.858040  1
  O  O33  1  0.648830  0.351170  0.947731  1
  O  O34  1  0.549655  0.450345  0.651241  1
  O  O35  1  0.734987  0.733530  0.740104  1
  O  O36  1  0.453583  0.050537  0.857861  1
  O  O37  1  0.949463  0.546417  0.857861  1
  O  O38  1  0.736285  0.263715  0.740242  1
  O  O39  1  0.869144  0.635183  0.551471  1
  O  O40  1  0.058667  0.941333  0.650197  1
  O  O41  1  0.171658  0.828342  0.457792  1
  O  O42  1  0.063982  0.478829  0.651484  1
  O  O43  1  0.246985  0.753015  0.746673  1
  O  O44  1  0.364817  0.130856  0.551471  1
  O  O45  1  0.521171  0.936018  0.651484  1
  O  O46  1  0.344915  0.655085  0.549939  1
  O  O47  1  0.492869  0.074655  0.345068  1
  O  O48  1  0.657020  0.342980  0.451492  1
  O  O49  1  0.751267  0.248733  0.250407  1
  O  O50  1  0.839708  0.160292  0.548585  1
  O  O51  1  0.925345  0.507131  0.345068  1
  O  O52  1  0.633018  0.869556  0.447109  1
  O  O53  1  0.929743  0.070257  0.345722  1
  O  O54  1  0.130444  0.366982  0.447109  1
  O  O55  1  0.047017  0.450981  0.144129  1
  O  O56  1  0.254029  0.745971  0.256514  1
  O  O57  1  0.549019  0.952983  0.144129  1
  O  O58  1  0.449146  0.550854  0.344714  1
  O  O59  1  0.253878  0.250525  0.256377  1
  O  O60  1  0.353706  0.646294  0.060960  1
  O  O61  1  0.549010  0.450990  0.144038  1
  O  O62  1  0.749475  0.746122  0.256377  1
  O  O63  1  0.862804  0.137196  0.051965  1
  O  O64  1  0.049473  0.950527  0.147771  1
  O  O65  1  0.862869  0.674184  0.051946  1
  O  O66  1  0.325816  0.137131  0.051946  1
