# generated using pymatgen
data_LiAlAs2O7
_symmetry_space_group_name_H-M   'P 1'
_cell_length_a   5.26818456
_cell_length_b   5.26818456
_cell_length_c   4.70739882
_cell_angle_alpha   81.08250244
_cell_angle_beta   98.91749756
_cell_angle_gamma   78.75612405
_symmetry_Int_Tables_number   1
_chemical_formula_structural   LiAlAs2O7
_chemical_formula_sum   'Li1 Al1 As2 O7'
_cell_volume   124.25671869
_cell_formula_units_Z   1
loop_
 _symmetry_equiv_pos_site_id
 _symmetry_equiv_pos_as_xyz
  1  'x, y, z'
loop_
 _atom_site_type_symbol
 _atom_site_label
 _atom_site_symmetry_multiplicity
 _atom_site_fract_x
 _atom_site_fract_y
 _atom_site_fract_z
 _atom_site_occupancy
  Li  Li0  1  0.246152  0.246152  0.000000  1
  Al  Al1  1  0.622061  0.622061  0.000000  1
  As  As2  1  0.747615  0.179064  0.594428  1
  As  As3  1  0.179064  0.747615  0.405572  1
  O  O4  1  0.851150  0.362008  0.840596  1
  O  O5  1  0.339672  0.548099  0.731979  1
  O  O6  1  0.927855  0.623780  0.261457  1
  O  O7  1  0.057715  0.057715  0.500000  1
  O  O8  1  0.548099  0.339672  0.268021  1
  O  O9  1  0.623780  0.927855  0.738543  1
  O  O10  1  0.362008  0.851150  0.159404  1
