# generated using pymatgen
data_Cs4Ba(PO3)6
_symmetry_space_group_name_H-M   'P 1'
_cell_length_a   11.74606872
_cell_length_b   11.74606872
_cell_length_c   9.26490802
_cell_angle_alpha   90.00000000
_cell_angle_beta   90.00000000
_cell_angle_gamma   120.00000000
_symmetry_Int_Tables_number   1
_chemical_formula_structural   Cs4Ba(PO3)6
_chemical_formula_sum   'Cs8 Ba2 P12 O36'
_cell_volume   1107.02344486
_cell_formula_units_Z   2
loop_
 _symmetry_equiv_pos_site_id
 _symmetry_equiv_pos_as_xyz
  1  'x, y, z'
loop_
 _atom_site_type_symbol
 _atom_site_label
 _atom_site_symmetry_multiplicity
 _atom_site_fract_x
 _atom_site_fract_y
 _atom_site_fract_z
 _atom_site_occupancy
  Cs  Cs0  1  0.007585  0.236934  0.009178  1
  Cs  Cs1  1  0.236934  0.007585  0.509178  1
  Cs  Cs2  1  0.992415  0.229350  0.509178  1
  Cs  Cs3  1  0.763066  0.770650  0.009178  1
  Cs  Cs4  1  0.770650  0.763066  0.509178  1
  Cs  Cs5  1  0.229350  0.992415  0.009178  1
  Cs  Cs6  1  0.666667  0.333333  0.749832  1
  Cs  Cs7  1  0.333333  0.666667  0.249832  1
  Ba  Ba8  1  0.333333  0.666667  0.759366  1
  Ba  Ba9  1  0.666667  0.333333  0.259366  1
  P  P10  1  0.544962  0.996610  0.494349  1
  P  P11  1  0.285719  0.308793  0.746256  1
  P  P12  1  0.455038  0.451647  0.994349  1
  P  P13  1  0.308793  0.285719  0.246256  1
  P  P14  1  0.996610  0.544962  0.994349  1
  P  P15  1  0.691207  0.976926  0.746256  1
  P  P16  1  0.714281  0.023074  0.246256  1
  P  P17  1  0.003390  0.548353  0.494349  1
  P  P18  1  0.023074  0.714281  0.746256  1
  P  P19  1  0.451647  0.455038  0.494349  1
  P  P20  1  0.548353  0.003390  0.994349  1
  P  P21  1  0.976926  0.691207  0.246256  1
  O  O22  1  0.675824  0.022897  0.584816  1
  O  O23  1  0.022897  0.675824  0.084816  1
  O  O24  1  0.952467  0.576910  0.839194  1
  O  O25  1  0.375557  0.423090  0.339194  1
  O  O26  1  0.347073  0.324176  0.584816  1
  O  O27  1  0.324176  0.347073  0.084816  1
  O  O28  1  0.576910  0.952467  0.339194  1
  O  O29  1  0.576779  0.455001  0.049128  1
  O  O30  1  0.423221  0.878222  0.549128  1
  O  O31  1  0.953728  0.789779  0.774562  1
  O  O32  1  0.977103  0.652927  0.584816  1
  O  O33  1  0.125932  0.548902  0.980731  1
  O  O34  1  0.121778  0.544999  0.549128  1
  O  O35  1  0.789779  0.953728  0.274562  1
  O  O36  1  0.163949  0.210221  0.274562  1
  O  O37  1  0.874068  0.422970  0.480731  1
  O  O38  1  0.388989  0.219417  0.261987  1
  O  O39  1  0.652927  0.977103  0.084816  1
  O  O40  1  0.451098  0.577030  0.980731  1
  O  O41  1  0.878222  0.423221  0.049128  1
  O  O42  1  0.577030  0.451098  0.480731  1
  O  O43  1  0.455001  0.576779  0.549128  1
  O  O44  1  0.210221  0.163949  0.774562  1
  O  O45  1  0.047533  0.624443  0.339194  1
  O  O46  1  0.611011  0.830428  0.761987  1
  O  O47  1  0.548902  0.125932  0.480731  1
  O  O48  1  0.544999  0.121778  0.049128  1
  O  O49  1  0.780583  0.169572  0.261987  1
  O  O50  1  0.169572  0.780583  0.761987  1
  O  O51  1  0.624443  0.047533  0.839194  1
  O  O52  1  0.830428  0.611011  0.261987  1
  O  O53  1  0.422970  0.874068  0.980731  1
  O  O54  1  0.423090  0.375557  0.839194  1
  O  O55  1  0.219417  0.388989  0.761987  1
  O  O56  1  0.046272  0.836051  0.274562  1
  O  O57  1  0.836051  0.046272  0.774562  1
