# generated using pymatgen
data_Na3OsO5
_symmetry_space_group_name_H-M   'P 1'
_cell_length_a   5.62429937
_cell_length_b   5.62429937
_cell_length_c   13.62615414
_cell_angle_alpha   90.00000000
_cell_angle_beta   90.00000000
_cell_angle_gamma   120.00000000
_symmetry_Int_Tables_number   1
_chemical_formula_structural   Na3OsO5
_chemical_formula_sum   'Na9 Os3 O15'
_cell_volume   373.28521393
_cell_formula_units_Z   3
loop_
 _symmetry_equiv_pos_site_id
 _symmetry_equiv_pos_as_xyz
  1  'x, y, z'
loop_
 _atom_site_type_symbol
 _atom_site_label
 _atom_site_symmetry_multiplicity
 _atom_site_fract_x
 _atom_site_fract_y
 _atom_site_fract_z
 _atom_site_occupancy
  Na  Na0  1  0.914165  0.295234  0.915023  1
  Na  Na1  1  0.704766  0.618931  0.248356  1
  Na  Na2  1  0.085835  0.381069  0.418311  1
  Na  Na3  1  0.381069  0.085835  0.581689  1
  Na  Na4  1  0.723417  0.723417  0.500000  1
  Na  Na5  1  0.618931  0.704766  0.751644  1
  Na  Na6  1  0.276583  0.000000  0.833333  1
  Na  Na7  1  0.000000  0.276583  0.166667  1
  Na  Na8  1  0.295234  0.914165  0.084977  1
  Os  Os9  1  0.384331  0.000000  0.333333  1
  Os  Os10  1  0.000000  0.384331  0.666667  1
  Os  Os11  1  0.615669  0.615669  0.000000  1
  O  O12  1  0.484110  0.823473  0.935091  1
  O  O13  1  0.000000  0.701994  0.666667  1
  O  O14  1  0.515890  0.339363  0.398242  1
  O  O15  1  0.660637  0.176527  0.731575  1
  O  O16  1  0.840378  0.156315  0.561202  1
  O  O17  1  0.159622  0.315937  0.772132  1
  O  O18  1  0.823473  0.484110  0.064909  1
  O  O19  1  0.843685  0.684063  0.894535  1
  O  O20  1  0.315937  0.159622  0.227868  1
  O  O21  1  0.156315  0.840378  0.438798  1
  O  O22  1  0.701994  0.000000  0.333333  1
  O  O23  1  0.176527  0.660637  0.268425  1
  O  O24  1  0.339363  0.515890  0.601758  1
  O  O25  1  0.298006  0.298006  0.000000  1
  O  O26  1  0.684063  0.843685  0.105465  1
