# generated using pymatgen
data_YNi3
_symmetry_space_group_name_H-M   'P 1'
_cell_length_a   8.61653015
_cell_length_b   8.61653015
_cell_length_c   8.61653015
_cell_angle_alpha   33.51035287
_cell_angle_beta   33.51035287
_cell_angle_gamma   33.51035287
_symmetry_Int_Tables_number   1
_chemical_formula_structural   YNi3
_chemical_formula_sum   'Y3 Ni9'
_cell_volume   173.66916666
_cell_formula_units_Z   3
loop_
 _symmetry_equiv_pos_site_id
 _symmetry_equiv_pos_as_xyz
  1  'x, y, z'
loop_
 _atom_site_type_symbol
 _atom_site_label
 _atom_site_symmetry_multiplicity
 _atom_site_fract_x
 _atom_site_fract_y
 _atom_site_fract_z
 _atom_site_occupancy
  Y  Y0  1  0.138671  0.138671  0.138671  1
  Y  Y1  1  0.861329  0.861329  0.861329  1
  Y  Y2  1  0.000000  1.000000  0.000000  1
  Ni  Ni3  1  0.582118  0.080945  0.582118  1
  Ni  Ni4  1  0.080945  0.582118  0.582118  1
  Ni  Ni5  1  0.500000  0.500000  0.500000  1
  Ni  Ni6  1  0.417882  0.417882  0.919055  1
  Ni  Ni7  1  0.417882  0.919055  0.417882  1
  Ni  Ni8  1  0.666757  0.666757  0.666757  1
  Ni  Ni9  1  0.582118  0.582118  0.080945  1
  Ni  Ni10  1  0.333243  0.333243  0.333243  1
  Ni  Ni11  1  0.919055  0.417882  0.417882  1
