# generated using pymatgen
data_Nb2Hg3S(O2F5)2
_symmetry_space_group_name_H-M   'P 1'
_cell_length_a   12.31350467
_cell_length_b   10.48363127
_cell_length_c   9.31479712
_cell_angle_alpha   76.66396641
_cell_angle_beta   55.93823755
_cell_angle_gamma   47.39779604
_symmetry_Int_Tables_number   1
_chemical_formula_structural   Nb2Hg3S(O2F5)2
_chemical_formula_sum   'Nb4 Hg6 S2 O8 F20'
_cell_volume   711.17367036
_cell_formula_units_Z   2
loop_
 _symmetry_equiv_pos_site_id
 _symmetry_equiv_pos_as_xyz
  1  'x, y, z'
loop_
 _atom_site_type_symbol
 _atom_site_label
 _atom_site_symmetry_multiplicity
 _atom_site_fract_x
 _atom_site_fract_y
 _atom_site_fract_z
 _atom_site_occupancy
  Nb  Nb0  1  0.009985  0.875908  0.610175  1
  Nb  Nb1  1  0.503932  0.610175  0.875908  1
  Nb  Nb2  1  0.639825  0.746068  0.240015  1
  Nb  Nb3  1  0.374092  0.240015  0.746068  1
  Hg  Hg4  1  0.998512  0.501488  0.501488  1
  Hg  Hg5  1  0.748512  0.251488  0.251488  1
  Hg  Hg6  1  0.020180  0.679088  0.249259  1
  Hg  Hg7  1  0.051473  0.249259  0.679088  1
  Hg  Hg8  1  0.000741  0.198527  0.229820  1
  Hg  Hg9  1  0.570912  0.229820  0.198527  1
  S  S10  1  0.145106  0.854894  0.854894  1
  S  S11  1  0.395106  0.104894  0.104894  1
  O  O12  1  0.145141  0.784107  0.731200  1
  O  O13  1  0.339552  0.731200  0.784107  1
  O  O14  1  0.518800  0.910448  0.104859  1
  O  O15  1  0.465893  0.104859  0.910448  1
  O  O16  1  0.042514  0.849906  0.039001  1
  O  O17  1  0.068578  0.039001  0.849906  1
  O  O18  1  0.210999  0.181422  0.207486  1
  O  O19  1  0.400094  0.207486  0.181422  1
  F  F20  1  0.893574  0.968863  0.490196  1
  F  F21  1  0.647368  0.490196  0.968863  1
  F  F22  1  0.759804  0.602632  0.356426  1
  F  F23  1  0.281137  0.356426  0.602632  1
  F  F24  1  0.227797  0.664266  0.421043  1
  F  F25  1  0.686893  0.421043  0.664266  1
  F  F26  1  0.828957  0.563107  0.022203  1
  F  F27  1  0.585734  0.022203  0.563107  1
  F  F28  1  0.802878  0.071769  0.821830  1
  F  F29  1  0.303522  0.821830  0.071769  1
  F  F30  1  0.428170  0.946478  0.447122  1
  F  F31  1  0.178231  0.447122  0.946478  1
  F  F32  1  0.931960  0.750442  0.722442  1
  F  F33  1  0.595157  0.722442  0.750442  1
  F  F34  1  0.527558  0.654843  0.318040  1
  F  F35  1  0.499558  0.318040  0.654843  1
  F  F36  1  0.081290  0.010052  0.502370  1
  F  F37  1  0.406288  0.502370  0.010052  1
  F  F38  1  0.747630  0.843712  0.168710  1
  F  F39  1  0.239948  0.168710  0.843712  1
