# generated using pymatgen
data_Rb2Th(PSe3)3
_symmetry_space_group_name_H-M   'P 1'
_cell_length_a   10.43172776
_cell_length_b   10.80580694
_cell_length_c   17.05285085
_cell_angle_alpha   89.91528765
_cell_angle_beta   107.43471542
_cell_angle_gamma   91.74366134
_symmetry_Int_Tables_number   1
_chemical_formula_structural   Rb2Th(PSe3)3
_chemical_formula_sum   'Rb8 Th4 P12 Se36'
_cell_volume   1833.03427770
_cell_formula_units_Z   4
loop_
 _symmetry_equiv_pos_site_id
 _symmetry_equiv_pos_as_xyz
  1  'x, y, z'
loop_
 _atom_site_type_symbol
 _atom_site_label
 _atom_site_symmetry_multiplicity
 _atom_site_fract_x
 _atom_site_fract_y
 _atom_site_fract_z
 _atom_site_occupancy
  Rb  Rb0  1  0.393847  0.901199  0.673857  1
  Rb  Rb1  1  0.664886  0.477637  0.291016  1
  Rb  Rb2  1  0.075044  0.819917  0.989138  1
  Rb  Rb3  1  0.824575  0.390759  0.598167  1
  Rb  Rb4  1  0.912398  0.909128  0.680769  1
  Rb  Rb5  1  0.118193  0.334861  0.272207  1
  Rb  Rb6  1  0.634703  0.971759  0.014014  1
  Rb  Rb7  1  0.344364  0.395749  0.607094  1
  Th  Th8  1  0.567122  0.423689  0.920734  1
  Th  Th9  1  0.172703  0.873617  0.359488  1
  Th  Th10  1  0.144889  0.366338  0.970683  1
  Th  Th11  1  0.595098  0.930879  0.309602  1
  P  P12  1  0.647750  0.222092  0.765496  1
  P  P13  1  0.299999  0.073560  0.150075  1
  P  P14  1  0.439983  0.224013  0.130255  1
  P  P15  1  0.860218  0.577178  0.086518  1
  P  P16  1  0.581803  0.736814  0.488034  1
  P  P17  1  0.879276  0.719970  0.193846  1
  P  P18  1  0.834430  0.148094  0.857374  1
  P  P19  1  0.905645  0.148844  0.422906  1
  P  P20  1  0.092278  0.074863  0.514681  1
  P  P21  1  0.328260  0.684603  0.868876  1
  P  P22  1  0.158312  0.561281  0.792533  1
  P  P23  1  0.412293  0.612991  0.412071  1
  Se  Se24  1  0.665976  0.765242  0.179433  1
  Se  Se25  1  0.073455  0.870238  0.508908  1
  Se  Se26  1  0.098843  0.134101  0.074609  1
  Se  Se27  1  0.364049  0.714447  0.289306  1
  Se  Se28  1  0.018270  0.202502  0.823969  1
  Se  Se29  1  0.001421  0.880952  0.173480  1
  Se  Se30  1  0.993955  0.641057  0.313508  1
  Se  Se31  1  0.262917  0.376618  0.816267  1
  Se  Se32  1  0.499404  0.171626  0.832390  1
  Se  Se33  1  0.385956  0.897294  0.129237  1
  Se  Se34  1  0.401502  0.216310  0.992537  1
  Se  Se35  1  0.354578  0.400683  0.150815  1
  Se  Se36  1  0.737981  0.416199  0.106626  1
  Se  Se37  1  0.476765  0.921074  0.463590  1
  Se  Se38  1  0.666451  0.426754  0.771096  1
  Se  Se39  1  0.338410  0.080958  0.287778  1
  Se  Se40  1  0.465595  0.421782  0.417351  1
  Se  Se41  1  0.843092  0.268307  0.968475  1
  Se  Se42  1  0.487488  0.644781  0.811134  1
  Se  Se43  1  0.616350  0.143259  0.644958  1
  Se  Se44  1  0.722263  0.093768  0.456616  1
  Se  Se45  1  0.123277  0.153609  0.635169  1
  Se  Se46  1  0.000996  0.563196  0.855448  1
  Se  Se47  1  0.791284  0.951027  0.861025  1
  Se  Se48  1  0.896783  0.028997  0.311715  1
  Se  Se49  1  0.073614  0.532354  0.100864  1
  Se  Se50  1  0.745103  0.656973  0.967291  1
  Se  Se51  1  0.375872  0.581994  0.991250  1
  Se  Se52  1  0.948139  0.346031  0.419490  1
  Se  Se53  1  0.739034  0.733942  0.425087  1
  Se  Se54  1  0.252455  0.652076  0.469323  1
  Se  Se55  1  0.639436  0.681121  0.614701  1
  Se  Se56  1  0.240796  0.125388  0.447948  1
  Se  Se57  1  0.276907  0.876070  0.864540  1
  Se  Se58  1  0.641164  0.163572  0.206007  1
  Se  Se59  1  0.099750  0.618105  0.666064  1
