# generated using pymatgen
data_SrMg4
_symmetry_space_group_name_H-M   'P 1'
_cell_length_a   10.46322066
_cell_length_b   10.46322066
_cell_length_c   27.91652218
_cell_angle_alpha   90.00000000
_cell_angle_beta   90.00000000
_cell_angle_gamma   120.00000000
_symmetry_Int_Tables_number   1
_chemical_formula_structural   SrMg4
_chemical_formula_sum   'Sr18 Mg72'
_cell_volume   2646.80967761
_cell_formula_units_Z   18
loop_
 _symmetry_equiv_pos_site_id
 _symmetry_equiv_pos_as_xyz
  1  'x, y, z'
loop_
 _atom_site_type_symbol
 _atom_site_label
 _atom_site_symmetry_multiplicity
 _atom_site_fract_x
 _atom_site_fract_y
 _atom_site_fract_z
 _atom_site_occupancy
  Sr  Sr0  1  0.135659  0.864341  0.061597  1
  Sr  Sr1  1  0.864341  0.135659  0.938403  1
  Sr  Sr2  1  0.940353  0.470176  0.250000  1
  Sr  Sr3  1  0.135659  0.271318  0.061597  1
  Sr  Sr4  1  0.470176  0.529824  0.750000  1
  Sr  Sr5  1  0.864341  0.728682  0.938403  1
  Sr  Sr6  1  0.864341  0.728682  0.561597  1
  Sr  Sr7  1  0.529824  0.470176  0.250000  1
  Sr  Sr8  1  0.728682  0.864341  0.061597  1
  Sr  Sr9  1  0.135659  0.271318  0.438403  1
  Sr  Sr10  1  0.271318  0.135659  0.938403  1
  Sr  Sr11  1  0.728682  0.864341  0.438403  1
  Sr  Sr12  1  0.135659  0.864341  0.438403  1
  Sr  Sr13  1  0.529824  0.059647  0.250000  1
  Sr  Sr14  1  0.864341  0.135659  0.561597  1
  Sr  Sr15  1  0.271318  0.135659  0.561597  1
  Sr  Sr16  1  0.470176  0.940353  0.750000  1
  Sr  Sr17  1  0.059647  0.529824  0.750000  1
  Mg  Mg18  1  0.000000  0.000000  0.341551  1
  Mg  Mg19  1  0.832267  0.664534  0.346608  1
  Mg  Mg20  1  0.233873  0.766127  0.945402  1
  Mg  Mg21  1  0.832267  0.664534  0.153392  1
  Mg  Mg22  1  0.647788  0.823894  0.188078  1
  Mg  Mg23  1  0.333333  0.666667  0.851585  1
  Mg  Mg24  1  0.666667  0.333333  0.351585  1
  Mg  Mg25  1  0.176106  0.823894  0.188078  1
  Mg  Mg26  1  0.000000  0.000000  0.658449  1
  Mg  Mg27  1  0.832267  0.167733  0.346608  1
  Mg  Mg28  1  0.766127  0.233873  0.445402  1
  Mg  Mg29  1  0.511518  0.488482  0.881404  1
  Mg  Mg30  1  0.532255  0.766127  0.554598  1
  Mg  Mg31  1  0.823894  0.176106  0.688078  1
  Mg  Mg32  1  0.766127  0.532255  0.054598  1
  Mg  Mg33  1  0.167733  0.335466  0.653392  1
  Mg  Mg34  1  0.167733  0.335466  0.846608  1
  Mg  Mg35  1  0.335466  0.167733  0.153392  1
  Mg  Mg36  1  0.023037  0.511518  0.381404  1
  Mg  Mg37  1  0.176106  0.352212  0.311922  1
  Mg  Mg38  1  0.532255  0.766127  0.945402  1
  Mg  Mg39  1  0.333333  0.666667  0.648415  1
  Mg  Mg40  1  0.333333  0.666667  0.045967  1
  Mg  Mg41  1  0.000000  0.000000  0.841551  1
  Mg  Mg42  1  0.500000  0.000000  0.500000  1
  Mg  Mg43  1  0.901005  0.802010  0.250000  1
  Mg  Mg44  1  0.335466  0.167733  0.346608  1
  Mg  Mg45  1  0.511518  0.023037  0.618596  1
  Mg  Mg46  1  0.766127  0.532255  0.445402  1
  Mg  Mg47  1  0.511518  0.488482  0.618596  1
  Mg  Mg48  1  0.233873  0.766127  0.554598  1
  Mg  Mg49  1  0.666667  0.333333  0.148415  1
  Mg  Mg50  1  0.766127  0.233873  0.054598  1
  Mg  Mg51  1  0.233873  0.467745  0.945402  1
  Mg  Mg52  1  0.352212  0.176106  0.688078  1
  Mg  Mg53  1  0.000000  0.000000  0.158449  1
  Mg  Mg54  1  0.000000  0.500000  0.500000  1
  Mg  Mg55  1  0.802010  0.901005  0.750000  1
  Mg  Mg56  1  0.666667  0.333333  0.954033  1
  Mg  Mg57  1  0.976963  0.488482  0.881404  1
  Mg  Mg58  1  0.467745  0.233873  0.054598  1
  Mg  Mg59  1  0.976963  0.488482  0.618596  1
  Mg  Mg60  1  0.488482  0.976963  0.381404  1
  Mg  Mg61  1  0.167733  0.832267  0.846608  1
  Mg  Mg62  1  0.488482  0.511518  0.118596  1
  Mg  Mg63  1  0.823894  0.176106  0.811922  1
  Mg  Mg64  1  0.823894  0.647788  0.688078  1
  Mg  Mg65  1  0.176106  0.352212  0.188078  1
  Mg  Mg66  1  0.500000  0.500000  0.500000  1
  Mg  Mg67  1  0.664534  0.832267  0.846608  1
  Mg  Mg68  1  0.488482  0.976963  0.118596  1
  Mg  Mg69  1  0.000000  0.500000  0.000000  1
  Mg  Mg70  1  0.500000  0.500000  0.000000  1
  Mg  Mg71  1  0.098995  0.901005  0.750000  1
  Mg  Mg72  1  0.333333  0.666667  0.454033  1
  Mg  Mg73  1  0.664534  0.832267  0.653392  1
  Mg  Mg74  1  0.197990  0.098995  0.250000  1
  Mg  Mg75  1  0.901005  0.098995  0.250000  1
  Mg  Mg76  1  0.023037  0.511518  0.118596  1
  Mg  Mg77  1  0.823894  0.647788  0.811922  1
  Mg  Mg78  1  0.167733  0.832267  0.653392  1
  Mg  Mg79  1  0.832267  0.167733  0.153392  1
  Mg  Mg80  1  0.647788  0.823894  0.311922  1
  Mg  Mg81  1  0.500000  0.000000  0.000000  1
  Mg  Mg82  1  0.098995  0.197990  0.750000  1
  Mg  Mg83  1  0.511518  0.023037  0.881404  1
  Mg  Mg84  1  0.176106  0.823894  0.311922  1
  Mg  Mg85  1  0.666667  0.333333  0.545967  1
  Mg  Mg86  1  0.467745  0.233873  0.445402  1
  Mg  Mg87  1  0.488482  0.511518  0.381404  1
  Mg  Mg88  1  0.352212  0.176106  0.811922  1
  Mg  Mg89  1  0.233873  0.467745  0.554598  1
