# generated using pymatgen
data_Li2Ni(PO3)5
_symmetry_space_group_name_H-M   'P 1'
_cell_length_a   5.14692958
_cell_length_b   9.29001854
_cell_length_c   13.18349361
_cell_angle_alpha   90.00000000
_cell_angle_beta   109.68161814
_cell_angle_gamma   90.00000000
_symmetry_Int_Tables_number   1
_chemical_formula_structural   Li2Ni(PO3)5
_chemical_formula_sum   'Li4 Ni2 P10 O30'
_cell_volume   593.54263421
_cell_formula_units_Z   2
loop_
 _symmetry_equiv_pos_site_id
 _symmetry_equiv_pos_as_xyz
  1  'x, y, z'
loop_
 _atom_site_type_symbol
 _atom_site_label
 _atom_site_symmetry_multiplicity
 _atom_site_fract_x
 _atom_site_fract_y
 _atom_site_fract_z
 _atom_site_occupancy
  Li  Li0  1  0.052679  0.342250  0.947262  1
  Li  Li1  1  0.948728  0.351311  0.550343  1
  Li  Li2  1  0.052679  0.657750  0.447262  1
  Li  Li3  1  0.948728  0.648689  0.050343  1
  Ni  Ni4  1  0.006514  0.002177  0.502840  1
  Ni  Ni5  1  0.006514  0.997823  0.002840  1
  P  P6  1  0.413271  0.814662  0.914476  1
  P  P7  1  0.454852  0.509169  0.857878  1
  P  P8  1  0.007246  0.999239  0.752808  1
  P  P9  1  0.546467  0.512551  0.641506  1
  P  P10  1  0.597654  0.818334  0.589801  1
  P  P11  1  0.413271  0.185338  0.414476  1
  P  P12  1  0.454852  0.490831  0.357878  1
  P  P13  1  0.007246  0.000761  0.252808  1
  P  P14  1  0.546467  0.487449  0.141506  1
  P  P15  1  0.597654  0.181666  0.089801  1
  O  O16  1  0.292873  0.862167  0.998287  1
  O  O17  1  0.723220  0.820362  0.945603  1
  O  O18  1  0.739894  0.487034  0.937979  1
  O  O19  1  0.311791  0.651408  0.884033  1
  O  O20  1  0.965985  0.077655  0.846166  1
  O  O21  1  0.252718  0.388302  0.842019  1
  O  O22  1  0.269371  0.891302  0.800051  1
  O  O23  1  0.500643  0.562562  0.750049  1
  O  O24  1  0.743410  0.892585  0.704992  1
  O  O25  1  0.744283  0.390031  0.655150  1
  O  O26  1  0.049512  0.078472  0.660059  1
  O  O27  1  0.695951  0.654332  0.618587  1
  O  O28  1  0.261183  0.494737  0.560566  1
  O  O29  1  0.287960  0.825242  0.558846  1
  O  O30  1  0.718395  0.866853  0.506299  1
  O  O31  1  0.292873  0.137833  0.498287  1
  O  O32  1  0.723220  0.179638  0.445603  1
  O  O33  1  0.739894  0.512966  0.437979  1
  O  O34  1  0.311791  0.348592  0.384033  1
  O  O35  1  0.965985  0.922345  0.346166  1
  O  O36  1  0.252718  0.611698  0.342019  1
  O  O37  1  0.269371  0.108698  0.300051  1
  O  O38  1  0.500643  0.437438  0.250049  1
  O  O39  1  0.743410  0.107415  0.204992  1
  O  O40  1  0.744283  0.609969  0.155150  1
  O  O41  1  0.049512  0.921528  0.160059  1
  O  O42  1  0.695951  0.345668  0.118587  1
  O  O43  1  0.261183  0.505263  0.060566  1
  O  O44  1  0.287960  0.174758  0.058846  1
  O  O45  1  0.718395  0.133147  0.006299  1
