# generated using pymatgen
data_AlPO4
_symmetry_space_group_name_H-M   'P 1'
_cell_length_a   18.73562060
_cell_length_b   18.73562060
_cell_length_c   8.52825315
_cell_angle_alpha   89.98642473
_cell_angle_beta   90.01357527
_cell_angle_gamma   60.03351789
_symmetry_Int_Tables_number   1
_chemical_formula_structural   AlPO4
_chemical_formula_sum   'Al18 P18 O72'
_cell_volume   2593.42334688
_cell_formula_units_Z   18
loop_
 _symmetry_equiv_pos_site_id
 _symmetry_equiv_pos_as_xyz
  1  'x, y, z'
loop_
 _atom_site_type_symbol
 _atom_site_label
 _atom_site_symmetry_multiplicity
 _atom_site_fract_x
 _atom_site_fract_y
 _atom_site_fract_z
 _atom_site_occupancy
  Al  Al0  1  0.316630  0.506632  0.737413  1
  Al  Al1  1  0.574116  0.009120  0.238102  1
  Al  Al2  1  0.662182  0.833324  0.736486  1
  Al  Al3  1  0.493368  0.683370  0.737413  1
  Al  Al4  1  0.416562  0.010195  0.738878  1
  Al  Al5  1  0.564422  0.435578  0.735541  1
  Al  Al6  1  0.155564  0.507370  0.235460  1
  Al  Al7  1  0.485083  0.186187  0.735531  1
  Al  Al8  1  0.166676  0.337818  0.736486  1
  Al  Al9  1  0.404713  0.595287  0.237314  1
  Al  Al10  1  0.481804  0.349373  0.235895  1
  Al  Al11  1  0.813813  0.514917  0.735531  1
  Al  Al12  1  0.990880  0.425884  0.238102  1
  Al  Al13  1  0.989805  0.583438  0.738878  1
  Al  Al14  1  0.327095  0.179660  0.235725  1
  Al  Al15  1  0.650627  0.518196  0.235895  1
  Al  Al16  1  0.492630  0.844436  0.235460  1
  Al  Al17  1  0.820340  0.672905  0.235725  1
  P  P18  1  0.158512  0.505502  0.610625  1
  P  P19  1  0.313989  0.508203  0.109342  1
  P  P20  1  0.325595  0.178899  0.611471  1
  P  P21  1  0.988043  0.586985  0.113460  1
  P  P22  1  0.662266  0.832402  0.109106  1
  P  P23  1  0.403100  0.596900  0.610828  1
  P  P24  1  0.576991  0.009055  0.610000  1
  P  P25  1  0.990945  0.423009  0.610000  1
  P  P26  1  0.482026  0.347428  0.611324  1
  P  P27  1  0.821101  0.674405  0.611471  1
  P  P28  1  0.566232  0.433768  0.114914  1
  P  P29  1  0.491797  0.686011  0.109342  1
  P  P30  1  0.167598  0.337734  0.109106  1
  P  P31  1  0.494498  0.841488  0.610625  1
  P  P32  1  0.486848  0.187285  0.109905  1
  P  P33  1  0.413015  0.011957  0.113460  1
  P  P34  1  0.812715  0.513152  0.109905  1
  P  P35  1  0.652572  0.517974  0.611324  1
  O  O36  1  0.388570  0.195014  0.698110  1
  O  O37  1  0.488438  0.708445  0.935522  1
  O  O38  1  0.589876  0.595762  0.701135  1
  O  O39  1  0.471412  0.370569  0.436745  1
  O  O40  1  0.629431  0.528588  0.436745  1
  O  O41  1  0.080211  0.352447  0.141446  1
  O  O42  1  0.600142  0.004108  0.435975  1
  O  O43  1  0.491256  0.203142  0.934805  1
  O  O44  1  0.173744  0.414431  0.150463  1
  O  O45  1  0.796858  0.508744  0.934805  1
  O  O46  1  0.494384  0.260706  0.629510  1
  O  O47  1  0.347465  0.165735  0.436537  1
  O  O48  1  0.909191  0.668956  0.151702  1
  O  O49  1  0.495689  0.860350  0.436085  1
  O  O50  1  0.480023  0.010853  0.220402  1
  O  O51  1  0.420247  0.670349  0.147084  1
  O  O52  1  0.683128  0.811314  0.935409  1
  O  O53  1  0.176329  0.423602  0.686908  1
  O  O54  1  0.382949  0.617051  0.436246  1
  O  O55  1  0.558330  0.100933  0.152892  1
  O  O56  1  0.995892  0.399858  0.435975  1
  O  O57  1  0.647553  0.919789  0.141446  1
  O  O58  1  0.083597  0.578471  0.691779  1
  O  O59  1  0.899067  0.441670  0.152892  1
  O  O60  1  0.390487  0.424042  0.144941  1
  O  O61  1  0.066763  0.591049  0.148569  1
  O  O62  1  0.739294  0.505616  0.629510  1
  O  O63  1  0.435604  0.012837  0.939671  1
  O  O64  1  0.484744  0.515256  0.627698  1
  O  O65  1  0.911326  0.432467  0.682013  1
  O  O66  1  0.327648  0.101488  0.681151  1
  O  O67  1  0.233540  0.516892  0.627684  1
  O  O68  1  0.575958  0.609513  0.144941  1
  O  O69  1  0.066840  0.355105  0.696372  1
  O  O70  1  0.576398  0.823671  0.686908  1
  O  O71  1  0.333762  0.588464  0.689761  1
  O  O72  1  0.644895  0.933160  0.696372  1
  O  O73  1  0.404238  0.410124  0.701135  1
  O  O74  1  0.548644  0.451356  0.938249  1
  O  O75  1  0.238485  0.252397  0.630692  1
  O  O76  1  0.834265  0.652535  0.436537  1
  O  O77  1  0.735405  0.770760  0.208714  1
  O  O78  1  0.497331  0.502669  0.213451  1
  O  O79  1  0.989147  0.519977  0.220402  1
  O  O80  1  0.421529  0.916403  0.691779  1
  O  O81  1  0.229240  0.264595  0.208714  1
  O  O82  1  0.411536  0.666238  0.689761  1
  O  O83  1  0.567533  0.088674  0.682013  1
  O  O84  1  0.804605  0.597395  0.146382  1
  O  O85  1  0.241086  0.519306  0.208988  1
  O  O86  1  0.139650  0.504311  0.436085  1
  O  O87  1  0.585569  0.826256  0.150463  1
  O  O88  1  0.329651  0.579753  0.147084  1
  O  O89  1  0.990182  0.505204  0.625388  1
  O  O90  1  0.408951  0.933237  0.148569  1
  O  O91  1  0.188686  0.316872  0.935409  1
  O  O92  1  0.651774  0.441393  0.678218  1
  O  O93  1  0.568209  0.352753  0.157684  1
  O  O94  1  0.494796  0.009818  0.625388  1
  O  O95  1  0.898512  0.672352  0.681151  1
  O  O96  1  0.402605  0.195395  0.146382  1
  O  O97  1  0.747603  0.761515  0.630692  1
  O  O98  1  0.496844  0.250982  0.205468  1
  O  O99  1  0.483108  0.766460  0.627684  1
  O  O100  1  0.804986  0.611430  0.698110  1
  O  O101  1  0.558607  0.348226  0.678218  1
  O  O102  1  0.331044  0.090809  0.151702  1
  O  O103  1  0.291555  0.511562  0.935522  1
  O  O104  1  0.480694  0.758914  0.208988  1
  O  O105  1  0.987163  0.564396  0.939671  1
  O  O106  1  0.647247  0.431791  0.157684  1
  O  O107  1  0.749018  0.503156  0.205468  1
