# generated using pymatgen
data_Sc6Si11Ni18
_symmetry_space_group_name_H-M   'P 1'
_cell_length_a   11.56580007
_cell_length_b   11.56580007
_cell_length_c   11.56580007
_cell_angle_alpha   139.40057127
_cell_angle_beta   116.17758955
_cell_angle_gamma   78.43773878
_symmetry_Int_Tables_number   1
_chemical_formula_structural   Sc6Si11Ni18
_chemical_formula_sum   'Sc12 Si22 Ni36'
_cell_volume   879.25481233
_cell_formula_units_Z   2
loop_
 _symmetry_equiv_pos_site_id
 _symmetry_equiv_pos_as_xyz
  1  'x, y, z'
loop_
 _atom_site_type_symbol
 _atom_site_label
 _atom_site_symmetry_multiplicity
 _atom_site_fract_x
 _atom_site_fract_y
 _atom_site_fract_z
 _atom_site_occupancy
  Sc  Sc0  1  0.189824  0.689824  0.500000  1
  Sc  Sc1  1  0.810176  0.310176  0.500000  1
  Sc  Sc2  1  0.898640  0.715049  0.183591  1
  Sc  Sc3  1  0.629745  0.129745  0.500000  1
  Sc  Sc4  1  0.101360  0.284951  0.816409  1
  Sc  Sc5  1  0.370255  0.870255  0.500000  1
  Sc  Sc6  1  0.182453  0.204024  0.386477  1
  Sc  Sc7  1  0.468542  0.284951  0.183591  1
  Sc  Sc8  1  0.817547  0.795976  0.613523  1
  Sc  Sc9  1  0.531458  0.715049  0.816409  1
  Sc  Sc10  1  0.182453  0.795976  0.978430  1
  Sc  Sc11  1  0.817547  0.204024  0.021570  1
  Si  Si12  1  0.668342  0.490362  0.822020  1
  Si  Si13  1  0.500000  0.232648  0.732648  1
  Si  Si14  1  0.988864  0.899126  0.574173  1
  Si  Si15  1  0.674492  0.500000  0.174492  1
  Si  Si16  1  0.399803  0.116576  0.283227  1
  Si  Si17  1  0.668342  0.846322  0.177980  1
  Si  Si18  1  0.324954  0.899126  0.910263  1
  Si  Si19  1  0.833349  0.116576  0.716773  1
  Si  Si20  1  0.011136  0.585309  0.910263  1
  Si  Si21  1  0.166651  0.883424  0.283227  1
  Si  Si22  1  0.331658  0.153678  0.822020  1
  Si  Si23  1  0.500000  0.767352  0.267352  1
  Si  Si24  1  0.988864  0.414691  0.089737  1
  Si  Si25  1  0.000000  0.000000  0.000000  1
  Si  Si26  1  0.011136  0.100874  0.425827  1
  Si  Si27  1  0.675046  0.585309  0.574173  1
  Si  Si28  1  0.331658  0.509638  0.177980  1
  Si  Si29  1  0.600197  0.883424  0.716773  1
  Si  Si30  1  0.000000  0.500000  0.500000  1
  Si  Si31  1  0.675046  0.100874  0.089737  1
  Si  Si32  1  0.324954  0.414691  0.425827  1
  Si  Si33  1  0.325508  0.500000  0.825508  1
  Ni  Ni34  1  0.436636  0.361678  0.629690  1
  Ni  Ni35  1  0.268012  0.193054  0.629690  1
  Ni  Ni36  1  0.213508  0.113149  0.100359  1
  Ni  Ni37  1  0.987210  0.886851  0.100359  1
  Ni  Ni38  1  0.563364  0.193054  0.925042  1
  Ni  Ni39  1  0.268012  0.638322  0.074958  1
  Ni  Ni40  1  0.790198  0.623157  0.832959  1
  Ni  Ni41  1  0.731988  0.361678  0.925042  1
  Ni  Ni42  1  0.790198  0.957240  0.167041  1
  Ni  Ni43  1  0.618216  0.000000  0.618216  1
  Ni  Ni44  1  0.786492  0.886851  0.899641  1
  Ni  Ni45  1  0.251867  0.579398  0.672469  1
  Ni  Ni46  1  0.924390  0.193924  0.269534  1
  Ni  Ni47  1  0.431151  0.431151  0.000000  1
  Ni  Ni48  1  0.562138  0.387277  0.513817  1
  Ni  Ni49  1  0.436636  0.806946  0.074958  1
  Ni  Ni50  1  0.381784  0.000000  0.381784  1
  Ni  Ni51  1  0.748133  0.420602  0.327531  1
  Ni  Ni52  1  0.209802  0.376843  0.167041  1
  Ni  Ni53  1  0.012790  0.113149  0.899641  1
  Ni  Ni54  1  0.873460  0.387277  0.825140  1
  Ni  Ni55  1  0.093072  0.420602  0.672469  1
  Ni  Ni56  1  0.873460  0.048321  0.486183  1
  Ni  Ni57  1  0.209802  0.042760  0.832959  1
  Ni  Ni58  1  0.568849  0.568849  0.000000  1
  Ni  Ni59  1  0.437862  0.951679  0.825140  1
  Ni  Ni60  1  0.075610  0.806076  0.730466  1
  Ni  Ni61  1  0.731988  0.806946  0.370310  1
  Ni  Ni62  1  0.126540  0.951679  0.513817  1
  Ni  Ni63  1  0.126540  0.612723  0.174860  1
  Ni  Ni64  1  0.563364  0.638322  0.370310  1
  Ni  Ni65  1  0.562138  0.048321  0.174860  1
  Ni  Ni66  1  0.924390  0.654856  0.730466  1
  Ni  Ni67  1  0.437862  0.612723  0.486183  1
  Ni  Ni68  1  0.906928  0.579398  0.327531  1
  Ni  Ni69  1  0.075610  0.345144  0.269534  1
