# generated using pymatgen
data_BeCl2
_symmetry_space_group_name_H-M   'P 1'
_cell_length_a   11.52321411
_cell_length_b   11.52321411
_cell_length_c   8.40369630
_cell_angle_alpha   90.00000000
_cell_angle_beta   90.00000000
_cell_angle_gamma   120.00000000
_symmetry_Int_Tables_number   1
_chemical_formula_structural   BeCl2
_chemical_formula_sum   'Be9 Cl18'
_cell_volume   966.38069167
_cell_formula_units_Z   9
loop_
 _symmetry_equiv_pos_site_id
 _symmetry_equiv_pos_as_xyz
  1  'x, y, z'
loop_
 _atom_site_type_symbol
 _atom_site_label
 _atom_site_symmetry_multiplicity
 _atom_site_fract_x
 _atom_site_fract_y
 _atom_site_fract_z
 _atom_site_occupancy
  Be  Be0  1  0.705049  0.262540  0.025244  1
  Be  Be1  1  0.262540  0.705049  0.974756  1
  Be  Be2  1  0.557491  0.294951  0.358577  1
  Be  Be3  1  0.000000  0.411630  0.833333  1
  Be  Be4  1  0.294951  0.557491  0.641423  1
  Be  Be5  1  0.737460  0.442509  0.691910  1
  Be  Be6  1  0.411630  0.000000  0.166667  1
  Be  Be7  1  0.442509  0.737460  0.308090  1
  Be  Be8  1  0.588370  0.588370  0.500000  1
  Cl  Cl9  1  0.457534  0.537214  0.685651  1
  Cl  Cl10  1  0.537214  0.457534  0.314349  1
  Cl  Cl11  1  0.381307  0.142482  0.269274  1
  Cl  Cl12  1  0.576130  0.276114  0.596303  1
  Cl  Cl13  1  0.238825  0.857518  0.064059  1
  Cl  Cl14  1  0.423870  0.699984  0.070364  1
  Cl  Cl15  1  0.079679  0.542466  0.018984  1
  Cl  Cl16  1  0.276114  0.576130  0.403697  1
  Cl  Cl17  1  0.462786  0.920321  0.352317  1
  Cl  Cl18  1  0.542466  0.079679  0.981016  1
  Cl  Cl19  1  0.300016  0.723886  0.737031  1
  Cl  Cl20  1  0.857518  0.238825  0.935941  1
  Cl  Cl21  1  0.723886  0.300016  0.262969  1
  Cl  Cl22  1  0.618693  0.761175  0.397393  1
  Cl  Cl23  1  0.699984  0.423870  0.929636  1
  Cl  Cl24  1  0.920321  0.462786  0.647683  1
  Cl  Cl25  1  0.142482  0.381307  0.730726  1
  Cl  Cl26  1  0.761175  0.618693  0.602607  1
