# generated using pymatgen
data_LiMoPO5
_symmetry_space_group_name_H-M   'P 1'
_cell_length_a   7.17117736
_cell_length_b   7.44146903
_cell_length_c   8.08739887
_cell_angle_alpha   89.90053965
_cell_angle_beta   92.09473828
_cell_angle_gamma   116.40260033
_symmetry_Int_Tables_number   1
_chemical_formula_structural   LiMoPO5
_chemical_formula_sum   'Li4 Mo4 P4 O20'
_cell_volume   386.25049847
_cell_formula_units_Z   4
loop_
 _symmetry_equiv_pos_site_id
 _symmetry_equiv_pos_as_xyz
  1  'x, y, z'
loop_
 _atom_site_type_symbol
 _atom_site_label
 _atom_site_symmetry_multiplicity
 _atom_site_fract_x
 _atom_site_fract_y
 _atom_site_fract_z
 _atom_site_occupancy
  Li  Li0  1  0.312846  0.815240  0.429299  1
  Li  Li1  1  0.198220  0.285368  0.074919  1
  Li  Li2  1  0.801780  0.714632  0.925081  1
  Li  Li3  1  0.687154  0.184760  0.570701  1
  Mo  Mo4  1  0.246884  0.496868  0.745704  1
  Mo  Mo5  1  0.247859  0.000198  0.756145  1
  Mo  Mo6  1  0.753116  0.503132  0.254296  1
  Mo  Mo7  1  0.752141  0.999802  0.243855  1
  P  P8  1  0.225203  0.745982  0.097367  1
  P  P9  1  0.271976  0.239408  0.403334  1
  P  P10  1  0.728024  0.760592  0.596666  1
  P  P11  1  0.774797  0.254018  0.902633  1
  O  O12  1  0.127356  0.850690  0.982824  1
  O  O13  1  0.079689  0.646981  0.244548  1
  O  O14  1  0.238144  0.730136  0.671290  1
  O  O15  1  0.257231  0.582852  0.998302  1
  O  O16  1  0.228348  0.387314  0.511382  1
  O  O17  1  0.428267  0.897636  0.185031  1
  O  O18  1  0.073787  0.097223  0.305742  1
  O  O19  1  0.264817  0.274682  0.837156  1
  O  O20  1  0.638795  0.880096  0.487557  1
  O  O21  1  0.425749  0.356793  0.266692  1
  O  O22  1  0.574251  0.643207  0.733308  1
  O  O23  1  0.361205  0.119904  0.512443  1
  O  O24  1  0.735183  0.725318  0.162844  1
  O  O25  1  0.926213  0.902777  0.694258  1
  O  O26  1  0.571733  0.102364  0.814969  1
  O  O27  1  0.771652  0.612686  0.488618  1
  O  O28  1  0.742769  0.417148  0.001698  1
  O  O29  1  0.761856  0.269864  0.328710  1
  O  O30  1  0.920311  0.353019  0.755452  1
  O  O31  1  0.872644  0.149310  0.017176  1
