# generated using pymatgen
data_Sm3Si2Cl5O6
_symmetry_space_group_name_H-M   'P 1'
_cell_length_a   7.55731719
_cell_length_b   7.55731719
_cell_length_c   11.99443376
_cell_angle_alpha   80.70604654
_cell_angle_beta   99.29395346
_cell_angle_gamma   90.65321508
_symmetry_Int_Tables_number   1
_chemical_formula_structural   Sm3Si2Cl5O6
_chemical_formula_sum   'Sm6 Si4 Cl10 O12'
_cell_volume   667.09552452
_cell_formula_units_Z   2
loop_
 _symmetry_equiv_pos_site_id
 _symmetry_equiv_pos_as_xyz
  1  'x, y, z'
loop_
 _atom_site_type_symbol
 _atom_site_label
 _atom_site_symmetry_multiplicity
 _atom_site_fract_x
 _atom_site_fract_y
 _atom_site_fract_z
 _atom_site_occupancy
  Sm  Sm0  1  0.081678  0.414742  0.331477  1
  Sm  Sm1  1  0.500000  0.000000  0.000000  1
  Sm  Sm2  1  0.585258  0.918322  0.331477  1
  Sm  Sm3  1  0.918322  0.585258  0.668523  1
  Sm  Sm4  1  0.414742  0.081678  0.668523  1
  Sm  Sm5  1  0.000000  0.500000  0.000000  1
  Si  Si6  1  0.108916  0.181071  0.857835  1
  Si  Si7  1  0.818929  0.891084  0.857835  1
  Si  Si8  1  0.181071  0.108916  0.142165  1
  Si  Si9  1  0.891084  0.818929  0.142165  1
  Cl  Cl10  1  0.382934  0.617066  0.358787  1
  Cl  Cl11  1  0.319684  0.107709  0.420842  1
  Cl  Cl12  1  0.107709  0.319684  0.579158  1
  Cl  Cl13  1  0.769911  0.230089  0.332378  1
  Cl  Cl14  1  0.317207  0.682793  0.003890  1
  Cl  Cl15  1  0.892291  0.680316  0.420842  1
  Cl  Cl16  1  0.682793  0.317207  0.996110  1
  Cl  Cl17  1  0.230089  0.769911  0.667622  1
  Cl  Cl18  1  0.680316  0.892291  0.579158  1
  Cl  Cl19  1  0.617066  0.382934  0.641213  1
  O  O20  1  0.953066  0.046934  0.812525  1
  O  O21  1  0.041576  0.389260  0.827960  1
  O  O22  1  0.389260  0.041576  0.172040  1
  O  O23  1  0.129998  0.302292  0.172257  1
  O  O24  1  0.870002  0.697708  0.827743  1
  O  O25  1  0.302292  0.129998  0.827743  1
  O  O26  1  0.853288  0.853288  0.000000  1
  O  O27  1  0.697708  0.870002  0.172257  1
  O  O28  1  0.146712  0.146712  0.000000  1
  O  O29  1  0.610740  0.958424  0.827960  1
  O  O30  1  0.958424  0.610740  0.172040  1
  O  O31  1  0.046934  0.953066  0.187475  1
