# generated using pymatgen
data_Tb(SiIr)2
_symmetry_space_group_name_H-M   'P 1'
_cell_length_a   5.77573678
_cell_length_b   5.77573678
_cell_length_c   5.77573678
_cell_angle_alpha   138.54637063
_cell_angle_beta   138.54637063
_cell_angle_gamma   60.06722872
_symmetry_Int_Tables_number   1
_chemical_formula_structural   Tb(SiIr)2
_chemical_formula_sum   'Tb1 Si2 Ir2'
_cell_volume   83.57139258
_cell_formula_units_Z   1
loop_
 _symmetry_equiv_pos_site_id
 _symmetry_equiv_pos_as_xyz
  1  'x, y, z'
loop_
 _atom_site_type_symbol
 _atom_site_label
 _atom_site_symmetry_multiplicity
 _atom_site_fract_x
 _atom_site_fract_y
 _atom_site_fract_z
 _atom_site_occupancy
  Tb  Tb0  1  0.000000  0.000000  0.000000  1
  Si  Si1  1  0.621544  0.621544  0.000000  1
  Si  Si2  1  0.378456  0.378456  0.000000  1
  Ir  Ir3  1  0.250000  0.750000  0.500000  1
  Ir  Ir4  1  0.750000  0.250000  0.500000  1
