# generated using pymatgen
data_Ca2CdSb2
_symmetry_space_group_name_H-M   'P 1'
_cell_length_a   4.65808942
_cell_length_b   7.34462347
_cell_length_c   17.68074902
_cell_angle_alpha   90.00000000
_cell_angle_beta   90.00000000
_cell_angle_gamma   90.00000000
_symmetry_Int_Tables_number   1
_chemical_formula_structural   Ca2CdSb2
_chemical_formula_sum   'Ca8 Cd4 Sb8'
_cell_volume   604.89224512
_cell_formula_units_Z   4
loop_
 _symmetry_equiv_pos_site_id
 _symmetry_equiv_pos_as_xyz
  1  'x, y, z'
loop_
 _atom_site_type_symbol
 _atom_site_label
 _atom_site_symmetry_multiplicity
 _atom_site_fract_x
 _atom_site_fract_y
 _atom_site_fract_z
 _atom_site_occupancy
  Ca  Ca0  1  0.750000  0.271468  0.053335  1
  Ca  Ca1  1  0.250000  0.228532  0.553335  1
  Ca  Ca2  1  0.250000  0.035279  0.772225  1
  Ca  Ca3  1  0.750000  0.464721  0.272225  1
  Ca  Ca4  1  0.750000  0.771468  0.446665  1
  Ca  Ca5  1  0.250000  0.728532  0.946665  1
  Ca  Ca6  1  0.750000  0.964721  0.227775  1
  Ca  Ca7  1  0.250000  0.535279  0.727775  1
  Cd  Cd8  1  0.250000  0.137228  0.349225  1
  Cd  Cd9  1  0.750000  0.362772  0.849225  1
  Cd  Cd10  1  0.750000  0.862772  0.650775  1
  Cd  Cd11  1  0.250000  0.637228  0.150775  1
  Sb  Sb12  1  0.750000  0.755621  0.816843  1
  Sb  Sb13  1  0.250000  0.244379  0.183157  1
  Sb  Sb14  1  0.250000  0.744379  0.316843  1
  Sb  Sb15  1  0.750000  0.257956  0.429285  1
  Sb  Sb16  1  0.750000  0.255621  0.683157  1
  Sb  Sb17  1  0.250000  0.742044  0.570715  1
  Sb  Sb18  1  0.750000  0.757956  0.070715  1
  Sb  Sb19  1  0.250000  0.242044  0.929285  1
