# generated using pymatgen
data_La9Sb16Br3
_symmetry_space_group_name_H-M   'P 1'
_cell_length_a   21.48567289
_cell_length_b   21.48567289
_cell_length_c   4.35348286
_cell_angle_alpha   90.00000000
_cell_angle_beta   90.00000000
_cell_angle_gamma   120.00000000
_symmetry_Int_Tables_number   1
_chemical_formula_structural   La9Sb16Br3
_chemical_formula_sum   'La18 Sb32 Br6'
_cell_volume   1740.46538269
_cell_formula_units_Z   2
loop_
 _symmetry_equiv_pos_site_id
 _symmetry_equiv_pos_as_xyz
  1  'x, y, z'
loop_
 _atom_site_type_symbol
 _atom_site_label
 _atom_site_symmetry_multiplicity
 _atom_site_fract_x
 _atom_site_fract_y
 _atom_site_fract_z
 _atom_site_occupancy
  La  La0  1  0.232882  0.541908  0.750000  1
  La  La1  1  0.094552  0.848956  0.250000  1
  La  La2  1  0.992739  0.394170  0.750000  1
  La  La3  1  0.767118  0.458092  0.250000  1
  La  La4  1  0.401430  0.007261  0.750000  1
  La  La5  1  0.245596  0.094552  0.750000  1
  La  La6  1  0.309026  0.767118  0.750000  1
  La  La7  1  0.541908  0.309026  0.250000  1
  La  La8  1  0.598570  0.992739  0.250000  1
  La  La9  1  0.605830  0.598570  0.750000  1
  La  La10  1  0.007261  0.605830  0.250000  1
  La  La11  1  0.848956  0.754404  0.750000  1
  La  La12  1  0.151044  0.245596  0.250000  1
  La  La13  1  0.754404  0.905448  0.250000  1
  La  La14  1  0.690974  0.232882  0.250000  1
  La  La15  1  0.458092  0.690974  0.750000  1
  La  La16  1  0.394170  0.401430  0.250000  1
  La  La17  1  0.905448  0.151044  0.750000  1
  Sb  Sb18  1  0.484449  0.588076  0.250000  1
  Sb  Sb19  1  0.724391  0.010026  0.750000  1
  Sb  Sb20  1  0.773833  0.131116  0.250000  1
  Sb  Sb21  1  0.226167  0.868884  0.750000  1
  Sb  Sb22  1  0.250251  0.428335  0.250000  1
  Sb  Sb23  1  0.275609  0.989974  0.250000  1
  Sb  Sb24  1  0.714365  0.724391  0.250000  1
  Sb  Sb25  1  0.642717  0.773833  0.750000  1
  Sb  Sb26  1  0.137179  0.628494  0.750000  1
  Sb  Sb27  1  0.588076  0.103627  0.750000  1
  Sb  Sb28  1  0.821916  0.250251  0.750000  1
  Sb  Sb29  1  0.371506  0.508685  0.750000  1
  Sb  Sb30  1  0.285635  0.275609  0.750000  1
  Sb  Sb31  1  0.749749  0.571665  0.750000  1
  Sb  Sb32  1  0.103627  0.515551  0.250000  1
  Sb  Sb33  1  0.010026  0.285635  0.250000  1
  Sb  Sb34  1  0.491315  0.862821  0.750000  1
  Sb  Sb35  1  0.131116  0.357283  0.750000  1
  Sb  Sb36  1  0.571665  0.821916  0.250000  1
  Sb  Sb37  1  0.357283  0.226167  0.250000  1
  Sb  Sb38  1  0.411924  0.896373  0.250000  1
  Sb  Sb39  1  0.428335  0.178084  0.750000  1
  Sb  Sb40  1  0.515551  0.411924  0.750000  1
  Sb  Sb41  1  0.628494  0.491315  0.250000  1
  Sb  Sb42  1  0.862821  0.371506  0.250000  1
  Sb  Sb43  1  0.989974  0.714365  0.750000  1
  Sb  Sb44  1  0.178084  0.749749  0.250000  1
  Sb  Sb45  1  0.896373  0.484449  0.750000  1
  Sb  Sb46  1  0.666667  0.333333  0.750000  1
  Sb  Sb47  1  0.508685  0.137179  0.250000  1
  Sb  Sb48  1  0.333333  0.666667  0.250000  1
  Sb  Sb49  1  0.868884  0.642717  0.250000  1
  Br  Br50  1  0.050567  0.149351  0.750000  1
  Br  Br51  1  0.098784  0.949433  0.750000  1
  Br  Br52  1  0.949433  0.850649  0.250000  1
  Br  Br53  1  0.850649  0.901216  0.750000  1
  Br  Br54  1  0.901216  0.050567  0.250000  1
  Br  Br55  1  0.149351  0.098784  0.250000  1
