# generated using pymatgen
data_Co3W3N
_symmetry_space_group_name_H-M   'P 1'
_cell_length_a   7.81373490
_cell_length_b   7.81373490
_cell_length_c   7.81373490
_cell_angle_alpha   60.00000000
_cell_angle_beta   60.00000000
_cell_angle_gamma   60.00000000
_symmetry_Int_Tables_number   1
_chemical_formula_structural   Co3W3N
_chemical_formula_sum   'Co12 W12 N4'
_cell_volume   337.33470191
_cell_formula_units_Z   4
loop_
 _symmetry_equiv_pos_site_id
 _symmetry_equiv_pos_as_xyz
  1  'x, y, z'
loop_
 _atom_site_type_symbol
 _atom_site_label
 _atom_site_symmetry_multiplicity
 _atom_site_fract_x
 _atom_site_fract_y
 _atom_site_fract_z
 _atom_site_occupancy
  Co  Co0  1  0.331597  0.005210  0.331597  1
  Co  Co1  1  0.918403  0.918403  0.918403  1
  Co  Co2  1  0.918403  0.918403  0.244790  1
  Co  Co3  1  0.244790  0.918403  0.918403  1
  Co  Co4  1  0.331597  0.331597  0.005210  1
  Co  Co5  1  0.005210  0.331597  0.331597  1
  Co  Co6  1  0.331597  0.331597  0.331597  1
  Co  Co7  1  0.918403  0.244790  0.918403  1
  Co  Co8  1  0.125000  0.625000  0.125000  1
  Co  Co9  1  0.125000  0.125000  0.125000  1
  Co  Co10  1  0.125000  0.125000  0.625000  1
  Co  Co11  1  0.625000  0.125000  0.125000  1
  W  W12  1  0.545762  0.954238  0.954238  1
  W  W13  1  0.704238  0.295762  0.704238  1
  W  W14  1  0.295762  0.704238  0.295762  1
  W  W15  1  0.295762  0.704238  0.704238  1
  W  W16  1  0.295762  0.295762  0.704238  1
  W  W17  1  0.704238  0.704238  0.295762  1
  W  W18  1  0.954238  0.954238  0.545762  1
  W  W19  1  0.545762  0.954238  0.545762  1
  W  W20  1  0.954238  0.545762  0.954238  1
  W  W21  1  0.545762  0.545762  0.954238  1
  W  W22  1  0.704238  0.295762  0.295762  1
  W  W23  1  0.954238  0.545762  0.545762  1
  N  N24  1  0.625000  0.125000  0.625000  1
  N  N25  1  0.625000  0.625000  0.625000  1
  N  N26  1  0.625000  0.625000  0.125000  1
  N  N27  1  0.125000  0.625000  0.625000  1
