# generated using pymatgen
data_Er2Ni12P7
_symmetry_space_group_name_H-M   'P 1'
_cell_length_a   9.02165125
_cell_length_b   9.02165125
_cell_length_c   3.66604380
_cell_angle_alpha   90.00000000
_cell_angle_beta   90.00000000
_cell_angle_gamma   120.00000000
_symmetry_Int_Tables_number   1
_chemical_formula_structural   Er2Ni12P7
_chemical_formula_sum   'Er2 Ni12 P7'
_cell_volume   258.40466534
_cell_formula_units_Z   1
loop_
 _symmetry_equiv_pos_site_id
 _symmetry_equiv_pos_as_xyz
  1  'x, y, z'
loop_
 _atom_site_type_symbol
 _atom_site_label
 _atom_site_symmetry_multiplicity
 _atom_site_fract_x
 _atom_site_fract_y
 _atom_site_fract_z
 _atom_site_occupancy
  Er  Er0  1  0.666667  0.333333  0.000000  1
  Er  Er1  1  0.000000  0.000000  0.500000  1
  Ni  Ni2  1  0.767783  0.727515  0.000000  1
  Ni  Ni3  1  0.959732  0.232217  0.000000  1
  Ni  Ni4  1  0.272485  0.040268  0.000000  1
  Ni  Ni5  1  0.486080  0.941447  0.000000  1
  Ni  Ni6  1  0.455367  0.513920  0.000000  1
  Ni  Ni7  1  0.058553  0.544633  0.000000  1
  Ni  Ni8  1  0.715532  0.098069  0.500000  1
  Ni  Ni9  1  0.382538  0.284468  0.500000  1
  Ni  Ni10  1  0.901931  0.617462  0.500000  1
  Ni  Ni11  1  0.550389  0.760804  0.500000  1
  Ni  Ni12  1  0.210416  0.449611  0.500000  1
  Ni  Ni13  1  0.239196  0.789584  0.500000  1
  P  P14  1  0.741240  0.960473  0.000000  1
  P  P15  1  0.219233  0.258760  0.000000  1
  P  P16  1  0.039527  0.780767  0.000000  1
  P  P17  1  0.445332  0.072753  0.500000  1
  P  P18  1  0.627422  0.554668  0.500000  1
  P  P19  1  0.927247  0.372578  0.500000  1
  P  P20  1  0.333333  0.666667  0.000000  1
