# generated using pymatgen
data_Cs2Mn3Te4
_symmetry_space_group_name_H-M   'P 1'
_cell_length_a   10.71570150
_cell_length_b   10.71570150
_cell_length_c   10.71570150
_cell_angle_alpha   143.76141869
_cell_angle_beta   104.66195855
_cell_angle_gamma   86.57866355
_symmetry_Int_Tables_number   1
_chemical_formula_structural   Cs2Mn3Te4
_chemical_formula_sum   'Cs4 Mn6 Te8'
_cell_volume   680.86480404
_cell_formula_units_Z   2
loop_
 _symmetry_equiv_pos_site_id
 _symmetry_equiv_pos_as_xyz
  1  'x, y, z'
loop_
 _atom_site_type_symbol
 _atom_site_label
 _atom_site_symmetry_multiplicity
 _atom_site_fract_x
 _atom_site_fract_y
 _atom_site_fract_z
 _atom_site_occupancy
  Cs  Cs0  1  0.876817  0.764134  0.640951  1
  Cs  Cs1  1  0.623183  0.264134  0.887317  1
  Cs  Cs2  1  0.376817  0.735866  0.112683  1
  Cs  Cs3  1  0.123183  0.235866  0.359049  1
  Mn  Mn4  1  0.986327  0.750000  0.236327  1
  Mn  Mn5  1  0.513673  0.750000  0.763673  1
  Mn  Mn6  1  0.013673  0.250000  0.763673  1
  Mn  Mn7  1  0.750000  0.250000  0.500000  1
  Mn  Mn8  1  0.250000  0.750000  0.500000  1
  Mn  Mn9  1  0.486327  0.250000  0.236327  1
  Te  Te10  1  0.481022  0.622027  0.402331  1
  Te  Te11  1  0.018978  0.421309  0.141005  1
  Te  Te12  1  0.280305  0.877973  0.858995  1
  Te  Te13  1  0.219695  0.078691  0.597669  1
  Te  Te14  1  0.518978  0.377973  0.597669  1
  Te  Te15  1  0.981022  0.578691  0.858995  1
  Te  Te16  1  0.719696  0.122027  0.141005  1
  Te  Te17  1  0.780305  0.921309  0.402331  1
