# generated using pymatgen
data_Na2Zr(CuS2)2
_symmetry_space_group_name_H-M   'P 1'
_cell_length_a   7.12221662
_cell_length_b   7.12221662
_cell_length_c   7.08947679
_cell_angle_alpha   68.49669582
_cell_angle_beta   111.50330418
_cell_angle_gamma   149.55226249
_symmetry_Int_Tables_number   1
_chemical_formula_structural   Na2Zr(CuS2)2
_chemical_formula_sum   'Na2 Zr1 Cu2 S4'
_cell_volume   168.57669681
_cell_formula_units_Z   1
loop_
 _symmetry_equiv_pos_site_id
 _symmetry_equiv_pos_as_xyz
  1  'x, y, z'
loop_
 _atom_site_type_symbol
 _atom_site_label
 _atom_site_symmetry_multiplicity
 _atom_site_fract_x
 _atom_site_fract_y
 _atom_site_fract_z
 _atom_site_occupancy
  Na  Na0  1  0.138525  0.861475  0.559594  1
  Na  Na1  1  0.861475  0.138525  0.440406  1
  Zr  Zr2  1  0.000000  0.000000  0.000000  1
  Cu  Cu3  1  0.678749  0.321251  0.986381  1
  Cu  Cu4  1  0.321251  0.678749  0.013619  1
  S  S5  1  0.204194  0.795806  0.201159  1
  S  S6  1  0.795806  0.204194  0.798841  1
  S  S7  1  0.509880  0.490120  0.751218  1
  S  S8  1  0.490120  0.509880  0.248782  1
