# generated using pymatgen
data_K2WO8
_symmetry_space_group_name_H-M   'P 1'
_cell_length_a   11.16735086
_cell_length_b   11.16735086
_cell_length_c   11.16735086
_cell_angle_alpha   64.27701956
_cell_angle_beta   64.27701956
_cell_angle_gamma   64.27701956
_symmetry_Int_Tables_number   1
_chemical_formula_structural   K2WO8
_chemical_formula_sum   'K12 W6 O48'
_cell_volume   1077.31922436
_cell_formula_units_Z   6
loop_
 _symmetry_equiv_pos_site_id
 _symmetry_equiv_pos_as_xyz
  1  'x, y, z'
loop_
 _atom_site_type_symbol
 _atom_site_label
 _atom_site_symmetry_multiplicity
 _atom_site_fract_x
 _atom_site_fract_y
 _atom_site_fract_z
 _atom_site_occupancy
  K  K0  1  0.606496  0.250000  0.893504  1
  K  K1  1  0.250000  0.893504  0.606496  1
  K  K2  1  0.893504  0.606496  0.250000  1
  K  K3  1  0.393504  0.750000  0.106496  1
  K  K4  1  0.750000  0.106496  0.393504  1
  K  K5  1  0.106496  0.393504  0.750000  1
  K  K6  1  0.500000  0.500000  0.500000  1
  K  K7  1  0.000000  0.000000  0.000000  1
  K  K8  1  0.167427  0.167427  0.167427  1
  K  K9  1  0.332573  0.332573  0.332573  1
  K  K10  1  0.832573  0.832573  0.832573  1
  K  K11  1  0.667427  0.667427  0.667427  1
  W  W12  1  0.932558  0.250000  0.567442  1
  W  W13  1  0.250000  0.567442  0.932558  1
  W  W14  1  0.567442  0.932558  0.250000  1
  W  W15  1  0.067442  0.750000  0.432558  1
  W  W16  1  0.750000  0.432558  0.067442  1
  W  W17  1  0.432558  0.067442  0.750000  1
  O  O18  1  0.430537  0.576599  0.781983  1
  O  O19  1  0.576599  0.781983  0.430537  1
  O  O20  1  0.781983  0.430537  0.576599  1
  O  O21  1  0.923401  0.069463  0.718017  1
  O  O22  1  0.069463  0.718017  0.923401  1
  O  O23  1  0.718017  0.923401  0.069463  1
  O  O24  1  0.569463  0.423401  0.218017  1
  O  O25  1  0.423401  0.218017  0.569463  1
  O  O26  1  0.218017  0.569463  0.423401  1
  O  O27  1  0.076599  0.930537  0.281983  1
  O  O28  1  0.930537  0.281983  0.076599  1
  O  O29  1  0.281983  0.076599  0.930537  1
  O  O30  1  0.319120  0.601732  0.724511  1
  O  O31  1  0.601732  0.724511  0.319120  1
  O  O32  1  0.724511  0.319120  0.601732  1
  O  O33  1  0.898268  0.180880  0.775489  1
  O  O34  1  0.180880  0.775489  0.898268  1
  O  O35  1  0.775489  0.898268  0.180880  1
  O  O36  1  0.638686  0.034335  0.693613  1
  O  O37  1  0.693613  0.638686  0.034335  1
  O  O38  1  0.034335  0.693613  0.638686  1
  O  O39  1  0.861315  0.806387  0.465665  1
  O  O40  1  0.465665  0.861314  0.806387  1
  O  O41  1  0.806387  0.465665  0.861315  1
  O  O42  1  0.361315  0.965665  0.306387  1
  O  O43  1  0.306387  0.361314  0.965665  1
  O  O44  1  0.965665  0.306387  0.361315  1
  O  O45  1  0.138686  0.193613  0.534335  1
  O  O46  1  0.534335  0.138686  0.193613  1
  O  O47  1  0.193613  0.534335  0.138686  1
  O  O48  1  0.566177  0.037543  0.842105  1
  O  O49  1  0.842105  0.566177  0.037543  1
  O  O50  1  0.037543  0.842105  0.566177  1
  O  O51  1  0.933823  0.657895  0.462457  1
  O  O52  1  0.462457  0.933823  0.657895  1
  O  O53  1  0.657895  0.462457  0.933823  1
  O  O54  1  0.433823  0.962457  0.157895  1
  O  O55  1  0.157895  0.433823  0.962457  1
  O  O56  1  0.962457  0.157895  0.433823  1
  O  O57  1  0.066177  0.342105  0.537543  1
  O  O58  1  0.537543  0.066177  0.342105  1
  O  O59  1  0.342105  0.537543  0.066177  1
  O  O60  1  0.224511  0.101732  0.819120  1
  O  O61  1  0.819120  0.224511  0.101732  1
  O  O62  1  0.101732  0.819120  0.224511  1
  O  O63  1  0.275489  0.680880  0.398268  1
  O  O64  1  0.398268  0.275489  0.680880  1
  O  O65  1  0.680880  0.398268  0.275489  1
