# generated using pymatgen
data_BiRhO3
_symmetry_space_group_name_H-M   'P 1'
_cell_length_a   5.44007247
_cell_length_b   5.92127992
_cell_length_c   7.81221403
_cell_angle_alpha   90.00000000
_cell_angle_beta   90.00000000
_cell_angle_gamma   90.00000000
_symmetry_Int_Tables_number   1
_chemical_formula_structural   BiRhO3
_chemical_formula_sum   'Bi4 Rh4 O12'
_cell_volume   251.64853734
_cell_formula_units_Z   4
loop_
 _symmetry_equiv_pos_site_id
 _symmetry_equiv_pos_as_xyz
  1  'x, y, z'
loop_
 _atom_site_type_symbol
 _atom_site_label
 _atom_site_symmetry_multiplicity
 _atom_site_fract_x
 _atom_site_fract_y
 _atom_site_fract_z
 _atom_site_occupancy
  Bi  Bi0  1  0.017390  0.933323  0.750000  1
  Bi  Bi1  1  0.482610  0.433323  0.750000  1
  Bi  Bi2  1  0.982610  0.066677  0.250000  1
  Bi  Bi3  1  0.517390  0.566677  0.250000  1
  Rh  Rh4  1  0.000000  0.500000  0.500000  1
  Rh  Rh5  1  0.000000  0.500000  0.000000  1
  Rh  Rh6  1  0.500000  0.000000  0.500000  1
  Rh  Rh7  1  0.500000  0.000000  0.000000  1
  O  O8  1  0.674310  0.312630  0.046687  1
  O  O9  1  0.674310  0.312630  0.453313  1
  O  O10  1  0.325690  0.687370  0.953313  1
  O  O11  1  0.879414  0.546112  0.750000  1
  O  O12  1  0.825690  0.812630  0.046687  1
  O  O13  1  0.825690  0.812630  0.453313  1
  O  O14  1  0.379414  0.953888  0.250000  1
  O  O15  1  0.620586  0.046112  0.750000  1
  O  O16  1  0.325690  0.687370  0.546687  1
  O  O17  1  0.174310  0.187370  0.953313  1
  O  O18  1  0.174310  0.187370  0.546687  1
  O  O19  1  0.120586  0.453888  0.250000  1
