# generated using pymatgen
data_La3BCCl3
_symmetry_space_group_name_H-M   'P 1'
_cell_length_a   8.35332826
_cell_length_b   3.77272800
_cell_length_c   11.37175285
_cell_angle_alpha   90.00000000
_cell_angle_beta   100.83701364
_cell_angle_gamma   90.00000000
_symmetry_Int_Tables_number   1
_chemical_formula_structural   La3BCCl3
_chemical_formula_sum   'La6 B2 C2 Cl6'
_cell_volume   351.98758807
_cell_formula_units_Z   2
loop_
 _symmetry_equiv_pos_site_id
 _symmetry_equiv_pos_as_xyz
  1  'x, y, z'
loop_
 _atom_site_type_symbol
 _atom_site_label
 _atom_site_symmetry_multiplicity
 _atom_site_fract_x
 _atom_site_fract_y
 _atom_site_fract_z
 _atom_site_occupancy
  La  La0  1  0.791747  0.250000  0.111734  1
  La  La1  1  0.392919  0.250000  0.186768  1
  La  La2  1  0.208253  0.750000  0.888266  1
  La  La3  1  0.286201  0.250000  0.602520  1
  La  La4  1  0.607081  0.750000  0.813232  1
  La  La5  1  0.713799  0.750000  0.397480  1
  B  B6  1  0.465249  0.250000  0.958571  1
  B  B7  1  0.534751  0.750000  0.041429  1
  C  C8  1  0.606682  0.750000  0.181078  1
  C  C9  1  0.393318  0.250000  0.818922  1
  Cl  Cl10  1  0.643906  0.250000  0.595099  1
  Cl  Cl11  1  0.356094  0.750000  0.404901  1
  Cl  Cl12  1  0.905876  0.250000  0.875944  1
  Cl  Cl13  1  0.967829  0.250000  0.363954  1
  Cl  Cl14  1  0.032171  0.750000  0.636046  1
  Cl  Cl15  1  0.094124  0.750000  0.124056  1
