# generated using pymatgen
data_Rb2U3(IO5)4
_symmetry_space_group_name_H-M   'P 1'
_cell_length_a   7.10187680
_cell_length_b   8.17943206
_cell_length_c   9.36155615
_cell_angle_alpha   90.16523574
_cell_angle_beta   104.68401945
_cell_angle_gamma   92.18755221
_symmetry_Int_Tables_number   1
_chemical_formula_structural   Rb2U3(IO5)4
_chemical_formula_sum   'Rb2 U3 I4 O20'
_cell_volume   525.61714322
_cell_formula_units_Z   1
loop_
 _symmetry_equiv_pos_site_id
 _symmetry_equiv_pos_as_xyz
  1  'x, y, z'
loop_
 _atom_site_type_symbol
 _atom_site_label
 _atom_site_symmetry_multiplicity
 _atom_site_fract_x
 _atom_site_fract_y
 _atom_site_fract_z
 _atom_site_occupancy
  Rb  Rb0  1  0.243784  0.587892  0.850836  1
  Rb  Rb1  1  0.756216  0.412108  0.149164  1
  U  U2  1  0.548664  0.920803  0.191543  1
  U  U3  1  0.451336  0.079197  0.808457  1
  U  U4  1  0.000000  0.000000  0.000000  1
  I  I5  1  0.121742  0.799780  0.374700  1
  I  I6  1  0.698603  0.649869  0.553861  1
  I  I7  1  0.301397  0.350131  0.446139  1
  I  I8  1  0.878258  0.200220  0.625300  1
  O  O9  1  0.521783  0.708923  0.121467  1
  O  O10  1  0.579806  0.128718  0.270166  1
  O  O11  1  0.049217  0.283888  0.447297  1
  O  O12  1  0.645764  0.480559  0.420498  1
  O  O13  1  0.226919  0.917494  0.237025  1
  O  O14  1  0.434867  0.187279  0.561627  1
  O  O15  1  0.690313  0.010433  0.011983  1
  O  O16  1  0.309687  0.989567  0.988017  1
  O  O17  1  0.112941  0.114165  0.719228  1
  O  O18  1  0.354236  0.519441  0.579502  1
  O  O19  1  0.478217  0.291077  0.878533  1
  O  O20  1  0.044488  0.212841  0.064221  1
  O  O21  1  0.895658  0.398959  0.713042  1
  O  O22  1  0.420194  0.871282  0.729834  1
  O  O23  1  0.104342  0.601041  0.286958  1
  O  O24  1  0.950783  0.716112  0.552703  1
  O  O25  1  0.887059  0.885835  0.280772  1
  O  O26  1  0.565133  0.812721  0.438373  1
  O  O27  1  0.773081  0.082506  0.762975  1
  O  O28  1  0.955512  0.787159  0.935779  1
