# generated using pymatgen
data_Hg2TeBr3
_symmetry_space_group_name_H-M   'P 1'
_cell_length_a   7.85781669
_cell_length_b   10.28220435
_cell_length_c   12.32063786
_cell_angle_alpha   90.00000000
_cell_angle_beta   123.49596226
_cell_angle_gamma   90.00000000
_symmetry_Int_Tables_number   1
_chemical_formula_structural   Hg2TeBr3
_chemical_formula_sum   'Hg8 Te4 Br12'
_cell_volume   830.13392506
_cell_formula_units_Z   4
loop_
 _symmetry_equiv_pos_site_id
 _symmetry_equiv_pos_as_xyz
  1  'x, y, z'
loop_
 _atom_site_type_symbol
 _atom_site_label
 _atom_site_symmetry_multiplicity
 _atom_site_fract_x
 _atom_site_fract_y
 _atom_site_fract_z
 _atom_site_occupancy
  Hg  Hg0  1  0.476731  0.548660  0.159069  1
  Hg  Hg1  1  0.001757  0.810766  0.001618  1
  Hg  Hg2  1  0.001757  0.689234  0.501618  1
  Hg  Hg3  1  0.523269  0.048660  0.340931  1
  Hg  Hg4  1  0.998243  0.189234  0.998382  1
  Hg  Hg5  1  0.998243  0.310766  0.498382  1
  Hg  Hg6  1  0.523269  0.451340  0.840931  1
  Hg  Hg7  1  0.476731  0.951340  0.659069  1
  Te  Te8  1  0.096337  0.929737  0.619059  1
  Te  Te9  1  0.096337  0.570263  0.119059  1
  Te  Te10  1  0.903663  0.070263  0.380941  1
  Te  Te11  1  0.903663  0.429737  0.880941  1
  Br  Br12  1  0.256924  0.501333  0.512102  1
  Br  Br13  1  0.340655  0.845551  0.363643  1
  Br  Br14  1  0.755939  0.761401  0.731434  1
  Br  Br15  1  0.256924  0.998667  0.012102  1
  Br  Br16  1  0.659345  0.345551  0.136357  1
  Br  Br17  1  0.755939  0.738599  0.231434  1
  Br  Br18  1  0.340655  0.654449  0.863643  1
  Br  Br19  1  0.659345  0.154449  0.636357  1
  Br  Br20  1  0.244061  0.238599  0.268566  1
  Br  Br21  1  0.743076  0.001333  0.987898  1
  Br  Br22  1  0.743076  0.498667  0.487898  1
  Br  Br23  1  0.244061  0.261401  0.768566  1
