# generated using pymatgen
data_Ca3(AlN2)2
_symmetry_space_group_name_H-M   'P 1'
_cell_length_a   9.58721246
_cell_length_b   5.83042272
_cell_length_c   9.60088463
_cell_angle_alpha   90.00000000
_cell_angle_beta   111.57982995
_cell_angle_gamma   90.00000000
_symmetry_Int_Tables_number   1
_chemical_formula_structural   Ca3(AlN2)2
_chemical_formula_sum   'Ca12 Al8 N16'
_cell_volume   499.04844414
_cell_formula_units_Z   4
loop_
 _symmetry_equiv_pos_site_id
 _symmetry_equiv_pos_as_xyz
  1  'x, y, z'
loop_
 _atom_site_type_symbol
 _atom_site_label
 _atom_site_symmetry_multiplicity
 _atom_site_fract_x
 _atom_site_fract_y
 _atom_site_fract_z
 _atom_site_occupancy
  Ca  Ca0  1  0.671292  0.652053  0.535554  1
  Ca  Ca1  1  0.685117  0.406206  0.050860  1
  Ca  Ca2  1  0.828708  0.152053  0.464446  1
  Ca  Ca3  1  0.314883  0.593794  0.949140  1
  Ca  Ca4  1  0.328708  0.347947  0.464446  1
  Ca  Ca5  1  0.814883  0.906206  0.949140  1
  Ca  Ca6  1  0.099902  0.620307  0.182178  1
  Ca  Ca7  1  0.400098  0.120307  0.817822  1
  Ca  Ca8  1  0.185117  0.093794  0.050860  1
  Ca  Ca9  1  0.900098  0.379693  0.817822  1
  Ca  Ca10  1  0.599902  0.879693  0.182178  1
  Ca  Ca11  1  0.171292  0.847947  0.535554  1
  Al  Al12  1  0.011592  0.142285  0.258218  1
  Al  Al13  1  0.608486  0.110747  0.619343  1
  Al  Al14  1  0.988408  0.857715  0.741782  1
  Al  Al15  1  0.891514  0.610747  0.380657  1
  Al  Al16  1  0.488408  0.642285  0.741782  1
  Al  Al17  1  0.391514  0.889253  0.380657  1
  Al  Al18  1  0.511592  0.357715  0.258218  1
  Al  Al19  1  0.108486  0.389253  0.619343  1
  N  N20  1  0.062883  0.738493  0.938744  1
  N  N21  1  0.448414  0.897329  0.601267  1
  N  N22  1  0.702133  0.489163  0.300459  1
  N  N23  1  0.051586  0.397329  0.398733  1
  N  N24  1  0.948414  0.602671  0.601267  1
  N  N25  1  0.297867  0.510837  0.699541  1
  N  N26  1  0.894077  0.901157  0.295692  1
  N  N27  1  0.937117  0.261507  0.061256  1
  N  N28  1  0.202133  0.010837  0.300459  1
  N  N29  1  0.437117  0.238493  0.061256  1
  N  N30  1  0.562883  0.761507  0.938744  1
  N  N31  1  0.551586  0.102671  0.398733  1
  N  N32  1  0.105923  0.098843  0.704308  1
  N  N33  1  0.605923  0.401157  0.704308  1
  N  N34  1  0.394077  0.598843  0.295692  1
  N  N35  1  0.797867  0.989163  0.699541  1
