# generated using pymatgen
data_LiCoSiO4
_symmetry_space_group_name_H-M   'P 1'
_cell_length_a   5.08045331
_cell_length_b   6.65106589
_cell_length_c   10.39988501
_cell_angle_alpha   90.00000000
_cell_angle_beta   90.00000000
_cell_angle_gamma   90.00000000
_symmetry_Int_Tables_number   1
_chemical_formula_structural   LiCoSiO4
_chemical_formula_sum   'Li4 Co4 Si4 O16'
_cell_volume   351.41658348
_cell_formula_units_Z   4
loop_
 _symmetry_equiv_pos_site_id
 _symmetry_equiv_pos_as_xyz
  1  'x, y, z'
loop_
 _atom_site_type_symbol
 _atom_site_label
 _atom_site_symmetry_multiplicity
 _atom_site_fract_x
 _atom_site_fract_y
 _atom_site_fract_z
 _atom_site_occupancy
  Li  Li0  1  0.759117  0.009673  0.154688  1
  Li  Li1  1  0.759117  0.490327  0.654688  1
  Li  Li2  1  0.259117  0.509673  0.345312  1
  Li  Li3  1  0.259117  0.990327  0.845312  1
  Co  Co4  1  0.261706  0.013405  0.331703  1
  Co  Co5  1  0.261706  0.486595  0.831703  1
  Co  Co6  1  0.761706  0.513405  0.168297  1
  Co  Co7  1  0.761706  0.986595  0.668297  1
  Si  Si8  1  0.262542  0.233044  0.593772  1
  Si  Si9  1  0.262542  0.266956  0.093772  1
  Si  Si10  1  0.762542  0.733044  0.906228  1
  Si  Si11  1  0.762542  0.766956  0.406228  1
  O  O12  1  0.122925  0.038614  0.664555  1
  O  O13  1  0.149246  0.060231  0.161237  1
  O  O14  1  0.210464  0.261626  0.937834  1
  O  O15  1  0.581773  0.221441  0.623593  1
  O  O16  1  0.581773  0.278559  0.123593  1
  O  O17  1  0.210464  0.238374  0.437834  1
  O  O18  1  0.149246  0.439769  0.661237  1
  O  O19  1  0.122925  0.461386  0.164555  1
  O  O20  1  0.622925  0.538614  0.835445  1
  O  O21  1  0.649246  0.560231  0.338763  1
  O  O22  1  0.710464  0.761626  0.562166  1
  O  O23  1  0.081773  0.721441  0.876407  1
  O  O24  1  0.081773  0.778559  0.376407  1
  O  O25  1  0.710464  0.738374  0.062166  1
  O  O26  1  0.649246  0.939769  0.838763  1
  O  O27  1  0.622925  0.961386  0.335445  1
