# generated using pymatgen
data_TbRe2SiC
_symmetry_space_group_name_H-M   'P 1'
_cell_length_a   5.79696994
_cell_length_b   5.79696994
_cell_length_c   7.31548222
_cell_angle_alpha   90.00000000
_cell_angle_beta   90.00000000
_cell_angle_gamma   140.05795813
_symmetry_Int_Tables_number   1
_chemical_formula_structural   TbRe2SiC
_chemical_formula_sum   'Tb2 Re4 Si2 C2'
_cell_volume   157.82960145
_cell_formula_units_Z   2
loop_
 _symmetry_equiv_pos_site_id
 _symmetry_equiv_pos_as_xyz
  1  'x, y, z'
loop_
 _atom_site_type_symbol
 _atom_site_label
 _atom_site_symmetry_multiplicity
 _atom_site_fract_x
 _atom_site_fract_y
 _atom_site_fract_z
 _atom_site_occupancy
  Tb  Tb0  1  0.457409  0.542591  0.750000  1
  Tb  Tb1  1  0.542591  0.457409  0.250000  1
  Re  Re2  1  0.174688  0.825312  0.560361  1
  Re  Re3  1  0.825312  0.174688  0.439639  1
  Re  Re4  1  0.825312  0.174688  0.060361  1
  Re  Re5  1  0.174688  0.825312  0.939639  1
  Si  Si6  1  0.734800  0.265200  0.750000  1
  Si  Si7  1  0.265200  0.734800  0.250000  1
  C  C8  1  0.000000  0.000000  0.000000  1
  C  C9  1  0.000000  0.000000  0.500000  1
