# generated using pymatgen
data_Fe(PO3)4
_symmetry_space_group_name_H-M   'P 1'
_cell_length_a   7.08279962
_cell_length_b   7.08279962
_cell_length_c   9.51413877
_cell_angle_alpha   88.45647482
_cell_angle_beta   91.54352518
_cell_angle_gamma   71.01566438
_symmetry_Int_Tables_number   1
_chemical_formula_structural   Fe(PO3)4
_chemical_formula_sum   'Fe2 P8 O24'
_cell_volume   450.84034864
_cell_formula_units_Z   2
loop_
 _symmetry_equiv_pos_site_id
 _symmetry_equiv_pos_as_xyz
  1  'x, y, z'
loop_
 _atom_site_type_symbol
 _atom_site_label
 _atom_site_symmetry_multiplicity
 _atom_site_fract_x
 _atom_site_fract_y
 _atom_site_fract_z
 _atom_site_occupancy
  Fe  Fe0  1  0.395492  0.395492  0.750000  1
  Fe  Fe1  1  0.604508  0.604508  0.250000  1
  P  P2  1  0.780413  0.295658  0.528492  1
  P  P3  1  0.704342  0.219587  0.028492  1
  P  P4  1  0.223009  0.128548  0.533604  1
  P  P5  1  0.871452  0.776991  0.033604  1
  P  P6  1  0.219587  0.704342  0.471508  1
  P  P7  1  0.128548  0.223009  0.966396  1
  P  P8  1  0.295658  0.780413  0.971508  1
  P  P9  1  0.776991  0.871452  0.466396  1
  O  O10  1  0.620049  0.357709  0.144501  1
  O  O11  1  0.841690  0.632396  0.143633  1
  O  O12  1  0.105753  0.732318  0.030849  1
  O  O13  1  0.001573  0.201557  0.597754  1
  O  O14  1  0.367604  0.158310  0.643633  1
  O  O15  1  0.428592  0.782888  0.096935  1
  O  O16  1  0.782888  0.428592  0.403065  1
  O  O17  1  0.201557  0.001573  0.902246  1
  O  O18  1  0.158310  0.367604  0.856367  1
  O  O19  1  0.770230  0.775516  0.608293  1
  O  O20  1  0.217112  0.571408  0.596935  1
  O  O21  1  0.267682  0.894247  0.530849  1
  O  O22  1  0.379951  0.642291  0.855499  1
  O  O23  1  0.357709  0.620049  0.355499  1
  O  O24  1  0.224484  0.229770  0.108293  1
  O  O25  1  0.798443  0.998427  0.097754  1
  O  O26  1  0.894247  0.267682  0.969151  1
  O  O27  1  0.998427  0.798443  0.402246  1
  O  O28  1  0.229770  0.224484  0.391707  1
  O  O29  1  0.632396  0.841690  0.356367  1
  O  O30  1  0.732318  0.105753  0.469151  1
  O  O31  1  0.775516  0.770230  0.891707  1
  O  O32  1  0.642291  0.379951  0.644501  1
  O  O33  1  0.571408  0.217112  0.903065  1
