# generated using pymatgen
data_W2Se17Cl12
_symmetry_space_group_name_H-M   'P 1'
_cell_length_a   11.93354906
_cell_length_b   13.77832030
_cell_length_c   13.92835752
_cell_angle_alpha   111.49136774
_cell_angle_beta   99.83102318
_cell_angle_gamma   99.53169565
_symmetry_Int_Tables_number   1
_chemical_formula_structural   W2Se17Cl12
_chemical_formula_sum   'W4 Se34 Cl24'
_cell_volume   2033.59029118
_cell_formula_units_Z   2
loop_
 _symmetry_equiv_pos_site_id
 _symmetry_equiv_pos_as_xyz
  1  'x, y, z'
loop_
 _atom_site_type_symbol
 _atom_site_label
 _atom_site_symmetry_multiplicity
 _atom_site_fract_x
 _atom_site_fract_y
 _atom_site_fract_z
 _atom_site_occupancy
  W  W0  1  0.685575  0.270781  0.479110  1
  W  W1  1  0.314425  0.729219  0.520890  1
  W  W2  1  0.833815  0.716410  0.999906  1
  W  W3  1  0.166185  0.283590  0.000094  1
  Se  Se4  1  0.477796  0.832201  0.985388  1
  Se  Se5  1  0.522204  0.167799  0.014612  1
  Se  Se6  1  0.319457  0.906822  0.965104  1
  Se  Se7  1  0.680543  0.093178  0.034896  1
  Se  Se8  1  0.325464  0.020493  0.144042  1
  Se  Se9  1  0.674536  0.979507  0.855958  1
  Se  Se10  1  0.263440  0.900209  0.217492  1
  Se  Se11  1  0.736560  0.099791  0.782508  1
  Se  Se12  1  0.443369  0.846237  0.251708  1
  Se  Se13  1  0.556631  0.153763  0.748292  1
  Se  Se14  1  0.384568  0.665216  0.152878  1
  Se  Se15  1  0.615432  0.334784  0.847122  1
  Se  Se16  1  0.389819  0.648609  0.964425  1
  Se  Se17  1  0.610181  0.351391  0.035575  1
  Se  Se18  1  0.181863  0.627506  0.919655  1
  Se  Se19  1  0.818137  0.372494  0.080345  1
  Se  Se20  1  0.150658  0.587048  0.735839  1
  Se  Se21  1  0.849342  0.412952  0.264161  1
  Se  Se22  1  0.117413  0.398615  0.656787  1
  Se  Se23  1  0.882587  0.601385  0.343213  1
  Se  Se24  1  0.310413  0.376086  0.649557  1
  Se  Se25  1  0.689587  0.623914  0.350443  1
  Se  Se26  1  0.253978  0.192439  0.657749  1
  Se  Se27  1  0.746022  0.807561  0.342251  1
  Se  Se28  1  0.235303  0.071140  0.488418  1
  Se  Se29  1  0.764697  0.928860  0.511582  1
  Se  Se30  1  0.035510  0.048437  0.399637  1
  Se  Se31  1  0.964490  0.951563  0.600363  1
  Se  Se32  1  0.068108  0.119653  0.275122  1
  Se  Se33  1  0.931892  0.880347  0.724878  1
  Se  Se34  1  0.126403  0.309734  0.375726  1
  Se  Se35  1  0.873597  0.690266  0.624274  1
  Se  Se36  1  0.319766  0.339331  0.464964  1
  Se  Se37  1  0.680234  0.660669  0.535036  1
  Cl  Cl38  1  0.840824  0.417284  0.505959  1
  Cl  Cl39  1  0.159176  0.582716  0.494041  1
  Cl  Cl40  1  0.611150  0.386493  0.611220  1
  Cl  Cl41  1  0.388850  0.613507  0.388780  1
  Cl  Cl42  1  0.535772  0.124189  0.453830  1
  Cl  Cl43  1  0.464228  0.875811  0.546170  1
  Cl  Cl44  1  0.757312  0.157438  0.346163  1
  Cl  Cl45  1  0.242688  0.842562  0.653837  1
  Cl  Cl46  1  0.569291  0.310151  0.352236  1
  Cl  Cl47  1  0.430709  0.689849  0.647764  1
  Cl  Cl48  1  0.805947  0.239686  0.610521  1
  Cl  Cl49  1  0.194053  0.760314  0.389479  1
  Cl  Cl50  1  0.785874  0.872325  0.109097  1
  Cl  Cl51  1  0.214126  0.127675  0.890903  1
  Cl  Cl52  1  0.966768  0.725708  0.147216  1
  Cl  Cl53  1  0.033232  0.274292  0.852784  1
  Cl  Cl54  1  0.882755  0.561576  0.893867  1
  Cl  Cl55  1  0.117245  0.438424  0.106133  1
  Cl  Cl56  1  0.692122  0.701570  0.853935  1
  Cl  Cl57  1  0.307878  0.298430  0.146065  1
  Cl  Cl58  1  0.682736  0.610450  0.040117  1
  Cl  Cl59  1  0.317264  0.389550  0.959883  1
  Cl  Cl60  1  0.975732  0.823948  0.960624  1
  Cl  Cl61  1  0.024268  0.176052  0.039376  1
