# generated using pymatgen
data_KVPO5
_symmetry_space_group_name_H-M   'P 1'
_cell_length_a   7.47236271
_cell_length_b   7.75354035
_cell_length_c   8.54289359
_cell_angle_alpha   90.00000000
_cell_angle_beta   90.00000000
_cell_angle_gamma   90.00000000
_symmetry_Int_Tables_number   1
_chemical_formula_structural   KVPO5
_chemical_formula_sum   'K4 V4 P4 O20'
_cell_volume   494.95189647
_cell_formula_units_Z   4
loop_
 _symmetry_equiv_pos_site_id
 _symmetry_equiv_pos_as_xyz
  1  'x, y, z'
loop_
 _atom_site_type_symbol
 _atom_site_label
 _atom_site_symmetry_multiplicity
 _atom_site_fract_x
 _atom_site_fract_y
 _atom_site_fract_z
 _atom_site_occupancy
  K  K0  1  0.382888  0.538839  0.759107  1
  K  K1  1  0.617112  0.038839  0.740893  1
  K  K2  1  0.117112  0.461161  0.259107  1
  K  K3  1  0.882888  0.961161  0.240893  1
  V  V4  1  0.382981  0.947947  0.118094  1
  V  V5  1  0.882981  0.552053  0.881906  1
  V  V6  1  0.117019  0.052053  0.618094  1
  V  V7  1  0.617019  0.447947  0.381906  1
  P  P8  1  0.123165  0.186740  0.903721  1
  P  P9  1  0.376835  0.813260  0.403721  1
  P  P10  1  0.623165  0.313260  0.096279  1
  P  P11  1  0.876835  0.686740  0.596279  1
  O  O12  1  0.177528  0.099146  0.059544  1
  O  O13  1  0.431910  0.626637  0.441253  1
  O  O14  1  0.528394  0.913388  0.315124  1
  O  O15  1  0.416446  0.806508  0.978760  1
  O  O16  1  0.916446  0.693492  0.021240  1
  O  O17  1  0.223940  0.824762  0.278418  1
  O  O18  1  0.471606  0.413388  0.184876  1
  O  O19  1  0.322472  0.900854  0.559544  1
  O  O20  1  0.028394  0.586612  0.684876  1
  O  O21  1  0.083554  0.193492  0.478760  1
  O  O22  1  0.068090  0.373363  0.941253  1
  O  O23  1  0.931910  0.873363  0.558747  1
  O  O24  1  0.276060  0.175238  0.778418  1
  O  O25  1  0.583554  0.306508  0.521240  1
  O  O26  1  0.723940  0.675238  0.721582  1
  O  O27  1  0.677528  0.400854  0.940456  1
  O  O28  1  0.971606  0.086612  0.815124  1
  O  O29  1  0.776060  0.324762  0.221582  1
  O  O30  1  0.822472  0.599146  0.440456  1
  O  O31  1  0.568090  0.126637  0.058747  1
