# generated using pymatgen
data_KB(CO2)4
_symmetry_space_group_name_H-M   'P 1'
_cell_length_a   7.00813899
_cell_length_b   7.00813899
_cell_length_c   8.42215585
_cell_angle_alpha   90.00000000
_cell_angle_beta   90.00000000
_cell_angle_gamma   105.08855722
_symmetry_Int_Tables_number   1
_chemical_formula_structural   KB(CO2)4
_chemical_formula_sum   'K2 B2 C8 O16'
_cell_volume   399.38527381
_cell_formula_units_Z   2
loop_
 _symmetry_equiv_pos_site_id
 _symmetry_equiv_pos_as_xyz
  1  'x, y, z'
loop_
 _atom_site_type_symbol
 _atom_site_label
 _atom_site_symmetry_multiplicity
 _atom_site_fract_x
 _atom_site_fract_y
 _atom_site_fract_z
 _atom_site_occupancy
  K  K0  1  0.071530  0.928470  0.750000  1
  K  K1  1  0.928470  0.071530  0.250000  1
  B  B2  1  0.428238  0.571762  0.250000  1
  B  B3  1  0.571762  0.428238  0.750000  1
  C  C4  1  0.233475  0.766525  0.341654  1
  C  C5  1  0.466954  0.714024  0.750000  1
  C  C6  1  0.533046  0.285976  0.250000  1
  C  C7  1  0.285976  0.533046  0.750000  1
  C  C8  1  0.766525  0.233475  0.841654  1
  C  C9  1  0.714024  0.466954  0.250000  1
  C  C10  1  0.233475  0.766525  0.158346  1
  C  C11  1  0.766525  0.233475  0.658346  1
  O  O12  1  0.347583  0.652417  0.390215  1
  O  O13  1  0.144851  0.855149  0.426700  1
  O  O14  1  0.855149  0.144851  0.573300  1
  O  O15  1  0.652417  0.347583  0.609785  1
  O  O16  1  0.460455  0.885892  0.750000  1
  O  O17  1  0.648406  0.629695  0.250000  1
  O  O18  1  0.652417  0.347583  0.890215  1
  O  O19  1  0.885892  0.460455  0.250000  1
  O  O20  1  0.855149  0.144851  0.926700  1
  O  O21  1  0.351594  0.370305  0.750000  1
  O  O22  1  0.539545  0.114108  0.250000  1
  O  O23  1  0.114108  0.539545  0.750000  1
  O  O24  1  0.629695  0.648406  0.750000  1
  O  O25  1  0.370305  0.351594  0.250000  1
  O  O26  1  0.144851  0.855149  0.073300  1
  O  O27  1  0.347583  0.652417  0.109785  1
