# generated using pymatgen
data_BaZr2F10
_symmetry_space_group_name_H-M   'P 1'
_cell_length_a   8.53377180
_cell_length_b   8.53377180
_cell_length_c   8.91695856
_cell_angle_alpha   84.00921855
_cell_angle_beta   95.99078145
_cell_angle_gamma   42.77238153
_symmetry_Int_Tables_number   1
_chemical_formula_structural   BaZr2F10
_chemical_formula_sum   'Ba2 Zr4 F20'
_cell_volume   422.53749521
_cell_formula_units_Z   2
loop_
 _symmetry_equiv_pos_site_id
 _symmetry_equiv_pos_as_xyz
  1  'x, y, z'
loop_
 _atom_site_type_symbol
 _atom_site_label
 _atom_site_symmetry_multiplicity
 _atom_site_fract_x
 _atom_site_fract_y
 _atom_site_fract_z
 _atom_site_occupancy
  Ba  Ba0  1  0.430262  0.430262  0.250000  1
  Ba  Ba1  1  0.569738  0.569738  0.750000  1
  Zr  Zr2  1  0.341762  0.967755  0.096487  1
  Zr  Zr3  1  0.967755  0.341762  0.403513  1
  Zr  Zr4  1  0.658238  0.032245  0.903513  1
  Zr  Zr5  1  0.032245  0.658238  0.596487  1
  F  F6  1  0.137127  0.447122  0.426114  1
  F  F7  1  0.447122  0.137127  0.073886  1
  F  F8  1  0.862873  0.552878  0.573886  1
  F  F9  1  0.552878  0.862873  0.926114  1
  F  F10  1  0.696613  0.696613  0.250000  1
  F  F11  1  0.303387  0.303387  0.750000  1
  F  F12  1  0.199272  0.199272  0.250000  1
  F  F13  1  0.800728  0.800728  0.750000  1
  F  F14  1  0.971216  0.755377  0.064167  1
  F  F15  1  0.755377  0.971216  0.435833  1
  F  F16  1  0.028784  0.244623  0.935833  1
  F  F17  1  0.244623  0.028784  0.564167  1
  F  F18  1  0.260232  0.625343  0.501670  1
  F  F19  1  0.625343  0.260232  0.998330  1
  F  F20  1  0.739768  0.374657  0.498330  1
  F  F21  1  0.374657  0.739768  0.001670  1
  F  F22  1  0.295938  0.831717  0.259161  1
  F  F23  1  0.831717  0.295938  0.240839  1
  F  F24  1  0.704062  0.168283  0.740839  1
  F  F25  1  0.168283  0.704062  0.759161  1
