# generated using pymatgen
data_Ca6Hf19O44
_symmetry_space_group_name_H-M   'P 1'
_cell_length_a   12.09144378
_cell_length_b   12.09144378
_cell_length_c   12.09144378
_cell_angle_alpha   98.07670025
_cell_angle_beta   98.07670025
_cell_angle_gamma   98.07670025
_symmetry_Int_Tables_number   1
_chemical_formula_structural   Ca6Hf19O44
_chemical_formula_sum   'Ca12 Hf38 O88'
_cell_volume   1709.60006422
_cell_formula_units_Z   2
loop_
 _symmetry_equiv_pos_site_id
 _symmetry_equiv_pos_as_xyz
  1  'x, y, z'
loop_
 _atom_site_type_symbol
 _atom_site_label
 _atom_site_symmetry_multiplicity
 _atom_site_fract_x
 _atom_site_fract_y
 _atom_site_fract_z
 _atom_site_occupancy
  Ca  Ca0  1  0.250000  0.049667  0.450333  1
  Ca  Ca1  1  0.750000  0.333902  0.166098  1
  Ca  Ca2  1  0.333902  0.166098  0.750000  1
  Ca  Ca3  1  0.166098  0.750000  0.333902  1
  Ca  Ca4  1  0.450333  0.250000  0.049667  1
  Ca  Ca5  1  0.750000  0.950333  0.549667  1
  Ca  Ca6  1  0.950333  0.549667  0.750000  1
  Ca  Ca7  1  0.833902  0.250000  0.666098  1
  Ca  Ca8  1  0.666098  0.833902  0.250000  1
  Ca  Ca9  1  0.049667  0.450333  0.250000  1
  Ca  Ca10  1  0.549667  0.750000  0.950333  1
  Ca  Ca11  1  0.250000  0.666098  0.833902  1
  Hf  Hf12  1  0.142630  0.357370  0.750000  1
  Hf  Hf13  1  0.449326  0.857764  0.423944  1
  Hf  Hf14  1  0.657688  0.448317  0.621151  1
  Hf  Hf15  1  0.642236  0.050674  0.076056  1
  Hf  Hf16  1  0.948317  0.157688  0.121151  1
  Hf  Hf17  1  0.437998  0.062002  0.250000  1
  Hf  Hf18  1  0.378849  0.342312  0.551683  1
  Hf  Hf19  1  0.423944  0.449326  0.857764  1
  Hf  Hf20  1  0.750000  0.562002  0.937998  1
  Hf  Hf21  1  0.750000  0.142630  0.357370  1
  Hf  Hf22  1  0.250000  0.437998  0.062002  1
  Hf  Hf23  1  0.342312  0.551683  0.378849  1
  Hf  Hf24  1  0.642630  0.250000  0.857370  1
  Hf  Hf25  1  0.878849  0.051683  0.842312  1
  Hf  Hf26  1  0.857370  0.642630  0.250000  1
  Hf  Hf27  1  0.551683  0.378849  0.342312  1
  Hf  Hf28  1  0.250000  0.250000  0.250000  1
  Hf  Hf29  1  0.157688  0.121151  0.948317  1
  Hf  Hf30  1  0.923944  0.357764  0.949326  1
  Hf  Hf31  1  0.121151  0.948317  0.157688  1
  Hf  Hf32  1  0.142236  0.576056  0.550674  1
  Hf  Hf33  1  0.621151  0.657688  0.448317  1
  Hf  Hf34  1  0.448317  0.621151  0.657688  1
  Hf  Hf35  1  0.842312  0.878849  0.051683  1
  Hf  Hf36  1  0.357370  0.750000  0.142630  1
  Hf  Hf37  1  0.857764  0.423944  0.449326  1
  Hf  Hf38  1  0.076056  0.642236  0.050674  1
  Hf  Hf39  1  0.937998  0.750000  0.562002  1
  Hf  Hf40  1  0.562002  0.937998  0.750000  1
  Hf  Hf41  1  0.250000  0.857370  0.642630  1
  Hf  Hf42  1  0.357764  0.949326  0.923944  1
  Hf  Hf43  1  0.576056  0.550674  0.142236  1
  Hf  Hf44  1  0.750000  0.750000  0.750000  1
  Hf  Hf45  1  0.062002  0.250000  0.437998  1
  Hf  Hf46  1  0.949326  0.923944  0.357764  1
  Hf  Hf47  1  0.550674  0.142236  0.576056  1
  Hf  Hf48  1  0.050674  0.076056  0.642236  1
  Hf  Hf49  1  0.051683  0.842312  0.878849  1
  O  O50  1  0.566536  0.108754  0.745024  1
  O  O51  1  0.392879  0.392879  0.392879  1
  O  O52  1  0.494644  0.456178  0.685467  1
  O  O53  1  0.801371  0.200634  0.847982  1
  O  O54  1  0.317865  0.106840  0.914627  1
  O  O55  1  0.734260  0.929630  0.747967  1
  O  O56  1  0.456178  0.685467  0.494644  1
  O  O57  1  0.549145  0.959022  0.920180  1
  O  O58  1  0.891246  0.254976  0.433464  1
  O  O59  1  0.698629  0.652018  0.299366  1
  O  O60  1  0.368907  0.801420  0.985360  1
  O  O61  1  0.700634  0.301371  0.347982  1
  O  O62  1  0.265740  0.070370  0.252033  1
  O  O63  1  0.200634  0.847982  0.801371  1
  O  O64  1  0.685467  0.494644  0.456178  1
  O  O65  1  0.185467  0.956178  0.994644  1
  O  O66  1  0.485360  0.301420  0.868907  1
  O  O67  1  0.414627  0.606840  0.817865  1
  O  O68  1  0.152018  0.198629  0.799366  1
  O  O69  1  0.765740  0.752033  0.570370  1
  O  O70  1  0.254976  0.433464  0.891246  1
  O  O71  1  0.252033  0.265740  0.070370  1
  O  O72  1  0.631093  0.198580  0.014640  1
  O  O73  1  0.131093  0.514640  0.698580  1
  O  O74  1  0.985360  0.368907  0.801420  1
  O  O75  1  0.959022  0.920180  0.549145  1
  O  O76  1  0.608754  0.066536  0.245024  1
  O  O77  1  0.234260  0.247967  0.429630  1
  O  O78  1  0.347982  0.700634  0.301371  1
  O  O79  1  0.994644  0.185467  0.956178  1
  O  O80  1  0.892879  0.892879  0.892879  1
  O  O81  1  0.933464  0.754976  0.391246  1
  O  O82  1  0.682135  0.893160  0.085373  1
  O  O83  1  0.301371  0.347982  0.700634  1
  O  O84  1  0.429630  0.234260  0.247967  1
  O  O85  1  0.585373  0.393160  0.182135  1
  O  O86  1  0.801420  0.985360  0.368907  1
  O  O87  1  0.540978  0.950855  0.579820  1
  O  O88  1  0.450855  0.040978  0.079820  1
  O  O89  1  0.745024  0.566536  0.108754  1
  O  O90  1  0.817865  0.414627  0.606840  1
  O  O91  1  0.079820  0.450855  0.040978  1
  O  O92  1  0.459022  0.049145  0.420180  1
  O  O93  1  0.956178  0.994644  0.185467  1
  O  O94  1  0.005356  0.814533  0.043822  1
  O  O95  1  0.391246  0.933464  0.754976  1
  O  O96  1  0.433464  0.891246  0.254976  1
  O  O97  1  0.245024  0.608754  0.066536  1
  O  O98  1  0.698580  0.131093  0.514640  1
  O  O99  1  0.014640  0.631093  0.198580  1
  O  O100  1  0.570370  0.765740  0.752033  1
  O  O101  1  0.914627  0.317865  0.106840  1
  O  O102  1  0.606840  0.817865  0.414627  1
  O  O103  1  0.393160  0.182135  0.585373  1
  O  O104  1  0.420180  0.459022  0.049145  1
  O  O105  1  0.514640  0.698580  0.131093  1
  O  O106  1  0.314533  0.505356  0.543822  1
  O  O107  1  0.198629  0.799366  0.152018  1
  O  O108  1  0.108754  0.745024  0.566536  1
  O  O109  1  0.106840  0.914627  0.317865  1
  O  O110  1  0.893160  0.085373  0.682135  1
  O  O111  1  0.301420  0.868907  0.485360  1
  O  O112  1  0.043822  0.005356  0.814533  1
  O  O113  1  0.505356  0.543822  0.314533  1
  O  O114  1  0.868907  0.485360  0.301420  1
  O  O115  1  0.607121  0.607121  0.607121  1
  O  O116  1  0.814533  0.043822  0.005356  1
  O  O117  1  0.747967  0.734260  0.929630  1
  O  O118  1  0.247967  0.429630  0.234260  1
  O  O119  1  0.085373  0.682135  0.893160  1
  O  O120  1  0.107121  0.107121  0.107121  1
  O  O121  1  0.070370  0.252033  0.265740  1
  O  O122  1  0.040978  0.079820  0.450855  1
  O  O123  1  0.752033  0.570370  0.765740  1
  O  O124  1  0.929630  0.747967  0.734260  1
  O  O125  1  0.920180  0.549145  0.959022  1
  O  O126  1  0.049145  0.420180  0.459022  1
  O  O127  1  0.299366  0.698629  0.652018  1
  O  O128  1  0.847982  0.801371  0.200634  1
  O  O129  1  0.652018  0.299366  0.698629  1
  O  O130  1  0.754976  0.391246  0.933464  1
  O  O131  1  0.950855  0.579820  0.540978  1
  O  O132  1  0.066536  0.245024  0.608754  1
  O  O133  1  0.799366  0.152018  0.198629  1
  O  O134  1  0.579820  0.540978  0.950855  1
  O  O135  1  0.198580  0.014640  0.631093  1
  O  O136  1  0.182135  0.585373  0.393160  1
  O  O137  1  0.543822  0.314533  0.505356  1
