# generated using pymatgen
data_PrI2
_symmetry_space_group_name_H-M   'P 1'
_cell_length_a   8.92303850
_cell_length_b   8.92303850
_cell_length_c   8.92303850
_cell_angle_alpha   60.00000000
_cell_angle_beta   60.00000000
_cell_angle_gamma   60.00000000
_symmetry_Int_Tables_number   1
_chemical_formula_structural   PrI2
_chemical_formula_sum   'Pr4 I8'
_cell_volume   502.36954354
_cell_formula_units_Z   4
loop_
 _symmetry_equiv_pos_site_id
 _symmetry_equiv_pos_as_xyz
  1  'x, y, z'
loop_
 _atom_site_type_symbol
 _atom_site_label
 _atom_site_symmetry_multiplicity
 _atom_site_fract_x
 _atom_site_fract_y
 _atom_site_fract_z
 _atom_site_occupancy
  Pr  Pr0  1  0.638779  0.083663  0.638779  1
  Pr  Pr1  1  0.083663  0.638779  0.638779  1
  Pr  Pr2  1  0.638779  0.638779  0.638779  1
  Pr  Pr3  1  0.638779  0.638779  0.083663  1
  I  I4  1  0.376301  0.871098  0.376301  1
  I  I5  1  0.336664  0.887779  0.887779  1
  I  I6  1  0.871098  0.376301  0.376301  1
  I  I7  1  0.376301  0.376301  0.871098  1
  I  I8  1  0.887779  0.887779  0.336664  1
  I  I9  1  0.887779  0.336664  0.887779  1
  I  I10  1  0.376301  0.376301  0.376301  1
  I  I11  1  0.887779  0.887779  0.887779  1
