# generated using pymatgen
data_NiPO4
_symmetry_space_group_name_H-M   'P 1'
_cell_length_a   8.66542821
_cell_length_b   8.66542821
_cell_length_c   8.66542821
_cell_angle_alpha   108.40141727
_cell_angle_beta   108.40141727
_cell_angle_gamma   108.40141727
_symmetry_Int_Tables_number   1
_chemical_formula_structural   NiPO4
_chemical_formula_sum   'Ni6 P6 O24'
_cell_volume   519.79002466
_cell_formula_units_Z   6
loop_
 _symmetry_equiv_pos_site_id
 _symmetry_equiv_pos_as_xyz
  1  'x, y, z'
loop_
 _atom_site_type_symbol
 _atom_site_label
 _atom_site_symmetry_multiplicity
 _atom_site_fract_x
 _atom_site_fract_y
 _atom_site_fract_z
 _atom_site_occupancy
  Ni  Ni0  1  0.252807  0.447099  0.046336  1
  Ni  Ni1  1  0.944283  0.770500  0.533794  1
  Ni  Ni2  1  0.447099  0.046336  0.252807  1
  Ni  Ni3  1  0.533794  0.944283  0.770500  1
  Ni  Ni4  1  0.046336  0.252807  0.447099  1
  Ni  Ni5  1  0.770500  0.533794  0.944283  1
  P  P6  1  0.888138  0.286230  0.080676  1
  P  P7  1  0.562795  0.795794  0.391082  1
  P  P8  1  0.080676  0.888138  0.286230  1
  P  P9  1  0.795794  0.391082  0.562795  1
  P  P10  1  0.391082  0.562795  0.795794  1
  P  P11  1  0.286230  0.080676  0.888138  1
  O  O12  1  0.987578  0.752478  0.078675  1
  O  O13  1  0.983659  0.006552  0.325218  1
  O  O14  1  0.774651  0.394366  0.067776  1
  O  O15  1  0.347706  0.283421  0.012180  1
  O  O16  1  0.568123  0.907406  0.280843  1
  O  O17  1  0.709560  0.730931  0.399443  1
  O  O18  1  0.372105  0.623903  0.289610  1
  O  O19  1  0.623903  0.289610  0.372105  1
  O  O20  1  0.598975  0.918705  0.584317  1
  O  O21  1  0.067776  0.774651  0.394366  1
  O  O22  1  0.918705  0.584317  0.598975  1
  O  O23  1  0.012180  0.347706  0.283421  1
  O  O24  1  0.907406  0.280843  0.568123  1
  O  O25  1  0.283421  0.012180  0.347706  1
  O  O26  1  0.730931  0.399443  0.709560  1
  O  O27  1  0.399443  0.709560  0.730931  1
  O  O28  1  0.078675  0.987578  0.752478  1
  O  O29  1  0.289610  0.372105  0.623903  1
  O  O30  1  0.584317  0.598975  0.918705  1
  O  O31  1  0.006552  0.325218  0.983659  1
  O  O32  1  0.325218  0.983659  0.006552  1
  O  O33  1  0.394366  0.067776  0.774651  1
  O  O34  1  0.280843  0.568123  0.907406  1
  O  O35  1  0.752478  0.078675  0.987578  1
