# generated using pymatgen
data_CsCu2F5
_symmetry_space_group_name_H-M   'P 1'
_cell_length_a   7.22539724
_cell_length_b   7.46809451
_cell_length_c   11.50915781
_cell_angle_alpha   90.00000000
_cell_angle_beta   122.93891377
_cell_angle_gamma   90.00000000
_symmetry_Int_Tables_number   1
_chemical_formula_structural   CsCu2F5
_chemical_formula_sum   'Cs4 Cu8 F20'
_cell_volume   521.20289994
_cell_formula_units_Z   4
loop_
 _symmetry_equiv_pos_site_id
 _symmetry_equiv_pos_as_xyz
  1  'x, y, z'
loop_
 _atom_site_type_symbol
 _atom_site_label
 _atom_site_symmetry_multiplicity
 _atom_site_fract_x
 _atom_site_fract_y
 _atom_site_fract_z
 _atom_site_occupancy
  Cs  Cs0  1  0.876862  0.479954  0.621441  1
  Cs  Cs1  1  0.876862  0.020046  0.121441  1
  Cs  Cs2  1  0.123138  0.520046  0.378559  1
  Cs  Cs3  1  0.123138  0.979954  0.878559  1
  Cu  Cu4  1  0.504238  0.235515  0.741839  1
  Cu  Cu5  1  0.495762  0.764485  0.258161  1
  Cu  Cu6  1  0.000000  0.500000  0.000000  1
  Cu  Cu7  1  0.504238  0.264485  0.241839  1
  Cu  Cu8  1  0.495762  0.735515  0.758161  1
  Cu  Cu9  1  0.500000  0.000000  0.500000  1
  Cu  Cu10  1  0.500000  0.500000  0.000000  1
  Cu  Cu11  1  0.000000  0.000000  0.500000  1
  F  F12  1  0.809314  0.290005  0.854734  1
  F  F13  1  0.424719  0.482893  0.742267  1
  F  F14  1  0.190686  0.709995  0.145266  1
  F  F15  1  0.801949  0.821163  0.354544  1
  F  F16  1  0.487732  0.253601  0.028662  1
  F  F17  1  0.575281  0.517107  0.257733  1
  F  F18  1  0.512268  0.753601  0.471338  1
  F  F19  1  0.810102  0.019922  0.571173  1
  F  F20  1  0.810102  0.480078  0.071173  1
  F  F21  1  0.575281  0.982893  0.757733  1
  F  F22  1  0.801949  0.678837  0.854544  1
  F  F23  1  0.424719  0.017107  0.242267  1
  F  F24  1  0.189898  0.980078  0.428827  1
  F  F25  1  0.487732  0.246399  0.528662  1
  F  F26  1  0.189898  0.519922  0.928827  1
  F  F27  1  0.190686  0.790005  0.645266  1
  F  F28  1  0.809314  0.209995  0.354734  1
  F  F29  1  0.512268  0.746399  0.971338  1
  F  F30  1  0.198051  0.321163  0.145456  1
  F  F31  1  0.198051  0.178837  0.645456  1
