# generated using pymatgen
data_HoSiRu2C
_symmetry_space_group_name_H-M   'P 1'
_cell_length_a   5.88932112
_cell_length_b   5.88932112
_cell_length_c   7.14907168
_cell_angle_alpha   90.00000000
_cell_angle_beta   90.00000000
_cell_angle_gamma   142.46311542
_symmetry_Int_Tables_number   1
_chemical_formula_structural   HoSiRu2C
_chemical_formula_sum   'Ho2 Si2 Ru4 C2'
_cell_volume   151.07456894
_cell_formula_units_Z   2
loop_
 _symmetry_equiv_pos_site_id
 _symmetry_equiv_pos_as_xyz
  1  'x, y, z'
loop_
 _atom_site_type_symbol
 _atom_site_label
 _atom_site_symmetry_multiplicity
 _atom_site_fract_x
 _atom_site_fract_y
 _atom_site_fract_z
 _atom_site_occupancy
  Ho  Ho0  1  0.546682  0.453318  0.250000  1
  Ho  Ho1  1  0.453318  0.546682  0.750000  1
  Si  Si2  1  0.268420  0.731580  0.250000  1
  Si  Si3  1  0.731580  0.268420  0.750000  1
  Ru  Ru4  1  0.836158  0.163842  0.443247  1
  Ru  Ru5  1  0.163842  0.836158  0.943247  1
  Ru  Ru6  1  0.163842  0.836158  0.556753  1
  Ru  Ru7  1  0.836158  0.163842  0.056753  1
  C  C8  1  0.000000  0.000000  0.500000  1
  C  C9  1  0.000000  0.000000  0.000000  1
