# generated using pymatgen
data_RbMn6As7O24
_symmetry_space_group_name_H-M   'P 1'
_cell_length_a   5.63490439
_cell_length_b   28.22500317
_cell_length_c   6.92742265
_cell_angle_alpha   90.00000000
_cell_angle_beta   107.71959201
_cell_angle_gamma   90.00000000
_symmetry_Int_Tables_number   1
_chemical_formula_structural   RbMn6As7O24
_chemical_formula_sum   'Rb2 Mn12 As14 O48'
_cell_volume   1049.50236129
_cell_formula_units_Z   2
loop_
 _symmetry_equiv_pos_site_id
 _symmetry_equiv_pos_as_xyz
  1  'x, y, z'
loop_
 _atom_site_type_symbol
 _atom_site_label
 _atom_site_symmetry_multiplicity
 _atom_site_fract_x
 _atom_site_fract_y
 _atom_site_fract_z
 _atom_site_occupancy
  Rb  Rb0  1  0.802132  0.250000  0.898152  1
  Rb  Rb1  1  0.197868  0.750000  0.101848  1
  Mn  Mn2  1  0.683348  0.543290  0.180263  1
  Mn  Mn3  1  0.285924  0.598196  0.400556  1
  Mn  Mn4  1  0.394005  0.315595  0.251539  1
  Mn  Mn5  1  0.605995  0.815595  0.748461  1
  Mn  Mn6  1  0.394005  0.184405  0.251539  1
  Mn  Mn7  1  0.316652  0.456710  0.819737  1
  Mn  Mn8  1  0.605995  0.684405  0.748461  1
  Mn  Mn9  1  0.714076  0.098196  0.599444  1
  Mn  Mn10  1  0.285924  0.901804  0.400556  1
  Mn  Mn11  1  0.714076  0.401804  0.599444  1
  Mn  Mn12  1  0.316652  0.043290  0.819737  1
  Mn  Mn13  1  0.683348  0.956710  0.180263  1
  As  As14  1  0.975237  0.250000  0.433203  1
  As  As15  1  0.774317  0.522645  0.698350  1
  As  As16  1  0.815534  0.387022  0.126514  1
  As  As17  1  0.225683  0.477355  0.301650  1
  As  As18  1  0.225683  0.022645  0.301650  1
  As  As19  1  0.024763  0.750000  0.566797  1
  As  As20  1  0.726229  0.836637  0.273733  1
  As  As21  1  0.184466  0.887022  0.873486  1
  As  As22  1  0.184466  0.612978  0.873486  1
  As  As23  1  0.273771  0.336637  0.726267  1
  As  As24  1  0.726229  0.663363  0.273733  1
  As  As25  1  0.273771  0.163363  0.726267  1
  As  As26  1  0.815534  0.112978  0.126514  1
  As  As27  1  0.774317  0.977355  0.698350  1
  O  O28  1  0.670209  0.250000  0.296464  1
  O  O29  1  0.108162  0.113050  0.731452  1
  O  O30  1  0.456784  0.163180  0.568707  1
  O  O31  1  0.918087  0.029409  0.675248  1
  O  O32  1  0.611712  0.519922  0.869855  1
  O  O33  1  0.393562  0.047726  0.526508  1
  O  O34  1  0.329791  0.750000  0.703536  1
  O  O35  1  0.192575  0.250000  0.308559  1
  O  O36  1  0.606438  0.952274  0.473492  1
  O  O37  1  0.620890  0.401282  0.889590  1
  O  O38  1  0.995653  0.700728  0.405357  1
  O  O39  1  0.393562  0.452274  0.526508  1
  O  O40  1  0.598536  0.807041  0.054710  1
  O  O41  1  0.620890  0.098718  0.889590  1
  O  O42  1  0.388288  0.019922  0.130145  1
  O  O43  1  0.004347  0.200728  0.594643  1
  O  O44  1  0.543216  0.663180  0.431293  1
  O  O45  1  0.379110  0.901282  0.110410  1
  O  O46  1  0.598536  0.692959  0.054710  1
  O  O47  1  0.004347  0.299272  0.594643  1
  O  O48  1  0.051515  0.943877  0.798095  1
  O  O49  1  0.948485  0.443877  0.201905  1
  O  O50  1  0.918087  0.470591  0.675248  1
  O  O51  1  0.401464  0.307041  0.945290  1
  O  O52  1  0.351900  0.623628  0.708172  1
  O  O53  1  0.948485  0.056123  0.201905  1
  O  O54  1  0.891838  0.613050  0.268548  1
  O  O55  1  0.891838  0.886950  0.268548  1
  O  O56  1  0.051515  0.556123  0.798095  1
  O  O57  1  0.351900  0.876372  0.708172  1
  O  O58  1  0.977811  0.843845  0.869942  1
  O  O59  1  0.401464  0.192959  0.945290  1
  O  O60  1  0.081913  0.970591  0.324752  1
  O  O61  1  0.648100  0.123628  0.291828  1
  O  O62  1  0.379110  0.598718  0.110410  1
  O  O63  1  0.388288  0.480078  0.130145  1
  O  O64  1  0.543216  0.836820  0.431293  1
  O  O65  1  0.977811  0.656155  0.869942  1
  O  O66  1  0.456784  0.336820  0.568707  1
  O  O67  1  0.995653  0.799272  0.405357  1
  O  O68  1  0.606438  0.547726  0.473492  1
  O  O69  1  0.022189  0.343845  0.130058  1
  O  O70  1  0.081913  0.529409  0.324752  1
  O  O71  1  0.648100  0.376372  0.291828  1
  O  O72  1  0.611712  0.980078  0.869855  1
  O  O73  1  0.807425  0.750000  0.691441  1
  O  O74  1  0.108162  0.386950  0.731452  1
  O  O75  1  0.022189  0.156155  0.130058  1
