# generated using pymatgen
data_LiCoP2O7
_symmetry_space_group_name_H-M   'P 1'
_cell_length_a   6.97672230
_cell_length_b   8.33271314
_cell_length_c   9.19733599
_cell_angle_alpha   90.00000000
_cell_angle_beta   111.58922891
_cell_angle_gamma   90.00000000
_symmetry_Int_Tables_number   1
_chemical_formula_structural   LiCoP2O7
_chemical_formula_sum   'Li4 Co4 P8 O28'
_cell_volume   497.17673146
_cell_formula_units_Z   4
loop_
 _symmetry_equiv_pos_site_id
 _symmetry_equiv_pos_as_xyz
  1  'x, y, z'
loop_
 _atom_site_type_symbol
 _atom_site_label
 _atom_site_symmetry_multiplicity
 _atom_site_fract_x
 _atom_site_fract_y
 _atom_site_fract_z
 _atom_site_occupancy
  Li  Li0  1  0.793400  0.074822  0.402941  1
  Li  Li1  1  0.206600  0.574822  0.097059  1
  Li  Li2  1  0.206600  0.925178  0.597059  1
  Li  Li3  1  0.793400  0.425178  0.902941  1
  Co  Co4  1  0.693340  0.065139  0.811490  1
  Co  Co5  1  0.306660  0.565139  0.688510  1
  Co  Co6  1  0.306660  0.934861  0.188510  1
  Co  Co7  1  0.693340  0.434861  0.311490  1
  P  P8  1  0.930873  0.738102  0.756737  1
  P  P9  1  0.069127  0.261898  0.243263  1
  P  P10  1  0.478282  0.282339  0.532826  1
  P  P11  1  0.478282  0.217661  0.032826  1
  P  P12  1  0.069127  0.238102  0.743263  1
  P  P13  1  0.521718  0.782339  0.967174  1
  P  P14  1  0.930873  0.761898  0.256737  1
  P  P15  1  0.521718  0.717661  0.467174  1
  O  O16  1  0.364858  0.717608  0.550460  1
  O  O17  1  0.947036  0.886888  0.378020  1
  O  O18  1  0.881358  0.251928  0.290661  1
  O  O19  1  0.490754  0.582709  0.348179  1
  O  O20  1  0.118642  0.751928  0.209339  1
  O  O21  1  0.745732  0.808896  0.094196  1
  O  O22  1  0.125444  0.407391  0.697739  1
  O  O23  1  0.490754  0.917291  0.848179  1
  O  O24  1  0.517402  0.616109  0.890172  1
  O  O25  1  0.874556  0.907391  0.802261  1
  O  O26  1  0.052964  0.113112  0.621980  1
  O  O27  1  0.874556  0.592609  0.302261  1
  O  O28  1  0.052964  0.386888  0.121980  1
  O  O29  1  0.745732  0.691104  0.594196  1
  O  O30  1  0.118642  0.748072  0.709339  1
  O  O31  1  0.254268  0.308896  0.405804  1
  O  O32  1  0.254268  0.191104  0.905804  1
  O  O33  1  0.881358  0.248072  0.790661  1
  O  O34  1  0.125444  0.092609  0.197739  1
  O  O35  1  0.509246  0.082709  0.151821  1
  O  O36  1  0.482598  0.383891  0.109828  1
  O  O37  1  0.947036  0.613112  0.878020  1
  O  O38  1  0.635142  0.282392  0.449540  1
  O  O39  1  0.482598  0.116109  0.609828  1
  O  O40  1  0.509246  0.417291  0.651821  1
  O  O41  1  0.635142  0.217608  0.949540  1
  O  O42  1  0.517402  0.883891  0.390172  1
  O  O43  1  0.364858  0.782392  0.050460  1
