# generated using pymatgen
data_Er2Al3Co
_symmetry_space_group_name_H-M   'P 1'
_cell_length_a   5.49280552
_cell_length_b   5.49280552
_cell_length_c   8.51981615
_cell_angle_alpha   90.00000000
_cell_angle_beta   90.00000000
_cell_angle_gamma   120.00000000
_symmetry_Int_Tables_number   1
_chemical_formula_structural   Er2Al3Co
_chemical_formula_sum   'Er4 Al6 Co2'
_cell_volume   222.61237360
_cell_formula_units_Z   2
loop_
 _symmetry_equiv_pos_site_id
 _symmetry_equiv_pos_as_xyz
  1  'x, y, z'
loop_
 _atom_site_type_symbol
 _atom_site_label
 _atom_site_symmetry_multiplicity
 _atom_site_fract_x
 _atom_site_fract_y
 _atom_site_fract_z
 _atom_site_occupancy
  Er  Er0  1  0.333333  0.666667  0.444254  1
  Er  Er1  1  0.666667  0.333333  0.944254  1
  Er  Er2  1  0.666667  0.333333  0.555746  1
  Er  Er3  1  0.333333  0.666667  0.055746  1
  Al  Al4  1  0.322825  0.161412  0.250000  1
  Al  Al5  1  0.161412  0.838588  0.750000  1
  Al  Al6  1  0.161412  0.322825  0.750000  1
  Al  Al7  1  0.838588  0.677175  0.250000  1
  Al  Al8  1  0.677175  0.838588  0.750000  1
  Al  Al9  1  0.838588  0.161412  0.250000  1
  Co  Co10  1  0.000000  0.000000  0.000000  1
  Co  Co11  1  0.000000  0.000000  0.500000  1
