# generated using pymatgen
data_Ba3BPO7
_symmetry_space_group_name_H-M   'P 1'
_cell_length_a   5.60005320
_cell_length_b   5.60005320
_cell_length_c   14.90046591
_cell_angle_alpha   90.00000000
_cell_angle_beta   90.00000000
_cell_angle_gamma   120.00000000
_symmetry_Int_Tables_number   1
_chemical_formula_structural   Ba3BPO7
_chemical_formula_sum   'Ba6 B2 P2 O14'
_cell_volume   404.68283655
_cell_formula_units_Z   2
loop_
 _symmetry_equiv_pos_site_id
 _symmetry_equiv_pos_as_xyz
  1  'x, y, z'
loop_
 _atom_site_type_symbol
 _atom_site_label
 _atom_site_symmetry_multiplicity
 _atom_site_fract_x
 _atom_site_fract_y
 _atom_site_fract_z
 _atom_site_occupancy
  Ba  Ba0  1  0.000000  0.000000  0.720442  1
  Ba  Ba1  1  0.333333  0.666667  0.382554  1
  Ba  Ba2  1  0.000000  0.000000  0.220442  1
  Ba  Ba3  1  0.666667  0.333333  0.882554  1
  Ba  Ba4  1  0.666667  0.333333  0.598498  1
  Ba  Ba5  1  0.333333  0.666667  0.098498  1
  B  B6  1  0.333333  0.666667  0.741715  1
  B  B7  1  0.666667  0.333333  0.241715  1
  P  P8  1  0.000000  0.000000  0.995674  1
  P  P9  1  0.000000  0.000000  0.495674  1
  O  O10  1  0.522225  0.044451  0.242282  1
  O  O11  1  0.000000  0.000000  0.391564  1
  O  O12  1  0.477775  0.955549  0.742282  1
  O  O13  1  0.849539  0.699079  0.032002  1
  O  O14  1  0.150461  0.849539  0.532002  1
  O  O15  1  0.699079  0.849539  0.532002  1
  O  O16  1  0.300921  0.150461  0.032002  1
  O  O17  1  0.955549  0.477775  0.242282  1
  O  O18  1  0.044451  0.522225  0.742282  1
  O  O19  1  0.849539  0.150461  0.032002  1
  O  O20  1  0.522225  0.477775  0.242282  1
  O  O21  1  0.000000  0.000000  0.891564  1
  O  O22  1  0.150461  0.300921  0.532002  1
  O  O23  1  0.477775  0.522225  0.742282  1
