# generated using pymatgen
data_Ba11(OsO6)4
_symmetry_space_group_name_H-M   'P 1'
_cell_length_a   12.21513974
_cell_length_b   12.21513974
_cell_length_c   12.21513974
_cell_angle_alpha   118.88524344
_cell_angle_beta   118.88524344
_cell_angle_gamma   91.94190905
_symmetry_Int_Tables_number   1
_chemical_formula_structural   Ba11(OsO6)4
_chemical_formula_sum   'Ba22 Os8 O48'
_cell_volume   1309.68606137
_cell_formula_units_Z   2
loop_
 _symmetry_equiv_pos_site_id
 _symmetry_equiv_pos_as_xyz
  1  'x, y, z'
loop_
 _atom_site_type_symbol
 _atom_site_label
 _atom_site_symmetry_multiplicity
 _atom_site_fract_x
 _atom_site_fract_y
 _atom_site_fract_z
 _atom_site_occupancy
  Ba  Ba0  1  0.566430  0.800643  0.181158  1
  Ba  Ba1  1  0.996148  0.468037  0.943769  1
  Ba  Ba2  1  0.135272  0.816430  0.265787  1
  Ba  Ba3  1  0.218037  0.774268  0.971889  1
  Ba  Ba4  1  0.753852  0.781963  0.556231  1
  Ba  Ba5  1  0.199357  0.380515  0.765787  1
  Ba  Ba6  1  0.235986  0.235986  0.000000  1
  Ba  Ba7  1  0.764014  0.764014  0.000000  1
  Ba  Ba8  1  0.985986  0.485986  0.500000  1
  Ba  Ba9  1  0.550643  0.869485  0.734213  1
  Ba  Ba10  1  0.531963  0.475732  0.528111  1
  Ba  Ba11  1  0.183570  0.449357  0.318842  1
  Ba  Ba12  1  0.619485  0.385272  0.818842  1
  Ba  Ba13  1  0.225732  0.197621  0.443769  1
  Ba  Ba14  1  0.000000  0.000000  0.000000  1
  Ba  Ba15  1  0.524268  0.052379  0.056231  1
  Ba  Ba16  1  0.614728  0.433570  0.234213  1
  Ba  Ba17  1  0.947621  0.003852  0.471889  1
  Ba  Ba18  1  0.514014  0.014014  0.500000  1
  Ba  Ba19  1  0.750000  0.250000  0.500000  1
  Ba  Ba20  1  0.130515  0.864728  0.681158  1
  Ba  Ba21  1  0.802379  0.246148  0.028111  1
  Os  Os22  1  0.375000  0.125000  0.750000  1
  Os  Os23  1  0.875000  0.625000  0.250000  1
  Os  Os24  1  0.875000  0.625000  0.750000  1
  Os  Os25  1  0.375000  0.625000  0.250000  1
  Os  Os26  1  0.375000  0.625000  0.750000  1
  Os  Os27  1  0.375000  0.125000  0.250000  1
  Os  Os28  1  0.875000  0.125000  0.750000  1
  Os  Os29  1  0.875000  0.125000  0.250000  1
  O  O30  1  0.763143  0.017573  0.029082  1
  O  O31  1  0.248004  0.001014  0.225999  1
  O  O32  1  0.352923  0.763674  0.216166  1
  O  O33  1  0.886757  0.602923  0.089249  1
  O  O34  1  0.767573  0.238491  0.754431  1
  O  O35  1  0.775261  0.251526  0.252991  1
  O  O36  1  0.986857  0.232427  0.470918  1
  O  O37  1  0.512466  0.548643  0.772638  1
  O  O38  1  0.384050  0.282352  0.751203  1
  O  O39  1  0.982427  0.011509  0.745569  1
  O  O40  1  0.751014  0.025014  0.253010  1
  O  O41  1  0.547508  0.136757  0.783834  1
  O  O42  1  0.218851  0.617153  0.251203  1
  O  O43  1  0.367153  0.615950  0.898302  1
  O  O44  1  0.988491  0.734061  0.970918  1
  O  O45  1  0.974739  0.998474  0.247009  1
  O  O46  1  0.998986  0.224986  0.246990  1
  O  O47  1  0.032352  0.781149  0.398302  1
  O  O48  1  0.451357  0.223995  0.963823  1
  O  O49  1  0.974986  0.227996  0.725999  1
  O  O50  1  0.265939  0.236857  0.254431  1
  O  O51  1  0.717648  0.468851  0.101698  1
  O  O52  1  0.761509  0.515939  0.529082  1
  O  O53  1  0.775014  0.022004  0.774001  1
  O  O54  1  0.863243  0.647077  0.410751  1
  O  O55  1  0.531149  0.632847  0.248797  1
  O  O56  1  0.236326  0.452492  0.589249  1
  O  O57  1  0.489828  0.762466  0.463823  1
  O  O58  1  0.751465  0.727730  0.752991  1
  O  O59  1  0.772004  0.498004  0.746990  1
  O  O60  1  0.484061  0.013143  0.245569  1
  O  O61  1  0.977996  0.751996  0.753010  1
  O  O62  1  0.477730  0.224739  0.476265  1
  O  O63  1  0.501996  0.248986  0.274001  1
  O  O64  1  0.748474  0.001465  0.523735  1
  O  O65  1  0.272270  0.025261  0.023735  1
  O  O66  1  0.237534  0.701357  0.727362  1
  O  O67  1  0.998535  0.522270  0.747009  1
  O  O68  1  0.298643  0.026005  0.536177  1
  O  O69  1  0.260172  0.487534  0.036177  1
  O  O70  1  0.202492  0.113243  0.716166  1
  O  O71  1  0.397077  0.486326  0.283834  1
  O  O72  1  0.382847  0.634050  0.601698  1
  O  O73  1  0.365950  0.967648  0.748797  1
  O  O74  1  0.001526  0.248535  0.976265  1
  O  O75  1  0.776005  0.739828  0.227362  1
  O  O76  1  0.513674  0.797508  0.910751  1
  O  O77  1  0.973995  0.510172  0.272638  1
