# generated using pymatgen
data_Nd2Ta2Cl2O7
_symmetry_space_group_name_H-M   'P 1'
_cell_length_a   8.02766654
_cell_length_b   8.02766654
_cell_length_c   6.95337190
_cell_angle_alpha   66.96482177
_cell_angle_beta   113.03517823
_cell_angle_gamma   151.47954346
_symmetry_Int_Tables_number   1
_chemical_formula_structural   Nd2Ta2Cl2O7
_chemical_formula_sum   'Nd2 Ta2 Cl2 O7'
_cell_volume   195.74215287
_cell_formula_units_Z   1
loop_
 _symmetry_equiv_pos_site_id
 _symmetry_equiv_pos_as_xyz
  1  'x, y, z'
loop_
 _atom_site_type_symbol
 _atom_site_label
 _atom_site_symmetry_multiplicity
 _atom_site_fract_x
 _atom_site_fract_y
 _atom_site_fract_z
 _atom_site_occupancy
  Nd  Nd0  1  0.307437  0.692563  0.835554  1
  Nd  Nd1  1  0.692563  0.307437  0.164446  1
  Ta  Ta2  1  0.965244  0.034756  0.200833  1
  Ta  Ta3  1  0.034756  0.965244  0.799167  1
  Cl  Cl4  1  0.678790  0.321210  0.565540  1
  Cl  Cl5  1  0.321210  0.678790  0.434460  1
  O  O6  1  0.454451  0.545549  0.163125  1
  O  O7  1  0.545549  0.454451  0.836875  1
  O  O8  1  0.918768  0.081232  0.846861  1
  O  O9  1  0.000000  0.000000  0.500000  1
  O  O10  1  0.825169  0.174831  0.069018  1
  O  O11  1  0.081232  0.918768  0.153139  1
  O  O12  1  0.174831  0.825169  0.930982  1
