# generated using pymatgen
data_ErHO2
_symmetry_space_group_name_H-M   'P 1'
_cell_length_a   4.30773945
_cell_length_b   3.61623643
_cell_length_c   5.95160273
_cell_angle_alpha   90.00000000
_cell_angle_beta   109.71099381
_cell_angle_gamma   90.00000000
_symmetry_Int_Tables_number   1
_chemical_formula_structural   ErHO2
_chemical_formula_sum   'Er2 H2 O4'
_cell_volume   87.28046869
_cell_formula_units_Z   2
loop_
 _symmetry_equiv_pos_site_id
 _symmetry_equiv_pos_as_xyz
  1  'x, y, z'
loop_
 _atom_site_type_symbol
 _atom_site_label
 _atom_site_symmetry_multiplicity
 _atom_site_fract_x
 _atom_site_fract_y
 _atom_site_fract_z
 _atom_site_occupancy
  Er  Er0  1  0.836225  0.750000  0.188779  1
  Er  Er1  1  0.163775  0.250000  0.811221  1
  H  H2  1  0.483543  0.750000  0.596337  1
  H  H3  1  0.516457  0.250000  0.403663  1
  O  O4  1  0.267427  0.750000  0.053350  1
  O  O5  1  0.732573  0.250000  0.946650  1
  O  O6  1  0.247239  0.750000  0.566737  1
  O  O7  1  0.752761  0.250000  0.433263  1
