# generated using pymatgen
data_La3Co3O8
_symmetry_space_group_name_H-M   'P 1'
_cell_length_a   5.65517105
_cell_length_b   5.43251413
_cell_length_c   11.76463577
_cell_angle_alpha   90.00000000
_cell_angle_beta   90.36542106
_cell_angle_gamma   90.00000000
_symmetry_Int_Tables_number   1
_chemical_formula_structural   La3Co3O8
_chemical_formula_sum   'La6 Co6 O16'
_cell_volume   361.42339689
_cell_formula_units_Z   2
loop_
 _symmetry_equiv_pos_site_id
 _symmetry_equiv_pos_as_xyz
  1  'x, y, z'
loop_
 _atom_site_type_symbol
 _atom_site_label
 _atom_site_symmetry_multiplicity
 _atom_site_fract_x
 _atom_site_fract_y
 _atom_site_fract_z
 _atom_site_occupancy
  La  La0  1  0.250992  0.249798  0.501219  1
  La  La1  1  0.749008  0.749798  0.498781  1
  La  La2  1  0.268443  0.255783  0.811258  1
  La  La3  1  0.731557  0.755783  0.188742  1
  La  La4  1  0.267125  0.252711  0.192532  1
  La  La5  1  0.732875  0.752711  0.807468  1
  Co  Co6  1  0.750225  0.250407  0.335659  1
  Co  Co7  1  0.249775  0.750407  0.664341  1
  Co  Co8  1  0.758026  0.250140  0.667504  1
  Co  Co9  1  0.241974  0.750140  0.332496  1
  Co  Co10  1  0.812102  0.298504  0.997602  1
  Co  Co11  1  0.187898  0.798504  0.002398  1
  O  O12  1  0.000892  0.007577  0.693401  1
  O  O13  1  0.999108  0.507577  0.306599  1
  O  O14  1  0.997623  0.495388  0.692706  1
  O  O15  1  0.002377  0.995388  0.307294  1
  O  O16  1  0.829965  0.249648  0.508207  1
  O  O17  1  0.170035  0.749648  0.491793  1
  O  O18  1  0.509348  0.007499  0.644452  1
  O  O19  1  0.490652  0.507499  0.355548  1
  O  O20  1  0.514243  0.497764  0.644210  1
  O  O21  1  0.485757  0.997764  0.355790  1
  O  O22  1  0.676608  0.230926  0.146573  1
  O  O23  1  0.323392  0.730926  0.853427  1
  O  O24  1  0.142529  0.169928  0.000364  1
  O  O25  1  0.857471  0.669928  0.999636  1
  O  O26  1  0.311794  0.740928  0.158564  1
  O  O27  1  0.688206  0.240928  0.841436  1
