# generated using pymatgen
data_K2ReCl5O
_symmetry_space_group_name_H-M   'P 1'
_cell_length_a   6.96726084
_cell_length_b   10.18461747
_cell_length_c   13.54696954
_cell_angle_alpha   90.00000000
_cell_angle_beta   90.00000000
_cell_angle_gamma   90.00000000
_symmetry_Int_Tables_number   1
_chemical_formula_structural   K2ReCl5O
_chemical_formula_sum   'K8 Re4 Cl20 O4'
_cell_volume   961.27787359
_cell_formula_units_Z   4
loop_
 _symmetry_equiv_pos_site_id
 _symmetry_equiv_pos_as_xyz
  1  'x, y, z'
loop_
 _atom_site_type_symbol
 _atom_site_label
 _atom_site_symmetry_multiplicity
 _atom_site_fract_x
 _atom_site_fract_y
 _atom_site_fract_z
 _atom_site_occupancy
  K  K0  1  0.819710  0.998731  0.360346  1
  K  K1  1  0.180290  0.498731  0.639654  1
  K  K2  1  0.319710  0.001269  0.139654  1
  K  K3  1  0.680290  0.998731  0.860346  1
  K  K4  1  0.319710  0.498731  0.139654  1
  K  K5  1  0.680290  0.501269  0.860346  1
  K  K6  1  0.819710  0.501269  0.360346  1
  K  K7  1  0.180290  0.001269  0.639654  1
  Re  Re8  1  0.823829  0.750000  0.097783  1
  Re  Re9  1  0.176171  0.250000  0.902217  1
  Re  Re10  1  0.323829  0.250000  0.402217  1
  Re  Re11  1  0.676171  0.750000  0.597783  1
  Cl  Cl12  1  0.304280  0.015510  0.389120  1
  Cl  Cl13  1  0.695720  0.984490  0.610880  1
  Cl  Cl14  1  0.195720  0.484490  0.889120  1
  Cl  Cl15  1  0.195720  0.015510  0.889120  1
  Cl  Cl16  1  0.432178  0.750000  0.721984  1
  Cl  Cl17  1  0.098760  0.250000  0.255367  1
  Cl  Cl18  1  0.804280  0.515510  0.110880  1
  Cl  Cl19  1  0.067822  0.750000  0.221984  1
  Cl  Cl20  1  0.804280  0.984490  0.110880  1
  Cl  Cl21  1  0.030772  0.250000  0.495854  1
  Cl  Cl22  1  0.469228  0.250000  0.995854  1
  Cl  Cl23  1  0.969228  0.750000  0.504146  1
  Cl  Cl24  1  0.901240  0.750000  0.744633  1
  Cl  Cl25  1  0.401240  0.250000  0.755367  1
  Cl  Cl26  1  0.530772  0.750000  0.004146  1
  Cl  Cl27  1  0.598760  0.750000  0.244633  1
  Cl  Cl28  1  0.567822  0.250000  0.278016  1
  Cl  Cl29  1  0.932178  0.250000  0.778016  1
  Cl  Cl30  1  0.695720  0.515510  0.610880  1
  Cl  Cl31  1  0.304280  0.484490  0.389120  1
  O  O32  1  0.026024  0.250000  0.000677  1
  O  O33  1  0.473976  0.250000  0.500677  1
  O  O34  1  0.526024  0.750000  0.499323  1
  O  O35  1  0.973976  0.750000  0.999323  1
