# generated using pymatgen
data_V3SiP5O19
_symmetry_space_group_name_H-M   'P 1'
_cell_length_a   14.58948465
_cell_length_b   14.58948465
_cell_length_c   7.72138362
_cell_angle_alpha   90.00000000
_cell_angle_beta   90.00000000
_cell_angle_gamma   120.00000000
_symmetry_Int_Tables_number   1
_chemical_formula_structural   V3SiP5O19
_chemical_formula_sum   'V12 Si4 P20 O76'
_cell_volume   1423.33020068
_cell_formula_units_Z   4
loop_
 _symmetry_equiv_pos_site_id
 _symmetry_equiv_pos_as_xyz
  1  'x, y, z'
loop_
 _atom_site_type_symbol
 _atom_site_label
 _atom_site_symmetry_multiplicity
 _atom_site_fract_x
 _atom_site_fract_y
 _atom_site_fract_z
 _atom_site_occupancy
  V  V0  1  0.319973  0.977206  0.555494  1
  V  V1  1  0.680027  0.022794  0.055494  1
  V  V2  1  0.675642  0.014352  0.446824  1
  V  V3  1  0.661290  0.675642  0.946824  1
  V  V4  1  0.324358  0.985648  0.946824  1
  V  V5  1  0.014352  0.338710  0.946824  1
  V  V6  1  0.342768  0.319973  0.055494  1
  V  V7  1  0.338710  0.324358  0.446824  1
  V  V8  1  0.985648  0.661290  0.446824  1
  V  V9  1  0.022794  0.342768  0.555494  1
  V  V10  1  0.657232  0.680027  0.555494  1
  V  V11  1  0.977206  0.657232  0.055494  1
  Si  Si12  1  0.333333  0.666667  0.301539  1
  Si  Si13  1  0.333333  0.666667  0.715189  1
  Si  Si14  1  0.666667  0.333333  0.801539  1
  Si  Si15  1  0.666667  0.333333  0.215189  1
  P  P16  1  0.852338  0.768832  0.247314  1
  P  P17  1  0.768832  0.916494  0.747314  1
  P  P18  1  0.432325  0.221730  0.748289  1
  P  P19  1  0.210596  0.432325  0.248289  1
  P  P20  1  0.579038  0.483797  0.259675  1
  P  P21  1  0.516203  0.095241  0.259675  1
  P  P22  1  0.083506  0.852338  0.747314  1
  P  P23  1  0.904759  0.420962  0.259675  1
  P  P24  1  0.567675  0.778270  0.248289  1
  P  P25  1  0.221730  0.789404  0.248289  1
  P  P26  1  0.095241  0.579038  0.759675  1
  P  P27  1  0.420962  0.516203  0.759675  1
  P  P28  1  0.483797  0.904759  0.759675  1
  P  P29  1  0.147662  0.231168  0.747314  1
  P  P30  1  0.778270  0.210596  0.748289  1
  P  P31  1  0.231168  0.083506  0.247314  1
  P  P32  1  0.000000  0.000000  0.314926  1
  P  P33  1  0.000000  0.000000  0.814926  1
  P  P34  1  0.789404  0.567675  0.748289  1
  P  P35  1  0.916494  0.147662  0.247314  1
  O  O36  1  0.780546  0.357785  0.290741  1
  O  O37  1  0.206521  0.903025  0.749384  1
  O  O38  1  0.449121  0.754581  0.227669  1
  O  O39  1  0.928059  0.385643  0.089042  1
  O  O40  1  0.096975  0.303496  0.749384  1
  O  O41  1  0.754581  0.305461  0.727669  1
  O  O42  1  0.303496  0.206521  0.249384  1
  O  O43  1  0.602206  0.550786  0.422305  1
  O  O44  1  0.424102  0.266913  0.921751  1
  O  O45  1  0.000000  0.000000  0.001905  1
  O  O46  1  0.043881  0.116656  0.744898  1
  O  O47  1  0.039295  0.795612  0.575660  1
  O  O48  1  0.589172  0.731862  0.087999  1
  O  O49  1  0.901456  0.265490  0.747510  1
  O  O50  1  0.541027  0.601811  0.757078  1
  O  O51  1  0.857310  0.589172  0.587999  1
  O  O52  1  0.410828  0.268138  0.587999  1
  O  O53  1  0.550879  0.245419  0.727669  1
  O  O54  1  0.245419  0.694539  0.227669  1
  O  O55  1  0.789169  0.758262  0.408784  1
  O  O56  1  0.550786  0.948580  0.922305  1
  O  O57  1  0.903025  0.696504  0.249384  1
  O  O58  1  0.398189  0.939216  0.757078  1
  O  O59  1  0.157189  0.424102  0.421751  1
  O  O60  1  0.071941  0.614357  0.589042  1
  O  O61  1  0.614357  0.542416  0.089042  1
  O  O62  1  0.030907  0.789169  0.908784  1
  O  O63  1  0.116656  0.072774  0.244898  1
  O  O64  1  0.219454  0.642215  0.790741  1
  O  O65  1  0.241738  0.030907  0.408784  1
  O  O66  1  0.696504  0.793479  0.749384  1
  O  O67  1  0.542416  0.928059  0.589042  1
  O  O68  1  0.939216  0.541027  0.257078  1
  O  O69  1  0.333333  0.666667  0.508310  1
  O  O70  1  0.385643  0.457584  0.589042  1
  O  O71  1  0.842811  0.575898  0.921751  1
  O  O72  1  0.969093  0.210831  0.408784  1
  O  O73  1  0.956119  0.883344  0.244898  1
  O  O74  1  0.305461  0.550879  0.227669  1
  O  O75  1  0.098544  0.734510  0.247510  1
  O  O76  1  0.457584  0.071941  0.089042  1
  O  O77  1  0.731862  0.142690  0.587999  1
  O  O78  1  0.756316  0.960705  0.575660  1
  O  O79  1  0.758262  0.969093  0.908784  1
  O  O80  1  0.449214  0.051420  0.422305  1
  O  O81  1  0.000000  0.000000  0.501905  1
  O  O82  1  0.243684  0.039295  0.075660  1
  O  O83  1  0.142690  0.410828  0.087999  1
  O  O84  1  0.883344  0.927226  0.744898  1
  O  O85  1  0.051420  0.602206  0.922305  1
  O  O86  1  0.733087  0.157189  0.921751  1
  O  O87  1  0.204388  0.243684  0.575660  1
  O  O88  1  0.734510  0.635966  0.747510  1
  O  O89  1  0.601811  0.060784  0.257078  1
  O  O90  1  0.268138  0.857310  0.087999  1
  O  O91  1  0.266913  0.842811  0.421751  1
  O  O92  1  0.642215  0.422761  0.290741  1
  O  O93  1  0.666667  0.333333  0.008310  1
  O  O94  1  0.265490  0.364034  0.247510  1
  O  O95  1  0.458973  0.398189  0.257078  1
  O  O96  1  0.575898  0.733087  0.421751  1
  O  O97  1  0.793479  0.096975  0.249384  1
  O  O98  1  0.795612  0.756316  0.075660  1
  O  O99  1  0.060784  0.458973  0.757078  1
  O  O100  1  0.960705  0.204388  0.075660  1
  O  O101  1  0.635966  0.901456  0.247510  1
  O  O102  1  0.397794  0.449214  0.922305  1
  O  O103  1  0.577239  0.219454  0.290741  1
  O  O104  1  0.694539  0.449121  0.727669  1
  O  O105  1  0.364034  0.098544  0.747510  1
  O  O106  1  0.422761  0.780546  0.790741  1
  O  O107  1  0.357785  0.577239  0.790741  1
  O  O108  1  0.210831  0.241738  0.908784  1
  O  O109  1  0.927226  0.043881  0.244898  1
  O  O110  1  0.072774  0.956119  0.744898  1
  O  O111  1  0.948580  0.397794  0.422305  1
