# generated using pymatgen
data_K3Nb8O21
_symmetry_space_group_name_H-M   'P 1'
_cell_length_a   9.32651175
_cell_length_b   9.32651175
_cell_length_c   12.23901219
_cell_angle_alpha   90.00000000
_cell_angle_beta   90.00000000
_cell_angle_gamma   120.00000000
_symmetry_Int_Tables_number   1
_chemical_formula_structural   K3Nb8O21
_chemical_formula_sum   'K6 Nb16 O42'
_cell_volume   921.96722544
_cell_formula_units_Z   2
loop_
 _symmetry_equiv_pos_site_id
 _symmetry_equiv_pos_as_xyz
  1  'x, y, z'
loop_
 _atom_site_type_symbol
 _atom_site_label
 _atom_site_symmetry_multiplicity
 _atom_site_fract_x
 _atom_site_fract_y
 _atom_site_fract_z
 _atom_site_occupancy
  K  K0  1  0.405556  0.405556  0.750000  1
  K  K1  1  0.000000  0.405556  0.250000  1
  K  K2  1  0.405556  0.000000  0.250000  1
  K  K3  1  0.594444  0.000000  0.750000  1
  K  K4  1  0.000000  0.594444  0.750000  1
  K  K5  1  0.594444  0.594444  0.250000  1
  Nb  Nb6  1  0.248526  0.000000  0.905607  1
  Nb  Nb7  1  0.000000  0.248526  0.905607  1
  Nb  Nb8  1  0.751474  0.751474  0.905607  1
  Nb  Nb9  1  0.248526  0.248526  0.405607  1
  Nb  Nb10  1  0.751474  0.751474  0.594393  1
  Nb  Nb11  1  0.751474  0.000000  0.405607  1
  Nb  Nb12  1  0.000000  0.751474  0.405607  1
  Nb  Nb13  1  0.000000  0.751474  0.094393  1
  Nb  Nb14  1  0.751474  0.000000  0.094393  1
  Nb  Nb15  1  0.248526  0.000000  0.594393  1
  Nb  Nb16  1  0.000000  0.248526  0.594393  1
  Nb  Nb17  1  0.248526  0.248526  0.094393  1
  Nb  Nb18  1  0.666667  0.333333  0.500000  1
  Nb  Nb19  1  0.333333  0.666667  0.000000  1
  Nb  Nb20  1  0.333333  0.666667  0.500000  1
  Nb  Nb21  1  0.666667  0.333333  0.000000  1
  O  O22  1  0.793987  0.793987  0.750000  1
  O  O23  1  0.000000  0.793987  0.250000  1
  O  O24  1  0.793987  0.000000  0.250000  1
  O  O25  1  0.206013  0.000000  0.750000  1
  O  O26  1  0.000000  0.206013  0.750000  1
  O  O27  1  0.206013  0.206013  0.250000  1
  O  O28  1  0.200340  0.200340  0.926736  1
  O  O29  1  0.799660  0.000000  0.926736  1
  O  O30  1  0.000000  0.799660  0.926736  1
  O  O31  1  0.000000  0.200340  0.426736  1
  O  O32  1  0.799660  0.000000  0.573264  1
  O  O33  1  0.799660  0.799660  0.426736  1
  O  O34  1  0.200340  0.000000  0.426736  1
  O  O35  1  0.799660  0.799660  0.073264  1
  O  O36  1  0.000000  0.200340  0.073264  1
  O  O37  1  0.480606  0.313073  0.405297  1
  O  O38  1  0.000000  0.799660  0.573264  1
  O  O39  1  0.200340  0.000000  0.073264  1
  O  O40  1  0.519394  0.832467  0.094703  1
  O  O41  1  0.167533  0.686927  0.094703  1
  O  O42  1  0.313073  0.480606  0.094703  1
  O  O43  1  0.686927  0.519394  0.594703  1
  O  O44  1  0.480606  0.313073  0.094703  1
  O  O45  1  0.167533  0.480606  0.594703  1
  O  O46  1  0.313073  0.832467  0.594703  1
  O  O47  1  0.686927  0.167533  0.094703  1
  O  O48  1  0.832467  0.519394  0.094703  1
  O  O49  1  0.167533  0.686927  0.405297  1
  O  O50  1  0.519394  0.832467  0.405297  1
  O  O51  1  0.519394  0.686927  0.594703  1
  O  O52  1  0.313073  0.480606  0.405297  1
  O  O53  1  0.686927  0.519394  0.905297  1
  O  O54  1  0.832467  0.313073  0.905297  1
  O  O55  1  0.480606  0.167533  0.905297  1
  O  O56  1  0.519394  0.686927  0.905297  1
  O  O57  1  0.832467  0.519394  0.405297  1
  O  O58  1  0.686927  0.167533  0.405297  1
  O  O59  1  0.313073  0.832467  0.905297  1
  O  O60  1  0.167533  0.480606  0.905297  1
  O  O61  1  0.832467  0.313073  0.594703  1
  O  O62  1  0.480606  0.167533  0.594703  1
  O  O63  1  0.200340  0.200340  0.573264  1
