# generated using pymatgen
data_SrZrO3
_symmetry_space_group_name_H-M   'P 1'
_cell_length_a   8.39667255
_cell_length_b   8.39667255
_cell_length_c   8.39667255
_cell_angle_alpha   90.00000000
_cell_angle_beta   90.00000000
_cell_angle_gamma   90.00000000
_symmetry_Int_Tables_number   1
_chemical_formula_structural   SrZrO3
_chemical_formula_sum   'Sr8 Zr8 O24'
_cell_volume   591.99992436
_cell_formula_units_Z   8
loop_
 _symmetry_equiv_pos_site_id
 _symmetry_equiv_pos_as_xyz
  1  'x, y, z'
loop_
 _atom_site_type_symbol
 _atom_site_label
 _atom_site_symmetry_multiplicity
 _atom_site_fract_x
 _atom_site_fract_y
 _atom_site_fract_z
 _atom_site_occupancy
  Sr  Sr0  1  0.754704  0.745296  0.254704  1
  Sr  Sr1  1  0.230995  0.769005  0.269005  1
  Sr  Sr2  1  0.269005  0.230995  0.769005  1
  Sr  Sr3  1  0.745296  0.254704  0.754704  1
  Sr  Sr4  1  0.769005  0.269005  0.230995  1
  Sr  Sr5  1  0.730995  0.730995  0.730995  1
  Sr  Sr6  1  0.245296  0.245296  0.245296  1
  Sr  Sr7  1  0.254704  0.754704  0.745296  1
  Zr  Zr8  1  0.496553  0.996553  0.503447  1
  Zr  Zr9  1  0.996553  0.503447  0.496553  1
  Zr  Zr10  1  0.003447  0.003447  0.003447  1
  Zr  Zr11  1  0.006324  0.506324  0.993676  1
  Zr  Zr12  1  0.503447  0.496553  0.996553  1
  Zr  Zr13  1  0.993676  0.006324  0.506324  1
  Zr  Zr14  1  0.493676  0.493676  0.493676  1
  Zr  Zr15  1  0.506324  0.993676  0.006324  1
  O  O16  1  0.489337  0.743799  0.512494  1
  O  O17  1  0.512494  0.489337  0.743799  1
  O  O18  1  0.979245  0.255938  0.490558  1
  O  O19  1  0.244062  0.509442  0.479245  1
  O  O20  1  0.755938  0.009442  0.020755  1
  O  O21  1  0.744062  0.990558  0.520755  1
  O  O22  1  0.743799  0.512494  0.489337  1
  O  O23  1  0.256201  0.012494  0.010663  1
  O  O24  1  0.509442  0.479245  0.244062  1
  O  O25  1  0.989337  0.756201  0.487506  1
  O  O26  1  0.990558  0.520755  0.744062  1
  O  O27  1  0.479245  0.244062  0.509442  1
  O  O28  1  0.010663  0.256201  0.012494  1
  O  O29  1  0.487506  0.989337  0.756201  1
  O  O30  1  0.490558  0.979245  0.255938  1
  O  O31  1  0.020755  0.755938  0.009442  1
  O  O32  1  0.520755  0.744062  0.990558  1
  O  O33  1  0.009442  0.020755  0.755938  1
  O  O34  1  0.243799  0.987506  0.510663  1
  O  O35  1  0.012494  0.010663  0.256201  1
  O  O36  1  0.255938  0.490558  0.979245  1
  O  O37  1  0.987506  0.510663  0.243799  1
  O  O38  1  0.510663  0.243799  0.987506  1
  O  O39  1  0.756201  0.487506  0.989337  1
