# generated using pymatgen
data_LiVP2O7
_symmetry_space_group_name_H-M   'P 1'
_cell_length_a   7.05801292
_cell_length_b   8.29775150
_cell_length_c   9.10201469
_cell_angle_alpha   90.00000000
_cell_angle_beta   114.57580584
_cell_angle_gamma   90.00000000
_symmetry_Int_Tables_number   1
_chemical_formula_structural   LiVP2O7
_chemical_formula_sum   'Li4 V4 P8 O28'
_cell_volume   484.77587121
_cell_formula_units_Z   4
loop_
 _symmetry_equiv_pos_site_id
 _symmetry_equiv_pos_as_xyz
  1  'x, y, z'
loop_
 _atom_site_type_symbol
 _atom_site_label
 _atom_site_symmetry_multiplicity
 _atom_site_fract_x
 _atom_site_fract_y
 _atom_site_fract_z
 _atom_site_occupancy
  Li  Li0  1  0.296434  0.447978  0.669600  1
  Li  Li1  1  0.703566  0.552022  0.330400  1
  Li  Li2  1  0.296434  0.052022  0.169600  1
  Li  Li3  1  0.703566  0.947978  0.830400  1
  V  V4  1  0.237403  0.422364  0.112554  1
  V  V5  1  0.237403  0.077636  0.612554  1
  V  V6  1  0.762597  0.922364  0.387446  1
  V  V7  1  0.762597  0.577636  0.887446  1
  P  P8  1  0.059153  0.762727  0.741432  1
  P  P9  1  0.940847  0.262727  0.758568  1
  P  P10  1  0.059153  0.737273  0.241432  1
  P  P11  1  0.536959  0.267723  0.466512  1
  P  P12  1  0.463041  0.732277  0.533488  1
  P  P13  1  0.463041  0.767723  0.033488  1
  P  P14  1  0.940847  0.237273  0.258568  1
  P  P15  1  0.536959  0.232277  0.966512  1
  O  O16  1  0.114942  0.889524  0.183991  1
  O  O17  1  0.381384  0.247600  0.043550  1
  O  O18  1  0.618616  0.752400  0.956450  1
  O  O19  1  0.885058  0.110476  0.816009  1
  O  O20  1  0.477296  0.096305  0.841408  1
  O  O21  1  0.881675  0.751753  0.798815  1
  O  O22  1  0.013591  0.906475  0.617263  1
  O  O23  1  0.118325  0.251753  0.701185  1
  O  O24  1  0.118325  0.248247  0.201185  1
  O  O25  1  0.423254  0.604829  0.096592  1
  O  O26  1  0.618616  0.747600  0.456450  1
  O  O27  1  0.522704  0.903695  0.158592  1
  O  O28  1  0.250412  0.835460  0.896874  1
  O  O29  1  0.381384  0.252400  0.543550  1
  O  O30  1  0.749588  0.335460  0.603126  1
  O  O31  1  0.881675  0.748247  0.298815  1
  O  O32  1  0.885058  0.389524  0.316009  1
  O  O33  1  0.576746  0.395171  0.903408  1
  O  O34  1  0.576746  0.104829  0.403408  1
  O  O35  1  0.749588  0.164540  0.103126  1
  O  O36  1  0.250412  0.664540  0.396874  1
  O  O37  1  0.986409  0.093525  0.382737  1
  O  O38  1  0.114942  0.610476  0.683991  1
  O  O39  1  0.423254  0.895171  0.596592  1
  O  O40  1  0.013591  0.593525  0.117263  1
  O  O41  1  0.477296  0.403695  0.341408  1
  O  O42  1  0.986409  0.406475  0.882737  1
  O  O43  1  0.522704  0.596305  0.658592  1
