# generated using pymatgen
data_VHgO3
_symmetry_space_group_name_H-M   'P 1'
_cell_length_a   3.65000445
_cell_length_b   5.07219948
_cell_length_c   8.79435864
_cell_angle_alpha   92.74675729
_cell_angle_beta   101.57160660
_cell_angle_gamma   92.81174813
_symmetry_Int_Tables_number   1
_chemical_formula_structural   VHgO3
_chemical_formula_sum   'V2 Hg2 O6'
_cell_volume   159.03570879
_cell_formula_units_Z   2
loop_
 _symmetry_equiv_pos_site_id
 _symmetry_equiv_pos_as_xyz
  1  'x, y, z'
loop_
 _atom_site_type_symbol
 _atom_site_label
 _atom_site_symmetry_multiplicity
 _atom_site_fract_x
 _atom_site_fract_y
 _atom_site_fract_z
 _atom_site_occupancy
  V  V0  1  0.674735  0.388526  0.863180  1
  V  V1  1  0.325265  0.611474  0.136820  1
  Hg  Hg2  1  0.147285  0.178394  0.424556  1
  Hg  Hg3  1  0.852715  0.821606  0.575444  1
  O  O4  1  0.596533  0.499200  0.673671  1
  O  O5  1  0.403467  0.500800  0.326329  1
  O  O6  1  0.641920  0.065095  0.839184  1
  O  O7  1  0.358080  0.934905  0.160816  1
  O  O8  1  0.204898  0.479305  0.911200  1
  O  O9  1  0.795102  0.520695  0.088800  1
