# generated using pymatgen
data_Zr3P3Pd4
_symmetry_space_group_name_H-M   'P 1'
_cell_length_a   3.85873029
_cell_length_b   10.08250987
_cell_length_c   16.54898277
_cell_angle_alpha   90.00000000
_cell_angle_beta   90.00000000
_cell_angle_gamma   90.00000000
_symmetry_Int_Tables_number   1
_chemical_formula_structural   Zr3P3Pd4
_chemical_formula_sum   'Zr12 P12 Pd16'
_cell_volume   643.84953115
_cell_formula_units_Z   4
loop_
 _symmetry_equiv_pos_site_id
 _symmetry_equiv_pos_as_xyz
  1  'x, y, z'
loop_
 _atom_site_type_symbol
 _atom_site_label
 _atom_site_symmetry_multiplicity
 _atom_site_fract_x
 _atom_site_fract_y
 _atom_site_fract_z
 _atom_site_occupancy
  Zr  Zr0  1  0.250000  0.023354  0.260396  1
  Zr  Zr1  1  0.750000  0.976646  0.739604  1
  Zr  Zr2  1  0.750000  0.523354  0.239604  1
  Zr  Zr3  1  0.250000  0.476646  0.760396  1
  Zr  Zr4  1  0.250000  0.882999  0.451720  1
  Zr  Zr5  1  0.750000  0.117001  0.548280  1
  Zr  Zr6  1  0.750000  0.382999  0.048280  1
  Zr  Zr7  1  0.250000  0.617001  0.951720  1
  Zr  Zr8  1  0.250000  0.589046  0.560708  1
  Zr  Zr9  1  0.750000  0.410954  0.439292  1
  Zr  Zr10  1  0.750000  0.089046  0.939292  1
  Zr  Zr11  1  0.250000  0.910954  0.060708  1
  P  P12  1  0.250000  0.180410  0.045108  1
  P  P13  1  0.750000  0.819590  0.954892  1
  P  P14  1  0.750000  0.680410  0.454892  1
  P  P15  1  0.250000  0.319590  0.545108  1
  P  P16  1  0.250000  0.536953  0.114178  1
  P  P17  1  0.750000  0.463047  0.885822  1
  P  P18  1  0.750000  0.036953  0.385822  1
  P  P19  1  0.250000  0.963047  0.614178  1
  P  P20  1  0.250000  0.388709  0.322614  1
  P  P21  1  0.750000  0.611291  0.677386  1
  P  P22  1  0.750000  0.888709  0.177386  1
  P  P23  1  0.250000  0.111291  0.822614  1
  Pd  Pd24  1  0.250000  0.311065  0.176164  1
  Pd  Pd25  1  0.750000  0.688935  0.823836  1
  Pd  Pd26  1  0.750000  0.811065  0.323836  1
  Pd  Pd27  1  0.250000  0.188935  0.676164  1
  Pd  Pd28  1  0.250000  0.735455  0.206217  1
  Pd  Pd29  1  0.750000  0.264545  0.793783  1
  Pd  Pd30  1  0.750000  0.235455  0.293783  1
  Pd  Pd31  1  0.250000  0.764545  0.706217  1
  Pd  Pd32  1  0.250000  0.617209  0.371531  1
  Pd  Pd33  1  0.750000  0.382791  0.628469  1
  Pd  Pd34  1  0.750000  0.117209  0.128469  1
  Pd  Pd35  1  0.250000  0.882791  0.871531  1
  Pd  Pd36  1  0.250000  0.182741  0.418626  1
  Pd  Pd37  1  0.750000  0.817259  0.581374  1
  Pd  Pd38  1  0.750000  0.682741  0.081374  1
  Pd  Pd39  1  0.250000  0.317259  0.918626  1
