# generated using pymatgen
data_Cu4Bi7S12
_symmetry_space_group_name_H-M   'P 1'
_cell_length_a   9.44370361
_cell_length_b   9.44370361
_cell_length_c   15.22347276
_cell_angle_alpha   77.79252910
_cell_angle_beta   102.20747090
_cell_angle_gamma   155.88776157
_symmetry_Int_Tables_number   1
_chemical_formula_structural   Cu4Bi7S12
_chemical_formula_sum   'Cu4 Bi7 S12'
_cell_volume   541.52755297
_cell_formula_units_Z   1
loop_
 _symmetry_equiv_pos_site_id
 _symmetry_equiv_pos_as_xyz
  1  'x, y, z'
loop_
 _atom_site_type_symbol
 _atom_site_label
 _atom_site_symmetry_multiplicity
 _atom_site_fract_x
 _atom_site_fract_y
 _atom_site_fract_z
 _atom_site_occupancy
  Cu  Cu0  1  0.591627  0.408373  0.989799  1
  Cu  Cu1  1  0.408373  0.591627  0.010201  1
  Cu  Cu2  1  0.653158  0.346842  0.638660  1
  Cu  Cu3  1  0.346842  0.653158  0.361340  1
  Bi  Bi4  1  0.000000  1.000000  0.500000  1
  Bi  Bi5  1  0.237885  0.762115  0.870874  1
  Bi  Bi6  1  0.762115  0.237885  0.129126  1
  Bi  Bi7  1  0.991577  0.008423  0.779928  1
  Bi  Bi8  1  0.008423  0.991577  0.220072  1
  Bi  Bi9  1  0.328775  0.671225  0.588843  1
  Bi  Bi10  1  0.671225  0.328775  0.411157  1
  S  S11  1  0.161415  0.838585  0.997899  1
  S  S12  1  0.838585  0.161415  0.002101  1
  S  S13  1  0.474541  0.525459  0.892613  1
  S  S14  1  0.525459  0.474541  0.107387  1
  S  S15  1  0.649205  0.350795  0.784408  1
  S  S16  1  0.350795  0.649205  0.215592  1
  S  S17  1  0.842621  0.157379  0.716855  1
  S  S18  1  0.157379  0.842621  0.283145  1
  S  S19  1  0.482645  0.517355  0.624377  1
  S  S20  1  0.517355  0.482645  0.375623  1
  S  S21  1  0.160420  0.839580  0.560828  1
  S  S22  1  0.839580  0.160420  0.439172  1
