# generated using pymatgen
data_Er2B2Cl2O5
_symmetry_space_group_name_H-M   'P 1'
_cell_length_a   5.28753544
_cell_length_b   10.08812469
_cell_length_c   14.90061811
_cell_angle_alpha   90.00000000
_cell_angle_beta   90.00000000
_cell_angle_gamma   90.00000000
_symmetry_Int_Tables_number   1
_chemical_formula_structural   Er2B2Cl2O5
_chemical_formula_sum   'Er8 B8 Cl8 O20'
_cell_volume   794.81859144
_cell_formula_units_Z   4
loop_
 _symmetry_equiv_pos_site_id
 _symmetry_equiv_pos_as_xyz
  1  'x, y, z'
loop_
 _atom_site_type_symbol
 _atom_site_label
 _atom_site_symmetry_multiplicity
 _atom_site_fract_x
 _atom_site_fract_y
 _atom_site_fract_z
 _atom_site_occupancy
  Er  Er0  1  0.500000  0.530884  0.120898  1
  Er  Er1  1  0.500000  0.969116  0.620898  1
  Er  Er2  1  0.500000  0.430796  0.390817  1
  Er  Er3  1  0.500000  0.069204  0.890817  1
  Er  Er4  1  0.500000  0.469116  0.879102  1
  Er  Er5  1  0.500000  0.930796  0.109183  1
  Er  Er6  1  0.500000  0.030884  0.379102  1
  Er  Er7  1  0.500000  0.569204  0.609183  1
  B  B8  1  0.500000  0.302128  0.732733  1
  B  B9  1  0.500000  0.255410  0.065315  1
  B  B10  1  0.500000  0.744590  0.934685  1
  B  B11  1  0.500000  0.197872  0.232733  1
  B  B12  1  0.500000  0.755410  0.434685  1
  B  B13  1  0.500000  0.244590  0.565315  1
  B  B14  1  0.500000  0.697872  0.267267  1
  B  B15  1  0.500000  0.802128  0.767267  1
  Cl  Cl16  1  0.000000  0.412833  0.389661  1
  Cl  Cl17  1  0.000000  0.007360  0.368927  1
  Cl  Cl18  1  0.000000  0.912833  0.110339  1
  Cl  Cl19  1  0.000000  0.507360  0.131073  1
  Cl  Cl20  1  0.000000  0.492640  0.868927  1
  Cl  Cl21  1  0.000000  0.587167  0.610339  1
  Cl  Cl22  1  0.000000  0.087167  0.889661  1
  Cl  Cl23  1  0.000000  0.992640  0.631073  1
  O  O24  1  0.500000  0.866601  0.487530  1
  O  O25  1  0.500000  0.243670  0.319042  1
  O  O26  1  0.500000  0.787257  0.340623  1
  O  O27  1  0.500000  0.562672  0.275659  1
  O  O28  1  0.500000  0.937328  0.775659  1
  O  O29  1  0.500000  0.062672  0.224341  1
  O  O30  1  0.500000  0.712743  0.840623  1
  O  O31  1  0.500000  0.133399  0.512470  1
  O  O32  1  0.500000  0.743670  0.180958  1
  O  O33  1  0.500000  0.212743  0.659377  1
  O  O34  1  0.500000  0.256330  0.819042  1
  O  O35  1  0.500000  0.628369  0.464063  1
  O  O36  1  0.500000  0.756330  0.680958  1
  O  O37  1  0.500000  0.371631  0.535937  1
  O  O38  1  0.500000  0.287257  0.159377  1
  O  O39  1  0.500000  0.128369  0.035937  1
  O  O40  1  0.500000  0.633399  0.987530  1
  O  O41  1  0.500000  0.366601  0.012470  1
  O  O42  1  0.500000  0.871631  0.964063  1
  O  O43  1  0.500000  0.437328  0.724341  1
