# generated using pymatgen
data_Ba9Sc2(SiO4)6
_symmetry_space_group_name_H-M   'P 1'
_cell_length_a   9.39486361
_cell_length_b   9.39486361
_cell_length_c   9.39486361
_cell_angle_alpha   64.30782993
_cell_angle_beta   64.30782993
_cell_angle_gamma   64.30782993
_symmetry_Int_Tables_number   1
_chemical_formula_structural   Ba9Sc2(SiO4)6
_chemical_formula_sum   'Ba9 Sc2 Si6 O24'
_cell_volume   641.83636197
_cell_formula_units_Z   1
loop_
 _symmetry_equiv_pos_site_id
 _symmetry_equiv_pos_as_xyz
  1  'x, y, z'
loop_
 _atom_site_type_symbol
 _atom_site_label
 _atom_site_symmetry_multiplicity
 _atom_site_fract_x
 _atom_site_fract_y
 _atom_site_fract_z
 _atom_site_occupancy
  Ba  Ba0  1  0.247557  0.562727  0.863947  1
  Ba  Ba1  1  0.663384  0.663384  0.663384  1
  Ba  Ba2  1  0.136053  0.752443  0.437273  1
  Ba  Ba3  1  0.562727  0.863947  0.247557  1
  Ba  Ba4  1  0.000000  0.000000  0.000000  1
  Ba  Ba5  1  0.437273  0.136053  0.752443  1
  Ba  Ba6  1  0.752443  0.437273  0.136053  1
  Ba  Ba7  1  0.336616  0.336616  0.336616  1
  Ba  Ba8  1  0.863947  0.247557  0.562727  1
  Sc  Sc9  1  0.835161  0.835161  0.835161  1
  Sc  Sc10  1  0.164839  0.164839  0.164839  1
  Si  Si11  1  0.050322  0.415223  0.763602  1
  Si  Si12  1  0.763602  0.050322  0.415223  1
  Si  Si13  1  0.415223  0.763602  0.050322  1
  Si  Si14  1  0.236398  0.949678  0.584777  1
  Si  Si15  1  0.584777  0.236398  0.949678  1
  Si  Si16  1  0.949678  0.584777  0.236398  1
  O  O17  1  0.929334  0.364035  0.726049  1
  O  O18  1  0.060877  0.904378  0.717172  1
  O  O19  1  0.939123  0.095622  0.282828  1
  O  O20  1  0.726049  0.929334  0.364035  1
  O  O21  1  0.379277  0.772940  0.568767  1
  O  O22  1  0.568767  0.379277  0.772940  1
  O  O23  1  0.904378  0.717172  0.060877  1
  O  O24  1  0.717172  0.060877  0.904378  1
  O  O25  1  0.070666  0.635965  0.273951  1
  O  O26  1  0.209552  0.050991  0.395816  1
  O  O27  1  0.790448  0.949009  0.604184  1
  O  O28  1  0.772940  0.568767  0.379277  1
  O  O29  1  0.050991  0.395816  0.209552  1
  O  O30  1  0.635965  0.273951  0.070666  1
  O  O31  1  0.604184  0.790448  0.949009  1
  O  O32  1  0.431233  0.620723  0.227060  1
  O  O33  1  0.273951  0.070666  0.635965  1
  O  O34  1  0.227060  0.431233  0.620723  1
  O  O35  1  0.949009  0.604184  0.790448  1
  O  O36  1  0.282828  0.939123  0.095622  1
  O  O37  1  0.364035  0.726049  0.929334  1
  O  O38  1  0.620723  0.227060  0.431233  1
  O  O39  1  0.095622  0.282828  0.939123  1
  O  O40  1  0.395816  0.209552  0.050991  1
