# generated using pymatgen
data_Ce2Sc3Si4
_symmetry_space_group_name_H-M   'P 1'
_cell_length_a   7.18037321
_cell_length_b   7.45144052
_cell_length_c   14.13553848
_cell_angle_alpha   90.00000000
_cell_angle_beta   90.00000000
_cell_angle_gamma   90.00000000
_symmetry_Int_Tables_number   1
_chemical_formula_structural   Ce2Sc3Si4
_chemical_formula_sum   'Ce8 Sc12 Si16'
_cell_volume   756.30960203
_cell_formula_units_Z   4
loop_
 _symmetry_equiv_pos_site_id
 _symmetry_equiv_pos_as_xyz
  1  'x, y, z'
loop_
 _atom_site_type_symbol
 _atom_site_label
 _atom_site_symmetry_multiplicity
 _atom_site_fract_x
 _atom_site_fract_y
 _atom_site_fract_z
 _atom_site_occupancy
  Ce  Ce0  1  0.988601  0.172154  0.096761  1
  Ce  Ce1  1  0.488601  0.327846  0.403239  1
  Ce  Ce2  1  0.511399  0.672154  0.903239  1
  Ce  Ce3  1  0.011399  0.827846  0.596761  1
  Ce  Ce4  1  0.011399  0.827846  0.903239  1
  Ce  Ce5  1  0.511399  0.672154  0.596761  1
  Ce  Ce6  1  0.488601  0.327846  0.096761  1
  Ce  Ce7  1  0.988601  0.172154  0.403239  1
  Sc  Sc8  1  0.662246  0.005435  0.250000  1
  Sc  Sc9  1  0.162246  0.494565  0.250000  1
  Sc  Sc10  1  0.837754  0.505435  0.750000  1
  Sc  Sc11  1  0.337754  0.994565  0.750000  1
  Sc  Sc12  1  0.829252  0.676028  0.124124  1
  Sc  Sc13  1  0.329252  0.823972  0.375876  1
  Sc  Sc14  1  0.670748  0.176028  0.875876  1
  Sc  Sc15  1  0.170748  0.323972  0.624124  1
  Sc  Sc16  1  0.170748  0.323972  0.875876  1
  Sc  Sc17  1  0.670748  0.176028  0.624124  1
  Sc  Sc18  1  0.329252  0.823972  0.124124  1
  Sc  Sc19  1  0.829252  0.676028  0.375876  1
  Si  Si20  1  0.787259  0.377263  0.250000  1
  Si  Si21  1  0.287259  0.122737  0.250000  1
  Si  Si22  1  0.712741  0.877263  0.750000  1
  Si  Si23  1  0.212741  0.622737  0.750000  1
  Si  Si24  1  0.034306  0.879595  0.250000  1
  Si  Si25  1  0.534306  0.620405  0.250000  1
  Si  Si26  1  0.465694  0.379595  0.750000  1
  Si  Si27  1  0.965694  0.120405  0.750000  1
  Si  Si28  1  0.845020  0.464811  0.960814  1
  Si  Si29  1  0.345020  0.035189  0.539186  1
  Si  Si30  1  0.654980  0.964811  0.039186  1
  Si  Si31  1  0.154980  0.535189  0.460814  1
  Si  Si32  1  0.154980  0.535189  0.039186  1
  Si  Si33  1  0.654980  0.964811  0.460814  1
  Si  Si34  1  0.345020  0.035189  0.960814  1
  Si  Si35  1  0.845020  0.464811  0.539186  1
