# generated using pymatgen
data_MoCl5
_symmetry_space_group_name_H-M   'P 1'
_cell_length_a   12.85953097
_cell_length_b   12.85953097
_cell_length_c   6.34028010
_cell_angle_alpha   85.92640010
_cell_angle_beta   94.07359990
_cell_angle_gamma   89.90292657
_symmetry_Int_Tables_number   1
_chemical_formula_structural   MoCl5
_chemical_formula_sum   'Mo6 Cl30'
_cell_volume   1043.16155627
_cell_formula_units_Z   6
loop_
 _symmetry_equiv_pos_site_id
 _symmetry_equiv_pos_as_xyz
  1  'x, y, z'
loop_
 _atom_site_type_symbol
 _atom_site_label
 _atom_site_symmetry_multiplicity
 _atom_site_fract_x
 _atom_site_fract_y
 _atom_site_fract_z
 _atom_site_occupancy
  Mo  Mo0  1  0.892759  0.892759  0.000000  1
  Mo  Mo1  1  0.107241  0.107241  0.000000  1
  Mo  Mo2  1  0.773566  0.440448  0.566302  1
  Mo  Mo3  1  0.226434  0.559552  0.433698  1
  Mo  Mo4  1  0.440448  0.773566  0.433698  1
  Mo  Mo5  1  0.559552  0.226434  0.566302  1
  Cl  Cl6  1  0.506938  0.682560  0.176120  1
  Cl  Cl7  1  0.262925  0.737075  0.250579  1
  Cl  Cl8  1  0.168024  0.021005  0.313037  1
  Cl  Cl9  1  0.595749  0.404251  0.383598  1
  Cl  Cl10  1  0.216112  0.403738  0.624226  1
  Cl  Cl11  1  0.737075  0.262925  0.749421  1
  Cl  Cl12  1  0.160487  0.651295  0.690967  1
  Cl  Cl13  1  0.073119  0.926881  0.871688  1
  Cl  Cl14  1  0.651295  0.160487  0.309033  1
  Cl  Cl15  1  0.596262  0.783888  0.624226  1
  Cl  Cl16  1  0.112980  0.266160  0.137237  1
  Cl  Cl17  1  0.021005  0.168024  0.686963  1
  Cl  Cl18  1  0.929951  0.449215  0.755923  1
  Cl  Cl19  1  0.831976  0.978995  0.686963  1
  Cl  Cl20  1  0.403738  0.216112  0.375774  1
  Cl  Cl21  1  0.783888  0.596262  0.375774  1
  Cl  Cl22  1  0.550785  0.070049  0.755923  1
  Cl  Cl23  1  0.978995  0.831976  0.313037  1
  Cl  Cl24  1  0.839513  0.348705  0.309033  1
  Cl  Cl25  1  0.887020  0.733840  0.862763  1
  Cl  Cl26  1  0.493062  0.317440  0.823880  1
  Cl  Cl27  1  0.348705  0.839513  0.690967  1
  Cl  Cl28  1  0.070049  0.550785  0.244077  1
  Cl  Cl29  1  0.733840  0.887020  0.137237  1
  Cl  Cl30  1  0.449215  0.929951  0.244077  1
  Cl  Cl31  1  0.404251  0.595749  0.616402  1
  Cl  Cl32  1  0.317440  0.493062  0.176120  1
  Cl  Cl33  1  0.266160  0.112980  0.862763  1
  Cl  Cl34  1  0.926881  0.073119  0.128312  1
  Cl  Cl35  1  0.682560  0.506938  0.823880  1
