# generated using pymatgen
data_Yb3(Ga2Ge3)2
_symmetry_space_group_name_H-M   'P 1'
_cell_length_a   12.14685621
_cell_length_b   12.14685621
_cell_length_c   10.85303764
_cell_angle_alpha   88.86456227
_cell_angle_beta   91.13543773
_cell_angle_gamma   159.75488555
_symmetry_Int_Tables_number   1
_chemical_formula_structural   Yb3(Ga2Ge3)2
_chemical_formula_sum   'Yb6 Ga8 Ge12'
_cell_volume   554.00501758
_cell_formula_units_Z   2
loop_
 _symmetry_equiv_pos_site_id
 _symmetry_equiv_pos_as_xyz
  1  'x, y, z'
loop_
 _atom_site_type_symbol
 _atom_site_label
 _atom_site_symmetry_multiplicity
 _atom_site_fract_x
 _atom_site_fract_y
 _atom_site_fract_z
 _atom_site_occupancy
  Yb  Yb0  1  0.355600  0.644400  0.893586  1
  Yb  Yb1  1  0.823788  0.176212  0.453202  1
  Yb  Yb2  1  0.476517  0.523483  0.166148  1
  Yb  Yb3  1  0.176212  0.823788  0.546798  1
  Yb  Yb4  1  0.644400  0.355600  0.106414  1
  Yb  Yb5  1  0.523483  0.476517  0.833852  1
  Ga  Ga6  1  0.578414  0.421586  0.587762  1
  Ga  Ga7  1  0.421586  0.578414  0.412238  1
  Ga  Ga8  1  0.240608  0.759392  0.258103  1
  Ga  Ga9  1  0.065291  0.934709  0.268919  1
  Ga  Ga10  1  0.759392  0.240608  0.741897  1
  Ga  Ga11  1  0.863949  0.136051  0.116525  1
  Ga  Ga12  1  0.136051  0.863949  0.883475  1
  Ga  Ga13  1  0.934709  0.065291  0.731081  1
  Ge  Ge14  1  0.290907  0.709093  0.640150  1
  Ge  Ge15  1  0.976259  0.023741  0.394928  1
  Ge  Ge16  1  0.347840  0.652160  0.236962  1
  Ge  Ge17  1  0.774806  0.225194  0.972839  1
  Ge  Ge18  1  0.051900  0.948100  0.034987  1
  Ge  Ge19  1  0.395257  0.604743  0.634928  1
  Ge  Ge20  1  0.023741  0.976259  0.605072  1
  Ge  Ge21  1  0.948100  0.051900  0.965013  1
  Ge  Ge22  1  0.225194  0.774806  0.027161  1
  Ge  Ge23  1  0.604743  0.395257  0.365072  1
  Ge  Ge24  1  0.652160  0.347840  0.763038  1
  Ge  Ge25  1  0.709093  0.290907  0.359850  1
