# generated using pymatgen
data_V2Se2O9
_symmetry_space_group_name_H-M   'P 1'
_cell_length_a   8.18169287
_cell_length_b   10.52711630
_cell_length_c   10.72358912
_cell_angle_alpha   90.00000000
_cell_angle_beta   126.12390359
_cell_angle_gamma   90.00000000
_symmetry_Int_Tables_number   1
_chemical_formula_structural   V2Se2O9
_chemical_formula_sum   'V8 Se8 O36'
_cell_volume   746.04753766
_cell_formula_units_Z   4
loop_
 _symmetry_equiv_pos_site_id
 _symmetry_equiv_pos_as_xyz
  1  'x, y, z'
loop_
 _atom_site_type_symbol
 _atom_site_label
 _atom_site_symmetry_multiplicity
 _atom_site_fract_x
 _atom_site_fract_y
 _atom_site_fract_z
 _atom_site_occupancy
  V  V0  1  0.872490  0.468217  0.717563  1
  V  V1  1  0.127510  0.968217  0.782437  1
  V  V2  1  0.127510  0.531783  0.282437  1
  V  V3  1  0.872490  0.031783  0.217563  1
  V  V4  1  0.518665  0.395770  0.292121  1
  V  V5  1  0.481335  0.895770  0.207879  1
  V  V6  1  0.481335  0.604230  0.707879  1
  V  V7  1  0.518665  0.104230  0.792121  1
  Se  Se8  1  0.749023  0.163147  0.638011  1
  Se  Se9  1  0.250977  0.663147  0.861989  1
  Se  Se10  1  0.250977  0.836853  0.361989  1
  Se  Se11  1  0.749023  0.336853  0.138011  1
  Se  Se12  1  0.187846  0.345400  0.628408  1
  Se  Se13  1  0.812154  0.845400  0.871592  1
  Se  Se14  1  0.812154  0.654600  0.371592  1
  Se  Se15  1  0.187846  0.154600  0.128408  1
  O  O16  1  0.946973  0.411787  0.882180  1
  O  O17  1  0.053027  0.911787  0.617820  1
  O  O18  1  0.053027  0.588213  0.117820  1
  O  O19  1  0.946973  0.088213  0.382180  1
  O  O20  1  0.746992  0.321765  0.581815  1
  O  O21  1  0.253008  0.821765  0.918185  1
  O  O22  1  0.253008  0.678235  0.418185  1
  O  O23  1  0.746992  0.178235  0.081815  1
  O  O24  1  0.132303  0.427152  0.737075  1
  O  O25  1  0.867697  0.927152  0.762925  1
  O  O26  1  0.867697  0.572848  0.262925  1
  O  O27  1  0.132303  0.072848  0.237075  1
  O  O28  1  0.992352  0.638917  0.763866  1
  O  O29  1  0.007648  0.138917  0.736134  1
  O  O30  1  0.007648  0.361083  0.236134  1
  O  O31  1  0.992352  0.861083  0.263866  1
  O  O32  1  0.638732  0.543968  0.651041  1
  O  O33  1  0.361268  0.043968  0.848959  1
  O  O34  1  0.361268  0.456032  0.348959  1
  O  O35  1  0.638732  0.956032  0.151041  1
  O  O36  1  0.717366  0.529846  0.420921  1
  O  O37  1  0.282634  0.029846  0.079079  1
  O  O38  1  0.282634  0.470154  0.579079  1
  O  O39  1  0.717366  0.970154  0.920921  1
  O  O40  1  0.737868  0.313948  0.292706  1
  O  O41  1  0.262132  0.813948  0.207294  1
  O  O42  1  0.262132  0.686052  0.707294  1
  O  O43  1  0.737868  0.186052  0.792706  1
  O  O44  1  0.414704  0.225951  0.275556  1
  O  O45  1  0.585296  0.725951  0.224444  1
  O  O46  1  0.585296  0.774049  0.724444  1
  O  O47  1  0.414704  0.274049  0.775556  1
  O  O48  1  0.397109  0.448387  0.117807  1
  O  O49  1  0.602891  0.948387  0.382193  1
  O  O50  1  0.602891  0.551613  0.882193  1
  O  O51  1  0.397109  0.051613  0.617807  1
