# generated using pymatgen
data_Li4Ga3Si3IO12
_symmetry_space_group_name_H-M   'P 1'
_cell_length_a   8.74105700
_cell_length_b   8.74105700
_cell_length_c   8.74105700
_cell_angle_alpha   90.00000000
_cell_angle_beta   90.00000000
_cell_angle_gamma   90.00000000
_symmetry_Int_Tables_number   1
_chemical_formula_structural   Li4Ga3Si3IO12
_chemical_formula_sum   'Li8 Ga6 Si6 I2 O24'
_cell_volume   667.86987838
_cell_formula_units_Z   2
loop_
 _symmetry_equiv_pos_site_id
 _symmetry_equiv_pos_as_xyz
  1  'x, y, z'
loop_
 _atom_site_type_symbol
 _atom_site_label
 _atom_site_symmetry_multiplicity
 _atom_site_fract_x
 _atom_site_fract_y
 _atom_site_fract_z
 _atom_site_occupancy
  Li  Li0  1  0.188981  0.811019  0.811019  1
  Li  Li1  1  0.811019  0.188981  0.811019  1
  Li  Li2  1  0.688981  0.311019  0.311019  1
  Li  Li3  1  0.188981  0.188981  0.188981  1
  Li  Li4  1  0.811019  0.811019  0.188981  1
  Li  Li5  1  0.688981  0.688981  0.688981  1
  Li  Li6  1  0.311019  0.311019  0.688981  1
  Li  Li7  1  0.311019  0.688981  0.311019  1
  Ga  Ga8  1  0.000000  0.750000  0.500000  1
  Ga  Ga9  1  0.250000  0.500000  0.000000  1
  Ga  Ga10  1  0.500000  0.000000  0.750000  1
  Ga  Ga11  1  0.500000  0.000000  0.250000  1
  Ga  Ga12  1  0.000000  0.250000  0.500000  1
  Ga  Ga13  1  0.750000  0.500000  0.000000  1
  Si  Si14  1  0.000000  0.500000  0.250000  1
  Si  Si15  1  0.500000  0.750000  0.000000  1
  Si  Si16  1  0.500000  0.250000  0.000000  1
  Si  Si17  1  0.000000  0.500000  0.750000  1
  Si  Si18  1  0.750000  0.000000  0.500000  1
  Si  Si19  1  0.250000  0.000000  0.500000  1
  I  I20  1  0.000000  0.000000  0.000000  1
  I  I21  1  0.500000  0.500000  0.500000  1
  O  O22  1  0.130002  0.591310  0.851366  1
  O  O23  1  0.091310  0.630002  0.351366  1
  O  O24  1  0.408690  0.851366  0.869998  1
  O  O25  1  0.408690  0.148634  0.130002  1
  O  O26  1  0.148634  0.869998  0.591310  1
  O  O27  1  0.591310  0.851366  0.130002  1
  O  O28  1  0.351366  0.091310  0.630002  1
  O  O29  1  0.908690  0.369998  0.351366  1
  O  O30  1  0.591310  0.148634  0.869998  1
  O  O31  1  0.369998  0.648634  0.091310  1
  O  O32  1  0.351366  0.908690  0.369998  1
  O  O33  1  0.091310  0.369998  0.648634  1
  O  O34  1  0.869998  0.591310  0.148634  1
  O  O35  1  0.648634  0.908690  0.630002  1
  O  O36  1  0.908690  0.630002  0.648634  1
  O  O37  1  0.869998  0.408690  0.851366  1
  O  O38  1  0.630002  0.351366  0.091310  1
  O  O39  1  0.648634  0.091310  0.369998  1
  O  O40  1  0.851366  0.869998  0.408690  1
  O  O41  1  0.369998  0.351366  0.908690  1
  O  O42  1  0.148634  0.130002  0.408690  1
  O  O43  1  0.130002  0.408690  0.148634  1
  O  O44  1  0.630002  0.648634  0.908690  1
  O  O45  1  0.851366  0.130002  0.591310  1
