# generated using pymatgen
data_K4Ni(NO2)6
_symmetry_space_group_name_H-M   'P 1'
_cell_length_a   8.85706023
_cell_length_b   8.85706023
_cell_length_c   8.85706023
_cell_angle_alpha   50.97332980
_cell_angle_beta   50.97332980
_cell_angle_gamma   50.97332980
_symmetry_Int_Tables_number   1
_chemical_formula_structural   K4Ni(NO2)6
_chemical_formula_sum   'K4 Ni1 N6 O12'
_cell_volume   386.75563374
_cell_formula_units_Z   1
loop_
 _symmetry_equiv_pos_site_id
 _symmetry_equiv_pos_as_xyz
  1  'x, y, z'
loop_
 _atom_site_type_symbol
 _atom_site_label
 _atom_site_symmetry_multiplicity
 _atom_site_fract_x
 _atom_site_fract_y
 _atom_site_fract_z
 _atom_site_occupancy
  K  K0  1  0.808779  0.808779  0.808779  1
  K  K1  1  0.377885  0.377885  0.377885  1
  K  K2  1  0.191221  0.191221  0.191221  1
  K  K3  1  0.622115  0.622115  0.622115  1
  Ni  Ni4  1  0.000000  0.000000  0.000000  1
  N  N5  1  0.921825  0.929451  0.313961  1
  N  N6  1  0.070549  0.686039  0.078175  1
  N  N7  1  0.313961  0.921825  0.929451  1
  N  N8  1  0.686039  0.078175  0.070549  1
  N  N9  1  0.929451  0.313961  0.921825  1
  N  N10  1  0.078175  0.070549  0.686039  1
  O  O11  1  0.856779  0.066864  0.371136  1
  O  O12  1  0.258122  0.552432  0.048038  1
  O  O13  1  0.447568  0.951962  0.741878  1
  O  O14  1  0.628864  0.143221  0.933136  1
  O  O15  1  0.933136  0.628864  0.143221  1
  O  O16  1  0.951962  0.741878  0.447568  1
  O  O17  1  0.741878  0.447568  0.951962  1
  O  O18  1  0.143221  0.933136  0.628864  1
  O  O19  1  0.371136  0.856779  0.066864  1
  O  O20  1  0.066864  0.371136  0.856779  1
  O  O21  1  0.048038  0.258122  0.552432  1
  O  O22  1  0.552432  0.048038  0.258122  1
