# generated using pymatgen
data_La10C4I15
_symmetry_space_group_name_H-M   'P 1'
_cell_length_a   9.93486879
_cell_length_b   10.82496434
_cell_length_c   11.95064716
_cell_angle_alpha   93.70362576
_cell_angle_beta   114.45717141
_cell_angle_gamma   109.23739556
_symmetry_Int_Tables_number   1
_chemical_formula_structural   La10C4I15
_chemical_formula_sum   'La10 C4 I15'
_cell_volume   1073.94491732
_cell_formula_units_Z   1
loop_
 _symmetry_equiv_pos_site_id
 _symmetry_equiv_pos_as_xyz
  1  'x, y, z'
loop_
 _atom_site_type_symbol
 _atom_site_label
 _atom_site_symmetry_multiplicity
 _atom_site_fract_x
 _atom_site_fract_y
 _atom_site_fract_z
 _atom_site_occupancy
  La  La0  1  0.597806  0.540545  0.342340  1
  La  La1  1  0.343323  0.746574  0.165057  1
  La  La2  1  0.779345  0.885439  0.259029  1
  La  La3  1  0.528849  0.186994  0.103492  1
  La  La4  1  0.220655  0.114561  0.740971  1
  La  La5  1  0.402194  0.459455  0.657660  1
  La  La6  1  0.471151  0.813006  0.896508  1
  La  La7  1  0.705180  0.567598  0.044466  1
  La  La8  1  0.294820  0.432402  0.955534  1
  La  La9  1  0.656677  0.253426  0.834943  1
  C  C10  1  0.481820  0.299091  0.936555  1
  C  C11  1  0.518180  0.700909  0.063445  1
  C  C12  1  0.452687  0.361096  0.833538  1
  C  C13  1  0.547313  0.638904  0.166462  1
  I  I14  1  0.205912  0.906275  0.937181  1
  I  I15  1  0.103274  0.187726  0.465522  1
  I  I16  1  0.149509  0.554427  0.703474  1
  I  I17  1  0.404925  0.968283  0.645544  1
  I  I18  1  0.715193  0.733808  0.822046  1
  I  I19  1  0.284807  0.266192  0.177954  1
  I  I20  1  0.850491  0.445573  0.296526  1
  I  I21  1  0.896726  0.812274  0.534478  1
  I  I22  1  0.358304  0.630064  0.412999  1
  I  I23  1  0.055701  0.833688  0.220924  1
  I  I24  1  0.794088  0.093725  0.062819  1
  I  I25  1  0.641696  0.369936  0.587001  1
  I  I26  1  0.944299  0.166312  0.779076  1
  I  I27  1  0.595075  0.031717  0.354456  1
  I  I28  1  0.000000  0.500000  0.000000  1
