# generated using pymatgen
data_Sr4Ti5(Si2O11)2
_symmetry_space_group_name_H-M   'P 1'
_cell_length_a   7.61799170
_cell_length_b   7.61799170
_cell_length_c   12.00765761
_cell_angle_alpha   67.41171807
_cell_angle_beta   112.58828193
_cell_angle_gamma   136.20013900
_symmetry_Int_Tables_number   1
_chemical_formula_structural   Sr4Ti5(Si2O11)2
_chemical_formula_sum   'Sr4 Ti5 Si4 O22'
_cell_volume   439.04782042
_cell_formula_units_Z   1
loop_
 _symmetry_equiv_pos_site_id
 _symmetry_equiv_pos_as_xyz
  1  'x, y, z'
loop_
 _atom_site_type_symbol
 _atom_site_label
 _atom_site_symmetry_multiplicity
 _atom_site_fract_x
 _atom_site_fract_y
 _atom_site_fract_z
 _atom_site_occupancy
  Sr  Sr0  1  0.953765  0.046235  0.260362  1
  Sr  Sr1  1  0.765080  0.234920  0.732735  1
  Sr  Sr2  1  0.046235  0.953765  0.739638  1
  Sr  Sr3  1  0.234920  0.765080  0.267265  1
  Ti  Ti4  1  0.242357  0.242356  0.000000  1
  Ti  Ti5  1  0.500000  0.500000  0.500000  1
  Ti  Ti6  1  0.725480  0.274520  0.999244  1
  Ti  Ti7  1  0.757644  0.757644  0.000000  1
  Ti  Ti8  1  0.274520  0.725480  0.000756  1
  Si  Si9  1  0.594304  0.405696  0.270615  1
  Si  Si10  1  0.157511  0.842490  0.546528  1
  Si  Si11  1  0.842489  0.157511  0.453472  1
  Si  Si12  1  0.405696  0.594304  0.729385  1
  O  O13  1  0.671701  0.797816  0.817801  1
  O  O14  1  0.866389  0.654743  0.581773  1
  O  O15  1  0.654743  0.866389  0.418227  1
  O  O16  1  0.458238  0.042129  0.882067  1
  O  O17  1  0.908002  0.091998  0.999980  1
  O  O18  1  0.404842  0.595158  0.999024  1
  O  O19  1  0.146666  0.853334  0.409438  1
  O  O20  1  0.853334  0.146666  0.590562  1
  O  O21  1  0.797816  0.671701  0.182199  1
  O  O22  1  0.469255  0.530745  0.642802  1
  O  O23  1  0.328299  0.202184  0.182199  1
  O  O24  1  0.278664  0.721336  0.655218  1
  O  O25  1  0.541762  0.957871  0.117933  1
  O  O26  1  0.595157  0.404843  0.000976  1
  O  O27  1  0.042129  0.458238  0.117933  1
  O  O28  1  0.530745  0.469255  0.357198  1
  O  O29  1  0.091998  0.908002  0.000020  1
  O  O30  1  0.957871  0.541762  0.882067  1
  O  O31  1  0.133611  0.345257  0.418227  1
  O  O32  1  0.721335  0.278665  0.344782  1
  O  O33  1  0.345257  0.133611  0.581773  1
  O  O34  1  0.202184  0.328299  0.817801  1
