# generated using pymatgen
data_Zr6Fe23
_symmetry_space_group_name_H-M   'P 1'
_cell_length_a   8.27067691
_cell_length_b   8.27067691
_cell_length_c   8.27067691
_cell_angle_alpha   60.00000000
_cell_angle_beta   60.00000000
_cell_angle_gamma   60.00000000
_symmetry_Int_Tables_number   1
_chemical_formula_structural   Zr6Fe23
_chemical_formula_sum   'Zr6 Fe23'
_cell_volume   400.04437585
_cell_formula_units_Z   1
loop_
 _symmetry_equiv_pos_site_id
 _symmetry_equiv_pos_as_xyz
  1  'x, y, z'
loop_
 _atom_site_type_symbol
 _atom_site_label
 _atom_site_symmetry_multiplicity
 _atom_site_fract_x
 _atom_site_fract_y
 _atom_site_fract_z
 _atom_site_occupancy
  Zr  Zr0  1  0.794105  0.205895  0.205895  1
  Zr  Zr1  1  0.205895  0.794105  0.205895  1
  Zr  Zr2  1  0.794105  0.794105  0.205895  1
  Zr  Zr3  1  0.794105  0.205895  0.794105  1
  Zr  Zr4  1  0.205895  0.205895  0.794105  1
  Zr  Zr5  1  0.205895  0.794105  0.794105  1
  Fe  Fe6  1  0.482324  0.172559  0.172559  1
  Fe  Fe7  1  0.517676  0.827441  0.827441  1
  Fe  Fe8  1  0.500000  0.500000  1.000000  1
  Fe  Fe9  1  0.621649  0.135053  0.621649  1
  Fe  Fe10  1  0.827441  0.827441  0.827441  1
  Fe  Fe11  1  0.378351  0.378351  0.864947  1
  Fe  Fe12  1  0.000000  0.500000  0.500000  1
  Fe  Fe13  1  0.172559  0.482324  0.172559  1
  Fe  Fe14  1  0.172559  0.172559  0.482324  1
  Fe  Fe15  1  0.864947  0.378351  0.378351  1
  Fe  Fe16  1  0.500000  0.500000  0.500000  1
  Fe  Fe17  1  0.827441  0.827441  0.517676  1
  Fe  Fe18  1  0.621649  0.621649  0.135053  1
  Fe  Fe19  1  0.827441  0.517676  0.827441  1
  Fe  Fe20  1  1.000000  1.000000  0.500000  1
  Fe  Fe21  1  0.000000  0.500000  0.000000  1
  Fe  Fe22  1  0.378351  0.378351  0.378351  1
  Fe  Fe23  1  0.172559  0.172559  0.172559  1
  Fe  Fe24  1  0.378351  0.864947  0.378351  1
  Fe  Fe25  1  0.135053  0.621649  0.621649  1
  Fe  Fe26  1  0.500000  0.000000  0.500000  1
  Fe  Fe27  1  0.621649  0.621649  0.621649  1
  Fe  Fe28  1  0.500000  0.000000  0.000000  1
