# generated using pymatgen
data_BaPuO3
_symmetry_space_group_name_H-M   'P 1'
_cell_length_a   6.20219593
_cell_length_b   6.23904291
_cell_length_c   8.76187339
_cell_angle_alpha   90.00000000
_cell_angle_beta   90.00000000
_cell_angle_gamma   90.00000000
_symmetry_Int_Tables_number   1
_chemical_formula_structural   BaPuO3
_chemical_formula_sum   'Ba4 Pu4 O12'
_cell_volume   339.04740718
_cell_formula_units_Z   4
loop_
 _symmetry_equiv_pos_site_id
 _symmetry_equiv_pos_as_xyz
  1  'x, y, z'
loop_
 _atom_site_type_symbol
 _atom_site_label
 _atom_site_symmetry_multiplicity
 _atom_site_fract_x
 _atom_site_fract_y
 _atom_site_fract_z
 _atom_site_occupancy
  Ba  Ba0  1  0.985051  0.004604  0.250000  1
  Ba  Ba1  1  0.485051  0.495396  0.250000  1
  Ba  Ba2  1  0.514949  0.504604  0.750000  1
  Ba  Ba3  1  0.014949  0.995396  0.750000  1
  Pu  Pu4  1  0.500000  0.000000  0.000000  1
  Pu  Pu5  1  0.000000  0.500000  0.500000  1
  Pu  Pu6  1  0.000000  0.500000  0.000000  1
  Pu  Pu7  1  0.500000  0.000000  0.500000  1
  O  O8  1  0.510728  0.931608  0.250000  1
  O  O9  1  0.010728  0.568392  0.250000  1
  O  O10  1  0.989272  0.431608  0.750000  1
  O  O11  1  0.489272  0.068392  0.750000  1
  O  O12  1  0.728379  0.271298  0.036419  1
  O  O13  1  0.228379  0.228702  0.463581  1
  O  O14  1  0.771621  0.771298  0.963581  1
  O  O15  1  0.271621  0.728702  0.536419  1
  O  O16  1  0.271621  0.728702  0.963581  1
  O  O17  1  0.771621  0.771298  0.536419  1
  O  O18  1  0.228379  0.228702  0.036419  1
  O  O19  1  0.728379  0.271298  0.463581  1
