# generated using pymatgen
data_K2Ge2PbS6
_symmetry_space_group_name_H-M   'P 1'
_cell_length_a   8.70638929
_cell_length_b   8.70638929
_cell_length_c   9.15311292
_cell_angle_alpha   89.95415179
_cell_angle_beta   90.04584821
_cell_angle_gamma   65.87351410
_symmetry_Int_Tables_number   1
_chemical_formula_structural   K2Ge2PbS6
_chemical_formula_sum   'K4 Ge4 Pb2 S12'
_cell_volume   633.20822269
_cell_formula_units_Z   2
loop_
 _symmetry_equiv_pos_site_id
 _symmetry_equiv_pos_as_xyz
  1  'x, y, z'
loop_
 _atom_site_type_symbol
 _atom_site_label
 _atom_site_symmetry_multiplicity
 _atom_site_fract_x
 _atom_site_fract_y
 _atom_site_fract_z
 _atom_site_occupancy
  K  K0  1  0.263640  0.461898  0.481740  1
  K  K1  1  0.736360  0.538102  0.518260  1
  K  K2  1  0.461898  0.263640  0.018260  1
  K  K3  1  0.538102  0.736360  0.981740  1
  Ge  Ge4  1  0.976202  0.344066  0.940708  1
  Ge  Ge5  1  0.023798  0.655934  0.059292  1
  Ge  Ge6  1  0.344066  0.976202  0.559292  1
  Ge  Ge7  1  0.655934  0.023798  0.440708  1
  Pb  Pb8  1  0.988671  0.988671  0.750000  1
  Pb  Pb9  1  0.011329  0.011329  0.250000  1
  S  S10  1  0.653764  0.249773  0.334695  1
  S  S11  1  0.919484  0.478646  0.162651  1
  S  S12  1  0.249773  0.653764  0.165305  1
  S  S13  1  0.521354  0.080516  0.662651  1
  S  S14  1  0.346236  0.750227  0.665305  1
  S  S15  1  0.910736  0.823551  0.461930  1
  S  S16  1  0.823551  0.910736  0.038070  1
  S  S17  1  0.176449  0.089264  0.961930  1
  S  S18  1  0.080516  0.521354  0.837349  1
  S  S19  1  0.478646  0.919484  0.337349  1
  S  S20  1  0.089264  0.176449  0.538070  1
  S  S21  1  0.750227  0.346236  0.834695  1
