# generated using pymatgen
data_Sr5Cd3
_symmetry_space_group_name_H-M   'P 1'
_cell_length_a   10.42247012
_cell_length_b   10.42247012
_cell_length_c   10.42247012
_cell_angle_alpha   130.88397912
_cell_angle_beta   130.88397912
_cell_angle_gamma   71.99747679
_symmetry_Int_Tables_number   1
_chemical_formula_structural   Sr5Cd3
_chemical_formula_sum   'Sr10 Cd6'
_cell_volume   632.87451817
_cell_formula_units_Z   2
loop_
 _symmetry_equiv_pos_site_id
 _symmetry_equiv_pos_as_xyz
  1  'x, y, z'
loop_
 _atom_site_type_symbol
 _atom_site_label
 _atom_site_symmetry_multiplicity
 _atom_site_fract_x
 _atom_site_fract_y
 _atom_site_fract_z
 _atom_site_occupancy
  Sr  Sr0  1  0.478854  0.978854  0.163017  1
  Sr  Sr1  1  0.978854  0.815837  0.500000  1
  Sr  Sr2  1  0.184163  0.684163  0.163017  1
  Sr  Sr3  1  0.500000  0.500000  0.000000  1
  Sr  Sr4  1  0.684163  0.521146  0.500000  1
  Sr  Sr5  1  0.315837  0.478854  0.500000  1
  Sr  Sr6  1  0.815837  0.315837  0.836983  1
  Sr  Sr7  1  0.021146  0.184163  0.500000  1
  Sr  Sr8  1  0.000000  0.000000  0.000000  1
  Sr  Sr9  1  0.521146  0.021146  0.836983  1
  Cd  Cd10  1  0.622473  0.877527  0.500000  1
  Cd  Cd11  1  0.877527  0.377527  0.255054  1
  Cd  Cd12  1  0.122473  0.622473  0.744946  1
  Cd  Cd13  1  0.250000  0.250000  0.000000  1
  Cd  Cd14  1  0.377527  0.122473  0.500000  1
  Cd  Cd15  1  0.750000  0.750000  0.000000  1
