# generated using pymatgen
data_LiZnGe
_symmetry_space_group_name_H-M   'P 1'
_cell_length_a   4.28642979
_cell_length_b   4.28642979
_cell_length_c   9.41959882
_cell_angle_alpha   90.00000000
_cell_angle_beta   90.00000000
_cell_angle_gamma   120.00000000
_symmetry_Int_Tables_number   1
_chemical_formula_structural   LiZnGe
_chemical_formula_sum   'Li3 Zn3 Ge3'
_cell_volume   149.88372119
_cell_formula_units_Z   3
loop_
 _symmetry_equiv_pos_site_id
 _symmetry_equiv_pos_as_xyz
  1  'x, y, z'
loop_
 _atom_site_type_symbol
 _atom_site_label
 _atom_site_symmetry_multiplicity
 _atom_site_fract_x
 _atom_site_fract_y
 _atom_site_fract_z
 _atom_site_occupancy
  Li  Li0  1  0.000000  0.000000  0.163376  1
  Li  Li1  1  0.000000  0.000000  0.500000  1
  Li  Li2  1  0.000000  0.000000  0.836624  1
  Zn  Zn3  1  0.666667  0.333333  0.706275  1
  Zn  Zn4  1  0.666667  0.333333  0.293725  1
  Zn  Zn5  1  0.333333  0.666667  0.000000  1
  Ge  Ge6  1  0.333333  0.666667  0.363493  1
  Ge  Ge7  1  0.333333  0.666667  0.636507  1
  Ge  Ge8  1  0.666667  0.333333  0.000000  1
