# generated using pymatgen
data_Pr6Fe13Pb
_symmetry_space_group_name_H-M   'P 1'
_cell_length_a   13.25873141
_cell_length_b   13.25873141
_cell_length_c   13.25873141
_cell_angle_alpha   144.46796526
_cell_angle_beta   144.46796526
_cell_angle_gamma   51.12809087
_symmetry_Int_Tables_number   1
_chemical_formula_structural   Pr6Fe13Pb
_chemical_formula_sum   'Pr12 Fe26 Pb2'
_cell_volume   783.05743133
_cell_formula_units_Z   2
loop_
 _symmetry_equiv_pos_site_id
 _symmetry_equiv_pos_as_xyz
  1  'x, y, z'
loop_
 _atom_site_type_symbol
 _atom_site_label
 _atom_site_symmetry_multiplicity
 _atom_site_fract_x
 _atom_site_fract_y
 _atom_site_fract_z
 _atom_site_occupancy
  Pr  Pr0  1  0.519879  0.019879  0.174137  1
  Pr  Pr1  1  0.480121  0.980121  0.825863  1
  Pr  Pr2  1  0.896994  0.896994  0.000000  1
  Pr  Pr3  1  0.154258  0.654258  0.174137  1
  Pr  Pr4  1  0.603006  0.603006  0.000000  1
  Pr  Pr5  1  0.103006  0.103006  0.000000  1
  Pr  Pr6  1  0.654258  0.480121  0.500000  1
  Pr  Pr7  1  0.019879  0.845742  0.500000  1
  Pr  Pr8  1  0.396994  0.396994  0.000000  1
  Pr  Pr9  1  0.980121  0.154258  0.500000  1
  Pr  Pr10  1  0.345742  0.519879  0.500000  1
  Pr  Pr11  1  0.845742  0.345742  0.825863  1
  Fe  Fe12  1  0.735854  0.235854  0.857419  1
  Fe  Fe13  1  0.790217  0.933520  0.723737  1
  Fe  Fe14  1  0.521872  0.795608  0.500000  1
  Fe  Fe15  1  0.704392  0.978128  0.500000  1
  Fe  Fe16  1  0.378435  0.878435  0.142581  1
  Fe  Fe17  1  0.878435  0.735854  0.500000  1
  Fe  Fe18  1  0.764146  0.621565  0.500000  1
  Fe  Fe19  1  0.209783  0.066480  0.276263  1
  Fe  Fe20  1  0.121565  0.264146  0.500000  1
  Fe  Fe21  1  0.933520  0.209783  0.143303  1
  Fe  Fe22  1  0.264146  0.764146  0.142581  1
  Fe  Fe23  1  0.290217  0.566480  0.856697  1
  Fe  Fe24  1  0.021872  0.521872  0.726264  1
  Fe  Fe25  1  0.235854  0.378435  0.500000  1
  Fe  Fe26  1  0.478128  0.204392  0.500000  1
  Fe  Fe27  1  0.000000  0.500000  0.500000  1
  Fe  Fe28  1  0.566480  0.709783  0.276263  1
  Fe  Fe29  1  0.795608  0.295608  0.273736  1
  Fe  Fe30  1  0.978128  0.478128  0.273736  1
  Fe  Fe31  1  0.204392  0.704392  0.726264  1
  Fe  Fe32  1  0.066480  0.790217  0.856697  1
  Fe  Fe33  1  0.433520  0.290217  0.723737  1
  Fe  Fe34  1  0.500000  0.000000  0.500000  1
  Fe  Fe35  1  0.621565  0.121565  0.857419  1
  Fe  Fe36  1  0.295608  0.021872  0.500000  1
  Fe  Fe37  1  0.709783  0.433520  0.143303  1
  Pb  Pb38  1  0.750000  0.750000  0.000000  1
  Pb  Pb39  1  0.250000  0.250000  0.000000  1
