# generated using pymatgen
data_K5Yb(MoO4)4
_symmetry_space_group_name_H-M   'P 1'
_cell_length_a   9.82235001
_cell_length_b   9.82235001
_cell_length_c   10.79294279
_cell_angle_alpha   70.65357438
_cell_angle_beta   109.34642562
_cell_angle_gamma   102.35471263
_symmetry_Int_Tables_number   1
_chemical_formula_structural   K5Yb(MoO4)4
_chemical_formula_sum   'K10 Yb2 Mo8 O32'
_cell_volume   920.63677005
_cell_formula_units_Z   2
loop_
 _symmetry_equiv_pos_site_id
 _symmetry_equiv_pos_as_xyz
  1  'x, y, z'
loop_
 _atom_site_type_symbol
 _atom_site_label
 _atom_site_symmetry_multiplicity
 _atom_site_fract_x
 _atom_site_fract_y
 _atom_site_fract_z
 _atom_site_occupancy
  K  K0  1  0.077543  0.669938  0.064123  1
  K  K1  1  0.922457  0.330062  0.935877  1
  K  K2  1  0.330062  0.922457  0.564123  1
  K  K3  1  0.174200  0.612336  0.436527  1
  K  K4  1  0.669938  0.077543  0.435877  1
  K  K5  1  0.825800  0.387664  0.563473  1
  K  K6  1  0.612336  0.174200  0.063473  1
  K  K7  1  0.387413  0.387413  0.250000  1
  K  K8  1  0.612587  0.612587  0.750000  1
  K  K9  1  0.387664  0.825800  0.936527  1
  Yb  Yb10  1  0.114663  0.114663  0.750000  1
  Yb  Yb11  1  0.885337  0.885337  0.250000  1
  Mo  Mo12  1  0.043833  0.227393  0.362034  1
  Mo  Mo13  1  0.529275  0.734906  0.344811  1
  Mo  Mo14  1  0.734906  0.529275  0.155189  1
  Mo  Mo15  1  0.265094  0.470725  0.844811  1
  Mo  Mo16  1  0.227393  0.043833  0.137966  1
  Mo  Mo17  1  0.772607  0.956167  0.862034  1
  Mo  Mo18  1  0.470725  0.265094  0.655189  1
  Mo  Mo19  1  0.956167  0.772607  0.637966  1
  O  O20  1  0.585122  0.929799  0.767547  1
  O  O21  1  0.210710  0.155666  0.407522  1
  O  O22  1  0.381437  0.425678  0.571812  1
  O  O23  1  0.649808  0.877045  0.263763  1
  O  O24  1  0.414878  0.070201  0.232453  1
  O  O25  1  0.929799  0.585122  0.732453  1
  O  O26  1  0.213807  0.002262  0.982502  1
  O  O27  1  0.122955  0.350192  0.763763  1
  O  O28  1  0.877045  0.649808  0.236237  1
  O  O29  1  0.425678  0.381437  0.928188  1
  O  O30  1  0.215182  0.523625  0.967804  1
  O  O31  1  0.997738  0.786193  0.482502  1
  O  O32  1  0.002262  0.213807  0.517498  1
  O  O33  1  0.844334  0.789290  0.907522  1
  O  O34  1  0.877956  0.099991  0.764416  1
  O  O35  1  0.476375  0.784818  0.467804  1
  O  O36  1  0.789290  0.844334  0.592478  1
  O  O37  1  0.786193  0.997738  0.017498  1
  O  O38  1  0.070201  0.414878  0.267547  1
  O  O39  1  0.900009  0.122044  0.264416  1
  O  O40  1  0.635006  0.305575  0.780824  1
  O  O41  1  0.618563  0.574322  0.428188  1
  O  O42  1  0.523625  0.215182  0.532196  1
  O  O43  1  0.305575  0.635006  0.719176  1
  O  O44  1  0.784818  0.476375  0.032196  1
  O  O45  1  0.155666  0.210710  0.092478  1
  O  O46  1  0.694425  0.364994  0.280824  1
  O  O47  1  0.099991  0.877956  0.735584  1
  O  O48  1  0.364994  0.694425  0.219176  1
  O  O49  1  0.122044  0.900009  0.235584  1
  O  O50  1  0.574322  0.618563  0.071812  1
  O  O51  1  0.350192  0.122955  0.736237  1
