# generated using pymatgen
data_Ca4Al6WO16
_symmetry_space_group_name_H-M   'P 1'
_cell_length_a   8.12001297
_cell_length_b   8.12001297
_cell_length_c   26.38657503
_cell_angle_alpha   90.00000000
_cell_angle_beta   90.00000000
_cell_angle_gamma   109.03108429
_symmetry_Int_Tables_number   1
_chemical_formula_structural   Ca4Al6WO16
_chemical_formula_sum   'Ca16 Al24 W4 O64'
_cell_volume   1644.69485557
_cell_formula_units_Z   4
loop_
 _symmetry_equiv_pos_site_id
 _symmetry_equiv_pos_as_xyz
  1  'x, y, z'
loop_
 _atom_site_type_symbol
 _atom_site_label
 _atom_site_symmetry_multiplicity
 _atom_site_fract_x
 _atom_site_fract_y
 _atom_site_fract_z
 _atom_site_occupancy
  Ca  Ca0  1  0.759946  0.732686  0.879857  1
  Ca  Ca1  1  0.509934  0.986620  0.750034  1
  Ca  Ca2  1  0.754390  0.806066  0.638367  1
  Ca  Ca3  1  0.259946  0.232686  0.620143  1
  Ca  Ca4  1  0.732686  0.759946  0.120143  1
  Ca  Ca5  1  0.436632  0.971687  0.483215  1
  Ca  Ca6  1  0.009934  0.486620  0.749966  1
  Ca  Ca7  1  0.936632  0.471687  0.016785  1
  Ca  Ca8  1  0.232686  0.259946  0.379857  1
  Ca  Ca9  1  0.254390  0.306066  0.861633  1
  Ca  Ca10  1  0.471687  0.936632  0.983215  1
  Ca  Ca11  1  0.971687  0.436632  0.516785  1
  Ca  Ca12  1  0.306066  0.254390  0.138367  1
  Ca  Ca13  1  0.806066  0.754390  0.361633  1
  Ca  Ca14  1  0.486620  0.009934  0.250034  1
  Ca  Ca15  1  0.986620  0.509934  0.249966  1
  Al  Al16  1  0.362932  0.590522  0.062843  1
  Al  Al17  1  0.590522  0.362932  0.937157  1
  Al  Al18  1  0.090522  0.862932  0.562843  1
  Al  Al19  1  0.874312  0.123612  0.814655  1
  Al  Al20  1  0.360102  0.628809  0.559503  1
  Al  Al21  1  0.753664  0.759170  0.243386  1
  Al  Al22  1  0.243145  0.243145  0.500000  1
  Al  Al23  1  0.385936  0.637313  0.189965  1
  Al  Al24  1  0.228409  0.228409  0.000000  1
  Al  Al25  1  0.759170  0.753664  0.756614  1
  Al  Al26  1  0.137313  0.885936  0.689965  1
  Al  Al27  1  0.259170  0.253664  0.743386  1
  Al  Al28  1  0.637313  0.385936  0.810035  1
  Al  Al29  1  0.123612  0.874312  0.185345  1
  Al  Al30  1  0.374312  0.623612  0.685345  1
  Al  Al31  1  0.253664  0.259170  0.256614  1
  Al  Al32  1  0.743145  0.743145  0.000000  1
  Al  Al33  1  0.885936  0.137313  0.310035  1
  Al  Al34  1  0.623612  0.374312  0.314655  1
  Al  Al35  1  0.862932  0.090522  0.437157  1
  Al  Al36  1  0.628809  0.360102  0.440497  1
  Al  Al37  1  0.860102  0.128809  0.940497  1
  Al  Al38  1  0.728409  0.728409  0.500000  1
  Al  Al39  1  0.128809  0.860102  0.059503  1
  W  W40  1  0.240981  0.761578  0.863589  1
  W  W41  1  0.261578  0.740981  0.363589  1
  W  W42  1  0.740981  0.261578  0.636411  1
  W  W43  1  0.761578  0.240981  0.136411  1
  O  O44  1  0.402786  0.266466  0.453159  1
  O  O45  1  0.924658  0.828897  0.712354  1
  O  O46  1  0.328897  0.424658  0.212354  1
  O  O47  1  0.246641  0.022349  0.016638  1
  O  O48  1  0.862768  0.793246  0.554315  1
  O  O49  1  0.719341  0.568774  0.280012  1
  O  O50  1  0.746641  0.522349  0.483362  1
  O  O51  1  0.294789  0.083803  0.708877  1
  O  O52  1  0.293246  0.362768  0.054315  1
  O  O53  1  0.446037  0.657380  0.621771  1
  O  O54  1  0.729258  0.231124  0.291216  1
  O  O55  1  0.766120  0.404862  0.088951  1
  O  O56  1  0.602858  0.431550  0.873607  1
  O  O57  1  0.196141  0.675577  0.046371  1
  O  O58  1  0.776532  0.048306  0.105694  1
  O  O59  1  0.583803  0.794789  0.208877  1
  O  O60  1  0.568774  0.719341  0.719988  1
  O  O61  1  0.175577  0.696141  0.546371  1
  O  O62  1  0.443730  0.825864  0.320892  1
  O  O63  1  0.943730  0.325864  0.179108  1
  O  O64  1  0.219341  0.068774  0.219988  1
  O  O65  1  0.748845  0.901748  0.805191  1
  O  O66  1  0.266120  0.904862  0.411049  1
  O  O67  1  0.232664  0.050998  0.532660  1
  O  O68  1  0.696141  0.175577  0.453629  1
  O  O69  1  0.550998  0.732664  0.032660  1
  O  O70  1  0.102858  0.931550  0.626393  1
  O  O71  1  0.231124  0.729258  0.708784  1
  O  O72  1  0.266466  0.402786  0.546841  1
  O  O73  1  0.048306  0.776532  0.894306  1
  O  O74  1  0.731124  0.229258  0.791216  1
  O  O75  1  0.825864  0.443730  0.679108  1
  O  O76  1  0.766466  0.902786  0.953159  1
  O  O77  1  0.931550  0.102858  0.373607  1
  O  O78  1  0.401748  0.248845  0.305191  1
  O  O79  1  0.424658  0.328897  0.787646  1
  O  O80  1  0.522349  0.746641  0.516638  1
  O  O81  1  0.189165  0.555681  0.829137  1
  O  O82  1  0.901748  0.748845  0.194809  1
  O  O83  1  0.157380  0.946037  0.121771  1
  O  O84  1  0.404862  0.766120  0.911049  1
  O  O85  1  0.794789  0.583803  0.791123  1
  O  O86  1  0.657380  0.446037  0.378229  1
  O  O87  1  0.793246  0.862768  0.445685  1
  O  O88  1  0.083803  0.294789  0.291123  1
  O  O89  1  0.229258  0.731124  0.208784  1
  O  O90  1  0.732664  0.550998  0.967340  1
  O  O91  1  0.022349  0.246641  0.983362  1
  O  O92  1  0.828897  0.924658  0.287646  1
  O  O93  1  0.904862  0.266120  0.588951  1
  O  O94  1  0.548306  0.276532  0.605694  1
  O  O95  1  0.431550  0.602858  0.126393  1
  O  O96  1  0.946037  0.157380  0.878229  1
  O  O97  1  0.325864  0.943730  0.820892  1
  O  O98  1  0.362768  0.293246  0.945685  1
  O  O99  1  0.675577  0.196141  0.953629  1
  O  O100  1  0.902786  0.766466  0.046841  1
  O  O101  1  0.050998  0.232664  0.467340  1
  O  O102  1  0.276532  0.548306  0.394306  1
  O  O103  1  0.068774  0.219341  0.780012  1
  O  O104  1  0.055681  0.689165  0.329137  1
  O  O105  1  0.689165  0.055681  0.670863  1
  O  O106  1  0.248845  0.401748  0.694809  1
  O  O107  1  0.555681  0.189165  0.170863  1
