# generated using pymatgen
data_NaZr2NiF11
_symmetry_space_group_name_H-M   'P 1'
_cell_length_a   5.71927819
_cell_length_b   5.71927819
_cell_length_c   7.87009529
_cell_angle_alpha   69.24718387
_cell_angle_beta   110.75281613
_cell_angle_gamma   107.21055795
_symmetry_Int_Tables_number   1
_chemical_formula_structural   NaZr2NiF11
_chemical_formula_sum   'Na1 Zr2 Ni1 F11'
_cell_volume   220.79835435
_cell_formula_units_Z   1
loop_
 _symmetry_equiv_pos_site_id
 _symmetry_equiv_pos_as_xyz
  1  'x, y, z'
loop_
 _atom_site_type_symbol
 _atom_site_label
 _atom_site_symmetry_multiplicity
 _atom_site_fract_x
 _atom_site_fract_y
 _atom_site_fract_z
 _atom_site_occupancy
  Na  Na0  1  0.000000  0.000000  0.000000  1
  Zr  Zr1  1  0.508053  0.491947  0.237679  1
  Zr  Zr2  1  0.491947  0.508053  0.762321  1
  Ni  Ni3  1  0.000000  1.000000  0.500000  1
  F  F4  1  0.220679  0.186099  0.314771  1
  F  F5  1  0.186099  0.220679  0.685229  1
  F  F6  1  0.779321  0.813901  0.685229  1
  F  F7  1  0.813901  0.779321  0.314771  1
  F  F8  1  0.500000  0.500000  0.500000  1
  F  F9  1  0.672167  0.672167  0.000000  1
  F  F10  1  0.327833  0.327833  0.000000  1
  F  F11  1  0.243693  0.756307  0.647841  1
  F  F12  1  0.756307  0.243693  0.352159  1
  F  F13  1  0.268500  0.731500  0.110525  1
  F  F14  1  0.731500  0.268500  0.889475  1
