# generated using pymatgen
data_Na2Ti6O13
_symmetry_space_group_name_H-M   'P 1'
_cell_length_a   7.86588541
_cell_length_b   7.86588541
_cell_length_c   9.29199212
_cell_angle_alpha   81.20822751
_cell_angle_beta   98.79177249
_cell_angle_gamma   152.34038729
_symmetry_Int_Tables_number   1
_chemical_formula_structural   Na2Ti6O13
_chemical_formula_sum   'Na2 Ti6 O13'
_cell_volume   263.55899345
_cell_formula_units_Z   1
loop_
 _symmetry_equiv_pos_site_id
 _symmetry_equiv_pos_as_xyz
  1  'x, y, z'
loop_
 _atom_site_type_symbol
 _atom_site_label
 _atom_site_symmetry_multiplicity
 _atom_site_fract_x
 _atom_site_fract_y
 _atom_site_fract_z
 _atom_site_occupancy
  Na  Na0  1  0.537446  0.462554  0.730304  1
  Na  Na1  1  0.462554  0.537446  0.269696  1
  Ti  Ti2  1  0.165813  0.834187  0.435304  1
  Ti  Ti3  1  0.834187  0.165813  0.564696  1
  Ti  Ti4  1  0.114797  0.885203  0.095181  1
  Ti  Ti5  1  0.885203  0.114797  0.904819  1
  Ti  Ti6  1  0.773136  0.226864  0.230454  1
  Ti  Ti7  1  0.226864  0.773136  0.769546  1
  O  O8  1  0.162383  0.837617  0.912191  1
  O  O9  1  0.837617  0.162383  0.087809  1
  O  O10  1  0.355892  0.644108  0.882493  1
  O  O11  1  0.644108  0.355892  0.117507  1
  O  O12  1  0.126447  0.873553  0.613769  1
  O  O13  1  0.873553  0.126447  0.386231  1
  O  O14  1  0.297598  0.702402  0.570954  1
  O  O15  1  0.702402  0.297598  0.429046  1
  O  O16  1  0.000000  0.000000  0.000000  1
  O  O17  1  0.759314  0.240686  0.754102  1
  O  O18  1  0.240686  0.759314  0.245898  1
  O  O19  1  0.929922  0.070078  0.708034  1
  O  O20  1  0.070078  0.929922  0.291966  1
