# generated using pymatgen
data_BaBi4(BrO3)2
_symmetry_space_group_name_H-M   'P 1'
_cell_length_a   17.10973894
_cell_length_b   17.10973894
_cell_length_c   17.10973894
_cell_angle_alpha   166.48078527
_cell_angle_beta   166.48078527
_cell_angle_gamma   19.16394100
_symmetry_Int_Tables_number   1
_chemical_formula_structural   BaBi4(BrO3)2
_chemical_formula_sum   'Ba1 Bi4 Br2 O6'
_cell_volume   273.69710835
_cell_formula_units_Z   1
loop_
 _symmetry_equiv_pos_site_id
 _symmetry_equiv_pos_as_xyz
  1  'x, y, z'
loop_
 _atom_site_type_symbol
 _atom_site_label
 _atom_site_symmetry_multiplicity
 _atom_site_fract_x
 _atom_site_fract_y
 _atom_site_fract_z
 _atom_site_occupancy
  Ba  Ba0  1  0.500000  0.500000  0.000000  1
  Bi  Bi1  1  0.083693  0.083693  0.000000  1
  Bi  Bi2  1  0.916307  0.916307  0.000000  1
  Bi  Bi3  1  0.786250  0.786250  0.000000  1
  Bi  Bi4  1  0.213750  0.213750  0.000000  1
  Br  Br5  1  0.333141  0.333141  0.000000  1
  Br  Br6  1  0.666859  0.666859  0.000000  1
  O  O7  1  0.444324  0.944324  0.500000  1
  O  O8  1  0.555676  0.055676  0.500000  1
  O  O9  1  0.055676  0.555676  0.500000  1
  O  O10  1  0.944324  0.444324  0.500000  1
  O  O11  1  0.750000  0.250000  0.500000  1
  O  O12  1  0.250000  0.750000  0.500000  1
