# generated using pymatgen
data_Nd2Fe12P7
_symmetry_space_group_name_H-M   'P 1'
_cell_length_a   9.04562607
_cell_length_b   9.04562607
_cell_length_c   3.67660353
_cell_angle_alpha   90.00000000
_cell_angle_beta   90.00000000
_cell_angle_gamma   120.00000000
_symmetry_Int_Tables_number   1
_chemical_formula_structural   Nd2Fe12P7
_chemical_formula_sum   'Nd2 Fe12 P7'
_cell_volume   260.52817253
_cell_formula_units_Z   1
loop_
 _symmetry_equiv_pos_site_id
 _symmetry_equiv_pos_as_xyz
  1  'x, y, z'
loop_
 _atom_site_type_symbol
 _atom_site_label
 _atom_site_symmetry_multiplicity
 _atom_site_fract_x
 _atom_site_fract_y
 _atom_site_fract_z
 _atom_site_occupancy
  Nd  Nd0  1  0.000000  0.000000  0.000000  1
  Nd  Nd1  1  0.666667  0.333333  0.500000  1
  Fe  Fe2  1  0.387988  0.295847  0.000000  1
  Fe  Fe3  1  0.907858  0.612012  0.000000  1
  Fe  Fe4  1  0.704153  0.092142  0.000000  1
  Fe  Fe5  1  0.606351  0.786858  0.000000  1
  Fe  Fe6  1  0.180507  0.393649  0.000000  1
  Fe  Fe7  1  0.213142  0.819493  0.000000  1
  Fe  Fe8  1  0.764086  0.714526  0.500000  1
  Fe  Fe9  1  0.950440  0.235914  0.500000  1
  Fe  Fe10  1  0.285474  0.049560  0.500000  1
  Fe  Fe11  1  0.430436  0.548065  0.500000  1
  Fe  Fe12  1  0.117629  0.569564  0.500000  1
  Fe  Fe13  1  0.451935  0.882371  0.500000  1
  P  P14  1  0.630140  0.557900  0.000000  1
  P  P15  1  0.927759  0.369860  0.000000  1
  P  P16  1  0.442100  0.072241  0.000000  1
  P  P17  1  0.729905  0.955786  0.500000  1
  P  P18  1  0.225881  0.270095  0.500000  1
  P  P19  1  0.044214  0.774119  0.500000  1
  P  P20  1  0.333333  0.666667  0.000000  1
