# generated using pymatgen
data_Lu3B5O12
_symmetry_space_group_name_H-M   'P 1'
_cell_length_a   4.58706964
_cell_length_b   12.49146166
_cell_length_c   12.78505413
_cell_angle_alpha   90.00000000
_cell_angle_beta   90.00000000
_cell_angle_gamma   90.00000000
_symmetry_Int_Tables_number   1
_chemical_formula_structural   Lu3B5O12
_chemical_formula_sum   'Lu12 B20 O48'
_cell_volume   732.57343165
_cell_formula_units_Z   4
loop_
 _symmetry_equiv_pos_site_id
 _symmetry_equiv_pos_as_xyz
  1  'x, y, z'
loop_
 _atom_site_type_symbol
 _atom_site_label
 _atom_site_symmetry_multiplicity
 _atom_site_fract_x
 _atom_site_fract_y
 _atom_site_fract_z
 _atom_site_occupancy
  Lu  Lu0  1  0.996325  0.693355  0.635415  1
  Lu  Lu1  1  0.000000  0.500000  0.868139  1
  Lu  Lu2  1  0.000000  0.000000  0.631861  1
  Lu  Lu3  1  0.000000  0.500000  0.131861  1
  Lu  Lu4  1  0.996325  0.806645  0.135415  1
  Lu  Lu5  1  0.000000  0.000000  0.368139  1
  Lu  Lu6  1  0.003675  0.306645  0.635415  1
  Lu  Lu7  1  0.003675  0.306645  0.364585  1
  Lu  Lu8  1  0.996325  0.806645  0.864585  1
  Lu  Lu9  1  0.003675  0.193355  0.135415  1
  Lu  Lu10  1  0.996325  0.693355  0.364585  1
  Lu  Lu11  1  0.003675  0.193355  0.864585  1
  B  B12  1  0.457900  0.127053  0.000000  1
  B  B13  1  0.532410  0.150963  0.298091  1
  B  B14  1  0.467590  0.849037  0.701909  1
  B  B15  1  0.500000  0.500000  0.338261  1
  B  B16  1  0.457900  0.372947  0.500000  1
  B  B17  1  0.500000  0.000000  0.838261  1
  B  B18  1  0.532410  0.349037  0.201909  1
  B  B19  1  0.467590  0.849037  0.298091  1
  B  B20  1  0.467590  0.650963  0.798091  1
  B  B21  1  0.467590  0.650963  0.201909  1
  B  B22  1  0.538648  0.851151  0.500000  1
  B  B23  1  0.532410  0.349037  0.798091  1
  B  B24  1  0.542100  0.627053  0.500000  1
  B  B25  1  0.500000  0.500000  0.661739  1
  B  B26  1  0.461352  0.148849  0.500000  1
  B  B27  1  0.532410  0.150963  0.701909  1
  B  B28  1  0.538648  0.648849  0.000000  1
  B  B29  1  0.542100  0.872947  0.000000  1
  B  B30  1  0.461352  0.351151  0.000000  1
  B  B31  1  0.500000  0.000000  0.161739  1
  O  O32  1  0.665294  0.925133  0.096153  1
  O  O33  1  0.692940  0.064263  0.766673  1
  O  O34  1  0.692940  0.435737  0.266673  1
  O  O35  1  0.762192  0.141086  0.000000  1
  O  O36  1  0.780048  0.847879  0.704216  1
  O  O37  1  0.307060  0.564263  0.733327  1
  O  O38  1  0.780048  0.652121  0.795784  1
  O  O39  1  0.762192  0.358914  0.500000  1
  O  O40  1  0.665294  0.574867  0.403847  1
  O  O41  1  0.237808  0.858914  0.000000  1
  O  O42  1  0.761060  0.930658  0.500000  1
  O  O43  1  0.219952  0.152121  0.704216  1
  O  O44  1  0.307060  0.564263  0.266673  1
  O  O45  1  0.238940  0.430658  0.000000  1
  O  O46  1  0.761060  0.569342  0.000000  1
  O  O47  1  0.219952  0.347879  0.204216  1
  O  O48  1  0.238940  0.069342  0.500000  1
  O  O49  1  0.237808  0.641086  0.500000  1
  O  O50  1  0.660350  0.355493  0.094855  1
  O  O51  1  0.663004  0.250000  0.750000  1
  O  O52  1  0.334706  0.425133  0.403847  1
  O  O53  1  0.339650  0.855493  0.405145  1
  O  O54  1  0.307060  0.935737  0.766673  1
  O  O55  1  0.665294  0.925133  0.903847  1
  O  O56  1  0.339650  0.855493  0.594855  1
  O  O57  1  0.660350  0.144507  0.594855  1
  O  O58  1  0.692940  0.064263  0.233327  1
  O  O59  1  0.692940  0.435737  0.733327  1
  O  O60  1  0.334706  0.074867  0.903847  1
  O  O61  1  0.698703  0.738852  0.500000  1
  O  O62  1  0.307060  0.935737  0.233327  1
  O  O63  1  0.219952  0.152121  0.295784  1
  O  O64  1  0.780048  0.652121  0.204216  1
  O  O65  1  0.336996  0.750000  0.750000  1
  O  O66  1  0.334706  0.425133  0.596153  1
  O  O67  1  0.660350  0.144507  0.405145  1
  O  O68  1  0.301297  0.238852  0.000000  1
  O  O69  1  0.339650  0.644507  0.094855  1
  O  O70  1  0.660350  0.355493  0.905145  1
  O  O71  1  0.336996  0.750000  0.250000  1
  O  O72  1  0.301297  0.261148  0.500000  1
  O  O73  1  0.219952  0.347879  0.795784  1
  O  O74  1  0.663004  0.250000  0.250000  1
  O  O75  1  0.339650  0.644507  0.905145  1
  O  O76  1  0.780048  0.847879  0.295784  1
  O  O77  1  0.334706  0.074867  0.096153  1
  O  O78  1  0.665294  0.574867  0.596153  1
  O  O79  1  0.698703  0.761148  0.000000  1
