# generated using pymatgen
data_GdZr3F15
_symmetry_space_group_name_H-M   'P 1'
_cell_length_a   8.25884547
_cell_length_b   8.26574479
_cell_length_c   16.52344305
_cell_angle_alpha   100.19241065
_cell_angle_beta   100.17807281
_cell_angle_gamma   100.16764829
_symmetry_Int_Tables_number   1
_chemical_formula_structural   GdZr3F15
_chemical_formula_sum   'Gd4 Zr12 F60'
_cell_volume   1067.27476755
_cell_formula_units_Z   4
loop_
 _symmetry_equiv_pos_site_id
 _symmetry_equiv_pos_as_xyz
  1  'x, y, z'
loop_
 _atom_site_type_symbol
 _atom_site_label
 _atom_site_symmetry_multiplicity
 _atom_site_fract_x
 _atom_site_fract_y
 _atom_site_fract_z
 _atom_site_occupancy
  Gd  Gd0  1  0.323645  0.177815  0.874693  1
  Gd  Gd1  1  0.249757  0.677754  0.411176  1
  Gd  Gd2  1  0.750243  0.322246  0.588824  1
  Gd  Gd3  1  0.676355  0.822185  0.125307  1
  Zr  Zr4  1  0.245211  0.675974  0.911853  1
  Zr  Zr5  1  0.177569  0.748504  0.662676  1
  Zr  Zr6  1  0.249416  0.248998  0.623325  1
  Zr  Zr7  1  0.175484  0.749835  0.160127  1
  Zr  Zr8  1  0.321851  0.176530  0.373192  1
  Zr  Zr9  1  0.252103  0.250548  0.125843  1
  Zr  Zr10  1  0.747897  0.749452  0.874157  1
  Zr  Zr11  1  0.678149  0.823470  0.626808  1
  Zr  Zr12  1  0.824516  0.250165  0.839873  1
  Zr  Zr13  1  0.750584  0.751002  0.376675  1
  Zr  Zr14  1  0.822431  0.251496  0.337324  1
  Zr  Zr15  1  0.754789  0.324026  0.088147  1
  F  F16  1  0.004482  0.772221  0.886641  1
  F  F17  1  0.035135  0.465794  0.880072  1
  F  F18  1  0.035778  0.152665  0.840048  1
  F  F19  1  0.003211  0.783158  0.389412  1
  F  F20  1  0.188767  0.652078  0.779282  1
  F  F21  1  0.244080  0.951940  0.762414  1
  F  F22  1  0.024651  0.452934  0.366696  1
  F  F23  1  0.310931  0.932552  0.924240  1
  F  F24  1  0.217762  0.222342  0.999864  1
  F  F25  1  0.223880  0.993730  0.612122  1
  F  F26  1  0.149729  0.687721  0.534290  1
  F  F27  1  0.053969  0.153739  0.343096  1
  F  F28  1  0.344838  0.463514  0.908307  1
  F  F29  1  0.274796  0.280784  0.749725  1
  F  F30  1  0.276463  0.507423  0.639699  1
  F  F31  1  0.177078  0.654819  0.266157  1
  F  F32  1  0.252252  0.967352  0.268109  1
  F  F33  1  0.317897  0.963580  0.422425  1
  F  F34  1  0.222418  0.226139  0.495631  1
  F  F35  1  0.223762  0.994732  0.111888  1
  F  F36  1  0.150272  0.686107  0.026437  1
  F  F37  1  0.495095  0.724626  0.860310  1
  F  F38  1  0.447010  0.811942  0.674085  1
  F  F39  1  0.349040  0.433732  0.405828  1
  F  F40  1  0.275211  0.274318  0.253675  1
  F  F41  1  0.275549  0.504725  0.136264  1
  F  F42  1  0.548231  0.253965  0.987041  1
  F  F43  1  0.473422  0.754005  0.524006  1
  F  F44  1  0.568161  0.184679  0.824638  1
  F  F45  1  0.502807  0.275341  0.640526  1
  F  F46  1  0.497193  0.724659  0.359474  1
  F  F47  1  0.431839  0.815321  0.175362  1
  F  F48  1  0.526578  0.245995  0.475994  1
  F  F49  1  0.451769  0.746035  0.012959  1
  F  F50  1  0.724451  0.495275  0.863736  1
  F  F51  1  0.724789  0.725682  0.746325  1
  F  F52  1  0.650960  0.566268  0.594172  1
  F  F53  1  0.552990  0.188058  0.325915  1
  F  F54  1  0.504905  0.275374  0.139690  1
  F  F55  1  0.849728  0.313893  0.973563  1
  F  F56  1  0.776238  0.005268  0.888112  1
  F  F57  1  0.777582  0.773861  0.504369  1
  F  F58  1  0.682103  0.036420  0.577575  1
  F  F59  1  0.747748  0.032648  0.731891  1
  F  F60  1  0.822922  0.345181  0.733843  1
  F  F61  1  0.723537  0.492577  0.360301  1
  F  F62  1  0.725204  0.719216  0.250275  1
  F  F63  1  0.655162  0.536486  0.091693  1
  F  F64  1  0.946031  0.846261  0.656904  1
  F  F65  1  0.850271  0.312279  0.465710  1
  F  F66  1  0.776120  0.006270  0.387878  1
  F  F67  1  0.782238  0.777658  0.000136  1
  F  F68  1  0.689069  0.067448  0.075760  1
  F  F69  1  0.975349  0.547066  0.633304  1
  F  F70  1  0.755920  0.048060  0.237586  1
  F  F71  1  0.811233  0.347922  0.220718  1
  F  F72  1  0.996789  0.216842  0.610588  1
  F  F73  1  0.964222  0.847335  0.159952  1
  F  F74  1  0.964865  0.534206  0.119928  1
  F  F75  1  0.995518  0.227779  0.113359  1
