# generated using pymatgen
data_BiP(PbO2)4
_symmetry_space_group_name_H-M   'P 1'
_cell_length_a   6.44437221
_cell_length_b   7.35105747
_cell_length_c   11.05482127
_cell_angle_alpha   99.30800727
_cell_angle_beta   105.31561913
_cell_angle_gamma   90.14848786
_symmetry_Int_Tables_number   1
_chemical_formula_structural   BiP(PbO2)4
_chemical_formula_sum   'Bi2 P2 Pb8 O16'
_cell_volume   497.88473742
_cell_formula_units_Z   2
loop_
 _symmetry_equiv_pos_site_id
 _symmetry_equiv_pos_as_xyz
  1  'x, y, z'
loop_
 _atom_site_type_symbol
 _atom_site_label
 _atom_site_symmetry_multiplicity
 _atom_site_fract_x
 _atom_site_fract_y
 _atom_site_fract_z
 _atom_site_occupancy
  Bi  Bi0  1  0.691191  0.775714  0.603860  1
  Bi  Bi1  1  0.308809  0.224286  0.396140  1
  P  P2  1  0.758616  0.294136  0.684042  1
  P  P3  1  0.241384  0.705864  0.315958  1
  Pb  Pb4  1  0.725379  0.116925  0.965777  1
  Pb  Pb5  1  0.231186  0.557252  0.704742  1
  Pb  Pb6  1  0.274621  0.883075  0.034223  1
  Pb  Pb7  1  0.727240  0.620440  0.969190  1
  Pb  Pb8  1  0.272760  0.379560  0.030810  1
  Pb  Pb9  1  0.768814  0.442748  0.295258  1
  Pb  Pb10  1  0.233240  0.046300  0.702043  1
  Pb  Pb11  1  0.766760  0.953700  0.297957  1
  O  O12  1  0.994761  0.313907  0.771176  1
  O  O13  1  0.279741  0.898395  0.405107  1
  O  O14  1  0.401909  0.686347  0.231226  1
  O  O15  1  0.518802  0.810185  0.742595  1
  O  O16  1  0.641075  0.895822  0.084457  1
  O  O17  1  0.720259  0.101605  0.594893  1
  O  O18  1  0.481198  0.189815  0.257405  1
  O  O19  1  0.358925  0.104178  0.915543  1
  O  O20  1  0.647717  0.395160  0.080265  1
  O  O21  1  0.277008  0.554108  0.402826  1
  O  O22  1  0.352283  0.604840  0.919735  1
  O  O23  1  0.013451  0.807625  0.728650  1
  O  O24  1  0.986549  0.192375  0.271350  1
  O  O25  1  0.722992  0.445892  0.597174  1
  O  O26  1  0.005239  0.686093  0.228824  1
  O  O27  1  0.598091  0.313653  0.768774  1
