# generated using pymatgen
data_Al4Cu9
_symmetry_space_group_name_H-M   'P 1'
_cell_length_a   8.70146223
_cell_length_b   8.70146223
_cell_length_c   8.70146223
_cell_angle_alpha   90.00000000
_cell_angle_beta   90.00000000
_cell_angle_gamma   90.00000000
_symmetry_Int_Tables_number   1
_chemical_formula_structural   Al4Cu9
_chemical_formula_sum   'Al16 Cu36'
_cell_volume   658.83508437
_cell_formula_units_Z   4
loop_
 _symmetry_equiv_pos_site_id
 _symmetry_equiv_pos_as_xyz
  1  'x, y, z'
loop_
 _atom_site_type_symbol
 _atom_site_label
 _atom_site_symmetry_multiplicity
 _atom_site_fract_x
 _atom_site_fract_y
 _atom_site_fract_z
 _atom_site_occupancy
  Al  Al0  1  0.121188  0.121188  0.121188  1
  Al  Al1  1  0.878812  0.121188  0.878812  1
  Al  Al2  1  0.878812  0.878812  0.121188  1
  Al  Al3  1  0.121188  0.878812  0.878812  1
  Al  Al4  1  0.809804  0.465791  0.190196  1
  Al  Al5  1  0.465791  0.809804  0.190196  1
  Al  Al6  1  0.809804  0.534209  0.809804  1
  Al  Al7  1  0.534209  0.809804  0.809804  1
  Al  Al8  1  0.190196  0.809804  0.465791  1
  Al  Al9  1  0.809804  0.190196  0.465791  1
  Al  Al10  1  0.534209  0.190196  0.190196  1
  Al  Al11  1  0.465791  0.190196  0.809804  1
  Al  Al12  1  0.190196  0.465791  0.809804  1
  Al  Al13  1  0.190196  0.534209  0.190196  1
  Al  Al14  1  0.809804  0.809804  0.534209  1
  Al  Al15  1  0.190196  0.190196  0.534209  1
  Cu  Cu16  1  0.325268  0.674732  0.674732  1
  Cu  Cu17  1  0.644270  0.000000  0.000000  1
  Cu  Cu18  1  0.000000  0.000000  0.355730  1
  Cu  Cu19  1  0.000000  0.000000  0.644270  1
  Cu  Cu20  1  0.000000  0.644270  0.000000  1
  Cu  Cu21  1  0.000000  0.355730  0.000000  1
  Cu  Cu22  1  0.855021  0.500000  0.500000  1
  Cu  Cu23  1  0.144979  0.500000  0.500000  1
  Cu  Cu24  1  0.500000  0.500000  0.855021  1
  Cu  Cu25  1  0.500000  0.500000  0.144979  1
  Cu  Cu26  1  0.355730  0.000000  0.000000  1
  Cu  Cu27  1  0.500000  0.855021  0.500000  1
  Cu  Cu28  1  0.316331  0.316331  0.030153  1
  Cu  Cu29  1  0.683669  0.030153  0.683669  1
  Cu  Cu30  1  0.683669  0.969847  0.316331  1
  Cu  Cu31  1  0.969847  0.683669  0.316331  1
  Cu  Cu32  1  0.030153  0.683669  0.683669  1
  Cu  Cu33  1  0.316331  0.683669  0.969847  1
  Cu  Cu34  1  0.683669  0.316331  0.969847  1
  Cu  Cu35  1  0.030153  0.316331  0.316331  1
  Cu  Cu36  1  0.316331  0.030153  0.316331  1
  Cu  Cu37  1  0.969847  0.316331  0.683669  1
  Cu  Cu38  1  0.316331  0.969847  0.683669  1
  Cu  Cu39  1  0.683669  0.683669  0.030153  1
  Cu  Cu40  1  0.674732  0.674732  0.325268  1
  Cu  Cu41  1  0.674732  0.325268  0.674732  1
  Cu  Cu42  1  0.325268  0.325268  0.325268  1
  Cu  Cu43  1  0.830670  0.169330  0.169330  1
  Cu  Cu44  1  0.169330  0.169330  0.830670  1
  Cu  Cu45  1  0.169330  0.830670  0.169330  1
  Cu  Cu46  1  0.830670  0.830670  0.830670  1
  Cu  Cu47  1  0.606082  0.393918  0.393918  1
  Cu  Cu48  1  0.393918  0.393918  0.606082  1
  Cu  Cu49  1  0.393918  0.606082  0.393918  1
  Cu  Cu50  1  0.606082  0.606082  0.606082  1
  Cu  Cu51  1  0.500000  0.144979  0.500000  1
