# generated using pymatgen
data_CoSeO4
_symmetry_space_group_name_H-M   'P 1'
_cell_length_a   4.98828635
_cell_length_b   6.85848447
_cell_length_c   9.12620650
_cell_angle_alpha   90.00000000
_cell_angle_beta   90.00000000
_cell_angle_gamma   90.00000000
_symmetry_Int_Tables_number   1
_chemical_formula_structural   CoSeO4
_chemical_formula_sum   'Co4 Se4 O16'
_cell_volume   312.22654798
_cell_formula_units_Z   4
loop_
 _symmetry_equiv_pos_site_id
 _symmetry_equiv_pos_as_xyz
  1  'x, y, z'
loop_
 _atom_site_type_symbol
 _atom_site_label
 _atom_site_symmetry_multiplicity
 _atom_site_fract_x
 _atom_site_fract_y
 _atom_site_fract_z
 _atom_site_occupancy
  Co  Co0  1  0.500000  0.500000  0.000000  1
  Co  Co1  1  0.000000  0.000000  0.500000  1
  Co  Co2  1  0.500000  0.000000  0.000000  1
  Co  Co3  1  0.000000  0.500000  0.500000  1
  Se  Se4  1  0.468740  0.750000  0.679470  1
  Se  Se5  1  0.968740  0.250000  0.820530  1
  Se  Se6  1  0.031260  0.750000  0.179470  1
  Se  Se7  1  0.531260  0.250000  0.320530  1
  O  O8  1  0.289008  0.250000  0.880440  1
  O  O9  1  0.322638  0.956082  0.624140  1
  O  O10  1  0.210992  0.250000  0.380440  1
  O  O11  1  0.789008  0.750000  0.619560  1
  O  O12  1  0.064212  0.750000  0.365958  1
  O  O13  1  0.935788  0.250000  0.634042  1
  O  O14  1  0.677362  0.456082  0.375860  1
  O  O15  1  0.677362  0.043918  0.375860  1
  O  O16  1  0.177362  0.956082  0.124140  1
  O  O17  1  0.322638  0.543918  0.624140  1
  O  O18  1  0.177362  0.543918  0.124140  1
  O  O19  1  0.822638  0.456082  0.875860  1
  O  O20  1  0.822638  0.043918  0.875860  1
  O  O21  1  0.435788  0.750000  0.865958  1
  O  O22  1  0.564212  0.250000  0.134042  1
  O  O23  1  0.710992  0.750000  0.119560  1
