# generated using pymatgen
data_KGd(PO3)4
_symmetry_space_group_name_H-M   'P 1'
_cell_length_a   10.52117242
_cell_length_b   9.07122311
_cell_length_c   12.88876589
_cell_angle_alpha   90.00000000
_cell_angle_beta   125.46488740
_cell_angle_gamma   90.00000000
_symmetry_Int_Tables_number   1
_chemical_formula_structural   KGd(PO3)4
_chemical_formula_sum   'K4 Gd4 P16 O48'
_cell_volume   1001.88315402
_cell_formula_units_Z   4
loop_
 _symmetry_equiv_pos_site_id
 _symmetry_equiv_pos_as_xyz
  1  'x, y, z'
loop_
 _atom_site_type_symbol
 _atom_site_label
 _atom_site_symmetry_multiplicity
 _atom_site_fract_x
 _atom_site_fract_y
 _atom_site_fract_z
 _atom_site_occupancy
  K  K0  1  0.750180  0.428500  0.042525  1
  K  K1  1  0.249820  0.928500  0.457475  1
  K  K2  1  0.249820  0.571500  0.957475  1
  K  K3  1  0.750180  0.071500  0.542525  1
  Gd  Gd4  1  0.184934  0.227657  0.184807  1
  Gd  Gd5  1  0.815066  0.727657  0.315193  1
  Gd  Gd6  1  0.184934  0.272343  0.684807  1
  Gd  Gd7  1  0.815066  0.772343  0.815193  1
  P  P8  1  0.180924  0.669874  0.641470  1
  P  P9  1  0.479953  0.976766  0.230398  1
  P  P10  1  0.697315  0.606229  0.519624  1
  P  P11  1  0.886761  0.405491  0.740129  1
  P  P12  1  0.113239  0.905491  0.759871  1
  P  P13  1  0.520047  0.476766  0.269602  1
  P  P14  1  0.302685  0.393771  0.480376  1
  P  P15  1  0.697315  0.893771  0.019624  1
  P  P16  1  0.886761  0.094509  0.240129  1
  P  P17  1  0.479953  0.523234  0.730398  1
  P  P18  1  0.819076  0.169874  0.858530  1
  P  P19  1  0.520047  0.023234  0.769602  1
  P  P20  1  0.302685  0.106229  0.980376  1
  P  P21  1  0.819076  0.330126  0.358530  1
  P  P22  1  0.180924  0.830126  0.141470  1
  P  P23  1  0.113239  0.594509  0.259871  1
  O  O24  1  0.639423  0.909345  0.311979  1
  O  O25  1  0.926455  0.536660  0.825071  1
  O  O26  1  0.236855  0.550138  0.406714  1
  O  O27  1  0.861649  0.469682  0.322945  1
  O  O28  1  0.360577  0.090655  0.688021  1
  O  O29  1  0.799564  0.840147  0.981708  1
  O  O30  1  0.017898  0.320173  0.754484  1
  O  O31  1  0.775114  0.208410  0.250110  1
  O  O32  1  0.437238  0.411942  0.792108  1
  O  O33  1  0.463715  0.453625  0.606930  1
  O  O34  1  0.138351  0.969682  0.177055  1
  O  O35  1  0.437238  0.088058  0.292108  1
  O  O36  1  0.337918  0.292141  0.408184  1
  O  O37  1  0.076295  0.762339  0.011874  1
  O  O38  1  0.360577  0.409345  0.188021  1
  O  O39  1  0.562762  0.588058  0.207892  1
  O  O40  1  0.799564  0.659853  0.481708  1
  O  O41  1  0.639423  0.590655  0.811979  1
  O  O42  1  0.200436  0.159853  0.018292  1
  O  O43  1  0.648806  0.345142  0.331996  1
  O  O44  1  0.662082  0.707859  0.591816  1
  O  O45  1  0.076295  0.737661  0.511874  1
  O  O46  1  0.463715  0.046375  0.106930  1
  O  O47  1  0.648806  0.154858  0.831996  1
  O  O48  1  0.861649  0.030318  0.822945  1
  O  O49  1  0.923705  0.237661  0.988126  1
  O  O50  1  0.775114  0.291590  0.750110  1
  O  O51  1  0.224886  0.708410  0.249890  1
  O  O52  1  0.763145  0.050138  0.093286  1
  O  O53  1  0.236855  0.949862  0.906714  1
  O  O54  1  0.562762  0.911942  0.707892  1
  O  O55  1  0.982102  0.679827  0.245516  1
  O  O56  1  0.200436  0.340147  0.518292  1
  O  O57  1  0.017898  0.179827  0.254484  1
  O  O58  1  0.073545  0.463340  0.174929  1
  O  O59  1  0.337918  0.207859  0.908184  1
  O  O60  1  0.763145  0.449862  0.593286  1
  O  O61  1  0.224886  0.791590  0.749890  1
  O  O62  1  0.923705  0.262339  0.488126  1
  O  O63  1  0.351194  0.845142  0.168004  1
  O  O64  1  0.138351  0.530318  0.677055  1
  O  O65  1  0.982102  0.820173  0.745516  1
  O  O66  1  0.536285  0.546375  0.393070  1
  O  O67  1  0.926455  0.963340  0.325071  1
  O  O68  1  0.662082  0.792141  0.091816  1
  O  O69  1  0.536285  0.953625  0.893070  1
  O  O70  1  0.351194  0.654858  0.668004  1
  O  O71  1  0.073545  0.036660  0.674929  1
