# generated using pymatgen
data_DyZn2
_symmetry_space_group_name_H-M   'P 1'
_cell_length_a   5.64096872
_cell_length_b   5.64096872
_cell_length_c   5.64096872
_cell_angle_alpha   132.87889180
_cell_angle_beta   101.29860901
_cell_angle_gamma   97.10145717
_symmetry_Int_Tables_number   1
_chemical_formula_structural   DyZn2
_chemical_formula_sum   'Dy2 Zn4'
_cell_volume   120.45876386
_cell_formula_units_Z   2
loop_
 _symmetry_equiv_pos_site_id
 _symmetry_equiv_pos_as_xyz
  1  'x, y, z'
loop_
 _atom_site_type_symbol
 _atom_site_label
 _atom_site_symmetry_multiplicity
 _atom_site_fract_x
 _atom_site_fract_y
 _atom_site_fract_z
 _atom_site_occupancy
  Dy  Dy0  1  0.785897  0.535897  0.750000  1
  Dy  Dy1  1  0.214103  0.464103  0.250000  1
  Zn  Zn2  1  0.617652  0.166266  0.951386  1
  Zn  Zn3  1  0.382348  0.833734  0.048614  1
  Zn  Zn4  1  0.785120  0.833734  0.451386  1
  Zn  Zn5  1  0.214880  0.166266  0.548614  1
