# generated using pymatgen
data_Cs3Sb2Cl9
_symmetry_space_group_name_H-M   'P 1'
_cell_length_a   7.80929694
_cell_length_b   7.80929694
_cell_length_c   9.57374973
_cell_angle_alpha   90.00000000
_cell_angle_beta   90.00000000
_cell_angle_gamma   120.00000000
_symmetry_Int_Tables_number   1
_chemical_formula_structural   Cs3Sb2Cl9
_chemical_formula_sum   'Cs3 Sb2 Cl9'
_cell_volume   505.63435685
_cell_formula_units_Z   1
loop_
 _symmetry_equiv_pos_site_id
 _symmetry_equiv_pos_as_xyz
  1  'x, y, z'
loop_
 _atom_site_type_symbol
 _atom_site_label
 _atom_site_symmetry_multiplicity
 _atom_site_fract_x
 _atom_site_fract_y
 _atom_site_fract_z
 _atom_site_occupancy
  Cs  Cs0  1  0.333333  0.666667  0.325672  1
  Cs  Cs1  1  0.666667  0.333333  0.674328  1
  Cs  Cs2  1  0.000000  0.000000  0.000000  1
  Sb  Sb3  1  0.333333  0.666667  0.820058  1
  Sb  Sb4  1  0.666667  0.333333  0.179942  1
  Cl  Cl5  1  0.530123  0.530123  0.000000  1
  Cl  Cl6  1  0.355971  0.203330  0.325295  1
  Cl  Cl7  1  0.000000  0.469877  0.000000  1
  Cl  Cl8  1  0.847359  0.644029  0.325295  1
  Cl  Cl9  1  0.152641  0.796670  0.674705  1
  Cl  Cl10  1  0.469877  0.000000  0.000000  1
  Cl  Cl11  1  0.203330  0.355971  0.674705  1
  Cl  Cl12  1  0.796670  0.152641  0.325295  1
  Cl  Cl13  1  0.644029  0.847359  0.674705  1
