# generated using pymatgen
data_KMg2V3(CuO6)2
_symmetry_space_group_name_H-M   'P 1'
_cell_length_a   8.84162659
_cell_length_b   8.84162659
_cell_length_c   7.12368076
_cell_angle_alpha   74.55543441
_cell_angle_beta   105.44456559
_cell_angle_gamma   87.73107091
_symmetry_Int_Tables_number   1
_chemical_formula_structural   KMg2V3(CuO6)2
_chemical_formula_sum   'K2 Mg4 V6 Cu4 O24'
_cell_volume   513.72223294
_cell_formula_units_Z   2
loop_
 _symmetry_equiv_pos_site_id
 _symmetry_equiv_pos_as_xyz
  1  'x, y, z'
loop_
 _atom_site_type_symbol
 _atom_site_label
 _atom_site_symmetry_multiplicity
 _atom_site_fract_x
 _atom_site_fract_y
 _atom_site_fract_z
 _atom_site_occupancy
  K  K0  1  0.993199  0.993199  0.250000  1
  K  K1  1  0.006801  0.006801  0.750000  1
  Mg  Mg2  1  0.052626  0.626985  0.621944  1
  Mg  Mg3  1  0.626985  0.052626  0.878056  1
  Mg  Mg4  1  0.947374  0.373015  0.378056  1
  Mg  Mg5  1  0.373015  0.947374  0.121944  1
  V  V6  1  0.885873  0.356040  0.881304  1
  V  V7  1  0.283635  0.283635  0.750000  1
  V  V8  1  0.643960  0.114127  0.381304  1
  V  V9  1  0.114127  0.643960  0.118696  1
  V  V10  1  0.356040  0.885873  0.618696  1
  V  V11  1  0.716365  0.716365  0.250000  1
  Cu  Cu12  1  0.734166  0.734166  0.750000  1
  Cu  Cu13  1  0.265834  0.265834  0.250000  1
  Cu  Cu14  1  0.506812  0.506812  0.250000  1
  Cu  Cu15  1  0.493188  0.493188  0.750000  1
  O  O16  1  0.281279  0.499879  0.176479  1
  O  O17  1  0.499879  0.281279  0.323521  1
  O  O18  1  0.718721  0.500121  0.823521  1
  O  O19  1  0.500121  0.718721  0.676479  1
  O  O20  1  0.246120  0.168857  0.966652  1
  O  O21  1  0.168857  0.246120  0.533348  1
  O  O22  1  0.753880  0.831143  0.033348  1
  O  O23  1  0.831143  0.753880  0.466652  1
  O  O24  1  0.405166  0.970020  0.819425  1
  O  O25  1  0.970020  0.405166  0.680575  1
  O  O26  1  0.594834  0.029980  0.180575  1
  O  O27  1  0.029980  0.594834  0.319425  1
  O  O28  1  0.331135  0.019834  0.374503  1
  O  O29  1  0.019834  0.331135  0.125497  1
  O  O30  1  0.668865  0.980166  0.625497  1
  O  O31  1  0.980166  0.668865  0.874503  1
  O  O32  1  0.181908  0.822696  0.110991  1
  O  O33  1  0.822696  0.181908  0.389009  1
  O  O34  1  0.818092  0.177304  0.889009  1
  O  O35  1  0.177304  0.818092  0.610991  1
  O  O36  1  0.270790  0.489575  0.732195  1
  O  O37  1  0.489575  0.270790  0.767805  1
  O  O38  1  0.729210  0.510425  0.267805  1
  O  O39  1  0.510425  0.729210  0.232195  1
