# generated using pymatgen
data_CdInBr3
_symmetry_space_group_name_H-M   'P 1'
_cell_length_a   4.19910411
_cell_length_b   9.60093190
_cell_length_c   15.68105594
_cell_angle_alpha   90.00000000
_cell_angle_beta   90.00000000
_cell_angle_gamma   90.00000000
_symmetry_Int_Tables_number   1
_chemical_formula_structural   CdInBr3
_chemical_formula_sum   'Cd4 In4 Br12'
_cell_volume   632.18667214
_cell_formula_units_Z   4
loop_
 _symmetry_equiv_pos_site_id
 _symmetry_equiv_pos_as_xyz
  1  'x, y, z'
loop_
 _atom_site_type_symbol
 _atom_site_label
 _atom_site_symmetry_multiplicity
 _atom_site_fract_x
 _atom_site_fract_y
 _atom_site_fract_z
 _atom_site_occupancy
  Cd  Cd0  1  0.750000  0.832924  0.443657  1
  Cd  Cd1  1  0.250000  0.167076  0.556343  1
  Cd  Cd2  1  0.750000  0.332924  0.056343  1
  Cd  Cd3  1  0.250000  0.667076  0.943657  1
  In  In4  1  0.750000  0.558478  0.677713  1
  In  In5  1  0.250000  0.441522  0.322287  1
  In  In6  1  0.750000  0.058478  0.822287  1
  In  In7  1  0.250000  0.941522  0.177713  1
  Br  Br8  1  0.750000  0.334090  0.494266  1
  Br  Br9  1  0.250000  0.665910  0.505734  1
  Br  Br10  1  0.750000  0.834090  0.005734  1
  Br  Br11  1  0.250000  0.165910  0.994266  1
  Br  Br12  1  0.750000  0.712075  0.286723  1
  Br  Br13  1  0.250000  0.287925  0.713277  1
  Br  Br14  1  0.750000  0.212075  0.213277  1
  Br  Br15  1  0.250000  0.787925  0.786723  1
  Br  Br16  1  0.750000  0.977540  0.603626  1
  Br  Br17  1  0.250000  0.022460  0.396374  1
  Br  Br18  1  0.750000  0.477540  0.896374  1
  Br  Br19  1  0.250000  0.522460  0.103626  1
