# generated using pymatgen
data_Tm2Te5O13
_symmetry_space_group_name_H-M   'P 1'
_cell_length_a   6.95121091
_cell_length_b   8.73573719
_cell_length_c   10.69560598
_cell_angle_alpha   89.00120783
_cell_angle_beta   87.11703935
_cell_angle_gamma   74.73381439
_symmetry_Int_Tables_number   1
_chemical_formula_structural   Tm2Te5O13
_chemical_formula_sum   'Tm4 Te10 O26'
_cell_volume   625.76235225
_cell_formula_units_Z   2
loop_
 _symmetry_equiv_pos_site_id
 _symmetry_equiv_pos_as_xyz
  1  'x, y, z'
loop_
 _atom_site_type_symbol
 _atom_site_label
 _atom_site_symmetry_multiplicity
 _atom_site_fract_x
 _atom_site_fract_y
 _atom_site_fract_z
 _atom_site_occupancy
  Tm  Tm0  1  0.447899  0.470843  0.820299  1
  Tm  Tm1  1  0.552101  0.529157  0.179701  1
  Tm  Tm2  1  0.000094  0.259868  0.760044  1
  Tm  Tm3  1  0.999906  0.740132  0.239956  1
  Te  Te4  1  0.272583  0.394242  0.487014  1
  Te  Te5  1  0.438884  0.902757  0.300735  1
  Te  Te6  1  0.290039  0.876011  0.976070  1
  Te  Te7  1  0.727417  0.605758  0.512986  1
  Te  Te8  1  0.842518  0.196955  0.359386  1
  Te  Te9  1  0.709961  0.123989  0.023930  1
  Te  Te10  1  0.157482  0.803045  0.640614  1
  Te  Te11  1  0.123832  0.351483  0.107442  1
  Te  Te12  1  0.561116  0.097243  0.699265  1
  Te  Te13  1  0.876168  0.648517  0.892558  1
  O  O14  1  0.314055  0.735928  0.284736  1
  O  O15  1  0.651060  0.015170  0.876486  1
  O  O16  1  0.339464  0.512260  0.618901  1
  O  O17  1  0.056228  0.819564  0.040741  1
  O  O18  1  0.325135  0.226666  0.777198  1
  O  O19  1  0.462779  0.192569  0.518905  1
  O  O20  1  0.933655  0.982346  0.310752  1
  O  O21  1  0.467972  0.669305  0.000712  1
  O  O22  1  0.066345  0.017654  0.689248  1
  O  O23  1  0.127798  0.490598  0.895293  1
  O  O24  1  0.674865  0.773334  0.222802  1
  O  O25  1  0.957576  0.649729  0.432481  1
  O  O26  1  0.943772  0.180436  0.959259  1
  O  O27  1  0.932963  0.734633  0.722134  1
  O  O28  1  0.532028  0.330695  0.999288  1
  O  O29  1  0.872202  0.509402  0.104707  1
  O  O30  1  0.042424  0.350271  0.567519  1
  O  O31  1  0.660536  0.487740  0.381099  1
  O  O32  1  0.348940  0.984830  0.123514  1
  O  O33  1  0.666568  0.261792  0.226393  1
  O  O34  1  0.067037  0.265367  0.277866  1
  O  O35  1  0.765648  0.501102  0.812463  1
  O  O36  1  0.234352  0.498898  0.187537  1
  O  O37  1  0.537221  0.807431  0.481095  1
  O  O38  1  0.685945  0.264072  0.715264  1
  O  O39  1  0.333432  0.738208  0.773607  1
