# generated using pymatgen
data_Co(PO3)4
_symmetry_space_group_name_H-M   'P 1'
_cell_length_a   7.43159039
_cell_length_b   7.43159039
_cell_length_c   9.70211359
_cell_angle_alpha   69.29539407
_cell_angle_beta   110.70460593
_cell_angle_gamma   110.84620447
_symmetry_Int_Tables_number   1
_chemical_formula_structural   Co(PO3)4
_chemical_formula_sum   'Co2 P8 O24'
_cell_volume   452.24203068
_cell_formula_units_Z   2
loop_
 _symmetry_equiv_pos_site_id
 _symmetry_equiv_pos_as_xyz
  1  'x, y, z'
loop_
 _atom_site_type_symbol
 _atom_site_label
 _atom_site_symmetry_multiplicity
 _atom_site_fract_x
 _atom_site_fract_y
 _atom_site_fract_z
 _atom_site_occupancy
  Co  Co0  1  0.500000  0.000000  0.000000  1
  Co  Co1  1  0.000000  0.500000  0.500000  1
  P  P2  1  0.268582  0.273324  0.464143  1
  P  P3  1  0.300923  0.664485  0.814331  1
  P  P4  1  0.726676  0.731418  0.964143  1
  P  P5  1  0.335515  0.699077  0.314331  1
  P  P6  1  0.731418  0.726676  0.535857  1
  P  P7  1  0.699077  0.335515  0.185669  1
  P  P8  1  0.273324  0.268582  0.035857  1
  P  P9  1  0.664485  0.300923  0.685669  1
  O  O10  1  0.792775  0.528809  0.063696  1
  O  O11  1  0.477781  0.354135  0.154701  1
  O  O12  1  0.849699  0.316622  0.645627  1
  O  O13  1  0.354135  0.477781  0.345299  1
  O  O14  1  0.683378  0.150301  0.145627  1
  O  O15  1  0.645865  0.522219  0.654701  1
  O  O16  1  0.316622  0.849699  0.854373  1
  O  O17  1  0.131676  0.121551  0.377334  1
  O  O18  1  0.207225  0.471191  0.936304  1
  O  O19  1  0.522219  0.645865  0.845299  1
  O  O20  1  0.187926  0.651546  0.656036  1
  O  O21  1  0.471191  0.207225  0.563696  1
  O  O22  1  0.651546  0.187926  0.843964  1
  O  O23  1  0.528809  0.792775  0.436304  1
  O  O24  1  0.878449  0.868324  0.877334  1
  O  O25  1  0.677299  0.813751  0.064707  1
  O  O26  1  0.121551  0.131676  0.122666  1
  O  O27  1  0.868324  0.878449  0.622666  1
  O  O28  1  0.348454  0.812074  0.156036  1
  O  O29  1  0.322701  0.186249  0.935293  1
  O  O30  1  0.150301  0.683378  0.354373  1
  O  O31  1  0.813751  0.677299  0.435293  1
  O  O32  1  0.186249  0.322701  0.564707  1
  O  O33  1  0.812074  0.348454  0.343964  1
