# generated using pymatgen
data_ZrCl2
_symmetry_space_group_name_H-M   'P 1'
_cell_length_a   8.19791967
_cell_length_b   8.19791967
_cell_length_c   8.19791967
_cell_angle_alpha   107.40022403
_cell_angle_beta   107.40022403
_cell_angle_gamma   107.40022403
_symmetry_Int_Tables_number   1
_chemical_formula_structural   ZrCl2
_chemical_formula_sum   'Zr6 Cl12'
_cell_volume   453.73254728
_cell_formula_units_Z   6
loop_
 _symmetry_equiv_pos_site_id
 _symmetry_equiv_pos_as_xyz
  1  'x, y, z'
loop_
 _atom_site_type_symbol
 _atom_site_label
 _atom_site_symmetry_multiplicity
 _atom_site_fract_x
 _atom_site_fract_y
 _atom_site_fract_z
 _atom_site_occupancy
  Zr  Zr0  1  0.299096  0.102380  0.031946  1
  Zr  Zr1  1  0.897620  0.968054  0.700904  1
  Zr  Zr2  1  0.102380  0.031946  0.299096  1
  Zr  Zr3  1  0.031946  0.299096  0.102380  1
  Zr  Zr4  1  0.968054  0.700904  0.897620  1
  Zr  Zr5  1  0.700904  0.897620  0.968054  1
  Cl  Cl6  1  0.147897  0.370914  0.449790  1
  Cl  Cl7  1  0.078446  0.687388  0.222330  1
  Cl  Cl8  1  0.921554  0.312612  0.777670  1
  Cl  Cl9  1  0.312612  0.777670  0.921554  1
  Cl  Cl10  1  0.687388  0.222330  0.078446  1
  Cl  Cl11  1  0.777670  0.921554  0.312612  1
  Cl  Cl12  1  0.370914  0.449790  0.147897  1
  Cl  Cl13  1  0.852103  0.629086  0.550210  1
  Cl  Cl14  1  0.550210  0.852103  0.629086  1
  Cl  Cl15  1  0.449790  0.147897  0.370914  1
  Cl  Cl16  1  0.629086  0.550210  0.852103  1
  Cl  Cl17  1  0.222330  0.078446  0.687388  1
