# generated using pymatgen
data_K6Ti2O7
_symmetry_space_group_name_H-M   'P 1'
_cell_length_a   6.64230638
_cell_length_b   9.38530821
_cell_length_c   11.48769933
_cell_angle_alpha   90.00000000
_cell_angle_beta   123.39819225
_cell_angle_gamma   90.00000000
_symmetry_Int_Tables_number   1
_chemical_formula_structural   K6Ti2O7
_chemical_formula_sum   'K12 Ti4 O14'
_cell_volume   597.88392626
_cell_formula_units_Z   2
loop_
 _symmetry_equiv_pos_site_id
 _symmetry_equiv_pos_as_xyz
  1  'x, y, z'
loop_
 _atom_site_type_symbol
 _atom_site_label
 _atom_site_symmetry_multiplicity
 _atom_site_fract_x
 _atom_site_fract_y
 _atom_site_fract_z
 _atom_site_occupancy
  K  K0  1  0.793074  0.027690  0.543313  1
  K  K1  1  0.206926  0.527690  0.956687  1
  K  K2  1  0.941707  0.843617  0.066417  1
  K  K3  1  0.058293  0.343617  0.433583  1
  K  K4  1  0.058293  0.156383  0.933583  1
  K  K5  1  0.941707  0.656383  0.566417  1
  K  K6  1  0.591901  0.795207  0.221224  1
  K  K7  1  0.408099  0.295207  0.278776  1
  K  K8  1  0.408099  0.204793  0.778776  1
  K  K9  1  0.591901  0.704793  0.721224  1
  K  K10  1  0.206926  0.972310  0.456687  1
  K  K11  1  0.793074  0.472310  0.043313  1
  Ti  Ti12  1  0.691251  0.144462  0.132440  1
  Ti  Ti13  1  0.308749  0.644462  0.367560  1
  Ti  Ti14  1  0.308749  0.855538  0.867560  1
  Ti  Ti15  1  0.691251  0.355538  0.632440  1
  O  O16  1  0.500000  0.000000  0.000000  1
  O  O17  1  0.500000  0.500000  0.500000  1
  O  O18  1  0.037705  0.825422  0.867561  1
  O  O19  1  0.962295  0.325422  0.632439  1
  O  O20  1  0.500643  0.698864  0.927488  1
  O  O21  1  0.499357  0.198864  0.572512  1
  O  O22  1  0.499357  0.301136  0.072512  1
  O  O23  1  0.500643  0.801136  0.427488  1
  O  O24  1  0.235186  0.903179  0.695100  1
  O  O25  1  0.764814  0.403179  0.804900  1
  O  O26  1  0.764814  0.096821  0.304900  1
  O  O27  1  0.235186  0.596821  0.195100  1
  O  O28  1  0.037705  0.674578  0.367561  1
  O  O29  1  0.962295  0.174578  0.132439  1
