# generated using pymatgen
data_Tl2Hg2PdCl8
_symmetry_space_group_name_H-M   'P 1'
_cell_length_a   6.75955660
_cell_length_b   6.75955660
_cell_length_c   10.14974151
_cell_angle_alpha   73.79610859
_cell_angle_beta   106.20389141
_cell_angle_gamma   118.03734919
_symmetry_Int_Tables_number   1
_chemical_formula_structural   Tl2Hg2PdCl8
_chemical_formula_sum   'Tl2 Hg2 Pd1 Cl8'
_cell_volume   387.04162711
_cell_formula_units_Z   1
loop_
 _symmetry_equiv_pos_site_id
 _symmetry_equiv_pos_as_xyz
  1  'x, y, z'
loop_
 _atom_site_type_symbol
 _atom_site_label
 _atom_site_symmetry_multiplicity
 _atom_site_fract_x
 _atom_site_fract_y
 _atom_site_fract_z
 _atom_site_occupancy
  Tl  Tl0  1  0.603364  0.396636  0.841785  1
  Tl  Tl1  1  0.396636  0.603364  0.158215  1
  Hg  Hg2  1  0.866029  0.133971  0.599751  1
  Hg  Hg3  1  0.133971  0.866029  0.400249  1
  Pd  Pd4  1  0.000000  0.000000  0.000000  1
  Cl  Cl5  1  0.101878  0.369387  0.874061  1
  Cl  Cl6  1  0.630613  0.898122  0.874061  1
  Cl  Cl7  1  0.653093  0.346907  0.498297  1
  Cl  Cl8  1  0.898122  0.630613  0.125939  1
  Cl  Cl9  1  0.079906  0.920094  0.691436  1
  Cl  Cl10  1  0.346907  0.653093  0.501703  1
  Cl  Cl11  1  0.369387  0.101878  0.125939  1
  Cl  Cl12  1  0.920094  0.079906  0.308564  1
