# generated using pymatgen
data_Pb2CBr2O3
_symmetry_space_group_name_H-M   'P 1'
_cell_length_a   8.47971633
_cell_length_b   8.47971633
_cell_length_c   9.23209658
_cell_angle_alpha   90.00000000
_cell_angle_beta   90.00000000
_cell_angle_gamma   90.00000000
_symmetry_Int_Tables_number   1
_chemical_formula_structural   Pb2CBr2O3
_chemical_formula_sum   'Pb8 C4 Br8 O12'
_cell_volume   663.83934263
_cell_formula_units_Z   4
loop_
 _symmetry_equiv_pos_site_id
 _symmetry_equiv_pos_as_xyz
  1  'x, y, z'
loop_
 _atom_site_type_symbol
 _atom_site_label
 _atom_site_symmetry_multiplicity
 _atom_site_fract_x
 _atom_site_fract_y
 _atom_site_fract_z
 _atom_site_occupancy
  Pb  Pb0  1  0.163591  0.663591  0.250675  1
  Pb  Pb1  1  0.336409  0.163591  0.250675  1
  Pb  Pb2  1  0.663591  0.836409  0.250675  1
  Pb  Pb3  1  0.663591  0.836409  0.749325  1
  Pb  Pb4  1  0.336409  0.163591  0.749325  1
  Pb  Pb5  1  0.836409  0.336409  0.250675  1
  Pb  Pb6  1  0.163591  0.663591  0.749325  1
  Pb  Pb7  1  0.836409  0.336409  0.749325  1
  C  C8  1  0.324163  0.824163  0.000000  1
  C  C9  1  0.175837  0.324163  0.000000  1
  C  C10  1  0.824163  0.675837  0.000000  1
  C  C11  1  0.675837  0.175837  0.000000  1
  Br  Br12  1  0.000000  0.000000  0.236624  1
  Br  Br13  1  0.500000  0.500000  0.763376  1
  Br  Br14  1  0.000000  0.000000  0.763376  1
  Br  Br15  1  0.500000  0.500000  0.236624  1
  Br  Br16  1  0.349840  0.849840  0.500000  1
  Br  Br17  1  0.150160  0.349840  0.500000  1
  Br  Br18  1  0.849840  0.650160  0.500000  1
  Br  Br19  1  0.650160  0.150160  0.500000  1
  O  O20  1  0.214025  0.714025  0.000000  1
  O  O21  1  0.285975  0.214025  0.000000  1
  O  O22  1  0.714025  0.785975  0.000000  1
  O  O23  1  0.785975  0.285975  0.000000  1
  O  O24  1  0.372839  0.872839  0.124798  1
  O  O25  1  0.127161  0.372839  0.124798  1
  O  O26  1  0.872839  0.627161  0.124798  1
  O  O27  1  0.872839  0.627161  0.875202  1
  O  O28  1  0.127161  0.372839  0.875202  1
  O  O29  1  0.627161  0.127161  0.124798  1
  O  O30  1  0.372839  0.872839  0.875202  1
  O  O31  1  0.627161  0.127161  0.875202  1
