# generated using pymatgen
data_Ba3Mg(SiO4)2
_symmetry_space_group_name_H-M   'P 1'
_cell_length_a   9.84982659
_cell_length_b   9.84982659
_cell_length_c   7.37326243
_cell_angle_alpha   90.00000000
_cell_angle_beta   90.00000000
_cell_angle_gamma   120.00000000
_symmetry_Int_Tables_number   1
_chemical_formula_structural   Ba3Mg(SiO4)2
_chemical_formula_sum   'Ba9 Mg3 Si6 O24'
_cell_volume   619.50881802
_cell_formula_units_Z   3
loop_
 _symmetry_equiv_pos_site_id
 _symmetry_equiv_pos_as_xyz
  1  'x, y, z'
loop_
 _atom_site_type_symbol
 _atom_site_label
 _atom_site_symmetry_multiplicity
 _atom_site_fract_x
 _atom_site_fract_y
 _atom_site_fract_z
 _atom_site_occupancy
  Ba  Ba0  1  0.002385  0.334675  0.178011  1
  Ba  Ba1  1  0.665325  0.667711  0.178011  1
  Ba  Ba2  1  0.332289  0.997615  0.178011  1
  Ba  Ba3  1  0.997615  0.665325  0.821989  1
  Ba  Ba4  1  0.334675  0.332289  0.821989  1
  Ba  Ba5  1  0.667711  0.002385  0.821989  1
  Ba  Ba6  1  0.333333  0.666667  0.504075  1
  Ba  Ba7  1  0.666667  0.333333  0.495925  1
  Ba  Ba8  1  0.000000  0.000000  0.500000  1
  Mg  Mg9  1  0.333333  0.666667  0.011446  1
  Mg  Mg10  1  0.666667  0.333333  0.988554  1
  Mg  Mg11  1  0.000000  0.000000  0.000000  1
  Si  Si12  1  0.671324  0.008366  0.258902  1
  Si  Si13  1  0.991634  0.662958  0.258902  1
  Si  Si14  1  0.337042  0.328676  0.258902  1
  Si  Si15  1  0.328676  0.991634  0.741098  1
  Si  Si16  1  0.008366  0.337042  0.741098  1
  Si  Si17  1  0.662958  0.671324  0.741098  1
  O  O18  1  0.174575  0.174901  0.177097  1
  O  O19  1  0.825099  0.999675  0.177097  1
  O  O20  1  0.000325  0.825425  0.177097  1
  O  O21  1  0.825425  0.825099  0.822903  1
  O  O22  1  0.174901  0.000325  0.822903  1
  O  O23  1  0.999675  0.174575  0.822903  1
  O  O24  1  0.333734  0.489388  0.195886  1
  O  O25  1  0.510612  0.844346  0.195886  1
  O  O26  1  0.155654  0.666266  0.195886  1
  O  O27  1  0.666266  0.510612  0.804114  1
  O  O28  1  0.489388  0.155654  0.804114  1
  O  O29  1  0.844346  0.333734  0.804114  1
  O  O30  1  0.687971  0.042528  0.475300  1
  O  O31  1  0.957472  0.645444  0.475300  1
  O  O32  1  0.354556  0.312029  0.475300  1
  O  O33  1  0.312029  0.957472  0.524700  1
  O  O34  1  0.042528  0.354556  0.524700  1
  O  O35  1  0.645444  0.687971  0.524700  1
  O  O36  1  0.667103  0.157205  0.154954  1
  O  O37  1  0.842795  0.509897  0.154954  1
  O  O38  1  0.490103  0.332897  0.154954  1
  O  O39  1  0.332897  0.842795  0.845046  1
  O  O40  1  0.157205  0.490103  0.845046  1
  O  O41  1  0.509897  0.667103  0.845046  1
