# generated using pymatgen
data_TlSbAu
_symmetry_space_group_name_H-M   'P 1'
_cell_length_a   6.68126824
_cell_length_b   6.71542127
_cell_length_c   14.85436724
_cell_angle_alpha   90.00000000
_cell_angle_beta   90.00000000
_cell_angle_gamma   90.00000000
_symmetry_Int_Tables_number   1
_chemical_formula_structural   TlSbAu
_chemical_formula_sum   'Tl8 Sb8 Au8'
_cell_volume   666.47878039
_cell_formula_units_Z   8
loop_
 _symmetry_equiv_pos_site_id
 _symmetry_equiv_pos_as_xyz
  1  'x, y, z'
loop_
 _atom_site_type_symbol
 _atom_site_label
 _atom_site_symmetry_multiplicity
 _atom_site_fract_x
 _atom_site_fract_y
 _atom_site_fract_z
 _atom_site_occupancy
  Tl  Tl0  1  0.364807  0.125689  0.033608  1
  Tl  Tl1  1  0.864807  0.874311  0.966392  1
  Tl  Tl2  1  0.864807  0.374311  0.533608  1
  Tl  Tl3  1  0.364807  0.625689  0.466392  1
  Tl  Tl4  1  0.591567  0.416838  0.295214  1
  Tl  Tl5  1  0.091567  0.583162  0.704786  1
  Tl  Tl6  1  0.091567  0.083162  0.795214  1
  Tl  Tl7  1  0.591567  0.916838  0.204786  1
  Sb  Sb8  1  0.357575  0.106439  0.571671  1
  Sb  Sb9  1  0.857575  0.893561  0.428329  1
  Sb  Sb10  1  0.857575  0.393561  0.071671  1
  Sb  Sb11  1  0.357575  0.606439  0.928329  1
  Sb  Sb12  1  0.110612  0.150830  0.319105  1
  Sb  Sb13  1  0.610612  0.849170  0.680895  1
  Sb  Sb14  1  0.610612  0.349170  0.819105  1
  Sb  Sb15  1  0.110612  0.650830  0.180895  1
  Au  Au16  1  0.476290  0.036168  0.391508  1
  Au  Au17  1  0.976290  0.963832  0.608492  1
  Au  Au18  1  0.976290  0.463832  0.891508  1
  Au  Au19  1  0.476290  0.536168  0.108492  1
  Au  Au20  1  0.000448  0.036636  0.141776  1
  Au  Au21  1  0.500448  0.963364  0.858224  1
  Au  Au22  1  0.500448  0.463364  0.641776  1
  Au  Au23  1  0.000448  0.536636  0.358224  1
