# generated using pymatgen
data_SiO2
_symmetry_space_group_name_H-M   'P 1'
_cell_length_a   7.51545389
_cell_length_b   14.27745220
_cell_length_c   18.92163542
_cell_angle_alpha   90.00000000
_cell_angle_beta   90.00000000
_cell_angle_gamma   90.00000000
_symmetry_Int_Tables_number   1
_chemical_formula_structural   SiO2
_chemical_formula_sum   'Si36 O72'
_cell_volume   2030.32050022
_cell_formula_units_Z   36
loop_
 _symmetry_equiv_pos_site_id
 _symmetry_equiv_pos_as_xyz
  1  'x, y, z'
loop_
 _atom_site_type_symbol
 _atom_site_label
 _atom_site_symmetry_multiplicity
 _atom_site_fract_x
 _atom_site_fract_y
 _atom_site_fract_z
 _atom_site_occupancy
  Si  Si0  1  0.221829  0.697354  0.166901  1
  Si  Si1  1  0.721829  0.802646  0.666901  1
  Si  Si2  1  0.207972  0.999502  0.273319  1
  Si  Si3  1  0.000000  0.500000  0.347608  1
  Si  Si4  1  0.511278  0.799435  0.083104  1
  Si  Si5  1  0.000000  0.500000  0.652392  1
  Si  Si6  1  0.988722  0.299435  0.583104  1
  Si  Si7  1  0.511278  0.799435  0.916896  1
  Si  Si8  1  0.190416  0.292288  0.817322  1
  Si  Si9  1  0.988722  0.299435  0.416896  1
  Si  Si10  1  0.809584  0.707712  0.817322  1
  Si  Si11  1  0.778171  0.302646  0.166901  1
  Si  Si12  1  0.278171  0.197354  0.666901  1
  Si  Si13  1  0.309584  0.792288  0.317322  1
  Si  Si14  1  0.690416  0.207712  0.682678  1
  Si  Si15  1  0.011278  0.700565  0.583104  1
  Si  Si16  1  0.309584  0.792288  0.682678  1
  Si  Si17  1  0.488722  0.200565  0.083104  1
  Si  Si18  1  0.707972  0.500498  0.773319  1
  Si  Si19  1  0.690416  0.207712  0.317322  1
  Si  Si20  1  0.292028  0.499502  0.773319  1
  Si  Si21  1  0.488722  0.200565  0.916896  1
  Si  Si22  1  0.292028  0.499502  0.226681  1
  Si  Si23  1  0.792028  0.000498  0.273319  1
  Si  Si24  1  0.221829  0.697354  0.833099  1
  Si  Si25  1  0.500000  0.000000  0.847608  1
  Si  Si26  1  0.190416  0.292288  0.182678  1
  Si  Si27  1  0.278171  0.197354  0.333099  1
  Si  Si28  1  0.809584  0.707712  0.182678  1
  Si  Si29  1  0.707972  0.500498  0.226681  1
  Si  Si30  1  0.207972  0.999502  0.726681  1
  Si  Si31  1  0.721829  0.802646  0.333099  1
  Si  Si32  1  0.011278  0.700565  0.416896  1
  Si  Si33  1  0.792028  0.000498  0.726681  1
  Si  Si34  1  0.778171  0.302646  0.833099  1
  Si  Si35  1  0.500000  0.000000  0.152392  1
  O  O36  1  0.833019  0.761549  0.399797  1
  O  O37  1  0.757766  0.597356  0.186452  1
  O  O38  1  0.179381  0.739128  0.371882  1
  O  O39  1  0.795021  0.753232  0.261178  1
  O  O40  1  0.820619  0.260872  0.371882  1
  O  O41  1  0.987491  0.279947  0.154696  1
  O  O42  1  0.442917  0.210330  0.000000  1
  O  O43  1  0.704979  0.253232  0.761178  1
  O  O44  1  0.295021  0.746768  0.238822  1
  O  O45  1  0.512509  0.779947  0.345304  1
  O  O46  1  0.833019  0.761549  0.600203  1
  O  O47  1  0.476768  0.908807  0.897610  1
  O  O48  1  0.751534  0.915429  0.671760  1
  O  O49  1  0.795021  0.753232  0.738822  1
  O  O50  1  0.666981  0.261549  0.899797  1
  O  O51  1  0.204979  0.246768  0.261178  1
  O  O52  1  0.248466  0.084571  0.328240  1
  O  O53  1  0.295021  0.746768  0.761178  1
  O  O54  1  0.242234  0.402644  0.813548  1
  O  O55  1  0.500000  0.500000  0.749956  1
  O  O56  1  0.679381  0.760872  0.871882  1
  O  O57  1  0.748466  0.415429  0.171760  1
  O  O58  1  0.175693  0.512900  0.701669  1
  O  O59  1  0.000000  0.000000  0.750044  1
  O  O60  1  0.204979  0.246768  0.738822  1
  O  O61  1  0.976768  0.591193  0.397610  1
  O  O62  1  0.487491  0.220053  0.345304  1
  O  O63  1  0.748466  0.415429  0.828240  1
  O  O64  1  0.251534  0.584571  0.171760  1
  O  O65  1  0.179381  0.739128  0.628118  1
  O  O66  1  0.704979  0.253232  0.238822  1
  O  O67  1  0.023232  0.408807  0.602390  1
  O  O68  1  0.333019  0.738451  0.100203  1
  O  O69  1  0.324307  0.012900  0.798331  1
  O  O70  1  0.242234  0.402644  0.186452  1
  O  O71  1  0.987491  0.279947  0.845304  1
  O  O72  1  0.012509  0.720053  0.845304  1
  O  O73  1  0.257766  0.902644  0.686452  1
  O  O74  1  0.820619  0.260872  0.628118  1
  O  O75  1  0.679381  0.760872  0.128118  1
  O  O76  1  0.500000  0.500000  0.250044  1
  O  O77  1  0.942917  0.289670  0.500000  1
  O  O78  1  0.166981  0.238451  0.600203  1
  O  O79  1  0.057083  0.710330  0.500000  1
  O  O80  1  0.675693  0.987100  0.201669  1
  O  O81  1  0.320619  0.239128  0.128118  1
  O  O82  1  0.012509  0.720053  0.154696  1
  O  O83  1  0.512509  0.779947  0.654696  1
  O  O84  1  0.751534  0.915429  0.328240  1
  O  O85  1  0.333019  0.738451  0.899797  1
  O  O86  1  0.824307  0.487100  0.701669  1
  O  O87  1  0.257766  0.902644  0.313548  1
  O  O88  1  0.476768  0.908807  0.102390  1
  O  O89  1  0.675693  0.987100  0.798331  1
  O  O90  1  0.320619  0.239128  0.871882  1
  O  O91  1  0.757766  0.597356  0.813548  1
  O  O92  1  0.557083  0.789670  0.000000  1
  O  O93  1  0.251534  0.584571  0.828240  1
  O  O94  1  0.976768  0.591193  0.602390  1
  O  O95  1  0.324307  0.012900  0.201669  1
  O  O96  1  0.248466  0.084571  0.671760  1
  O  O97  1  0.523232  0.091193  0.897610  1
  O  O98  1  0.166981  0.238451  0.399797  1
  O  O99  1  0.487491  0.220053  0.654696  1
  O  O100  1  0.742234  0.097356  0.686452  1
  O  O101  1  0.742234  0.097356  0.313548  1
  O  O102  1  0.000000  0.000000  0.249956  1
  O  O103  1  0.523232  0.091193  0.102390  1
  O  O104  1  0.824307  0.487100  0.298331  1
  O  O105  1  0.023232  0.408807  0.397610  1
  O  O106  1  0.666981  0.261549  0.100203  1
  O  O107  1  0.175693  0.512900  0.298331  1
