# generated using pymatgen
data_Sn(SeO3)2
_symmetry_space_group_name_H-M   'P 1'
_cell_length_a   4.89503436
_cell_length_b   8.70923026
_cell_length_c   7.14055559
_cell_angle_alpha   90.00000000
_cell_angle_beta   111.35325419
_cell_angle_gamma   90.00000000
_symmetry_Int_Tables_number   1
_chemical_formula_structural   Sn(SeO3)2
_chemical_formula_sum   'Sn2 Se4 O12'
_cell_volume   283.51884562
_cell_formula_units_Z   2
loop_
 _symmetry_equiv_pos_site_id
 _symmetry_equiv_pos_as_xyz
  1  'x, y, z'
loop_
 _atom_site_type_symbol
 _atom_site_label
 _atom_site_symmetry_multiplicity
 _atom_site_fract_x
 _atom_site_fract_y
 _atom_site_fract_z
 _atom_site_occupancy
  Sn  Sn0  1  0.500000  0.500000  0.500000  1
  Sn  Sn1  1  0.500000  0.000000  0.000000  1
  Se  Se2  1  0.859775  0.148397  0.685371  1
  Se  Se3  1  0.859775  0.351603  0.185371  1
  Se  Se4  1  0.140225  0.851603  0.314629  1
  Se  Se5  1  0.140225  0.648397  0.814629  1
  O  O6  1  0.585381  0.057663  0.741140  1
  O  O7  1  0.224664  0.658790  0.302583  1
  O  O8  1  0.847906  0.845631  0.084149  1
  O  O9  1  0.152094  0.345631  0.415851  1
  O  O10  1  0.414619  0.942337  0.258860  1
  O  O11  1  0.585381  0.442337  0.241140  1
  O  O12  1  0.152094  0.154369  0.915851  1
  O  O13  1  0.775336  0.158790  0.197417  1
  O  O14  1  0.224664  0.841210  0.802583  1
  O  O15  1  0.414619  0.557663  0.758860  1
  O  O16  1  0.775336  0.341210  0.697417  1
  O  O17  1  0.847906  0.654369  0.584149  1
