# generated using pymatgen
data_Cs3P7Pb2O21
_symmetry_space_group_name_H-M   'P 1'
_cell_length_a   6.91082986
_cell_length_b   8.03324557
_cell_length_c   22.53471057
_cell_angle_alpha   86.50681688
_cell_angle_beta   83.04107025
_cell_angle_gamma   65.90064885
_symmetry_Int_Tables_number   1
_chemical_formula_structural   Cs3P7Pb2O21
_chemical_formula_sum   'Cs6 P14 Pb4 O42'
_cell_volume   1133.49970706
_cell_formula_units_Z   2
loop_
 _symmetry_equiv_pos_site_id
 _symmetry_equiv_pos_as_xyz
  1  'x, y, z'
loop_
 _atom_site_type_symbol
 _atom_site_label
 _atom_site_symmetry_multiplicity
 _atom_site_fract_x
 _atom_site_fract_y
 _atom_site_fract_z
 _atom_site_occupancy
  Cs  Cs0  1  0.302404  0.793989  0.420964  1
  Cs  Cs1  1  0.873251  0.686029  0.763724  1
  Cs  Cs2  1  0.246121  0.792775  0.889459  1
  Cs  Cs3  1  0.697596  0.206011  0.579036  1
  Cs  Cs4  1  0.126749  0.313971  0.236276  1
  Cs  Cs5  1  0.753879  0.207225  0.110541  1
  P  P6  1  0.958196  0.121087  0.734957  1
  P  P7  1  0.197251  0.254076  0.518098  1
  P  P8  1  0.041804  0.878913  0.265043  1
  P  P9  1  0.012383  0.336566  0.934685  1
  P  P10  1  0.364916  0.150754  0.745234  1
  P  P11  1  0.802749  0.745924  0.481902  1
  P  P12  1  0.987617  0.663434  0.065315  1
  P  P13  1  0.726081  0.726673  0.962923  1
  P  P14  1  0.962371  0.402440  0.412133  1
  P  P15  1  0.635084  0.849246  0.254766  1
  P  P16  1  0.535596  0.438059  0.751003  1
  P  P17  1  0.037629  0.597560  0.587867  1
  P  P18  1  0.273919  0.273327  0.037077  1
  P  P19  1  0.464404  0.561941  0.248997  1
  Pb  Pb20  1  0.410837  0.813212  0.624622  1
  Pb  Pb21  1  0.589163  0.186788  0.375378  1
  Pb  Pb22  1  0.605362  0.169356  0.884979  1
  Pb  Pb23  1  0.394638  0.830644  0.115021  1
  O  O24  1  0.474136  0.050903  0.688218  1
  O  O25  1  0.753601  0.298081  0.714275  1
  O  O26  1  0.533840  0.380070  0.280000  1
  O  O27  1  0.791001  0.511237  0.952749  1
  O  O28  1  0.208999  0.488763  0.047251  1
  O  O29  1  0.952361  0.999283  0.318691  1
  O  O30  1  0.099797  0.958695  0.207150  1
  O  O31  1  0.747566  0.816586  0.903066  1
  O  O32  1  0.003022  0.296836  0.476620  1
  O  O33  1  0.487235  0.206311  0.000733  1
  O  O34  1  0.840297  0.675595  0.630812  1
  O  O35  1  0.087295  0.266270  0.001487  1
  O  O36  1  0.512765  0.793689  0.999267  1
  O  O37  1  0.754784  0.934916  0.457445  1
  O  O38  1  0.174019  0.393271  0.899088  1
  O  O39  1  0.633428  0.692859  0.514226  1
  O  O40  1  0.466160  0.619930  0.720000  1
  O  O41  1  0.047639  0.000717  0.681309  1
  O  O42  1  0.159703  0.324405  0.369188  1
  O  O43  1  0.245310  0.593901  0.603037  1
  O  O44  1  0.564346  0.939773  0.196204  1
  O  O45  1  0.754690  0.406099  0.396963  1
  O  O46  1  0.912705  0.733730  0.998513  1
  O  O47  1  0.931002  0.609030  0.426408  1
  O  O48  1  0.900203  0.041305  0.792850  1
  O  O49  1  0.435654  0.060227  0.803796  1
  O  O50  1  0.068998  0.390970  0.573592  1
  O  O51  1  0.107653  0.225404  0.746349  1
  O  O52  1  0.892347  0.774596  0.253651  1
  O  O53  1  0.051865  0.804257  0.087074  1
  O  O54  1  0.633889  0.645692  0.259307  1
  O  O55  1  0.996978  0.703164  0.523380  1
  O  O56  1  0.825981  0.606729  0.100912  1
  O  O57  1  0.565171  0.435756  0.816252  1
  O  O58  1  0.366572  0.307141  0.485774  1
  O  O59  1  0.948135  0.195743  0.912926  1
  O  O60  1  0.525864  0.949097  0.311782  1
  O  O61  1  0.246399  0.701919  0.285725  1
  O  O62  1  0.245216  0.065084  0.542555  1
  O  O63  1  0.252434  0.183414  0.096934  1
  O  O64  1  0.366111  0.354308  0.740693  1
  O  O65  1  0.434829  0.564244  0.183748  1
