# generated using pymatgen
data_Rb2NbCl6
_symmetry_space_group_name_H-M   'P 1'
_cell_length_a   7.25515680
_cell_length_b   7.25515680
_cell_length_c   7.25515680
_cell_angle_alpha   118.97845549
_cell_angle_beta   118.97845549
_cell_angle_gamma   91.77866540
_symmetry_Int_Tables_number   1
_chemical_formula_structural   Rb2NbCl6
_chemical_formula_sum   'Rb2 Nb1 Cl6'
_cell_volume   274.06499571
_cell_formula_units_Z   1
loop_
 _symmetry_equiv_pos_site_id
 _symmetry_equiv_pos_as_xyz
  1  'x, y, z'
loop_
 _atom_site_type_symbol
 _atom_site_label
 _atom_site_symmetry_multiplicity
 _atom_site_fract_x
 _atom_site_fract_y
 _atom_site_fract_z
 _atom_site_occupancy
  Rb  Rb0  1  0.250000  0.750000  0.500000  1
  Rb  Rb1  1  0.750000  0.250000  0.500000  1
  Nb  Nb2  1  0.000000  0.000000  0.000000  1
  Cl  Cl3  1  0.240776  0.240776  0.000000  1
  Cl  Cl4  1  0.759224  0.759224  0.000000  1
  Cl  Cl5  1  0.234720  0.234720  0.469440  1
  Cl  Cl6  1  0.765280  0.234720  0.000000  1
  Cl  Cl7  1  0.765280  0.765280  0.530560  1
  Cl  Cl8  1  0.234720  0.765280  0.000000  1
