# generated using pymatgen
data_Co(CO)4
_symmetry_space_group_name_H-M   'P 1'
_cell_length_a   5.76526669
_cell_length_b   5.76526669
_cell_length_c   5.76526669
_cell_angle_alpha   90.00000000
_cell_angle_beta   90.00000000
_cell_angle_gamma   90.00000000
_symmetry_Int_Tables_number   1
_chemical_formula_structural   Co(CO)4
_chemical_formula_sum   'Co1 C4 O4'
_cell_volume   191.62766386
_cell_formula_units_Z   1
loop_
 _symmetry_equiv_pos_site_id
 _symmetry_equiv_pos_as_xyz
  1  'x, y, z'
loop_
 _atom_site_type_symbol
 _atom_site_label
 _atom_site_symmetry_multiplicity
 _atom_site_fract_x
 _atom_site_fract_y
 _atom_site_fract_z
 _atom_site_occupancy
  Co  Co0  1  0.500000  0.500000  0.500000  1
  C  C1  1  0.318725  0.681275  0.681275  1
  C  C2  1  0.318725  0.318725  0.318725  1
  C  C3  1  0.681275  0.318725  0.681275  1
  C  C4  1  0.681275  0.681275  0.318725  1
  O  O5  1  0.202798  0.202798  0.202798  1
  O  O6  1  0.202798  0.797202  0.797202  1
  O  O7  1  0.797202  0.202798  0.797202  1
  O  O8  1  0.797202  0.797202  0.202798  1
