# generated using pymatgen
data_BaCu(SeO3)2
_symmetry_space_group_name_H-M   'P 1'
_cell_length_a   5.41531735
_cell_length_b   13.43441973
_cell_length_c   9.02833657
_cell_angle_alpha   90.00000000
_cell_angle_beta   90.34235941
_cell_angle_gamma   90.00000000
_symmetry_Int_Tables_number   1
_chemical_formula_structural   BaCu(SeO3)2
_chemical_formula_sum   'Ba4 Cu4 Se8 O24'
_cell_volume   656.81462352
_cell_formula_units_Z   4
loop_
 _symmetry_equiv_pos_site_id
 _symmetry_equiv_pos_as_xyz
  1  'x, y, z'
loop_
 _atom_site_type_symbol
 _atom_site_label
 _atom_site_symmetry_multiplicity
 _atom_site_fract_x
 _atom_site_fract_y
 _atom_site_fract_z
 _atom_site_occupancy
  Ba  Ba0  1  0.269878  0.201293  0.309066  1
  Ba  Ba1  1  0.269878  0.298707  0.809066  1
  Ba  Ba2  1  0.730122  0.701293  0.190934  1
  Ba  Ba3  1  0.730122  0.798707  0.690934  1
  Cu  Cu4  1  0.725832  0.367131  0.099627  1
  Cu  Cu5  1  0.274168  0.632869  0.900373  1
  Cu  Cu6  1  0.274168  0.867131  0.400373  1
  Cu  Cu7  1  0.725832  0.132869  0.599627  1
  Se  Se8  1  0.812118  0.991239  0.290943  1
  Se  Se9  1  0.764367  0.362004  0.464897  1
  Se  Se10  1  0.187882  0.491239  0.209057  1
  Se  Se11  1  0.764367  0.137996  0.964897  1
  Se  Se12  1  0.235633  0.862004  0.035103  1
  Se  Se13  1  0.187882  0.008761  0.709057  1
  Se  Se14  1  0.812118  0.508761  0.790943  1
  Se  Se15  1  0.235633  0.637996  0.535103  1
  O  O16  1  0.719870  0.884597  0.376083  1
  O  O17  1  0.779434  0.304269  0.291364  1
  O  O18  1  0.280130  0.115403  0.623917  1
  O  O19  1  0.779434  0.195731  0.791364  1
  O  O20  1  0.130176  0.504556  0.827590  1
  O  O21  1  0.944479  0.659758  0.471719  1
  O  O22  1  0.869824  0.495444  0.172410  1
  O  O23  1  0.706640  0.093783  0.391308  1
  O  O24  1  0.944479  0.840242  0.971719  1
  O  O25  1  0.869824  0.004556  0.672410  1
  O  O26  1  0.293360  0.593783  0.108692  1
  O  O27  1  0.417059  0.729151  0.450778  1
  O  O28  1  0.417059  0.770849  0.950778  1
  O  O29  1  0.220566  0.695731  0.708636  1
  O  O30  1  0.293360  0.906217  0.608692  1
  O  O31  1  0.055521  0.340242  0.528281  1
  O  O32  1  0.280130  0.384597  0.123917  1
  O  O33  1  0.582941  0.270849  0.549222  1
  O  O34  1  0.130176  0.995444  0.327590  1
  O  O35  1  0.719870  0.615403  0.876083  1
  O  O36  1  0.706640  0.406217  0.891308  1
  O  O37  1  0.220566  0.804269  0.208636  1
  O  O38  1  0.582941  0.229151  0.049222  1
  O  O39  1  0.055521  0.159758  0.028281  1
