# generated using pymatgen
data_ZrP2H4O9
_symmetry_space_group_name_H-M   'P 1'
_cell_length_a   9.50830811
_cell_length_b   5.47876608
_cell_length_c   15.85141969
_cell_angle_alpha   90.00000000
_cell_angle_beta   108.75935531
_cell_angle_gamma   90.00000000
_symmetry_Int_Tables_number   1
_chemical_formula_structural   ZrP2H4O9
_chemical_formula_sum   'Zr4 P8 H16 O36'
_cell_volume   781.89426295
_cell_formula_units_Z   4
loop_
 _symmetry_equiv_pos_site_id
 _symmetry_equiv_pos_as_xyz
  1  'x, y, z'
loop_
 _atom_site_type_symbol
 _atom_site_label
 _atom_site_symmetry_multiplicity
 _atom_site_fract_x
 _atom_site_fract_y
 _atom_site_fract_z
 _atom_site_occupancy
  Zr  Zr0  1  0.759145  0.249747  0.526953  1
  Zr  Zr1  1  0.240855  0.749747  0.973047  1
  Zr  Zr2  1  0.240855  0.750253  0.473047  1
  Zr  Zr3  1  0.759145  0.250253  0.026953  1
  P  P4  1  0.004790  0.737305  0.607100  1
  P  P5  1  0.995210  0.237305  0.892900  1
  P  P6  1  0.995210  0.262695  0.392900  1
  P  P7  1  0.004790  0.762695  0.107100  1
  P  P8  1  0.419747  0.233419  0.606339  1
  P  P9  1  0.580253  0.733419  0.893661  1
  P  P10  1  0.580253  0.766581  0.393661  1
  P  P11  1  0.419747  0.266581  0.106339  1
  H  H12  1  0.183178  0.039648  0.727983  1
  H  H13  1  0.816822  0.539648  0.772017  1
  H  H14  1  0.816822  0.960352  0.272017  1
  H  H15  1  0.183178  0.460352  0.227983  1
  H  H16  1  0.334317  0.185048  0.714509  1
  H  H17  1  0.665683  0.685048  0.785491  1
  H  H18  1  0.665683  0.814952  0.285491  1
  H  H19  1  0.334317  0.314952  0.214509  1
  H  H20  1  0.857933  0.212582  0.742617  1
  H  H21  1  0.142067  0.712582  0.757383  1
  H  H22  1  0.142067  0.787418  0.257383  1
  H  H23  1  0.857933  0.287418  0.242617  1
  H  H24  1  0.664252  0.549082  0.688945  1
  H  H25  1  0.335748  0.049082  0.811055  1
  H  H26  1  0.335748  0.450918  0.311055  1
  H  H27  1  0.664252  0.950918  0.188945  1
  O  O28  1  0.134757  0.699876  0.571774  1
  O  O29  1  0.865243  0.199876  0.928226  1
  O  O30  1  0.865243  0.300124  0.428226  1
  O  O31  1  0.134757  0.800124  0.071774  1
  O  O32  1  0.918875  0.501039  0.607228  1
  O  O33  1  0.081125  0.001039  0.892772  1
  O  O34  1  0.081125  0.498961  0.392772  1
  O  O35  1  0.918875  0.998961  0.107228  1
  O  O36  1  0.906324  0.950254  0.562728  1
  O  O37  1  0.093676  0.450254  0.937272  1
  O  O38  1  0.093676  0.049746  0.437272  1
  O  O39  1  0.906324  0.549746  0.062728  1
  O  O40  1  0.075585  0.825323  0.709634  1
  O  O41  1  0.924415  0.325323  0.790366  1
  O  O42  1  0.924415  0.174677  0.290366  1
  O  O43  1  0.075585  0.674677  0.209634  1
  O  O44  1  0.360120  0.443519  0.539423  1
  O  O45  1  0.639880  0.943519  0.960577  1
  O  O46  1  0.639880  0.556481  0.460577  1
  O  O47  1  0.360120  0.056481  0.039423  1
  O  O48  1  0.401284  0.983830  0.556934  1
  O  O49  1  0.598716  0.483830  0.943066  1
  O  O50  1  0.598716  0.016170  0.443066  1
  O  O51  1  0.401284  0.516170  0.056934  1
  O  O52  1  0.729559  0.131915  0.649226  1
  O  O53  1  0.270441  0.631915  0.850774  1
  O  O54  1  0.270441  0.868085  0.350774  1
  O  O55  1  0.729559  0.368085  0.149226  1
  O  O56  1  0.612432  0.322885  0.618679  1
  O  O57  1  0.387568  0.822885  0.881321  1
  O  O58  1  0.387568  0.677115  0.381321  1
  O  O59  1  0.612432  0.177115  0.118679  1
  O  O60  1  0.725107  0.651027  0.742381  1
  O  O61  1  0.274893  0.151027  0.757619  1
  O  O62  1  0.274893  0.348973  0.257619  1
  O  O63  1  0.725107  0.848973  0.242381  1
