# generated using pymatgen
data_V6Zn3(FeO6)4
_symmetry_space_group_name_H-M   'P 1'
_cell_length_a   6.76784050
_cell_length_b   8.14257622
_cell_length_c   9.94658285
_cell_angle_alpha   105.47727901
_cell_angle_beta   104.98154527
_cell_angle_gamma   102.29179173
_symmetry_Int_Tables_number   1
_chemical_formula_structural   V6Zn3(FeO6)4
_chemical_formula_sum   'V6 Zn3 Fe4 O24'
_cell_volume   486.34765979
_cell_formula_units_Z   1
loop_
 _symmetry_equiv_pos_site_id
 _symmetry_equiv_pos_as_xyz
  1  'x, y, z'
loop_
 _atom_site_type_symbol
 _atom_site_label
 _atom_site_symmetry_multiplicity
 _atom_site_fract_x
 _atom_site_fract_y
 _atom_site_fract_z
 _atom_site_occupancy
  V  V0  1  0.895289  0.902031  0.666151  1
  V  V1  1  0.104711  0.097969  0.333849  1
  V  V2  1  0.222474  0.659323  0.270874  1
  V  V3  1  0.777527  0.340677  0.729126  1
  V  V4  1  0.595289  0.272931  0.127892  1
  V  V5  1  0.404711  0.727069  0.872108  1
  Zn  Zn6  1  0.000000  0.500000  0.500000  1
  Zn  Zn7  1  0.715027  0.708323  0.203659  1
  Zn  Zn8  1  0.284973  0.291677  0.796341  1
  Fe  Fe9  1  0.380031  0.951416  0.607560  1
  Fe  Fe10  1  0.619969  0.048584  0.392440  1
  Fe  Fe11  1  0.042525  0.209149  0.015138  1
  Fe  Fe12  1  0.957475  0.790851  0.984862  1
  O  O13  1  0.074109  0.056227  0.143880  1
  O  O14  1  0.925891  0.943773  0.856120  1
  O  O15  1  0.557424  0.136485  0.231449  1
  O  O16  1  0.442576  0.863515  0.768551  1
  O  O17  1  0.180180  0.440291  0.183260  1
  O  O18  1  0.819820  0.559709  0.816740  1
  O  O19  1  0.982921  0.277253  0.833112  1
  O  O20  1  0.017079  0.722747  0.166888  1
  O  O21  1  0.235850  0.783505  0.966351  1
  O  O22  1  0.764150  0.216495  0.033649  1
  O  O23  1  0.869821  0.973160  0.348174  1
  O  O24  1  0.130179  0.026840  0.651826  1
  O  O25  1  0.526994  0.223715  0.729178  1
  O  O26  1  0.473006  0.776285  0.270822  1
  O  O27  1  0.346281  0.253800  0.995522  1
  O  O28  1  0.653719  0.746200  0.004478  1
  O  O29  1  0.332494  0.040394  0.425864  1
  O  O30  1  0.667506  0.959606  0.574136  1
  O  O31  1  0.213773  0.698508  0.454964  1
  O  O32  1  0.786227  0.301492  0.545036  1
  O  O33  1  0.720495  0.489995  0.252838  1
  O  O34  1  0.279505  0.510005  0.747162  1
  O  O35  1  0.124412  0.312478  0.415937  1
  O  O36  1  0.875588  0.687522  0.584063  1
