# generated using pymatgen
data_Sn3PO4F3
_symmetry_space_group_name_H-M   'P 1'
_cell_length_a   7.19990361
_cell_length_b   7.19990361
_cell_length_c   7.19990361
_cell_angle_alpha   115.37341854
_cell_angle_beta   115.37341854
_cell_angle_gamma   115.37341854
_symmetry_Int_Tables_number   1
_chemical_formula_structural   Sn3PO4F3
_chemical_formula_sum   'Sn3 P1 O4 F3'
_cell_volume   201.59723833
_cell_formula_units_Z   1
loop_
 _symmetry_equiv_pos_site_id
 _symmetry_equiv_pos_as_xyz
  1  'x, y, z'
loop_
 _atom_site_type_symbol
 _atom_site_label
 _atom_site_symmetry_multiplicity
 _atom_site_fract_x
 _atom_site_fract_y
 _atom_site_fract_z
 _atom_site_occupancy
  Sn  Sn0  1  0.276683  0.627475  0.628410  1
  Sn  Sn1  1  0.628410  0.276683  0.627475  1
  Sn  Sn2  1  0.627475  0.628410  0.276683  1
  P  P3  1  0.008594  0.008594  0.008594  1
  O  O4  1  0.674619  0.674619  0.674619  1
  O  O5  1  0.964353  0.175172  0.175404  1
  O  O6  1  0.175172  0.175404  0.964353  1
  O  O7  1  0.175404  0.964353  0.175172  1
  F  F8  1  0.824507  0.484643  0.361144  1
  F  F9  1  0.361144  0.824507  0.484643  1
  F  F10  1  0.484643  0.361144  0.824507  1
