# generated using pymatgen
data_BaMo(PO4)2
_symmetry_space_group_name_H-M   'P 1'
_cell_length_a   4.97787374
_cell_length_b   4.97787374
_cell_length_c   7.98541632
_cell_angle_alpha   86.27424906
_cell_angle_beta   93.72575094
_cell_angle_gamma   114.85125894
_symmetry_Int_Tables_number   1
_chemical_formula_structural   BaMo(PO4)2
_chemical_formula_sum   'Ba1 Mo1 P2 O8'
_cell_volume   179.01521781
_cell_formula_units_Z   1
loop_
 _symmetry_equiv_pos_site_id
 _symmetry_equiv_pos_as_xyz
  1  'x, y, z'
loop_
 _atom_site_type_symbol
 _atom_site_label
 _atom_site_symmetry_multiplicity
 _atom_site_fract_x
 _atom_site_fract_y
 _atom_site_fract_z
 _atom_site_occupancy
  Ba  Ba0  1  0.000000  0.000000  0.000000  1
  Mo  Mo1  1  1.000000  0.000000  0.500000  1
  P  P2  1  0.632293  0.367707  0.288341  1
  P  P3  1  0.367707  0.632293  0.711659  1
  O  O4  1  0.233327  0.290479  0.689325  1
  O  O5  1  0.311176  0.688824  0.888475  1
  O  O6  1  0.766673  0.709521  0.310675  1
  O  O7  1  0.765972  0.234028  0.434635  1
  O  O8  1  0.234028  0.765972  0.565365  1
  O  O9  1  0.290479  0.233327  0.310675  1
  O  O10  1  0.688824  0.311176  0.111525  1
  O  O11  1  0.709521  0.766673  0.689325  1
