# generated using pymatgen
data_Li3Cu2(WO4)4
_symmetry_space_group_name_H-M   'P 1'
_cell_length_a   5.90051929
_cell_length_b   6.87444131
_cell_length_c   8.16226650
_cell_angle_alpha   70.60781984
_cell_angle_beta   77.76103118
_cell_angle_gamma   71.05547532
_symmetry_Int_Tables_number   1
_chemical_formula_structural   Li3Cu2(WO4)4
_chemical_formula_sum   'Li3 Cu2 W4 O16'
_cell_volume   293.36347047
_cell_formula_units_Z   1
loop_
 _symmetry_equiv_pos_site_id
 _symmetry_equiv_pos_as_xyz
  1  'x, y, z'
loop_
 _atom_site_type_symbol
 _atom_site_label
 _atom_site_symmetry_multiplicity
 _atom_site_fract_x
 _atom_site_fract_y
 _atom_site_fract_z
 _atom_site_occupancy
  Li  Li0  1  0.934087  0.653863  0.130622  1
  Li  Li1  1  0.063632  0.347446  0.873165  1
  Li  Li2  1  0.436421  0.144118  0.625563  1
  Cu  Cu3  1  0.001901  0.495724  0.498546  1
  Cu  Cu4  1  0.500796  0.005233  0.006831  1
  W  W5  1  0.968890  0.041347  0.298609  1
  W  W6  1  0.476797  0.548755  0.796132  1
  W  W7  1  0.526679  0.455452  0.202766  1
  W  W8  1  0.024083  0.952342  0.698380  1
  O  O9  1  0.980664  0.758850  0.320944  1
  O  O10  1  0.141828  0.638216  0.721624  1
  O  O11  1  0.852519  0.364245  0.280374  1
  O  O12  1  0.535056  0.735215  0.169850  1
  O  O13  1  0.717985  0.484790  0.941473  1
  O  O14  1  0.831941  0.912346  0.913718  1
  O  O15  1  0.674525  0.579255  0.591473  1
  O  O16  1  0.355311  0.861407  0.776140  1
  O  O17  1  0.776396  0.014718  0.558183  1
  O  O18  1  0.285227  0.515182  0.055950  1
  O  O19  1  0.038946  0.232017  0.680807  1
  O  O20  1  0.201464  0.993830  0.445914  1
  O  O21  1  0.650519  0.143529  0.211461  1
  O  O22  1  0.336238  0.402117  0.415771  1
  O  O23  1  0.163845  0.094327  0.086206  1
  O  O24  1  0.457548  0.265575  0.823397  1
