# generated using pymatgen
data_Cs3NdCl6
_symmetry_space_group_name_H-M   'P 1'
_cell_length_a   8.39529848
_cell_length_b   13.57909499
_cell_length_c   27.09991198
_cell_angle_alpha   90.00000000
_cell_angle_beta   90.00000000
_cell_angle_gamma   90.00000000
_symmetry_Int_Tables_number   1
_chemical_formula_structural   Cs3NdCl6
_chemical_formula_sum   'Cs24 Nd8 Cl48'
_cell_volume   3089.40502052
_cell_formula_units_Z   8
loop_
 _symmetry_equiv_pos_site_id
 _symmetry_equiv_pos_as_xyz
  1  'x, y, z'
loop_
 _atom_site_type_symbol
 _atom_site_label
 _atom_site_symmetry_multiplicity
 _atom_site_fract_x
 _atom_site_fract_y
 _atom_site_fract_z
 _atom_site_occupancy
  Cs  Cs0  1  0.182717  0.755607  0.837342  1
  Cs  Cs1  1  0.260628  0.085628  0.550292  1
  Cs  Cs2  1  0.739372  0.914372  0.050292  1
  Cs  Cs3  1  0.817283  0.255607  0.662658  1
  Cs  Cs4  1  0.739372  0.585628  0.949708  1
  Cs  Cs5  1  0.739372  0.914372  0.449708  1
  Cs  Cs6  1  0.309448  0.409293  0.653182  1
  Cs  Cs7  1  0.690552  0.909293  0.653182  1
  Cs  Cs8  1  0.260628  0.414372  0.449708  1
  Cs  Cs9  1  0.817283  0.244393  0.337342  1
  Cs  Cs10  1  0.260628  0.414372  0.050292  1
  Cs  Cs11  1  0.690552  0.590707  0.153182  1
  Cs  Cs12  1  0.690552  0.909293  0.846818  1
  Cs  Cs13  1  0.309448  0.409293  0.846818  1
  Cs  Cs14  1  0.309448  0.090707  0.153182  1
  Cs  Cs15  1  0.309448  0.090707  0.346818  1
  Cs  Cs16  1  0.182717  0.744393  0.337342  1
  Cs  Cs17  1  0.690552  0.590707  0.346818  1
  Cs  Cs18  1  0.739372  0.585628  0.550292  1
  Cs  Cs19  1  0.817283  0.255607  0.837342  1
  Cs  Cs20  1  0.817283  0.244393  0.162658  1
  Cs  Cs21  1  0.260628  0.085628  0.949708  1
  Cs  Cs22  1  0.182717  0.755607  0.662658  1
  Cs  Cs23  1  0.182717  0.744393  0.162658  1
  Nd  Nd24  1  0.258624  0.082240  0.750000  1
  Nd  Nd25  1  0.741376  0.582240  0.750000  1
  Nd  Nd26  1  0.787905  0.250000  0.000000  1
  Nd  Nd27  1  0.212095  0.750000  0.000000  1
  Nd  Nd28  1  0.741376  0.917760  0.250000  1
  Nd  Nd29  1  0.258624  0.417760  0.250000  1
  Nd  Nd30  1  0.787905  0.250000  0.500000  1
  Nd  Nd31  1  0.212095  0.750000  0.500000  1
  Cl  Cl32  1  0.457466  0.363451  0.326501  1
  Cl  Cl33  1  0.032739  0.319966  0.941478  1
  Cl  Cl34  1  0.436958  0.840158  0.558691  1
  Cl  Cl35  1  0.776861  0.415606  0.443083  1
  Cl  Cl36  1  0.776861  0.084394  0.556917  1
  Cl  Cl37  1  0.223139  0.584394  0.943083  1
  Cl  Cl38  1  0.563042  0.340158  0.941309  1
  Cl  Cl39  1  0.457466  0.136549  0.826501  1
  Cl  Cl40  1  0.436958  0.659842  0.058691  1
  Cl  Cl41  1  0.948466  0.525664  0.823313  1
  Cl  Cl42  1  0.599579  0.398459  0.750000  1
  Cl  Cl43  1  0.032739  0.319966  0.558522  1
  Cl  Cl44  1  0.032739  0.180034  0.058522  1
  Cl  Cl45  1  0.223139  0.584394  0.556917  1
  Cl  Cl46  1  0.032739  0.180034  0.441478  1
  Cl  Cl47  1  0.563042  0.159842  0.058691  1
  Cl  Cl48  1  0.542534  0.636549  0.826501  1
  Cl  Cl49  1  0.542534  0.863451  0.326501  1
  Cl  Cl50  1  0.563042  0.340158  0.558691  1
  Cl  Cl51  1  0.125143  0.268663  0.750000  1
  Cl  Cl52  1  0.967261  0.680034  0.058522  1
  Cl  Cl53  1  0.436958  0.659842  0.441309  1
  Cl  Cl54  1  0.776861  0.084394  0.943083  1
  Cl  Cl55  1  0.599579  0.101541  0.250000  1
  Cl  Cl56  1  0.051534  0.025664  0.676687  1
  Cl  Cl57  1  0.563042  0.159842  0.441309  1
  Cl  Cl58  1  0.967261  0.680034  0.441478  1
  Cl  Cl59  1  0.948466  0.974336  0.323313  1
  Cl  Cl60  1  0.223139  0.915606  0.056917  1
  Cl  Cl61  1  0.051534  0.474336  0.176687  1
  Cl  Cl62  1  0.400421  0.898459  0.750000  1
  Cl  Cl63  1  0.967261  0.819966  0.941478  1
  Cl  Cl64  1  0.457466  0.363451  0.173499  1
  Cl  Cl65  1  0.125143  0.231337  0.250000  1
  Cl  Cl66  1  0.967261  0.819966  0.558522  1
  Cl  Cl67  1  0.051534  0.474336  0.323313  1
  Cl  Cl68  1  0.948466  0.525664  0.676687  1
  Cl  Cl69  1  0.776861  0.415606  0.056917  1
  Cl  Cl70  1  0.874857  0.731337  0.250000  1
  Cl  Cl71  1  0.457466  0.136549  0.673499  1
  Cl  Cl72  1  0.874857  0.768663  0.750000  1
  Cl  Cl73  1  0.223139  0.915606  0.443083  1
  Cl  Cl74  1  0.542534  0.863451  0.173499  1
  Cl  Cl75  1  0.051534  0.025664  0.823313  1
  Cl  Cl76  1  0.436958  0.840158  0.941309  1
  Cl  Cl77  1  0.400421  0.601541  0.250000  1
  Cl  Cl78  1  0.948466  0.974336  0.176687  1
  Cl  Cl79  1  0.542534  0.636549  0.673499  1
