# generated using pymatgen
data_Re2(HgO2)5
_symmetry_space_group_name_H-M   'P 1'
_cell_length_a   6.61356370
_cell_length_b   11.84975744
_cell_length_c   8.49718069
_cell_angle_alpha   90.00000000
_cell_angle_beta   99.83911901
_cell_angle_gamma   90.00000000
_symmetry_Int_Tables_number   1
_chemical_formula_structural   Re2(HgO2)5
_chemical_formula_sum   'Re4 Hg10 O20'
_cell_volume   656.12195791
_cell_formula_units_Z   2
loop_
 _symmetry_equiv_pos_site_id
 _symmetry_equiv_pos_as_xyz
  1  'x, y, z'
loop_
 _atom_site_type_symbol
 _atom_site_label
 _atom_site_symmetry_multiplicity
 _atom_site_fract_x
 _atom_site_fract_y
 _atom_site_fract_z
 _atom_site_occupancy
  Re  Re0  1  0.616027  0.342510  0.516510  1
  Re  Re1  1  0.383973  0.842510  0.983490  1
  Re  Re2  1  0.383973  0.657490  0.483490  1
  Re  Re3  1  0.616027  0.157490  0.016510  1
  Hg  Hg4  1  0.998121  0.089068  0.687149  1
  Hg  Hg5  1  0.874437  0.717100  0.179389  1
  Hg  Hg6  1  0.001879  0.589068  0.812851  1
  Hg  Hg7  1  0.874437  0.782900  0.679389  1
  Hg  Hg8  1  0.125563  0.282900  0.820611  1
  Hg  Hg9  1  0.500000  0.500000  0.000000  1
  Hg  Hg10  1  0.001879  0.910932  0.312851  1
  Hg  Hg11  1  0.125563  0.217100  0.320611  1
  Hg  Hg12  1  0.998121  0.410932  0.187149  1
  Hg  Hg13  1  0.500000  0.000000  0.500000  1
  O  O14  1  0.400101  0.176084  0.107997  1
  O  O15  1  0.805251  0.551534  0.062522  1
  O  O16  1  0.298925  0.791776  0.532579  1
  O  O17  1  0.400101  0.323916  0.607997  1
  O  O18  1  0.451146  0.579497  0.659731  1
  O  O19  1  0.805251  0.948466  0.562522  1
  O  O20  1  0.599899  0.676084  0.392003  1
  O  O21  1  0.182088  0.590705  0.354803  1
  O  O22  1  0.194749  0.051534  0.437478  1
  O  O23  1  0.451146  0.920503  0.159731  1
  O  O24  1  0.298925  0.708224  0.032579  1
  O  O25  1  0.194749  0.448466  0.937478  1
  O  O26  1  0.817912  0.409295  0.645197  1
  O  O27  1  0.548854  0.079497  0.840269  1
  O  O28  1  0.701075  0.291776  0.967421  1
  O  O29  1  0.548854  0.420503  0.340269  1
  O  O30  1  0.599899  0.823916  0.892003  1
  O  O31  1  0.817912  0.090705  0.145197  1
  O  O32  1  0.701075  0.208224  0.467421  1
  O  O33  1  0.182088  0.909295  0.854803  1
