# generated using pymatgen
data_Dy2Co17
_symmetry_space_group_name_H-M   'P 1'
_cell_length_a   8.29986831
_cell_length_b   8.29986831
_cell_length_c   8.10510484
_cell_angle_alpha   90.00000000
_cell_angle_beta   90.00000000
_cell_angle_gamma   120.00000000
_symmetry_Int_Tables_number   1
_chemical_formula_structural   Dy2Co17
_chemical_formula_sum   'Dy4 Co34'
_cell_volume   483.53918239
_cell_formula_units_Z   2
loop_
 _symmetry_equiv_pos_site_id
 _symmetry_equiv_pos_as_xyz
  1  'x, y, z'
loop_
 _atom_site_type_symbol
 _atom_site_label
 _atom_site_symmetry_multiplicity
 _atom_site_fract_x
 _atom_site_fract_y
 _atom_site_fract_z
 _atom_site_occupancy
  Dy  Dy0  1  0.333333  0.666667  0.750000  1
  Dy  Dy1  1  0.000000  0.000000  0.250000  1
  Dy  Dy2  1  0.666667  0.333333  0.250000  1
  Dy  Dy3  1  0.000000  0.000000  0.750000  1
  Co  Co4  1  0.623798  0.952659  0.250000  1
  Co  Co5  1  0.671139  0.623798  0.750000  1
  Co  Co6  1  0.500000  0.000000  0.000000  1
  Co  Co7  1  0.666667  0.333333  0.607223  1
  Co  Co8  1  0.328861  0.376202  0.250000  1
  Co  Co9  1  0.166753  0.333506  0.520246  1
  Co  Co10  1  0.333506  0.166753  0.020246  1
  Co  Co11  1  0.833247  0.666494  0.479754  1
  Co  Co12  1  0.047341  0.376202  0.250000  1
  Co  Co13  1  0.328861  0.952659  0.250000  1
  Co  Co14  1  0.047341  0.671139  0.250000  1
  Co  Co15  1  0.833247  0.166753  0.020246  1
  Co  Co16  1  0.333333  0.666667  0.392777  1
  Co  Co17  1  0.623798  0.671139  0.250000  1
  Co  Co18  1  0.666494  0.833247  0.979754  1
  Co  Co19  1  0.166753  0.833247  0.979754  1
  Co  Co20  1  0.166753  0.833247  0.520246  1
  Co  Co21  1  0.666494  0.833247  0.520246  1
  Co  Co22  1  0.333333  0.666667  0.107223  1
  Co  Co23  1  0.500000  0.000000  0.500000  1
  Co  Co24  1  0.376202  0.328861  0.750000  1
  Co  Co25  1  0.500000  0.500000  0.000000  1
  Co  Co26  1  0.671139  0.047341  0.750000  1
  Co  Co27  1  0.376202  0.047341  0.750000  1
  Co  Co28  1  0.166753  0.333506  0.979754  1
  Co  Co29  1  0.666667  0.333333  0.892777  1
  Co  Co30  1  0.833247  0.166753  0.479754  1
  Co  Co31  1  0.833247  0.666494  0.020246  1
  Co  Co32  1  0.000000  0.500000  0.000000  1
  Co  Co33  1  0.952659  0.328861  0.750000  1
  Co  Co34  1  0.952659  0.623798  0.750000  1
  Co  Co35  1  0.000000  0.500000  0.500000  1
  Co  Co36  1  0.333506  0.166753  0.479754  1
  Co  Co37  1  0.500000  0.500000  0.500000  1
