# generated using pymatgen
data_Cu2BH5O6
_symmetry_space_group_name_H-M   'P 1'
_cell_length_a   5.92000045
_cell_length_b   8.83074495
_cell_length_c   9.50155582
_cell_angle_alpha   90.00000000
_cell_angle_beta   90.00000000
_cell_angle_gamma   90.00000000
_symmetry_Int_Tables_number   1
_chemical_formula_structural   Cu2BH5O6
_chemical_formula_sum   'Cu8 B4 H20 O24'
_cell_volume   496.72246892
_cell_formula_units_Z   4
loop_
 _symmetry_equiv_pos_site_id
 _symmetry_equiv_pos_as_xyz
  1  'x, y, z'
loop_
 _atom_site_type_symbol
 _atom_site_label
 _atom_site_symmetry_multiplicity
 _atom_site_fract_x
 _atom_site_fract_y
 _atom_site_fract_z
 _atom_site_occupancy
  Cu  Cu0  1  0.998994  0.423304  0.248655  1
  Cu  Cu1  1  0.001006  0.923304  0.251345  1
  Cu  Cu2  1  0.498994  0.576696  0.751345  1
  Cu  Cu3  1  0.501006  0.076696  0.748655  1
  Cu  Cu4  1  0.498994  0.923304  0.251345  1
  Cu  Cu5  1  0.501006  0.423304  0.248655  1
  Cu  Cu6  1  0.998994  0.076696  0.748655  1
  Cu  Cu7  1  0.001006  0.576696  0.751345  1
  B  B8  1  0.250000  0.169457  0.007068  1
  B  B9  1  0.750000  0.830543  0.992932  1
  B  B10  1  0.250000  0.330543  0.507068  1
  B  B11  1  0.750000  0.669457  0.492932  1
  H  H12  1  0.922859  0.172551  0.013858  1
  H  H13  1  0.750000  0.011511  0.450684  1
  H  H14  1  0.422859  0.672551  0.486142  1
  H  H15  1  0.422859  0.827449  0.986142  1
  H  H16  1  0.750000  0.216033  0.343442  1
  H  H17  1  0.750000  0.283967  0.843442  1
  H  H18  1  0.577141  0.172551  0.013858  1
  H  H19  1  0.250000  0.384163  0.848399  1
  H  H20  1  0.250000  0.115837  0.348399  1
  H  H21  1  0.750000  0.488489  0.950684  1
  H  H22  1  0.250000  0.716033  0.156558  1
  H  H23  1  0.750000  0.884163  0.651601  1
  H  H24  1  0.577141  0.327449  0.513858  1
  H  H25  1  0.250000  0.988489  0.549316  1
  H  H26  1  0.922859  0.327449  0.513858  1
  H  H27  1  0.250000  0.783967  0.656558  1
  H  H28  1  0.077141  0.827449  0.986142  1
  H  H29  1  0.750000  0.615837  0.151601  1
  H  H30  1  0.250000  0.511511  0.049316  1
  H  H31  1  0.077141  0.672551  0.486142  1
  O  O32  1  0.250000  0.528260  0.153538  1
  O  O33  1  0.250000  0.338600  0.362676  1
  O  O34  1  0.750000  0.170803  0.862043  1
  O  O35  1  0.250000  0.005563  0.365578  1
  O  O36  1  0.050075  0.176178  0.082465  1
  O  O37  1  0.750000  0.505563  0.134422  1
  O  O38  1  0.250000  0.161400  0.862676  1
  O  O39  1  0.949925  0.676178  0.417535  1
  O  O40  1  0.050075  0.323822  0.582465  1
  O  O41  1  0.550075  0.676178  0.417535  1
  O  O42  1  0.750000  0.471740  0.846462  1
  O  O43  1  0.449925  0.176178  0.082465  1
  O  O44  1  0.949925  0.823822  0.917535  1
  O  O45  1  0.250000  0.670803  0.637957  1
  O  O46  1  0.750000  0.994437  0.634422  1
  O  O47  1  0.250000  0.829197  0.137957  1
  O  O48  1  0.750000  0.838600  0.137324  1
  O  O49  1  0.449925  0.323822  0.582465  1
  O  O50  1  0.250000  0.971740  0.653538  1
  O  O51  1  0.750000  0.028260  0.346462  1
  O  O52  1  0.250000  0.494437  0.865578  1
  O  O53  1  0.750000  0.329197  0.362043  1
  O  O54  1  0.550075  0.823822  0.917535  1
  O  O55  1  0.750000  0.661400  0.637324  1
