# generated using pymatgen
data_Rb2V3O8
_symmetry_space_group_name_H-M   'P 1'
_cell_length_a   9.05429536
_cell_length_b   9.05429536
_cell_length_c   5.79995411
_cell_angle_alpha   90.00000000
_cell_angle_beta   90.00000000
_cell_angle_gamma   90.00000000
_symmetry_Int_Tables_number   1
_chemical_formula_structural   Rb2V3O8
_chemical_formula_sum   'Rb4 V6 O16'
_cell_volume   475.48177183
_cell_formula_units_Z   2
loop_
 _symmetry_equiv_pos_site_id
 _symmetry_equiv_pos_as_xyz
  1  'x, y, z'
loop_
 _atom_site_type_symbol
 _atom_site_label
 _atom_site_symmetry_multiplicity
 _atom_site_fract_x
 _atom_site_fract_y
 _atom_site_fract_z
 _atom_site_occupancy
  Rb  Rb0  1  0.170133  0.670133  0.999189  1
  Rb  Rb1  1  0.670133  0.829867  0.999189  1
  Rb  Rb2  1  0.329867  0.170133  0.999189  1
  Rb  Rb3  1  0.829867  0.329867  0.999189  1
  V  V4  1  0.366172  0.866172  0.526223  1
  V  V5  1  0.866172  0.633828  0.526223  1
  V  V6  1  0.133828  0.366172  0.526223  1
  V  V7  1  0.633828  0.133828  0.526223  1
  V  V8  1  0.500000  0.500000  0.532483  1
  V  V9  1  0.000000  0.000000  0.532483  1
  O  O10  1  0.500000  0.500000  0.249143  1
  O  O11  1  0.000000  0.000000  0.249143  1
  O  O12  1  0.807298  0.085237  0.633379  1
  O  O13  1  0.192702  0.914763  0.633379  1
  O  O14  1  0.914763  0.807298  0.633379  1
  O  O15  1  0.085237  0.192702  0.633379  1
  O  O16  1  0.414763  0.692702  0.633379  1
  O  O17  1  0.692702  0.585237  0.633379  1
  O  O18  1  0.307298  0.414763  0.633379  1
  O  O19  1  0.585237  0.307298  0.633379  1
  O  O20  1  0.500000  0.000000  0.638719  1
  O  O21  1  0.000000  0.500000  0.638719  1
  O  O22  1  0.630868  0.130868  0.238806  1
  O  O23  1  0.130868  0.369132  0.238806  1
  O  O24  1  0.869132  0.630868  0.238806  1
  O  O25  1  0.369132  0.869132  0.238806  1
