# generated using pymatgen
data_Cs3Ru2Cl9
_symmetry_space_group_name_H-M   'P 1'
_cell_length_a   7.50720332
_cell_length_b   7.50720332
_cell_length_c   17.98105383
_cell_angle_alpha   90.00000000
_cell_angle_beta   90.00000000
_cell_angle_gamma   120.00000000
_symmetry_Int_Tables_number   1
_chemical_formula_structural   Cs3Ru2Cl9
_chemical_formula_sum   'Cs6 Ru4 Cl18'
_cell_volume   877.61114373
_cell_formula_units_Z   2
loop_
 _symmetry_equiv_pos_site_id
 _symmetry_equiv_pos_as_xyz
  1  'x, y, z'
loop_
 _atom_site_type_symbol
 _atom_site_label
 _atom_site_symmetry_multiplicity
 _atom_site_fract_x
 _atom_site_fract_y
 _atom_site_fract_z
 _atom_site_occupancy
  Cs  Cs0  1  0.000000  0.000000  0.250000  1
  Cs  Cs1  1  0.000000  0.000000  0.750000  1
  Cs  Cs2  1  0.333333  0.666667  0.071565  1
  Cs  Cs3  1  0.666667  0.333333  0.571565  1
  Cs  Cs4  1  0.666667  0.333333  0.928435  1
  Cs  Cs5  1  0.333333  0.666667  0.428435  1
  Ru  Ru6  1  0.333333  0.666667  0.824307  1
  Ru  Ru7  1  0.666667  0.333333  0.324307  1
  Ru  Ru8  1  0.666667  0.333333  0.175693  1
  Ru  Ru9  1  0.333333  0.666667  0.675693  1
  Cl  Cl10  1  0.512802  0.025604  0.250000  1
  Cl  Cl11  1  0.487198  0.512802  0.750000  1
  Cl  Cl12  1  0.025604  0.512802  0.750000  1
  Cl  Cl13  1  0.974396  0.487198  0.250000  1
  Cl  Cl14  1  0.512802  0.487198  0.250000  1
  Cl  Cl15  1  0.487198  0.974396  0.750000  1
  Cl  Cl16  1  0.814699  0.629398  0.099308  1
  Cl  Cl17  1  0.185301  0.814699  0.599308  1
  Cl  Cl18  1  0.629398  0.814699  0.599308  1
  Cl  Cl19  1  0.370602  0.185301  0.099308  1
  Cl  Cl20  1  0.814699  0.185301  0.099308  1
  Cl  Cl21  1  0.185301  0.370602  0.900692  1
  Cl  Cl22  1  0.185301  0.814699  0.900692  1
  Cl  Cl23  1  0.185301  0.370602  0.599308  1
  Cl  Cl24  1  0.629398  0.814699  0.900692  1
  Cl  Cl25  1  0.370602  0.185301  0.400692  1
  Cl  Cl26  1  0.814699  0.629398  0.400692  1
  Cl  Cl27  1  0.814699  0.185301  0.400692  1
