# generated using pymatgen
data_CdTeMoO6
_symmetry_space_group_name_H-M   'P 1'
_cell_length_a   5.36157435
_cell_length_b   5.36157435
_cell_length_c   9.34555881
_cell_angle_alpha   90.00000000
_cell_angle_beta   90.00000000
_cell_angle_gamma   90.00000000
_symmetry_Int_Tables_number   1
_chemical_formula_structural   CdTeMoO6
_chemical_formula_sum   'Cd2 Te2 Mo2 O12'
_cell_volume   268.65191485
_cell_formula_units_Z   2
loop_
 _symmetry_equiv_pos_site_id
 _symmetry_equiv_pos_as_xyz
  1  'x, y, z'
loop_
 _atom_site_type_symbol
 _atom_site_label
 _atom_site_symmetry_multiplicity
 _atom_site_fract_x
 _atom_site_fract_y
 _atom_site_fract_z
 _atom_site_occupancy
  Cd  Cd0  1  0.000000  0.000000  0.500000  1
  Cd  Cd1  1  0.500000  0.500000  0.500000  1
  Te  Te2  1  0.000000  0.500000  0.755509  1
  Te  Te3  1  0.500000  0.000000  0.244491  1
  Mo  Mo4  1  0.000000  0.500000  0.186355  1
  Mo  Mo5  1  0.500000  0.000000  0.813645  1
  O  O6  1  0.817943  0.682057  0.072904  1
  O  O7  1  0.182057  0.317943  0.072904  1
  O  O8  1  0.308031  0.191969  0.377721  1
  O  O9  1  0.691969  0.808031  0.377721  1
  O  O10  1  0.718803  0.781197  0.714581  1
  O  O11  1  0.281197  0.218803  0.714581  1
  O  O12  1  0.191969  0.691969  0.622279  1
  O  O13  1  0.781197  0.281197  0.285419  1
  O  O14  1  0.808031  0.308031  0.622279  1
  O  O15  1  0.317943  0.817943  0.927096  1
  O  O16  1  0.682057  0.182057  0.927096  1
  O  O17  1  0.218803  0.718803  0.285419  1
