# generated using pymatgen
data_NaFeF4
_symmetry_space_group_name_H-M   'P 1'
_cell_length_a   7.63793343
_cell_length_b   5.41371983
_cell_length_c   7.97294285
_cell_angle_alpha   90.00000000
_cell_angle_beta   101.57700561
_cell_angle_gamma   90.00000000
_symmetry_Int_Tables_number   1
_chemical_formula_structural   NaFeF4
_chemical_formula_sum   'Na4 Fe4 F16'
_cell_volume   322.97123288
_cell_formula_units_Z   4
loop_
 _symmetry_equiv_pos_site_id
 _symmetry_equiv_pos_as_xyz
  1  'x, y, z'
loop_
 _atom_site_type_symbol
 _atom_site_label
 _atom_site_symmetry_multiplicity
 _atom_site_fract_x
 _atom_site_fract_y
 _atom_site_fract_z
 _atom_site_occupancy
  Na  Na0  1  0.884724  0.220735  0.641956  1
  Na  Na1  1  0.615276  0.720735  0.358044  1
  Na  Na2  1  0.115276  0.779265  0.358044  1
  Na  Na3  1  0.384724  0.279265  0.641956  1
  Fe  Fe4  1  0.698136  0.743119  0.827874  1
  Fe  Fe5  1  0.801864  0.243119  0.172126  1
  Fe  Fe6  1  0.301864  0.256881  0.172126  1
  Fe  Fe7  1  0.198136  0.756881  0.827874  1
  F  F8  1  0.122044  0.475937  0.691105  1
  F  F9  1  0.377956  0.975937  0.308895  1
  F  F10  1  0.877956  0.524063  0.308895  1
  F  F11  1  0.622044  0.024063  0.691105  1
  F  F12  1  0.186382  0.953458  0.625965  1
  F  F13  1  0.313618  0.453458  0.374035  1
  F  F14  1  0.813618  0.046542  0.374035  1
  F  F15  1  0.686382  0.546542  0.625965  1
  F  F16  1  0.948687  0.858851  0.831165  1
  F  F17  1  0.551313  0.358851  0.168835  1
  F  F18  1  0.051313  0.141149  0.168835  1
  F  F19  1  0.448687  0.641149  0.831165  1
  F  F20  1  0.792104  0.437928  0.958389  1
  F  F21  1  0.707896  0.937928  0.041611  1
  F  F22  1  0.207896  0.562072  0.041611  1
  F  F23  1  0.292104  0.062072  0.958389  1
