# generated using pymatgen
data_LiEr2S2O8F3
_symmetry_space_group_name_H-M   'P 1'
_cell_length_a   6.40610720
_cell_length_b   8.17286366
_cell_length_c   14.80236858
_cell_angle_alpha   90.00000000
_cell_angle_beta   90.00000000
_cell_angle_gamma   90.00000000
_symmetry_Int_Tables_number   1
_chemical_formula_structural   LiEr2S2O8F3
_chemical_formula_sum   'Li4 Er8 S8 O32 F12'
_cell_volume   774.99637285
_cell_formula_units_Z   4
loop_
 _symmetry_equiv_pos_site_id
 _symmetry_equiv_pos_as_xyz
  1  'x, y, z'
loop_
 _atom_site_type_symbol
 _atom_site_label
 _atom_site_symmetry_multiplicity
 _atom_site_fract_x
 _atom_site_fract_y
 _atom_site_fract_z
 _atom_site_occupancy
  Li  Li0  1  0.630446  0.750000  0.000000  1
  Li  Li1  1  0.130446  0.750000  0.500000  1
  Li  Li2  1  0.369554  0.250000  0.000000  1
  Li  Li3  1  0.869554  0.250000  0.500000  1
  Er  Er4  1  0.608148  0.634085  0.601493  1
  Er  Er5  1  0.891852  0.134085  0.898507  1
  Er  Er6  1  0.608148  0.865915  0.398507  1
  Er  Er7  1  0.391852  0.134085  0.601493  1
  Er  Er8  1  0.891852  0.365915  0.101493  1
  Er  Er9  1  0.108148  0.865915  0.101493  1
  Er  Er10  1  0.391852  0.365915  0.398507  1
  Er  Er11  1  0.108148  0.634085  0.898507  1
  S  S12  1  0.393024  0.505256  0.164502  1
  S  S13  1  0.606976  0.005256  0.164502  1
  S  S14  1  0.893024  0.505256  0.335498  1
  S  S15  1  0.106976  0.494744  0.664502  1
  S  S16  1  0.106976  0.005256  0.335498  1
  S  S17  1  0.893024  0.994744  0.664502  1
  S  S18  1  0.606976  0.494744  0.835498  1
  S  S19  1  0.393024  0.994744  0.835498  1
  O  O20  1  0.435783  0.065484  0.745680  1
  O  O21  1  0.593418  0.975474  0.885734  1
  O  O22  1  0.406582  0.475474  0.885734  1
  O  O23  1  0.242069  0.608834  0.610332  1
  O  O24  1  0.435783  0.434516  0.254320  1
  O  O25  1  0.564217  0.565484  0.745680  1
  O  O26  1  0.064217  0.565484  0.754320  1
  O  O27  1  0.064217  0.934516  0.245680  1
  O  O28  1  0.757931  0.108834  0.610332  1
  O  O29  1  0.210772  0.164822  0.323809  1
  O  O30  1  0.935783  0.434516  0.245680  1
  O  O31  1  0.906582  0.475474  0.614266  1
  O  O32  1  0.710772  0.164822  0.176191  1
  O  O33  1  0.710772  0.335178  0.823809  1
  O  O34  1  0.406582  0.024526  0.114266  1
  O  O35  1  0.742069  0.891166  0.110332  1
  O  O36  1  0.289228  0.835178  0.823809  1
  O  O37  1  0.289228  0.664822  0.176191  1
  O  O38  1  0.935783  0.065484  0.754320  1
  O  O39  1  0.564217  0.934516  0.254320  1
  O  O40  1  0.257931  0.108834  0.889668  1
  O  O41  1  0.789228  0.664822  0.323809  1
  O  O42  1  0.210772  0.335178  0.676191  1
  O  O43  1  0.242069  0.891166  0.389668  1
  O  O44  1  0.257931  0.391166  0.110332  1
  O  O45  1  0.593418  0.524526  0.114266  1
  O  O46  1  0.093418  0.975474  0.614266  1
  O  O47  1  0.742069  0.608834  0.889668  1
  O  O48  1  0.906582  0.024526  0.385734  1
  O  O49  1  0.789228  0.835178  0.676191  1
  O  O50  1  0.093418  0.524526  0.385734  1
  O  O51  1  0.757931  0.391166  0.389668  1
  F  F52  1  0.036330  0.375113  0.948871  1
  F  F53  1  0.963670  0.875113  0.948871  1
  F  F54  1  0.963670  0.624887  0.051129  1
  F  F55  1  0.676424  0.250000  0.000000  1
  F  F56  1  0.036330  0.124887  0.051129  1
  F  F57  1  0.536330  0.375113  0.551129  1
  F  F58  1  0.323576  0.750000  0.000000  1
  F  F59  1  0.536330  0.124887  0.448871  1
  F  F60  1  0.823576  0.750000  0.500000  1
  F  F61  1  0.463670  0.875113  0.551129  1
  F  F62  1  0.176424  0.250000  0.500000  1
  F  F63  1  0.463670  0.624887  0.448871  1
