# generated using pymatgen
data_Mg3Si8Ir3
_symmetry_space_group_name_H-M   'P 1'
_cell_length_a   8.68085266
_cell_length_b   8.68085266
_cell_length_c   8.68085266
_cell_angle_alpha   60.00000000
_cell_angle_beta   60.00000000
_cell_angle_gamma   60.00000000
_symmetry_Int_Tables_number   1
_chemical_formula_structural   Mg3Si8Ir3
_chemical_formula_sum   'Mg6 Si16 Ir6'
_cell_volume   462.56434872
_cell_formula_units_Z   2
loop_
 _symmetry_equiv_pos_site_id
 _symmetry_equiv_pos_as_xyz
  1  'x, y, z'
loop_
 _atom_site_type_symbol
 _atom_site_label
 _atom_site_symmetry_multiplicity
 _atom_site_fract_x
 _atom_site_fract_y
 _atom_site_fract_z
 _atom_site_occupancy
  Mg  Mg0  1  0.399659  0.801024  0.399659  1
  Mg  Mg1  1  0.801024  0.399659  0.399659  1
  Mg  Mg2  1  0.399659  0.399659  0.801024  1
  Mg  Mg3  1  0.750000  0.750000  0.750000  1
  Mg  Mg4  1  0.399659  0.399659  0.399659  1
  Mg  Mg5  1  0.000000  0.000000  0.000000  1
  Si  Si6  1  0.779480  0.081187  0.779480  1
  Si  Si7  1  0.175913  0.175913  0.175913  1
  Si  Si8  1  0.081187  0.779480  0.359853  1
  Si  Si9  1  0.359853  0.081187  0.779480  1
  Si  Si10  1  0.779480  0.359853  0.081187  1
  Si  Si11  1  0.779480  0.779480  0.081187  1
  Si  Si12  1  0.779480  0.359853  0.779480  1
  Si  Si13  1  0.359853  0.779480  0.779480  1
  Si  Si14  1  0.175913  0.175913  0.472260  1
  Si  Si15  1  0.081187  0.359853  0.779480  1
  Si  Si16  1  0.081187  0.779480  0.779480  1
  Si  Si17  1  0.779480  0.779480  0.359853  1
  Si  Si18  1  0.779480  0.081187  0.359853  1
  Si  Si19  1  0.472260  0.175913  0.175913  1
  Si  Si20  1  0.359853  0.779480  0.081187  1
  Si  Si21  1  0.175913  0.472260  0.175913  1
  Ir  Ir22  1  0.005012  0.494988  0.494988  1
  Ir  Ir23  1  0.005012  0.005012  0.494988  1
  Ir  Ir24  1  0.005012  0.494988  0.005012  1
  Ir  Ir25  1  0.494988  0.005012  0.494988  1
  Ir  Ir26  1  0.494988  0.494988  0.005012  1
  Ir  Ir27  1  0.494988  0.005012  0.005012  1
