# generated using pymatgen
data_PaBr3O
_symmetry_space_group_name_H-M   'P 1'
_cell_length_a   9.27975381
_cell_length_b   9.27975381
_cell_length_c   10.04220953
_cell_angle_alpha   64.80389920
_cell_angle_beta   115.19610080
_cell_angle_gamma   154.87657666
_symmetry_Int_Tables_number   1
_chemical_formula_structural   PaBr3O
_chemical_formula_sum   'Pa2 Br6 O2'
_cell_volume   330.39298950
_cell_formula_units_Z   2
loop_
 _symmetry_equiv_pos_site_id
 _symmetry_equiv_pos_as_xyz
  1  'x, y, z'
loop_
 _atom_site_type_symbol
 _atom_site_label
 _atom_site_symmetry_multiplicity
 _atom_site_fract_x
 _atom_site_fract_y
 _atom_site_fract_z
 _atom_site_occupancy
  Pa  Pa0  1  0.196392  0.803608  0.323529  1
  Pa  Pa1  1  0.803608  0.196392  0.676471  1
  Br  Br2  1  0.054573  0.945427  0.345886  1
  Br  Br3  1  0.945427  0.054573  0.654114  1
  Br  Br4  1  0.325712  0.674288  0.261575  1
  Br  Br5  1  0.674288  0.325712  0.738425  1
  Br  Br6  1  0.620800  0.379200  0.085847  1
  Br  Br7  1  0.379200  0.620800  0.914153  1
  O  O8  1  0.728579  0.271421  0.418990  1
  O  O9  1  0.271421  0.728579  0.581010  1
