# generated using pymatgen
data_CsHg5Cl11
_symmetry_space_group_name_H-M   'P 1'
_cell_length_a   9.71804904
_cell_length_b   9.71804904
_cell_length_c   6.94094513
_cell_angle_alpha   71.09584601
_cell_angle_beta   108.90415399
_cell_angle_gamma   80.02020921
_symmetry_Int_Tables_number   1
_chemical_formula_structural   CsHg5Cl11
_chemical_formula_sum   'Cs1 Hg5 Cl11'
_cell_volume   557.62398076
_cell_formula_units_Z   1
loop_
 _symmetry_equiv_pos_site_id
 _symmetry_equiv_pos_as_xyz
  1  'x, y, z'
loop_
 _atom_site_type_symbol
 _atom_site_label
 _atom_site_symmetry_multiplicity
 _atom_site_fract_x
 _atom_site_fract_y
 _atom_site_fract_z
 _atom_site_occupancy
  Cs  Cs0  1  0.000000  0.000000  0.000000  1
  Hg  Hg1  1  0.015937  0.650275  0.682145  1
  Hg  Hg2  1  0.500000  0.500000  0.000000  1
  Hg  Hg3  1  0.984063  0.349725  0.317855  1
  Hg  Hg4  1  0.650275  0.015937  0.317855  1
  Hg  Hg5  1  0.349725  0.984063  0.682145  1
  Cl  Cl6  1  0.831869  0.418636  0.941868  1
  Cl  Cl7  1  0.139864  0.299385  0.686756  1
  Cl  Cl8  1  0.700615  0.860136  0.686756  1
  Cl  Cl9  1  0.000000  0.000000  0.500000  1
  Cl  Cl10  1  0.860136  0.700615  0.313244  1
  Cl  Cl11  1  0.581364  0.168131  0.941868  1
  Cl  Cl12  1  0.646567  0.353433  0.378763  1
  Cl  Cl13  1  0.353433  0.646567  0.621237  1
  Cl  Cl14  1  0.418636  0.831869  0.058132  1
  Cl  Cl15  1  0.299385  0.139864  0.313244  1
  Cl  Cl16  1  0.168131  0.581364  0.058132  1
