# generated using pymatgen
data_AlH3
_symmetry_space_group_name_H-M   'P 1'
_cell_length_a   5.45292738
_cell_length_b   5.79127362
_cell_length_c   7.40960926
_cell_angle_alpha   90.00000000
_cell_angle_beta   90.00000000
_cell_angle_gamma   90.00000000
_symmetry_Int_Tables_number   1
_chemical_formula_structural   AlH3
_chemical_formula_sum   'Al6 H18'
_cell_volume   233.99097382
_cell_formula_units_Z   6
loop_
 _symmetry_equiv_pos_site_id
 _symmetry_equiv_pos_as_xyz
  1  'x, y, z'
loop_
 _atom_site_type_symbol
 _atom_site_label
 _atom_site_symmetry_multiplicity
 _atom_site_fract_x
 _atom_site_fract_y
 _atom_site_fract_z
 _atom_site_occupancy
  Al  Al0  1  0.211711  0.000000  0.915477  1
  Al  Al1  1  0.788289  0.000000  0.084523  1
  Al  Al2  1  0.711711  0.500000  0.584523  1
  Al  Al3  1  0.000000  0.500000  0.000000  1
  Al  Al4  1  0.288289  0.500000  0.415477  1
  Al  Al5  1  0.500000  0.000000  0.500000  1
  H  H6  1  0.797059  0.298613  0.082400  1
  H  H7  1  0.096739  0.000000  0.139097  1
  H  H8  1  0.827167  0.500000  0.799455  1
  H  H9  1  0.202941  0.298613  0.917600  1
  H  H10  1  0.672833  0.000000  0.299455  1
  H  H11  1  0.596739  0.500000  0.360903  1
  H  H12  1  0.702941  0.201387  0.582400  1
  H  H13  1  0.403261  0.500000  0.639097  1
  H  H14  1  0.172833  0.500000  0.200545  1
  H  H15  1  0.500000  0.000000  0.000000  1
  H  H16  1  0.903261  0.000000  0.860903  1
  H  H17  1  0.327167  0.000000  0.700545  1
  H  H18  1  0.297059  0.201387  0.417600  1
  H  H19  1  0.702941  0.798613  0.582400  1
  H  H20  1  0.202941  0.701387  0.917600  1
  H  H21  1  0.297059  0.798613  0.417600  1
  H  H22  1  0.797059  0.701387  0.082400  1
  H  H23  1  0.000000  0.500000  0.500000  1
