# generated using pymatgen
data_GdH6C4NO9
_symmetry_space_group_name_H-M   'P 1'
_cell_length_a   7.95256049
_cell_length_b   6.15088059
_cell_length_c   12.38013191
_cell_angle_alpha   90.00000000
_cell_angle_beta   129.55942460
_cell_angle_gamma   90.00000000
_symmetry_Int_Tables_number   1
_chemical_formula_structural   GdH6C4NO9
_chemical_formula_sum   'Gd2 H12 C8 N2 O18'
_cell_volume   466.87853324
_cell_formula_units_Z   2
loop_
 _symmetry_equiv_pos_site_id
 _symmetry_equiv_pos_as_xyz
  1  'x, y, z'
loop_
 _atom_site_type_symbol
 _atom_site_label
 _atom_site_symmetry_multiplicity
 _atom_site_fract_x
 _atom_site_fract_y
 _atom_site_fract_z
 _atom_site_occupancy
  Gd  Gd0  1  0.500000  0.603680  0.750000  1
  Gd  Gd1  1  0.500000  0.396320  0.250000  1
  H  H2  1  0.035336  0.919709  0.697446  1
  H  H3  1  0.604972  0.085276  0.830272  1
  H  H4  1  0.866718  0.885444  0.178514  1
  H  H5  1  0.395028  0.085276  0.669728  1
  H  H6  1  0.964664  0.919709  0.802554  1
  H  H7  1  0.395028  0.914724  0.169728  1
  H  H8  1  0.866718  0.114556  0.678514  1
  H  H9  1  0.604972  0.914724  0.330272  1
  H  H10  1  0.035336  0.080291  0.197446  1
  H  H11  1  0.964664  0.080291  0.302554  1
  H  H12  1  0.133282  0.885444  0.321486  1
  H  H13  1  0.133282  0.114556  0.821486  1
  C  C14  1  0.420369  0.404422  0.957493  1
  C  C15  1  0.579631  0.404422  0.542507  1
  C  C16  1  0.033105  0.610382  0.986802  1
  C  C17  1  0.966895  0.389618  0.013198  1
  C  C18  1  0.033105  0.389618  0.486802  1
  C  C19  1  0.966895  0.610382  0.513198  1
  C  C20  1  0.420369  0.595578  0.457493  1
  C  C21  1  0.579631  0.595578  0.042507  1
  N  N22  1  0.000000  0.016505  0.750000  1
  N  N23  1  0.000000  0.983495  0.250000  1
  O  O24  1  0.336754  0.388838  0.830229  1
  O  O25  1  0.882594  0.722850  0.882694  1
  O  O26  1  0.766826  0.339096  0.929226  1
  O  O27  1  0.117406  0.277150  0.117306  1
  O  O28  1  0.382957  0.276664  0.020554  1
  O  O29  1  0.336754  0.611162  0.330229  1
  O  O30  1  0.382957  0.723336  0.520554  1
  O  O31  1  0.233174  0.660904  0.070774  1
  O  O32  1  0.766826  0.660904  0.429226  1
  O  O33  1  0.617043  0.723336  0.979446  1
  O  O34  1  0.882594  0.277150  0.382694  1
  O  O35  1  0.233174  0.339096  0.570774  1
  O  O36  1  0.663246  0.388838  0.669771  1
  O  O37  1  0.117406  0.722850  0.617306  1
  O  O38  1  0.500000  0.990424  0.750000  1
  O  O39  1  0.500000  0.009576  0.250000  1
  O  O40  1  0.663246  0.611162  0.169771  1
  O  O41  1  0.617043  0.276664  0.479446  1
