# generated using pymatgen
data_Tb11S16
_symmetry_space_group_name_H-M   'P 1'
_cell_length_a   8.31163826
_cell_length_b   8.36931145
_cell_length_c   16.80289366
_cell_angle_alpha   90.00000000
_cell_angle_beta   90.00000000
_cell_angle_gamma   90.00000000
_symmetry_Int_Tables_number   1
_chemical_formula_structural   Tb11S16
_chemical_formula_sum   'Tb22 S32'
_cell_volume   1168.85446997
_cell_formula_units_Z   2
loop_
 _symmetry_equiv_pos_site_id
 _symmetry_equiv_pos_as_xyz
  1  'x, y, z'
loop_
 _atom_site_type_symbol
 _atom_site_label
 _atom_site_symmetry_multiplicity
 _atom_site_fract_x
 _atom_site_fract_y
 _atom_site_fract_z
 _atom_site_occupancy
  Tb  Tb0  1  0.256590  0.361046  0.879579  1
  Tb  Tb1  1  0.500146  0.750301  0.818967  1
  Tb  Tb2  1  0.732861  0.124118  0.877803  1
  Tb  Tb3  1  0.019286  0.756121  0.938524  1
  Tb  Tb4  1  0.732861  0.875882  0.122197  1
  Tb  Tb5  1  0.628970  0.500000  0.000000  1
  Tb  Tb6  1  0.019286  0.243879  0.061476  1
  Tb  Tb7  1  0.256590  0.638954  0.120421  1
  Tb  Tb8  1  0.500146  0.249699  0.181033  1
  Tb  Tb9  1  0.267139  0.375882  0.377803  1
  Tb  Tb10  1  0.879379  0.495850  0.250013  1
  Tb  Tb11  1  0.120621  0.995850  0.249987  1
  Tb  Tb12  1  0.499854  0.749699  0.318967  1
  Tb  Tb13  1  0.743410  0.138954  0.379579  1
  Tb  Tb14  1  0.980714  0.743879  0.438524  1
  Tb  Tb15  1  0.743410  0.861046  0.620421  1
  Tb  Tb16  1  0.371030  0.000000  0.500000  1
  Tb  Tb17  1  0.980714  0.256121  0.561476  1
  Tb  Tb18  1  0.267139  0.624118  0.622197  1
  Tb  Tb19  1  0.499854  0.250301  0.681033  1
  Tb  Tb20  1  0.879379  0.504150  0.749987  1
  Tb  Tb21  1  0.120621  0.004150  0.750013  1
  S  S22  1  0.180013  0.683793  0.783195  1
  S  S23  1  0.420182  0.073308  0.830900  1
  S  S24  1  0.937263  0.438055  0.909987  1
  S  S25  1  0.575784  0.426067  0.841602  1
  S  S26  1  0.056559  0.076862  0.907523  1
  S  S27  1  0.818201  0.826462  0.783026  1
  S  S28  1  0.695964  0.183977  0.037680  1
  S  S29  1  0.695964  0.816023  0.962320  1
  S  S30  1  0.937263  0.561945  0.090013  1
  S  S31  1  0.333167  0.671001  0.960605  1
  S  S32  1  0.420182  0.926692  0.169100  1
  S  S33  1  0.056559  0.923138  0.092477  1
  S  S34  1  0.575784  0.573933  0.158398  1
  S  S35  1  0.333167  0.328999  0.039395  1
  S  S36  1  0.181799  0.673538  0.283026  1
  S  S37  1  0.180013  0.316207  0.216805  1
  S  S38  1  0.424216  0.073933  0.341602  1
  S  S39  1  0.818201  0.173538  0.216974  1
  S  S40  1  0.943441  0.423138  0.407523  1
  S  S41  1  0.579818  0.426692  0.330900  1
  S  S42  1  0.062737  0.061945  0.409987  1
  S  S43  1  0.819987  0.816207  0.283195  1
  S  S44  1  0.666833  0.171001  0.539395  1
  S  S45  1  0.666833  0.828999  0.460605  1
  S  S46  1  0.943441  0.576862  0.592477  1
  S  S47  1  0.304036  0.683977  0.462320  1
  S  S48  1  0.424216  0.926067  0.658398  1
  S  S49  1  0.062737  0.938055  0.590013  1
  S  S50  1  0.579818  0.573308  0.669100  1
  S  S51  1  0.304036  0.316023  0.537680  1
  S  S52  1  0.181799  0.326462  0.716974  1
  S  S53  1  0.819987  0.183793  0.716805  1
