# generated using pymatgen
data_MnNb3O6
_symmetry_space_group_name_H-M   'P 1'
_cell_length_a   7.09530740
_cell_length_b   7.09530740
_cell_length_c   7.09530740
_cell_angle_alpha   124.35204101
_cell_angle_beta   119.33495623
_cell_angle_gamma   86.89358786
_symmetry_Int_Tables_number   1
_chemical_formula_structural   MnNb3O6
_chemical_formula_sum   'Mn2 Nb6 O12'
_cell_volume   244.52057012
_cell_formula_units_Z   2
loop_
 _symmetry_equiv_pos_site_id
 _symmetry_equiv_pos_as_xyz
  1  'x, y, z'
loop_
 _atom_site_type_symbol
 _atom_site_label
 _atom_site_symmetry_multiplicity
 _atom_site_fract_x
 _atom_site_fract_y
 _atom_site_fract_z
 _atom_site_occupancy
  Mn  Mn0  1  0.000000  0.747845  0.747845  1
  Mn  Mn1  1  0.000000  0.252155  0.252155  1
  Nb  Nb2  1  0.500000  0.801222  0.301222  1
  Nb  Nb3  1  0.500000  0.198778  0.698778  1
  Nb  Nb4  1  0.501497  0.222321  0.279176  1
  Nb  Nb5  1  0.498503  0.777679  0.720824  1
  Nb  Nb6  1  0.056856  0.777679  0.279176  1
  Nb  Nb7  1  0.943144  0.222321  0.720824  1
  O  O8  1  0.855475  0.855475  0.000000  1
  O  O9  1  0.144525  0.144525  0.000000  1
  O  O10  1  0.850517  0.350517  0.500000  1
  O  O11  1  0.149483  0.649483  0.500000  1
  O  O12  1  0.829806  0.857622  0.418593  1
  O  O13  1  0.170194  0.588787  0.027816  1
  O  O14  1  0.560971  0.142378  0.972184  1
  O  O15  1  0.439029  0.411213  0.581407  1
  O  O16  1  0.170194  0.142378  0.581407  1
  O  O17  1  0.829806  0.411213  0.972184  1
  O  O18  1  0.439029  0.857622  0.027816  1
  O  O19  1  0.560971  0.588787  0.418593  1
