# generated using pymatgen
data_Mn(PO3)3
_symmetry_space_group_name_H-M   'P 1'
_cell_length_a   6.66403621
_cell_length_b   6.66403621
_cell_length_c   9.76574667
_cell_angle_alpha   87.40651810
_cell_angle_beta   92.59348190
_cell_angle_gamma   120.46619120
_symmetry_Int_Tables_number   1
_chemical_formula_structural   Mn(PO3)3
_chemical_formula_sum   'Mn2 P6 O18'
_cell_volume   373.30219121
_cell_formula_units_Z   2
loop_
 _symmetry_equiv_pos_site_id
 _symmetry_equiv_pos_as_xyz
  1  'x, y, z'
loop_
 _atom_site_type_symbol
 _atom_site_label
 _atom_site_symmetry_multiplicity
 _atom_site_fract_x
 _atom_site_fract_y
 _atom_site_fract_z
 _atom_site_occupancy
  Mn  Mn0  1  0.678002  0.344395  0.500048  1
  Mn  Mn1  1  0.655605  0.321998  0.000048  1
  P  P2  1  0.782821  0.719969  0.252193  1
  P  P3  1  0.929216  0.710068  0.750393  1
  P  P4  1  0.280031  0.217179  0.752193  1
  P  P5  1  0.289932  0.070784  0.250393  1
  P  P6  1  0.942394  0.226748  0.247297  1
  P  P7  1  0.773252  0.057606  0.747297  1
  O  O8  1  0.180133  0.939373  0.756887  1
  O  O9  1  0.060627  0.819867  0.256887  1
  O  O10  1  0.676096  0.594052  0.123275  1
  O  O11  1  0.683254  0.593091  0.387190  1
  O  O12  1  0.405948  0.323904  0.623275  1
  O  O13  1  0.406909  0.316746  0.887190  1
  O  O14  1  0.897968  0.576987  0.883721  1
  O  O15  1  0.915846  0.587781  0.621223  1
  O  O16  1  0.764152  0.949567  0.254873  1
  O  O17  1  0.752588  0.807713  0.738073  1
  O  O18  1  0.932351  0.335866  0.374305  1
  O  O19  1  0.423013  0.102032  0.383721  1
  O  O20  1  0.905965  0.321940  0.110533  1
  O  O21  1  0.412219  0.084154  0.121223  1
  O  O22  1  0.678060  0.094035  0.610533  1
  O  O23  1  0.664134  0.067649  0.874305  1
  O  O24  1  0.050433  0.235848  0.754873  1
  O  O25  1  0.192287  0.247412  0.238073  1
