# generated using pymatgen
data_Cs4Pr6C2I13
_symmetry_space_group_name_H-M   'P 1'
_cell_length_a   14.46666548
_cell_length_b   14.46666548
_cell_length_c   14.46666548
_cell_angle_alpha   101.39866376
_cell_angle_beta   101.39866376
_cell_angle_gamma   127.20949040
_symmetry_Int_Tables_number   1
_chemical_formula_structural   Cs4Pr6C2I13
_chemical_formula_sum   'Cs8 Pr12 C4 I26'
_cell_volume   2159.92627355
_cell_formula_units_Z   2
loop_
 _symmetry_equiv_pos_site_id
 _symmetry_equiv_pos_as_xyz
  1  'x, y, z'
loop_
 _atom_site_type_symbol
 _atom_site_label
 _atom_site_symmetry_multiplicity
 _atom_site_fract_x
 _atom_site_fract_y
 _atom_site_fract_z
 _atom_site_occupancy
  Cs  Cs0  1  0.096423  0.903577  0.500000  1
  Cs  Cs1  1  0.846423  0.846423  0.692847  1
  Cs  Cs2  1  0.153577  0.153577  0.307153  1
  Cs  Cs3  1  0.403577  0.596423  0.500000  1
  Cs  Cs4  1  0.153577  0.846423  0.000000  1
  Cs  Cs5  1  0.403577  0.903577  0.807153  1
  Cs  Cs6  1  0.096423  0.596423  0.192847  1
  Cs  Cs7  1  0.846423  0.153577  0.000000  1
  Pr  Pr8  1  0.983761  0.483761  0.500000  1
  Pr  Pr9  1  0.733761  0.733761  0.000000  1
  Pr  Pr10  1  0.516239  0.016239  0.500000  1
  Pr  Pr11  1  0.266239  0.266239  0.000000  1
  Pr  Pr12  1  0.890234  0.251512  0.638721  1
  Pr  Pr13  1  0.501512  0.640234  0.138721  1
  Pr  Pr14  1  0.501512  0.362791  0.861279  1
  Pr  Pr15  1  0.612791  0.251512  0.361279  1
  Pr  Pr16  1  0.748488  0.387209  0.638721  1
  Pr  Pr17  1  0.748488  0.109766  0.361279  1
  Pr  Pr18  1  0.637209  0.498488  0.138721  1
  Pr  Pr19  1  0.359766  0.498488  0.861279  1
  C  C20  1  0.804215  0.304215  0.500000  1
  C  C21  1  0.554215  0.554215  0.000000  1
  C  C22  1  0.695785  0.195785  0.500000  1
  C  C23  1  0.445785  0.445785  0.000000  1
  I  I24  1  0.000000  0.000000  0.000000  1
  I  I25  1  0.250000  0.750000  0.500000  1
  I  I26  1  0.578597  0.421403  0.500000  1
  I  I27  1  0.328597  0.328597  0.657193  1
  I  I28  1  0.671403  0.671403  0.342807  1
  I  I29  1  0.921403  0.078597  0.500000  1
  I  I30  1  0.671403  0.328597  1.000000  1
  I  I31  1  0.921403  0.421403  0.842807  1
  I  I32  1  0.578597  0.078597  0.157193  1
  I  I33  1  0.328597  0.671403  0.000000  1
  I  I34  1  0.673869  0.997383  0.676486  1
  I  I35  1  0.247383  0.423869  0.176486  1
  I  I36  1  0.247383  0.070896  0.823514  1
  I  I37  1  0.320896  0.997383  0.323514  1
  I  I38  1  0.002617  0.679104  0.676486  1
  I  I39  1  0.002617  0.326131  0.323514  1
  I  I40  1  0.929104  0.752617  0.176486  1
  I  I41  1  0.576131  0.752617  0.823514  1
  I  I42  1  0.178143  0.505507  0.672635  1
  I  I43  1  0.755507  0.928143  0.172635  1
  I  I44  1  0.755507  0.582872  0.827365  1
  I  I45  1  0.832872  0.505507  0.327365  1
  I  I46  1  0.494493  0.167128  0.672635  1
  I  I47  1  0.494493  0.821857  0.327365  1
  I  I48  1  0.417128  0.244493  0.172635  1
  I  I49  1  0.071857  0.244493  0.827365  1
