# generated using pymatgen
data_Na5Li(PO4)2
_symmetry_space_group_name_H-M   'P 1'
_cell_length_a   10.26370951
_cell_length_b   10.27690235
_cell_length_c   14.92099827
_cell_angle_alpha   90.00000000
_cell_angle_beta   90.00000000
_cell_angle_gamma   90.00000000
_symmetry_Int_Tables_number   1
_chemical_formula_structural   Na5Li(PO4)2
_chemical_formula_sum   'Na40 Li8 P16 O64'
_cell_volume   1573.85407118
_cell_formula_units_Z   8
loop_
 _symmetry_equiv_pos_site_id
 _symmetry_equiv_pos_as_xyz
  1  'x, y, z'
loop_
 _atom_site_type_symbol
 _atom_site_label
 _atom_site_symmetry_multiplicity
 _atom_site_fract_x
 _atom_site_fract_y
 _atom_site_fract_z
 _atom_site_occupancy
  Na  Na0  1  0.722412  0.503166  0.997759  1
  Na  Na1  1  0.722412  0.503166  0.502241  1
  Na  Na2  1  0.243030  0.757578  0.395118  1
  Na  Na3  1  0.222412  0.996834  0.497759  1
  Na  Na4  1  0.777588  0.003166  0.997759  1
  Na  Na5  1  0.725071  0.753686  0.136760  1
  Na  Na6  1  0.984260  0.509623  0.112740  1
  Na  Na7  1  0.984260  0.509623  0.387260  1
  Na  Na8  1  0.277588  0.496834  0.002241  1
  Na  Na9  1  0.274929  0.246314  0.863240  1
  Na  Na10  1  0.066236  0.267713  0.250000  1
  Na  Na11  1  0.515740  0.009623  0.387260  1
  Na  Na12  1  0.016788  0.786189  0.250000  1
  Na  Na13  1  0.566236  0.232287  0.750000  1
  Na  Na14  1  0.274929  0.246314  0.636760  1
  Na  Na15  1  0.933764  0.732287  0.750000  1
  Na  Na16  1  0.225071  0.746314  0.863240  1
  Na  Na17  1  0.774929  0.253686  0.363240  1
  Na  Na18  1  0.484260  0.990377  0.887260  1
  Na  Na19  1  0.015740  0.490377  0.612740  1
  Na  Na20  1  0.483212  0.286189  0.250000  1
  Na  Na21  1  0.433764  0.767713  0.250000  1
  Na  Na22  1  0.756970  0.242422  0.604882  1
  Na  Na23  1  0.756970  0.242422  0.895118  1
  Na  Na24  1  0.516788  0.713811  0.750000  1
  Na  Na25  1  0.256970  0.257578  0.395118  1
  Na  Na26  1  0.774929  0.253686  0.136760  1
  Na  Na27  1  0.983212  0.213811  0.750000  1
  Na  Na28  1  0.222412  0.996834  0.002241  1
  Na  Na29  1  0.777588  0.003166  0.502241  1
  Na  Na30  1  0.515740  0.009623  0.112740  1
  Na  Na31  1  0.743030  0.742422  0.604882  1
  Na  Na32  1  0.743030  0.742422  0.895118  1
  Na  Na33  1  0.256970  0.257578  0.104882  1
  Na  Na34  1  0.015740  0.490377  0.887260  1
  Na  Na35  1  0.277588  0.496834  0.497759  1
  Na  Na36  1  0.225071  0.746314  0.636760  1
  Na  Na37  1  0.725071  0.753686  0.363240  1
  Na  Na38  1  0.484260  0.990377  0.612740  1
  Na  Na39  1  0.243030  0.757578  0.104882  1
  Li  Li40  1  0.995734  0.010005  0.360155  1
  Li  Li41  1  0.995734  0.010005  0.139845  1
  Li  Li42  1  0.504266  0.510005  0.360155  1
  Li  Li43  1  0.495734  0.489995  0.860155  1
  Li  Li44  1  0.504266  0.510005  0.139845  1
  Li  Li45  1  0.495734  0.489995  0.639845  1
  Li  Li46  1  0.004266  0.989995  0.860155  1
  Li  Li47  1  0.004266  0.989995  0.639845  1
  P  P48  1  0.747746  0.979592  0.750000  1
  P  P49  1  0.247746  0.520408  0.250000  1
  P  P50  1  0.505268  0.251187  0.500755  1
  P  P51  1  0.494732  0.748813  0.499245  1
  P  P52  1  0.494732  0.748813  0.000755  1
  P  P53  1  0.274962  0.997177  0.750000  1
  P  P54  1  0.752254  0.479592  0.750000  1
  P  P55  1  0.505268  0.251187  0.999245  1
  P  P56  1  0.005268  0.248813  0.000755  1
  P  P57  1  0.994732  0.751187  0.500755  1
  P  P58  1  0.725038  0.002823  0.250000  1
  P  P59  1  0.994732  0.751187  0.999245  1
  P  P60  1  0.225038  0.497177  0.750000  1
  P  P61  1  0.005268  0.248813  0.499245  1
  P  P62  1  0.252254  0.020408  0.250000  1
  P  P63  1  0.774962  0.502823  0.250000  1
  O  O64  1  0.869608  0.680402  0.468332  1
  O  O65  1  0.394430  0.147682  0.511009  1
  O  O66  1  0.124496  0.611782  0.750000  1
  O  O67  1  0.605570  0.852318  0.011009  1
  O  O68  1  0.534564  0.318201  0.907442  1
  O  O69  1  0.041114  0.856065  0.431684  1
  O  O70  1  0.190499  0.007044  0.837071  1
  O  O71  1  0.541114  0.643935  0.568316  1
  O  O72  1  0.894430  0.352318  0.011009  1
  O  O73  1  0.784044  0.330325  0.750000  1
  O  O74  1  0.188351  0.454801  0.333901  1
  O  O75  1  0.958886  0.143935  0.568316  1
  O  O76  1  0.399717  0.502527  0.250000  1
  O  O77  1  0.351429  0.865665  0.750000  1
  O  O78  1  0.875504  0.388218  0.250000  1
  O  O79  1  0.394430  0.147682  0.988991  1
  O  O80  1  0.648571  0.134335  0.250000  1
  O  O81  1  0.190499  0.007044  0.662929  1
  O  O82  1  0.309501  0.507044  0.662929  1
  O  O83  1  0.369608  0.819598  0.968332  1
  O  O84  1  0.605570  0.852318  0.488991  1
  O  O85  1  0.965436  0.818201  0.907442  1
  O  O86  1  0.105570  0.647682  0.988991  1
  O  O87  1  0.458886  0.356065  0.068316  1
  O  O88  1  0.311649  0.954801  0.333901  1
  O  O89  1  0.630392  0.180402  0.468332  1
  O  O90  1  0.690499  0.492956  0.337071  1
  O  O91  1  0.541114  0.643935  0.931684  1
  O  O92  1  0.130392  0.319598  0.531668  1
  O  O93  1  0.690499  0.492956  0.162929  1
  O  O94  1  0.811649  0.545199  0.666099  1
  O  O95  1  0.688351  0.045199  0.833901  1
  O  O96  1  0.465436  0.681799  0.092558  1
  O  O97  1  0.600283  0.497473  0.750000  1
  O  O98  1  0.965436  0.818201  0.592558  1
  O  O99  1  0.458886  0.356065  0.431684  1
  O  O100  1  0.309501  0.507044  0.837071  1
  O  O101  1  0.465436  0.681799  0.407442  1
  O  O102  1  0.284044  0.169675  0.250000  1
  O  O103  1  0.369608  0.819598  0.531668  1
  O  O104  1  0.869608  0.680402  0.031668  1
  O  O105  1  0.105570  0.647682  0.511009  1
  O  O106  1  0.958886  0.143935  0.931684  1
  O  O107  1  0.851429  0.634335  0.250000  1
  O  O108  1  0.534564  0.318201  0.592558  1
  O  O109  1  0.630392  0.180402  0.031668  1
  O  O110  1  0.100283  0.002527  0.250000  1
  O  O111  1  0.375504  0.111782  0.750000  1
  O  O112  1  0.715956  0.830325  0.750000  1
  O  O113  1  0.188351  0.454801  0.166099  1
  O  O114  1  0.148571  0.365665  0.750000  1
  O  O115  1  0.811649  0.545199  0.833901  1
  O  O116  1  0.809501  0.992956  0.162929  1
  O  O117  1  0.688351  0.045199  0.666099  1
  O  O118  1  0.624496  0.888218  0.250000  1
  O  O119  1  0.034564  0.181799  0.092558  1
  O  O120  1  0.894430  0.352318  0.488991  1
  O  O121  1  0.034564  0.181799  0.407442  1
  O  O122  1  0.809501  0.992956  0.337071  1
  O  O123  1  0.130392  0.319598  0.968332  1
  O  O124  1  0.215956  0.669675  0.250000  1
  O  O125  1  0.311649  0.954801  0.166099  1
  O  O126  1  0.899717  0.997473  0.750000  1
  O  O127  1  0.041114  0.856065  0.068316  1
