# generated using pymatgen
data_MoSO6
_symmetry_space_group_name_H-M   'P 1'
_cell_length_a   14.95974027
_cell_length_b   14.95974027
_cell_length_c   8.84136744
_cell_angle_alpha   76.73788726
_cell_angle_beta   103.26211274
_cell_angle_gamma   131.07704443
_symmetry_Int_Tables_number   1
_chemical_formula_structural   MoSO6
_chemical_formula_sum   'Mo12 S12 O72'
_cell_volume   1443.40674189
_cell_formula_units_Z   12
loop_
 _symmetry_equiv_pos_site_id
 _symmetry_equiv_pos_as_xyz
  1  'x, y, z'
loop_
 _atom_site_type_symbol
 _atom_site_label
 _atom_site_symmetry_multiplicity
 _atom_site_fract_x
 _atom_site_fract_y
 _atom_site_fract_z
 _atom_site_occupancy
  Mo  Mo0  1  0.457709  0.299266  0.108128  1
  Mo  Mo1  1  0.958133  0.790188  0.098417  1
  Mo  Mo2  1  0.640321  0.126845  0.738609  1
  Mo  Mo3  1  0.873155  0.359679  0.238609  1
  Mo  Mo4  1  0.542291  0.700734  0.891872  1
  Mo  Mo5  1  0.700734  0.542291  0.608128  1
  Mo  Mo6  1  0.299266  0.457709  0.391872  1
  Mo  Mo7  1  0.790188  0.958133  0.401583  1
  Mo  Mo8  1  0.126845  0.640321  0.761391  1
  Mo  Mo9  1  0.359679  0.873155  0.261391  1
  Mo  Mo10  1  0.041867  0.209812  0.901583  1
  Mo  Mo11  1  0.209812  0.041867  0.598417  1
  S  S12  1  0.583591  0.157538  0.316727  1
  S  S13  1  0.180595  0.071044  0.971796  1
  S  S14  1  0.250420  0.495280  0.758792  1
  S  S15  1  0.495280  0.250420  0.741208  1
  S  S16  1  0.928956  0.819405  0.471796  1
  S  S17  1  0.416409  0.842462  0.683273  1
  S  S18  1  0.071044  0.180595  0.528204  1
  S  S19  1  0.842462  0.416409  0.816727  1
  S  S20  1  0.819405  0.928956  0.028204  1
  S  S21  1  0.749580  0.504720  0.241208  1
  S  S22  1  0.157538  0.583591  0.183273  1
  S  S23  1  0.504720  0.749580  0.258792  1
  O  O24  1  0.368990  0.196200  0.673290  1
  O  O25  1  0.643631  0.092518  0.936459  1
  O  O26  1  0.092518  0.643631  0.563541  1
  O  O27  1  0.028416  0.527122  0.177815  1
  O  O28  1  0.638779  0.428801  0.131050  1
  O  O29  1  0.196200  0.368990  0.826710  1
  O  O30  1  0.580288  0.624786  0.023175  1
  O  O31  1  0.971584  0.472878  0.822185  1
  O  O32  1  0.177391  0.502823  0.276728  1
  O  O33  1  0.748692  0.044143  0.354513  1
  O  O34  1  0.356369  0.907482  0.063541  1
  O  O35  1  0.907482  0.356369  0.436459  1
  O  O36  1  0.691943  0.565180  0.782326  1
  O  O37  1  0.301477  0.131693  0.065511  1
  O  O38  1  0.624786  0.580288  0.476825  1
  O  O39  1  0.845247  0.841898  0.416457  1
  O  O40  1  0.720010  0.483809  0.398084  1
  O  O41  1  0.497177  0.822609  0.776728  1
  O  O42  1  0.131693  0.301477  0.434489  1
  O  O43  1  0.829728  0.481657  0.236146  1
  O  O44  1  0.631010  0.803800  0.326710  1
  O  O45  1  0.698523  0.868307  0.934489  1
  O  O46  1  0.982693  0.825076  0.346809  1
  O  O47  1  0.361221  0.571199  0.868950  1
  O  O48  1  0.518343  0.170272  0.736146  1
  O  O49  1  0.170272  0.518343  0.763854  1
  O  O50  1  0.717007  0.092177  0.688403  1
  O  O51  1  0.972962  0.093054  0.414909  1
  O  O52  1  0.027038  0.906946  0.585091  1
  O  O53  1  0.921414  0.780764  0.902149  1
  O  O54  1  0.822609  0.497177  0.723272  1
  O  O55  1  0.190639  0.617096  0.024620  1
  O  O56  1  0.419712  0.375214  0.976825  1
  O  O57  1  0.483809  0.720010  0.101916  1
  O  O58  1  0.841898  0.845247  0.083543  1
  O  O59  1  0.481657  0.829728  0.263854  1
  O  O60  1  0.617096  0.190639  0.475380  1
  O  O61  1  0.472878  0.971584  0.677815  1
  O  O62  1  0.308057  0.434820  0.217674  1
  O  O63  1  0.017307  0.174924  0.653191  1
  O  O64  1  0.809361  0.382904  0.975380  1
  O  O65  1  0.251308  0.955857  0.645487  1
  O  O66  1  0.158102  0.154753  0.916457  1
  O  O67  1  0.780764  0.921414  0.597851  1
  O  O68  1  0.571199  0.361221  0.631050  1
  O  O69  1  0.219236  0.078586  0.402149  1
  O  O70  1  0.434820  0.308057  0.282326  1
  O  O71  1  0.906946  0.027038  0.914909  1
  O  O72  1  0.382904  0.809361  0.524620  1
  O  O73  1  0.527122  0.028416  0.322185  1
  O  O74  1  0.428801  0.638779  0.368950  1
  O  O75  1  0.044143  0.748692  0.145487  1
  O  O76  1  0.307173  0.773554  0.767344  1
  O  O77  1  0.955857  0.251308  0.854513  1
  O  O78  1  0.174924  0.017307  0.846809  1
  O  O79  1  0.825076  0.982693  0.153191  1
  O  O80  1  0.375214  0.419712  0.523175  1
  O  O81  1  0.282993  0.907823  0.311597  1
  O  O82  1  0.803800  0.631010  0.173290  1
  O  O83  1  0.565180  0.691943  0.717674  1
  O  O84  1  0.093054  0.972962  0.085091  1
  O  O85  1  0.078586  0.219236  0.097851  1
  O  O86  1  0.692827  0.226446  0.232656  1
  O  O87  1  0.773554  0.307173  0.732656  1
  O  O88  1  0.502823  0.177391  0.223272  1
  O  O89  1  0.907823  0.282993  0.188403  1
  O  O90  1  0.516191  0.279990  0.898084  1
  O  O91  1  0.279990  0.516191  0.601916  1
  O  O92  1  0.868307  0.698523  0.565511  1
  O  O93  1  0.154753  0.158102  0.583543  1
  O  O94  1  0.226446  0.692827  0.267344  1
  O  O95  1  0.092177  0.717007  0.811597  1
