# generated using pymatgen
data_Li3Co2(PO4)3
_symmetry_space_group_name_H-M   'P 1'
_cell_length_a   8.45038850
_cell_length_b   8.75515692
_cell_length_c   14.47802617
_cell_angle_alpha   90.00000000
_cell_angle_beta   124.02477402
_cell_angle_gamma   90.00000000
_symmetry_Int_Tables_number   1
_chemical_formula_structural   Li3Co2(PO4)3
_chemical_formula_sum   'Li12 Co8 P12 O48'
_cell_volume   887.76385767
_cell_formula_units_Z   4
loop_
 _symmetry_equiv_pos_site_id
 _symmetry_equiv_pos_as_xyz
  1  'x, y, z'
loop_
 _atom_site_type_symbol
 _atom_site_label
 _atom_site_symmetry_multiplicity
 _atom_site_fract_x
 _atom_site_fract_y
 _atom_site_fract_z
 _atom_site_occupancy
  Li  Li0  1  0.217120  0.489685  0.656550  1
  Li  Li1  1  0.886797  0.912068  0.306797  1
  Li  Li2  1  0.506770  0.220112  0.822954  1
  Li  Li3  1  0.493230  0.720112  0.677046  1
  Li  Li4  1  0.113203  0.412068  0.193203  1
  Li  Li5  1  0.782880  0.989685  0.843450  1
  Li  Li6  1  0.217120  0.010315  0.156550  1
  Li  Li7  1  0.886797  0.587932  0.806797  1
  Li  Li8  1  0.506770  0.279888  0.322954  1
  Li  Li9  1  0.493230  0.779888  0.177046  1
  Li  Li10  1  0.113203  0.087932  0.693203  1
  Li  Li11  1  0.782880  0.510315  0.343450  1
  Co  Co12  1  0.843537  0.974562  0.100469  1
  Co  Co13  1  0.156463  0.474562  0.399531  1
  Co  Co14  1  0.640109  0.535419  0.894293  1
  Co  Co15  1  0.359891  0.035419  0.605707  1
  Co  Co16  1  0.640109  0.964581  0.394293  1
  Co  Co17  1  0.359891  0.464581  0.105707  1
  Co  Co18  1  0.843537  0.525438  0.600469  1
  Co  Co19  1  0.156463  0.025438  0.899531  1
  P  P20  1  0.048716  0.751054  0.508108  1
  P  P21  1  0.764732  0.618455  0.150035  1
  P  P22  1  0.465279  0.890051  0.851141  1
  P  P23  1  0.235268  0.118455  0.349965  1
  P  P24  1  0.534721  0.390051  0.648859  1
  P  P25  1  0.951284  0.251054  0.991892  1
  P  P26  1  0.048716  0.748946  0.008108  1
  P  P27  1  0.465279  0.609949  0.351141  1
  P  P28  1  0.764732  0.881545  0.650035  1
  P  P29  1  0.534721  0.109949  0.148859  1
  P  P30  1  0.235268  0.381545  0.849965  1
  P  P31  1  0.951284  0.248946  0.491892  1
  O  O32  1  0.657228  0.107922  0.101009  1
  O  O33  1  0.106812  0.127367  0.556559  1
  O  O34  1  0.960625  0.334551  0.401409  1
  O  O35  1  0.373861  0.419668  0.813693  1
  O  O36  1  0.016736  0.639631  0.414547  1
  O  O37  1  0.789990  0.795362  0.163751  1
  O  O38  1  0.663925  0.579175  0.024686  1
  O  O39  1  0.379747  0.008434  0.752161  1
  O  O40  1  0.480192  0.731223  0.810758  1
  O  O41  1  0.251098  0.821335  0.564746  1
  O  O42  1  0.951327  0.528347  0.220087  1
  O  O43  1  0.672577  0.952133  0.935790  1
  O  O44  1  0.048673  0.028347  0.279913  1
  O  O45  1  0.327423  0.452133  0.564210  1
  O  O46  1  0.748902  0.321335  0.935254  1
  O  O47  1  0.519808  0.231223  0.689242  1
  O  O48  1  0.336075  0.079175  0.475314  1
  O  O49  1  0.210010  0.295362  0.336249  1
  O  O50  1  0.620253  0.508434  0.747839  1
  O  O51  1  0.983264  0.139631  0.085453  1
  O  O52  1  0.039375  0.834551  0.098591  1
  O  O53  1  0.342772  0.607922  0.398991  1
  O  O54  1  0.626139  0.919668  0.686307  1
  O  O55  1  0.893188  0.627367  0.943441  1
  O  O56  1  0.106812  0.372633  0.056559  1
  O  O57  1  0.373861  0.080332  0.313693  1
  O  O58  1  0.657228  0.392078  0.601009  1
  O  O59  1  0.960625  0.165449  0.901409  1
  O  O60  1  0.016736  0.860369  0.914547  1
  O  O61  1  0.379747  0.491566  0.252161  1
  O  O62  1  0.789990  0.704638  0.663751  1
  O  O63  1  0.663925  0.920825  0.524686  1
  O  O64  1  0.480192  0.768777  0.310758  1
  O  O65  1  0.251098  0.678665  0.064746  1
  O  O66  1  0.672577  0.547867  0.435790  1
  O  O67  1  0.951327  0.971653  0.720087  1
  O  O68  1  0.327423  0.047867  0.064210  1
  O  O69  1  0.048673  0.471653  0.779913  1
  O  O70  1  0.748902  0.178665  0.435254  1
  O  O71  1  0.519808  0.268777  0.189242  1
  O  O72  1  0.620253  0.991566  0.247839  1
  O  O73  1  0.336075  0.420825  0.975314  1
  O  O74  1  0.210010  0.204638  0.836249  1
  O  O75  1  0.983264  0.360369  0.585453  1
  O  O76  1  0.626139  0.580332  0.186307  1
  O  O77  1  0.039375  0.665449  0.598591  1
  O  O78  1  0.893188  0.872633  0.443441  1
  O  O79  1  0.342772  0.892078  0.898991  1
