# generated using pymatgen
data_Dy5CoSb2
_symmetry_space_group_name_H-M   'P 1'
_cell_length_a   7.91248141
_cell_length_b   8.74209745
_cell_length_c   12.23606663
_cell_angle_alpha   90.00000000
_cell_angle_beta   90.00000000
_cell_angle_gamma   90.00000000
_symmetry_Int_Tables_number   1
_chemical_formula_structural   Dy5CoSb2
_chemical_formula_sum   'Dy20 Co4 Sb8'
_cell_volume   846.38932892
_cell_formula_units_Z   4
loop_
 _symmetry_equiv_pos_site_id
 _symmetry_equiv_pos_as_xyz
  1  'x, y, z'
loop_
 _atom_site_type_symbol
 _atom_site_label
 _atom_site_symmetry_multiplicity
 _atom_site_fract_x
 _atom_site_fract_y
 _atom_site_fract_z
 _atom_site_occupancy
  Dy  Dy0  1  0.843831  0.750000  0.702593  1
  Dy  Dy1  1  0.656169  0.750000  0.202593  1
  Dy  Dy2  1  0.156169  0.250000  0.297407  1
  Dy  Dy3  1  0.343831  0.250000  0.797407  1
  Dy  Dy4  1  0.548058  0.750000  0.498379  1
  Dy  Dy5  1  0.951942  0.750000  0.998379  1
  Dy  Dy6  1  0.451942  0.250000  0.501621  1
  Dy  Dy7  1  0.048058  0.250000  0.001621  1
  Dy  Dy8  1  0.380644  0.750000  0.807180  1
  Dy  Dy9  1  0.119356  0.750000  0.307180  1
  Dy  Dy10  1  0.619356  0.250000  0.192820  1
  Dy  Dy11  1  0.880644  0.250000  0.692820  1
  Dy  Dy12  1  0.178914  0.963509  0.565196  1
  Dy  Dy13  1  0.321086  0.536491  0.065196  1
  Dy  Dy14  1  0.821086  0.463509  0.434804  1
  Dy  Dy15  1  0.678914  0.036491  0.934804  1
  Dy  Dy16  1  0.821086  0.036491  0.434804  1
  Dy  Dy17  1  0.678914  0.463509  0.934804  1
  Dy  Dy18  1  0.178914  0.536491  0.565196  1
  Dy  Dy19  1  0.321086  0.963509  0.065196  1
  Co  Co20  1  0.567509  0.750000  0.990891  1
  Co  Co21  1  0.932491  0.750000  0.490891  1
  Co  Co22  1  0.432491  0.250000  0.009109  1
  Co  Co23  1  0.067509  0.250000  0.509109  1
  Sb  Sb24  1  0.071217  0.990383  0.826691  1
  Sb  Sb25  1  0.428783  0.509617  0.326691  1
  Sb  Sb26  1  0.928783  0.490383  0.173309  1
  Sb  Sb27  1  0.571217  0.009617  0.673309  1
  Sb  Sb28  1  0.928783  0.009617  0.173309  1
  Sb  Sb29  1  0.571217  0.490383  0.673309  1
  Sb  Sb30  1  0.071217  0.509617  0.826691  1
  Sb  Sb31  1  0.428783  0.990383  0.326691  1
