# generated using pymatgen
data_MgAl2O4
_symmetry_space_group_name_H-M   'P 1'
_cell_length_a   23.84209013
_cell_length_b   23.84209013
_cell_length_c   23.84209013
_cell_angle_alpha   13.90222520
_cell_angle_beta   13.90222520
_cell_angle_gamma   13.90222520
_symmetry_Int_Tables_number   1
_chemical_formula_structural   MgAl2O4
_chemical_formula_sum   'Mg10 Al20 O40'
_cell_volume   680.88330803
_cell_formula_units_Z   10
loop_
 _symmetry_equiv_pos_site_id
 _symmetry_equiv_pos_as_xyz
  1  'x, y, z'
loop_
 _atom_site_type_symbol
 _atom_site_label
 _atom_site_symmetry_multiplicity
 _atom_site_fract_x
 _atom_site_fract_y
 _atom_site_fract_z
 _atom_site_occupancy
  Mg  Mg0  1  0.324180  0.324180  0.324180  1
  Mg  Mg1  1  0.924015  0.924015  0.924015  1
  Mg  Mg2  1  0.999680  0.999680  0.999680  1
  Mg  Mg3  1  0.524818  0.524818  0.524818  1
  Mg  Mg4  1  0.599320  0.599320  0.599320  1
  Mg  Mg5  1  0.125183  0.125183  0.125183  1
  Mg  Mg6  1  0.725044  0.725044  0.725044  1
  Mg  Mg7  1  0.875798  0.875798  0.875798  1
  Mg  Mg8  1  0.475115  0.475115  0.475115  1
  Mg  Mg9  1  0.074794  0.074794  0.074794  1
  Al  Al10  1  0.804760  0.804760  0.290608  1
  Al  Al11  1  0.804760  0.290608  0.804760  1
  Al  Al12  1  0.290608  0.804760  0.804760  1
  Al  Al13  1  0.402721  0.402721  0.894202  1
  Al  Al14  1  0.000274  0.499959  0.000274  1
  Al  Al15  1  0.276034  0.276034  0.276034  1
  Al  Al16  1  0.200181  0.200181  0.200181  1
  Al  Al17  1  0.402721  0.894202  0.402721  1
  Al  Al18  1  0.894202  0.402721  0.402721  1
  Al  Al19  1  0.000274  0.000274  0.499959  1
  Al  Al20  1  0.600493  0.099373  0.600493  1
  Al  Al21  1  0.800199  0.800199  0.800199  1
  Al  Al22  1  0.499959  0.000274  0.000274  1
  Al  Al23  1  0.600493  0.600493  0.099373  1
  Al  Al24  1  0.202822  0.694883  0.202822  1
  Al  Al25  1  0.400390  0.400390  0.400390  1
  Al  Al26  1  0.202822  0.202822  0.694883  1
  Al  Al27  1  0.099373  0.600493  0.600493  1
  Al  Al28  1  0.694883  0.202822  0.202822  1
  Al  Al29  1  0.675296  0.675296  0.675296  1
  O  O30  1  0.134038  0.134038  0.675941  1
  O  O31  1  0.952022  0.952022  0.952022  1
  O  O32  1  0.134038  0.675941  0.134038  1
  O  O33  1  0.675941  0.134038  0.134038  1
  O  O34  1  0.938307  0.458443  0.458443  1
  O  O35  1  0.734614  0.734614  0.273216  1
  O  O36  1  0.649093  0.649093  0.649093  1
  O  O37  1  0.552044  0.552044  0.552044  1
  O  O38  1  0.458443  0.938307  0.458443  1
  O  O39  1  0.734614  0.273216  0.734614  1
  O  O40  1  0.458443  0.458443  0.938307  1
  O  O41  1  0.273216  0.734614  0.734614  1
  O  O42  1  0.509317  0.071946  0.071946  1
  O  O43  1  0.330784  0.330784  0.885360  1
  O  O44  1  0.071946  0.509317  0.071946  1
  O  O45  1  0.250064  0.250064  0.250064  1
  O  O46  1  0.152693  0.152693  0.152693  1
  O  O47  1  0.330784  0.885360  0.330784  1
  O  O48  1  0.071946  0.071946  0.509317  1
  O  O49  1  0.885360  0.330784  0.330784  1
  O  O50  1  0.114148  0.669205  0.669205  1
  O  O51  1  0.930976  0.930976  0.485047  1
  O  O52  1  0.669205  0.114148  0.669205  1
  O  O53  1  0.930976  0.485047  0.930976  1
  O  O54  1  0.847509  0.847509  0.847509  1
  O  O55  1  0.752652  0.752652  0.752652  1
  O  O56  1  0.669205  0.669205  0.114148  1
  O  O57  1  0.485047  0.930976  0.930976  1
  O  O58  1  0.715266  0.268609  0.268609  1
  O  O59  1  0.530256  0.530256  0.087492  1
  O  O60  1  0.268609  0.715266  0.268609  1
  O  O61  1  0.352564  0.352564  0.352564  1
  O  O62  1  0.447195  0.447195  0.447195  1
  O  O63  1  0.530256  0.087492  0.530256  1
  O  O64  1  0.268609  0.268609  0.715266  1
  O  O65  1  0.087492  0.530256  0.530256  1
  O  O66  1  0.345775  0.854487  0.854487  1
  O  O67  1  0.046368  0.046368  0.046368  1
  O  O68  1  0.854487  0.345775  0.854487  1
  O  O69  1  0.854487  0.854487  0.345775  1
