# generated using pymatgen
data_RbSiBiS4
_symmetry_space_group_name_H-M   'P 1'
_cell_length_a   6.58470579
_cell_length_b   6.89040535
_cell_length_c   18.19786099
_cell_angle_alpha   90.00000000
_cell_angle_beta   107.98406475
_cell_angle_gamma   90.00000000
_symmetry_Int_Tables_number   1
_chemical_formula_structural   RbSiBiS4
_chemical_formula_sum   'Rb4 Si4 Bi4 S16'
_cell_volume   785.32069596
_cell_formula_units_Z   4
loop_
 _symmetry_equiv_pos_site_id
 _symmetry_equiv_pos_as_xyz
  1  'x, y, z'
loop_
 _atom_site_type_symbol
 _atom_site_label
 _atom_site_symmetry_multiplicity
 _atom_site_fract_x
 _atom_site_fract_y
 _atom_site_fract_z
 _atom_site_occupancy
  Rb  Rb0  1  0.709782  0.253246  0.964000  1
  Rb  Rb1  1  0.709782  0.246754  0.464000  1
  Rb  Rb2  1  0.290218  0.753246  0.536000  1
  Rb  Rb3  1  0.290218  0.746754  0.036000  1
  Si  Si4  1  0.202340  0.270826  0.159379  1
  Si  Si5  1  0.202340  0.229174  0.659379  1
  Si  Si6  1  0.797660  0.770826  0.340621  1
  Si  Si7  1  0.797660  0.729174  0.840621  1
  Bi  Bi8  1  0.239150  0.809554  0.776774  1
  Bi  Bi9  1  0.760850  0.190446  0.223226  1
  Bi  Bi10  1  0.239150  0.690446  0.276774  1
  Bi  Bi11  1  0.760850  0.309554  0.723226  1
  S  S12  1  0.990923  0.515446  0.354077  1
  S  S13  1  0.397721  0.181156  0.777710  1
  S  S14  1  0.009077  0.484554  0.645923  1
  S  S15  1  0.009077  0.015446  0.145923  1
  S  S16  1  0.397721  0.318844  0.277710  1
  S  S17  1  0.408649  0.245363  0.089960  1
  S  S18  1  0.591351  0.754637  0.910040  1
  S  S19  1  0.602279  0.818844  0.222290  1
  S  S20  1  0.591351  0.745363  0.410040  1
  S  S21  1  0.408649  0.254637  0.589960  1
  S  S22  1  0.986701  0.507792  0.134803  1
  S  S23  1  0.013299  0.007792  0.365197  1
  S  S24  1  0.013299  0.492208  0.865197  1
  S  S25  1  0.990923  0.984554  0.854077  1
  S  S26  1  0.986701  0.992208  0.634803  1
  S  S27  1  0.602279  0.681156  0.722290  1
