# generated using pymatgen
data_HI3O8
_symmetry_space_group_name_H-M   'P 1'
_cell_length_a   7.73598896
_cell_length_b   7.97616241
_cell_length_c   13.81084583
_cell_angle_alpha   90.00000000
_cell_angle_beta   122.93443048
_cell_angle_gamma   90.00000000
_symmetry_Int_Tables_number   1
_chemical_formula_structural   HI3O8
_chemical_formula_sum   'H4 I12 O32'
_cell_volume   715.22694271
_cell_formula_units_Z   4
loop_
 _symmetry_equiv_pos_site_id
 _symmetry_equiv_pos_as_xyz
  1  'x, y, z'
loop_
 _atom_site_type_symbol
 _atom_site_label
 _atom_site_symmetry_multiplicity
 _atom_site_fract_x
 _atom_site_fract_y
 _atom_site_fract_z
 _atom_site_occupancy
  H  H0  1  0.046251  0.546127  0.137647  1
  H  H1  1  0.953749  0.046127  0.362353  1
  H  H2  1  0.953749  0.453873  0.862353  1
  H  H3  1  0.046251  0.953873  0.637647  1
  I  I4  1  0.334071  0.772744  0.095343  1
  I  I5  1  0.665929  0.272744  0.404657  1
  I  I6  1  0.665929  0.227256  0.904657  1
  I  I7  1  0.334071  0.727256  0.595343  1
  I  I8  1  0.453920  0.258177  0.104269  1
  I  I9  1  0.546080  0.758177  0.395731  1
  I  I10  1  0.546080  0.741823  0.895731  1
  I  I11  1  0.453920  0.241823  0.604269  1
  I  I12  1  0.942526  0.950992  0.186844  1
  I  I13  1  0.057474  0.450992  0.313156  1
  I  I14  1  0.057474  0.049008  0.813156  1
  I  I15  1  0.942526  0.549008  0.686844  1
  O  O16  1  0.506449  0.699510  0.050984  1
  O  O17  1  0.493551  0.199510  0.449016  1
  O  O18  1  0.493551  0.300490  0.949016  1
  O  O19  1  0.506449  0.800490  0.550984  1
  O  O20  1  0.214332  0.574237  0.085910  1
  O  O21  1  0.785668  0.074237  0.414090  1
  O  O22  1  0.785668  0.425763  0.914090  1
  O  O23  1  0.214332  0.925763  0.585910  1
  O  O24  1  0.193881  0.178412  0.008945  1
  O  O25  1  0.806119  0.678412  0.491055  1
  O  O26  1  0.806119  0.821588  0.991055  1
  O  O27  1  0.193881  0.321588  0.508945  1
  O  O28  1  0.582569  0.055425  0.136531  1
  O  O29  1  0.417431  0.555425  0.363469  1
  O  O30  1  0.417431  0.944575  0.863469  1
  O  O31  1  0.582569  0.444575  0.636531  1
  O  O32  1  0.430309  0.250512  0.241733  1
  O  O33  1  0.569691  0.750512  0.258267  1
  O  O34  1  0.569691  0.749488  0.758267  1
  O  O35  1  0.430309  0.249488  0.741733  1
  O  O36  1  0.943476  0.544186  0.160928  1
  O  O37  1  0.056524  0.044186  0.339072  1
  O  O38  1  0.056524  0.455814  0.839072  1
  O  O39  1  0.943476  0.955814  0.660928  1
  O  O40  1  0.926892  0.150152  0.118055  1
  O  O41  1  0.073108  0.650152  0.381945  1
  O  O42  1  0.073108  0.849848  0.881945  1
  O  O43  1  0.926892  0.349848  0.618055  1
  O  O44  1  0.196295  0.883217  0.221589  1
  O  O45  1  0.803705  0.383217  0.278411  1
  O  O46  1  0.803705  0.116783  0.778411  1
  O  O47  1  0.196295  0.616783  0.721589  1
