# generated using pymatgen
data_KUSi2O7
_symmetry_space_group_name_H-M   'P 1'
_cell_length_a   9.25878552
_cell_length_b   9.25878552
_cell_length_c   8.35931405
_cell_angle_alpha   90.00000000
_cell_angle_beta   90.00000000
_cell_angle_gamma   90.00000000
_symmetry_Int_Tables_number   1
_chemical_formula_structural   KUSi2O7
_chemical_formula_sum   'K4 U4 Si8 O28'
_cell_volume   716.60311065
_cell_formula_units_Z   4
loop_
 _symmetry_equiv_pos_site_id
 _symmetry_equiv_pos_as_xyz
  1  'x, y, z'
loop_
 _atom_site_type_symbol
 _atom_site_label
 _atom_site_symmetry_multiplicity
 _atom_site_fract_x
 _atom_site_fract_y
 _atom_site_fract_z
 _atom_site_occupancy
  K  K0  1  0.178770  0.321230  0.500000  1
  K  K1  1  0.321230  0.821230  0.500000  1
  K  K2  1  0.821230  0.678770  0.500000  1
  K  K3  1  0.678770  0.178770  0.500000  1
  U  U4  1  0.000000  0.000000  0.750414  1
  U  U5  1  0.500000  0.500000  0.750414  1
  U  U6  1  0.000000  0.000000  0.249586  1
  U  U7  1  0.500000  0.500000  0.249586  1
  Si  Si8  1  0.119834  0.619834  0.805598  1
  Si  Si9  1  0.380166  0.119834  0.194402  1
  Si  Si10  1  0.619834  0.880166  0.805598  1
  Si  Si11  1  0.119834  0.619834  0.194402  1
  Si  Si12  1  0.380166  0.119834  0.805598  1
  Si  Si13  1  0.619834  0.880166  0.194402  1
  Si  Si14  1  0.880166  0.380166  0.805598  1
  Si  Si15  1  0.880166  0.380166  0.194402  1
  O  O16  1  0.878464  0.378464  0.000000  1
  O  O17  1  0.276135  0.572968  0.732636  1
  O  O18  1  0.572968  0.723865  0.267364  1
  O  O19  1  0.500000  0.500000  0.000000  1
  O  O20  1  0.121536  0.621536  0.000000  1
  O  O21  1  0.927032  0.223865  0.732636  1
  O  O22  1  0.572968  0.723865  0.732636  1
  O  O23  1  0.072968  0.776135  0.732636  1
  O  O24  1  0.500000  0.000000  0.742204  1
  O  O25  1  0.000000  0.500000  0.257796  1
  O  O26  1  0.000000  0.500000  0.742204  1
  O  O27  1  0.621536  0.878464  0.000000  1
  O  O28  1  0.723865  0.427032  0.267364  1
  O  O29  1  0.776135  0.927032  0.267364  1
  O  O30  1  0.223865  0.072968  0.267364  1
  O  O31  1  0.378464  0.121536  0.000000  1
  O  O32  1  0.427032  0.276135  0.732636  1
  O  O33  1  0.500000  0.000000  0.257796  1
  O  O34  1  0.776135  0.927032  0.732636  1
  O  O35  1  0.927032  0.223865  0.267364  1
  O  O36  1  0.223865  0.072968  0.732636  1
  O  O37  1  0.723865  0.427032  0.732636  1
  O  O38  1  0.276135  0.572968  0.267364  1
  O  O39  1  0.427032  0.276135  0.267364  1
  O  O40  1  0.000000  0.000000  0.500000  1
  O  O41  1  0.072968  0.776135  0.267364  1
  O  O42  1  0.000000  0.000000  0.000000  1
  O  O43  1  0.500000  0.500000  0.500000  1
