# generated using pymatgen
data_Nb3P
_symmetry_space_group_name_H-M   'P 1'
_cell_length_a   10.20231753
_cell_length_b   10.20231753
_cell_length_c   5.12119392
_cell_angle_alpha   90.00000000
_cell_angle_beta   90.00000000
_cell_angle_gamma   90.00000000
_symmetry_Int_Tables_number   1
_chemical_formula_structural   Nb3P
_chemical_formula_sum   'Nb24 P8'
_cell_volume   533.05116076
_cell_formula_units_Z   8
loop_
 _symmetry_equiv_pos_site_id
 _symmetry_equiv_pos_as_xyz
  1  'x, y, z'
loop_
 _atom_site_type_symbol
 _atom_site_label
 _atom_site_symmetry_multiplicity
 _atom_site_fract_x
 _atom_site_fract_y
 _atom_site_fract_z
 _atom_site_occupancy
  Nb  Nb0  1  0.403057  0.913783  0.476006  1
  Nb  Nb1  1  0.413783  0.096943  0.976006  1
  Nb  Nb2  1  0.586217  0.903057  0.976006  1
  Nb  Nb3  1  0.596943  0.086217  0.476006  1
  Nb  Nb4  1  0.096943  0.586217  0.023994  1
  Nb  Nb5  1  0.086217  0.403057  0.523994  1
  Nb  Nb6  1  0.913783  0.596943  0.523994  1
  Nb  Nb7  1  0.903057  0.413783  0.023994  1
  Nb  Nb8  1  0.012790  0.854929  0.265014  1
  Nb  Nb9  1  0.354929  0.487210  0.765014  1
  Nb  Nb10  1  0.645071  0.512790  0.765014  1
  Nb  Nb11  1  0.987210  0.145071  0.265014  1
  Nb  Nb12  1  0.487210  0.645071  0.234986  1
  Nb  Nb13  1  0.145071  0.012790  0.734986  1
  Nb  Nb14  1  0.854929  0.987210  0.734986  1
  Nb  Nb15  1  0.512790  0.354929  0.234986  1
  Nb  Nb16  1  0.286910  0.809056  0.989979  1
  Nb  Nb17  1  0.309056  0.213090  0.489979  1
  Nb  Nb18  1  0.690944  0.786910  0.489979  1
  Nb  Nb19  1  0.713090  0.190944  0.989979  1
  Nb  Nb20  1  0.213090  0.690944  0.510021  1
  Nb  Nb21  1  0.190944  0.286910  0.010021  1
  Nb  Nb22  1  0.809056  0.713090  0.010021  1
  Nb  Nb23  1  0.786910  0.309056  0.510021  1
  P  P24  1  0.024165  0.792920  0.769409  1
  P  P25  1  0.292920  0.475835  0.269409  1
  P  P26  1  0.707080  0.524165  0.269409  1
  P  P27  1  0.975835  0.207080  0.769409  1
  P  P28  1  0.475835  0.707080  0.730591  1
  P  P29  1  0.207080  0.024165  0.230591  1
  P  P30  1  0.792920  0.975835  0.230591  1
  P  P31  1  0.524165  0.292920  0.730591  1
