# generated using pymatgen
data_K3Y(BO3)2
_symmetry_space_group_name_H-M   'P 1'
_cell_length_a   5.58181698
_cell_length_b   6.90723721
_cell_length_c   9.44738339
_cell_angle_alpha   90.00000000
_cell_angle_beta   90.00000000
_cell_angle_gamma   90.00000000
_symmetry_Int_Tables_number   1
_chemical_formula_structural   K3Y(BO3)2
_chemical_formula_sum   'K6 Y2 B4 O12'
_cell_volume   364.24324254
_cell_formula_units_Z   2
loop_
 _symmetry_equiv_pos_site_id
 _symmetry_equiv_pos_as_xyz
  1  'x, y, z'
loop_
 _atom_site_type_symbol
 _atom_site_label
 _atom_site_symmetry_multiplicity
 _atom_site_fract_x
 _atom_site_fract_y
 _atom_site_fract_z
 _atom_site_occupancy
  K  K0  1  0.000000  0.232537  0.332675  1
  K  K1  1  0.000000  0.767463  0.667325  1
  K  K2  1  0.500000  0.732537  0.167325  1
  K  K3  1  0.500000  0.500000  0.500000  1
  K  K4  1  0.500000  0.267463  0.832675  1
  K  K5  1  0.000000  0.000000  0.000000  1
  Y  Y6  1  0.000000  0.500000  0.000000  1
  Y  Y7  1  0.500000  0.000000  0.500000  1
  B  B8  1  0.000000  0.763466  0.333987  1
  B  B9  1  0.000000  0.236534  0.666013  1
  B  B10  1  0.500000  0.736534  0.833987  1
  B  B11  1  0.500000  0.263466  0.166013  1
  O  O12  1  0.716331  0.299755  0.096831  1
  O  O13  1  0.216331  0.200245  0.596831  1
  O  O14  1  0.500000  0.192319  0.304195  1
  O  O15  1  0.716331  0.700245  0.903169  1
  O  O16  1  0.283669  0.299755  0.096831  1
  O  O17  1  0.216331  0.799755  0.403169  1
  O  O18  1  0.783669  0.200245  0.596831  1
  O  O19  1  0.283669  0.700245  0.903169  1
  O  O20  1  0.783669  0.799755  0.403169  1
  O  O21  1  0.000000  0.307681  0.804195  1
  O  O22  1  0.000000  0.692319  0.195805  1
  O  O23  1  0.500000  0.807681  0.695805  1
