# generated using pymatgen
data_CoP2O7
_symmetry_space_group_name_H-M   'P 1'
_cell_length_a   6.21189673
_cell_length_b   6.62457509
_cell_length_c   6.95439738
_cell_angle_alpha   88.80840161
_cell_angle_beta   113.35792452
_cell_angle_gamma   94.69151830
_symmetry_Int_Tables_number   1
_chemical_formula_structural   CoP2O7
_chemical_formula_sum   'Co2 P4 O14'
_cell_volume   261.82648096
_cell_formula_units_Z   2
loop_
 _symmetry_equiv_pos_site_id
 _symmetry_equiv_pos_as_xyz
  1  'x, y, z'
loop_
 _atom_site_type_symbol
 _atom_site_label
 _atom_site_symmetry_multiplicity
 _atom_site_fract_x
 _atom_site_fract_y
 _atom_site_fract_z
 _atom_site_occupancy
  Co  Co0  1  0.099582  0.358453  0.211672  1
  Co  Co1  1  0.900418  0.641547  0.788328  1
  P  P2  1  0.335882  0.610553  0.649047  1
  P  P3  1  0.664118  0.389447  0.350953  1
  P  P4  1  0.220107  0.856329  0.251858  1
  P  P5  1  0.779893  0.143671  0.748142  1
  O  O6  1  0.402120  0.383722  0.206754  1
  O  O7  1  0.571135  0.100273  0.811556  1
  O  O8  1  0.428865  0.899727  0.188444  1
  O  O9  1  0.900289  0.949775  0.772713  1
  O  O10  1  0.307466  0.800920  0.495267  1
  O  O11  1  0.201139  0.651779  0.784898  1
  O  O12  1  0.064713  0.669967  0.127183  1
  O  O13  1  0.597880  0.616278  0.793246  1
  O  O14  1  0.692534  0.199080  0.504733  1
  O  O15  1  0.243469  0.416628  0.520117  1
  O  O16  1  0.099711  0.050225  0.227287  1
  O  O17  1  0.935287  0.330033  0.872817  1
  O  O18  1  0.798861  0.348221  0.215102  1
  O  O19  1  0.756531  0.583372  0.479883  1
