# generated using pymatgen
data_CuAsSe
_symmetry_space_group_name_H-M   'P 1'
_cell_length_a   6.87068164
_cell_length_b   11.84695653
_cell_length_c   19.52236297
_cell_angle_alpha   90.00000000
_cell_angle_beta   90.00000000
_cell_angle_gamma   90.00000000
_symmetry_Int_Tables_number   1
_chemical_formula_structural   CuAsSe
_chemical_formula_sum   'Cu24 As24 Se24'
_cell_volume   1589.05527227
_cell_formula_units_Z   24
loop_
 _symmetry_equiv_pos_site_id
 _symmetry_equiv_pos_as_xyz
  1  'x, y, z'
loop_
 _atom_site_type_symbol
 _atom_site_label
 _atom_site_symmetry_multiplicity
 _atom_site_fract_x
 _atom_site_fract_y
 _atom_site_fract_z
 _atom_site_occupancy
  Cu  Cu0  1  0.968270  0.668564  0.304723  1
  Cu  Cu1  1  0.684324  0.667360  0.139224  1
  Cu  Cu2  1  0.468270  0.168564  0.195277  1
  Cu  Cu3  1  0.531730  0.168564  0.695277  1
  Cu  Cu4  1  0.684324  0.332640  0.360776  1
  Cu  Cu5  1  0.031730  0.331436  0.695277  1
  Cu  Cu6  1  0.140016  0.829111  0.470678  1
  Cu  Cu7  1  0.184324  0.832640  0.139224  1
  Cu  Cu8  1  0.359984  0.329111  0.529322  1
  Cu  Cu9  1  0.859984  0.829111  0.970678  1
  Cu  Cu10  1  0.815676  0.167360  0.860776  1
  Cu  Cu11  1  0.184324  0.167360  0.360776  1
  Cu  Cu12  1  0.140016  0.170889  0.029322  1
  Cu  Cu13  1  0.315676  0.667360  0.639224  1
  Cu  Cu14  1  0.031730  0.668564  0.804723  1
  Cu  Cu15  1  0.640016  0.670889  0.470678  1
  Cu  Cu16  1  0.859984  0.170889  0.529322  1
  Cu  Cu17  1  0.315676  0.332640  0.860776  1
  Cu  Cu18  1  0.531730  0.831436  0.804723  1
  Cu  Cu19  1  0.468270  0.831436  0.304723  1
  Cu  Cu20  1  0.968270  0.331436  0.195277  1
  Cu  Cu21  1  0.640016  0.329111  0.029322  1
  Cu  Cu22  1  0.815676  0.832640  0.639224  1
  Cu  Cu23  1  0.359984  0.670889  0.970678  1
  As  As24  1  0.505714  0.484766  0.815873  1
  As  As25  1  0.494286  0.515234  0.184127  1
  As  As26  1  0.494286  0.484766  0.315873  1
  As  As27  1  0.145886  0.483489  0.146163  1
  As  As28  1  0.677117  0.982710  0.016970  1
  As  As29  1  0.322883  0.982710  0.516970  1
  As  As30  1  0.822883  0.517290  0.516970  1
  As  As31  1  0.854114  0.516511  0.853837  1
  As  As32  1  0.177117  0.482710  0.483030  1
  As  As33  1  0.505714  0.515234  0.684127  1
  As  As34  1  0.005714  0.015234  0.815873  1
  As  As35  1  0.354114  0.983489  0.853837  1
  As  As36  1  0.822883  0.482710  0.983030  1
  As  As37  1  0.994286  0.984766  0.184127  1
  As  As38  1  0.854114  0.483489  0.646163  1
  As  As39  1  0.177117  0.517290  0.016970  1
  As  As40  1  0.677117  0.017290  0.483030  1
  As  As41  1  0.645886  0.016511  0.146163  1
  As  As42  1  0.322883  0.017290  0.983030  1
  As  As43  1  0.994286  0.015234  0.315873  1
  As  As44  1  0.645886  0.983489  0.353837  1
  As  As45  1  0.145886  0.516511  0.353837  1
  As  As46  1  0.005714  0.984766  0.684127  1
  As  As47  1  0.354114  0.016511  0.646163  1
  Se  Se48  1  0.484738  0.833064  0.681425  1
  Se  Se49  1  0.186772  0.833150  0.015495  1
  Se  Se50  1  0.813228  0.833150  0.515495  1
  Se  Se51  1  0.360377  0.333289  0.652815  1
  Se  Se52  1  0.984738  0.666936  0.681425  1
  Se  Se53  1  0.984738  0.333064  0.818575  1
  Se  Se54  1  0.015262  0.666936  0.181425  1
  Se  Se55  1  0.686772  0.333150  0.484505  1
  Se  Se56  1  0.139623  0.833289  0.347185  1
  Se  Se57  1  0.186772  0.166850  0.484505  1
  Se  Se58  1  0.639623  0.666711  0.347185  1
  Se  Se59  1  0.813228  0.166850  0.984505  1
  Se  Se60  1  0.860377  0.833289  0.847185  1
  Se  Se61  1  0.484738  0.166936  0.818575  1
  Se  Se62  1  0.313228  0.666850  0.515495  1
  Se  Se63  1  0.515262  0.166936  0.318575  1
  Se  Se64  1  0.515262  0.833064  0.181425  1
  Se  Se65  1  0.639623  0.333289  0.152815  1
  Se  Se66  1  0.015262  0.333064  0.318575  1
  Se  Se67  1  0.360377  0.666711  0.847185  1
  Se  Se68  1  0.313228  0.333150  0.984505  1
  Se  Se69  1  0.686772  0.666850  0.015495  1
  Se  Se70  1  0.860377  0.166711  0.652815  1
  Se  Se71  1  0.139623  0.166711  0.152815  1
