# generated using pymatgen
data_Gd(IO3)3
_symmetry_space_group_name_H-M   'P 1'
_cell_length_a   8.85851491
_cell_length_b   6.07865809
_cell_length_c   16.81490355
_cell_angle_alpha   90.00000000
_cell_angle_beta   114.71253764
_cell_angle_gamma   90.00000000
_symmetry_Int_Tables_number   1
_chemical_formula_structural   Gd(IO3)3
_chemical_formula_sum   'Gd4 I12 O36'
_cell_volume   822.52315812
_cell_formula_units_Z   4
loop_
 _symmetry_equiv_pos_site_id
 _symmetry_equiv_pos_as_xyz
  1  'x, y, z'
loop_
 _atom_site_type_symbol
 _atom_site_label
 _atom_site_symmetry_multiplicity
 _atom_site_fract_x
 _atom_site_fract_y
 _atom_site_fract_z
 _atom_site_occupancy
  Gd  Gd0  1  0.644314  0.720475  0.102353  1
  Gd  Gd1  1  0.355686  0.220475  0.397647  1
  Gd  Gd2  1  0.355686  0.279525  0.897647  1
  Gd  Gd3  1  0.644314  0.779525  0.602353  1
  I  I4  1  0.857363  0.358389  0.021192  1
  I  I5  1  0.142637  0.858389  0.478808  1
  I  I6  1  0.142637  0.641611  0.978808  1
  I  I7  1  0.857363  0.141611  0.521192  1
  I  I8  1  0.917974  0.407978  0.301912  1
  I  I9  1  0.082026  0.907978  0.198088  1
  I  I10  1  0.082026  0.592022  0.698088  1
  I  I11  1  0.917974  0.092022  0.801912  1
  I  I12  1  0.429358  0.186855  0.145223  1
  I  I13  1  0.570642  0.686855  0.354777  1
  I  I14  1  0.570642  0.813145  0.854777  1
  I  I15  1  0.429358  0.313145  0.645223  1
  O  O16  1  0.895763  0.529240  0.118278  1
  O  O17  1  0.104237  0.029240  0.381722  1
  O  O18  1  0.104237  0.470760  0.881722  1
  O  O19  1  0.895763  0.970760  0.618278  1
  O  O20  1  0.370592  0.610913  0.013036  1
  O  O21  1  0.629408  0.110913  0.486964  1
  O  O22  1  0.629408  0.389087  0.986964  1
  O  O23  1  0.370592  0.889087  0.513036  1
  O  O24  1  0.857284  0.579760  0.943843  1
  O  O25  1  0.142716  0.079760  0.556157  1
  O  O26  1  0.142716  0.420240  0.056157  1
  O  O27  1  0.857284  0.920240  0.443843  1
  O  O28  1  0.844672  0.681334  0.255211  1
  O  O29  1  0.155328  0.181334  0.244789  1
  O  O30  1  0.155328  0.318666  0.744789  1
  O  O31  1  0.844672  0.818666  0.755211  1
  O  O32  1  0.836613  0.415051  0.386076  1
  O  O33  1  0.163387  0.915051  0.113924  1
  O  O34  1  0.163387  0.584949  0.613924  1
  O  O35  1  0.836613  0.084949  0.886076  1
  O  O36  1  0.135175  0.494604  0.367556  1
  O  O37  1  0.864825  0.994604  0.132444  1
  O  O38  1  0.864825  0.505396  0.632444  1
  O  O39  1  0.135175  0.005396  0.867556  1
  O  O40  1  0.560888  0.944927  0.194216  1
  O  O41  1  0.439112  0.444927  0.305784  1
  O  O42  1  0.439112  0.055073  0.805784  1
  O  O43  1  0.560888  0.555073  0.694216  1
  O  O44  1  0.395493  0.110934  0.033714  1
  O  O45  1  0.604507  0.610934  0.466286  1
  O  O46  1  0.604507  0.889066  0.966286  1
  O  O47  1  0.395493  0.389066  0.533714  1
  O  O48  1  0.597252  0.393050  0.170668  1
  O  O49  1  0.402748  0.893050  0.329332  1
  O  O50  1  0.402748  0.606950  0.829332  1
  O  O51  1  0.597252  0.106950  0.670668  1
