# generated using pymatgen
data_Hg2AsF6
_symmetry_space_group_name_H-M   'P 1'
_cell_length_a   5.57650277
_cell_length_b   11.87173115
_cell_length_c   10.19526309
_cell_angle_alpha   90.00000000
_cell_angle_beta   92.02623214
_cell_angle_gamma   90.00000000
_symmetry_Int_Tables_number   1
_chemical_formula_structural   Hg2AsF6
_chemical_formula_sum   'Hg8 As4 F24'
_cell_volume   674.53234924
_cell_formula_units_Z   4
loop_
 _symmetry_equiv_pos_site_id
 _symmetry_equiv_pos_as_xyz
  1  'x, y, z'
loop_
 _atom_site_type_symbol
 _atom_site_label
 _atom_site_symmetry_multiplicity
 _atom_site_fract_x
 _atom_site_fract_y
 _atom_site_fract_z
 _atom_site_occupancy
  Hg  Hg0  1  0.002302  0.917753  0.390050  1
  Hg  Hg1  1  0.997698  0.417753  0.109950  1
  Hg  Hg2  1  0.997698  0.082247  0.609950  1
  Hg  Hg3  1  0.002302  0.582247  0.890050  1
  Hg  Hg4  1  0.999080  0.976192  0.129136  1
  Hg  Hg5  1  0.000920  0.476192  0.370864  1
  Hg  Hg6  1  0.000920  0.023808  0.870864  1
  Hg  Hg7  1  0.999080  0.523808  0.629136  1
  As  As8  1  0.501470  0.704810  0.172273  1
  As  As9  1  0.498530  0.204810  0.327727  1
  As  As10  1  0.498530  0.295190  0.827727  1
  As  As11  1  0.501470  0.795190  0.672273  1
  F  F12  1  0.761209  0.686940  0.276413  1
  F  F13  1  0.238791  0.186940  0.223587  1
  F  F14  1  0.238791  0.313060  0.723587  1
  F  F15  1  0.761209  0.813060  0.776413  1
  F  F16  1  0.239920  0.724049  0.068068  1
  F  F17  1  0.760080  0.224049  0.431932  1
  F  F18  1  0.760080  0.275951  0.931932  1
  F  F19  1  0.239920  0.775951  0.568068  1
  F  F20  1  0.688967  0.730283  0.038218  1
  F  F21  1  0.311033  0.230283  0.461782  1
  F  F22  1  0.311033  0.269717  0.961782  1
  F  F23  1  0.688967  0.769717  0.538218  1
  F  F24  1  0.314537  0.679660  0.306146  1
  F  F25  1  0.685463  0.179660  0.193854  1
  F  F26  1  0.685463  0.320340  0.693854  1
  F  F27  1  0.314537  0.820340  0.806146  1
  F  F28  1  0.500712  0.851685  0.206986  1
  F  F29  1  0.499288  0.351685  0.293014  1
  F  F30  1  0.499288  0.148315  0.793014  1
  F  F31  1  0.500712  0.648315  0.706986  1
  F  F32  1  0.500243  0.559083  0.134706  1
  F  F33  1  0.499757  0.059083  0.365294  1
  F  F34  1  0.499757  0.440917  0.865294  1
  F  F35  1  0.500243  0.940917  0.634706  1
