# generated using pymatgen
data_LiCo(PO3)3
_symmetry_space_group_name_H-M   'P 1'
_cell_length_a   6.54532499
_cell_length_b   6.84430870
_cell_length_c   7.41190762
_cell_angle_alpha   101.03787534
_cell_angle_beta   92.68681791
_cell_angle_gamma   90.55335761
_symmetry_Int_Tables_number   1
_chemical_formula_structural   LiCo(PO3)3
_chemical_formula_sum   'Li2 Co2 P6 O18'
_cell_volume   325.48077644
_cell_formula_units_Z   2
loop_
 _symmetry_equiv_pos_site_id
 _symmetry_equiv_pos_as_xyz
  1  'x, y, z'
loop_
 _atom_site_type_symbol
 _atom_site_label
 _atom_site_symmetry_multiplicity
 _atom_site_fract_x
 _atom_site_fract_y
 _atom_site_fract_z
 _atom_site_occupancy
  Li  Li0  1  0.856871  0.434174  0.188879  1
  Li  Li1  1  0.143129  0.565826  0.811121  1
  Co  Co2  1  0.844414  0.915349  0.142232  1
  Co  Co3  1  0.155586  0.084651  0.857768  1
  P  P4  1  0.857273  0.785794  0.555376  1
  P  P5  1  0.142727  0.214206  0.444624  1
  P  P6  1  0.352343  0.436459  0.196255  1
  P  P7  1  0.331159  0.880202  0.218146  1
  P  P8  1  0.647657  0.563541  0.803745  1
  P  P9  1  0.668841  0.119798  0.781854  1
  O  O10  1  0.455994  0.062497  0.812853  1
  O  O11  1  0.544006  0.937503  0.187147  1
  O  O12  1  0.568964  0.399775  0.156339  1
  O  O13  1  0.048772  0.802523  0.680998  1
  O  O14  1  0.951228  0.197477  0.319002  1
  O  O15  1  0.311346  0.668160  0.271699  1
  O  O16  1  0.123545  0.272995  0.649486  1
  O  O17  1  0.837281  0.097609  0.926478  1
  O  O18  1  0.688654  0.331840  0.728301  1
  O  O19  1  0.818904  0.640709  0.946509  1
  O  O20  1  0.431036  0.600225  0.843661  1
  O  O21  1  0.876455  0.727005  0.350514  1
  O  O22  1  0.305623  0.364621  0.387252  1
  O  O23  1  0.181096  0.359291  0.053491  1
  O  O24  1  0.162719  0.902391  0.073522  1
  O  O25  1  0.694377  0.635379  0.612748  1
  O  O26  1  0.261506  0.006942  0.411687  1
  O  O27  1  0.738494  0.993058  0.588313  1
