# generated using pymatgen
data_NaH6BrO5
_symmetry_space_group_name_H-M   'P 1'
_cell_length_a   5.52612442
_cell_length_b   6.48748755
_cell_length_c   9.08716110
_cell_angle_alpha   107.36601023
_cell_angle_beta   87.84369409
_cell_angle_gamma   109.40785076
_symmetry_Int_Tables_number   1
_chemical_formula_structural   NaH6BrO5
_chemical_formula_sum   'Na2 H12 Br2 O10'
_cell_volume   292.57646654
_cell_formula_units_Z   2
loop_
 _symmetry_equiv_pos_site_id
 _symmetry_equiv_pos_as_xyz
  1  'x, y, z'
loop_
 _atom_site_type_symbol
 _atom_site_label
 _atom_site_symmetry_multiplicity
 _atom_site_fract_x
 _atom_site_fract_y
 _atom_site_fract_z
 _atom_site_occupancy
  Na  Na0  1  0.729289  0.452153  0.599038  1
  Na  Na1  1  0.270711  0.547847  0.400962  1
  H  H2  1  0.614991  0.675726  0.926979  1
  H  H3  1  0.385009  0.324274  0.073021  1
  H  H4  1  0.407189  0.431558  0.848681  1
  H  H5  1  0.592811  0.568442  0.151319  1
  H  H6  1  0.254488  0.095509  0.434486  1
  H  H7  1  0.745512  0.904491  0.565514  1
  H  H8  1  0.149578  0.231369  0.580319  1
  H  H9  1  0.850422  0.768631  0.419681  1
  H  H10  1  0.706018  0.322182  0.264190  1
  H  H11  1  0.293982  0.677818  0.735810  1
  H  H12  1  0.805395  0.122547  0.264267  1
  H  H13  1  0.194605  0.877453  0.735733  1
  Br  Br14  1  0.897197  0.172779  0.872608  1
  Br  Br15  1  0.102803  0.827221  0.127392  1
  O  O16  1  0.842145  0.175954  0.685350  1
  O  O17  1  0.157855  0.824046  0.314650  1
  O  O18  1  0.213232  0.167370  0.883244  1
  O  O19  1  0.786768  0.832630  0.116756  1
  O  O20  1  0.508376  0.579158  0.829828  1
  O  O21  1  0.491624  0.420842  0.170172  1
  O  O22  1  0.289498  0.252283  0.509871  1
  O  O23  1  0.710502  0.747717  0.490129  1
  O  O24  1  0.823832  0.283052  0.322109  1
  O  O25  1  0.176168  0.716948  0.677891  1
