# generated using pymatgen
data_V2Cu2O7
_symmetry_space_group_name_H-M   'P 1'
_cell_length_a   11.28717817
_cell_length_b   10.85599963
_cell_length_c   5.49998303
_cell_angle_alpha   80.01664032
_cell_angle_beta   71.30456804
_cell_angle_gamma   28.67879164
_symmetry_Int_Tables_number   1
_chemical_formula_structural   V2Cu2O7
_chemical_formula_sum   'V4 Cu4 O14'
_cell_volume   297.60694821
_cell_formula_units_Z   2
loop_
 _symmetry_equiv_pos_site_id
 _symmetry_equiv_pos_as_xyz
  1  'x, y, z'
loop_
 _atom_site_type_symbol
 _atom_site_label
 _atom_site_symmetry_multiplicity
 _atom_site_fract_x
 _atom_site_fract_y
 _atom_site_fract_z
 _atom_site_occupancy
  V  V0  1  0.911921  0.687200  0.281741  1
  V  V1  1  0.119139  0.281741  0.687200  1
  V  V2  1  0.968259  0.130861  0.338079  1
  V  V3  1  0.562800  0.338079  0.130861  1
  Cu  Cu4  1  0.459492  0.213305  0.797255  1
  Cu  Cu5  1  0.529948  0.797255  0.213305  1
  Cu  Cu6  1  0.452745  0.720052  0.790508  1
  Cu  Cu7  1  0.036695  0.790508  0.720052  1
  O  O8  1  0.099609  0.400391  0.400391  1
  O  O9  1  0.849609  0.150391  0.150391  1
  O  O10  1  0.779815  0.896662  0.521660  1
  O  O11  1  0.801863  0.521660  0.896662  1
  O  O12  1  0.728340  0.448137  0.470185  1
  O  O13  1  0.353338  0.470185  0.448137  1
  O  O14  1  0.130700  0.584899  0.983777  1
  O  O15  1  0.300623  0.983777  0.584899  1
  O  O16  1  0.424881  0.576082  0.974427  1
  O  O17  1  0.024610  0.974427  0.576082  1
  O  O18  1  0.275573  0.225390  0.825119  1
  O  O19  1  0.673918  0.825119  0.225390  1
  O  O20  1  0.665101  0.119300  0.949377  1
  O  O21  1  0.266223  0.949377  0.119300  1
