# generated using pymatgen
data_Ca3Si2O7
_symmetry_space_group_name_H-M   'P 1'
_cell_length_a   12.78857853
_cell_length_b   12.78857853
_cell_length_c   12.78857853
_cell_angle_alpha   156.81771982
_cell_angle_beta   126.28722067
_cell_angle_gamma   59.26350273
_symmetry_Int_Tables_number   1
_chemical_formula_structural   Ca3Si2O7
_chemical_formula_sum   'Ca12 Si8 O28'
_cell_volume   660.08199206
_cell_formula_units_Z   4
loop_
 _symmetry_equiv_pos_site_id
 _symmetry_equiv_pos_as_xyz
  1  'x, y, z'
loop_
 _atom_site_type_symbol
 _atom_site_label
 _atom_site_symmetry_multiplicity
 _atom_site_fract_x
 _atom_site_fract_y
 _atom_site_fract_z
 _atom_site_occupancy
  Ca  Ca0  1  0.886989  0.099498  0.777782  1
  Ca  Ca1  1  0.678284  0.900502  0.787490  1
  Ca  Ca2  1  0.010330  0.500000  0.510330  1
  Ca  Ca3  1  0.321166  0.836417  0.494573  1
  Ca  Ca4  1  0.158155  0.673406  0.494573  1
  Ca  Ca5  1  0.821166  0.326594  0.484749  1
  Ca  Ca6  1  0.510330  0.000000  0.510330  1
  Ca  Ca7  1  0.658155  0.163583  0.484749  1
  Ca  Ca8  1  0.463799  0.251308  0.215107  1
  Ca  Ca9  1  0.963799  0.748692  0.212491  1
  Ca  Ca10  1  0.178284  0.390794  0.777782  1
  Ca  Ca11  1  0.386989  0.609206  0.787490  1
  Si  Si12  1  0.652905  0.821413  0.974318  1
  Si  Si13  1  0.692181  0.540029  0.030780  1
  Si  Si14  1  0.192181  0.161401  0.152152  1
  Si  Si15  1  0.490751  0.459971  0.152152  1
  Si  Si16  1  0.990751  0.838599  0.030780  1
  Si  Si17  1  0.258191  0.000000  0.258191  1
  Si  Si18  1  0.758191  0.500000  0.258191  1
  Si  Si19  1  0.152905  0.178587  0.831492  1
  O  O20  1  0.056502  0.287907  0.159988  1
  O  O21  1  0.499115  0.148008  0.840554  1
  O  O22  1  0.999115  0.158562  0.351107  1
  O  O23  1  0.784346  0.956009  0.240356  1
  O  O24  1  0.372081  0.603486  0.159988  1
  O  O25  1  0.209670  0.229619  0.357092  1
  O  O26  1  0.798002  0.278668  0.159645  1
  O  O27  1  0.027524  0.988854  0.633844  1
  O  O28  1  0.644991  0.011146  0.038670  1
  O  O29  1  0.144991  0.106321  0.633844  1
  O  O30  1  0.127473  0.770381  0.980052  1
  O  O31  1  0.652392  0.501572  0.653964  1
  O  O32  1  0.880977  0.721332  0.519334  1
  O  O33  1  0.527524  0.893679  0.038670  1
  O  O34  1  0.627473  0.647421  0.357092  1
  O  O35  1  0.495120  0.541570  0.354550  1
  O  O36  1  0.556502  0.396514  0.768595  1
  O  O37  1  0.872081  0.712093  0.768595  1
  O  O38  1  0.995120  0.640569  0.953550  1
  O  O39  1  0.812981  0.458430  0.953550  1
  O  O40  1  0.298002  0.138357  0.519334  1
  O  O41  1  0.152392  0.498428  0.150820  1
  O  O42  1  0.284346  0.043991  0.828337  1
  O  O43  1  0.312981  0.359431  0.354550  1
  O  O44  1  0.692545  0.851992  0.351107  1
  O  O45  1  0.709670  0.352579  0.980052  1
  O  O46  1  0.192545  0.841438  0.840554  1
  O  O47  1  0.380977  0.861643  0.159645  1
