# generated using pymatgen
data_Cs3V2Cl9
_symmetry_space_group_name_H-M   'P 1'
_cell_length_a   7.43341386
_cell_length_b   7.43341386
_cell_length_c   18.23300325
_cell_angle_alpha   90.00000000
_cell_angle_beta   90.00000000
_cell_angle_gamma   120.00000000
_symmetry_Int_Tables_number   1
_chemical_formula_structural   Cs3V2Cl9
_chemical_formula_sum   'Cs6 V4 Cl18'
_cell_volume   872.50006291
_cell_formula_units_Z   2
loop_
 _symmetry_equiv_pos_site_id
 _symmetry_equiv_pos_as_xyz
  1  'x, y, z'
loop_
 _atom_site_type_symbol
 _atom_site_label
 _atom_site_symmetry_multiplicity
 _atom_site_fract_x
 _atom_site_fract_y
 _atom_site_fract_z
 _atom_site_occupancy
  Cs  Cs0  1  0.000000  0.000000  0.750000  1
  Cs  Cs1  1  0.000000  0.000000  0.250000  1
  Cs  Cs2  1  0.666667  0.333333  0.575416  1
  Cs  Cs3  1  0.333333  0.666667  0.424584  1
  Cs  Cs4  1  0.333333  0.666667  0.075416  1
  Cs  Cs5  1  0.666667  0.333333  0.924584  1
  V  V6  1  0.666667  0.333333  0.335905  1
  V  V7  1  0.333333  0.666667  0.664095  1
  V  V8  1  0.333333  0.666667  0.835905  1
  V  V9  1  0.666667  0.333333  0.164095  1
  Cl  Cl10  1  0.481069  0.962137  0.750000  1
  Cl  Cl11  1  0.481069  0.518931  0.750000  1
  Cl  Cl12  1  0.037863  0.518931  0.750000  1
  Cl  Cl13  1  0.518931  0.037863  0.250000  1
  Cl  Cl14  1  0.518931  0.481069  0.250000  1
  Cl  Cl15  1  0.962137  0.481069  0.250000  1
  Cl  Cl16  1  0.182642  0.365284  0.594344  1
  Cl  Cl17  1  0.182642  0.817358  0.594344  1
  Cl  Cl18  1  0.634716  0.817358  0.594344  1
  Cl  Cl19  1  0.817358  0.634716  0.405656  1
  Cl  Cl20  1  0.817358  0.182642  0.405656  1
  Cl  Cl21  1  0.365284  0.182642  0.405656  1
  Cl  Cl22  1  0.817358  0.634716  0.094344  1
  Cl  Cl23  1  0.817358  0.182642  0.094344  1
  Cl  Cl24  1  0.365284  0.182642  0.094344  1
  Cl  Cl25  1  0.182642  0.365284  0.905656  1
  Cl  Cl26  1  0.182642  0.817358  0.905656  1
  Cl  Cl27  1  0.634716  0.817358  0.905656  1
