# generated using pymatgen
data_SmZnSn
_symmetry_space_group_name_H-M   'P 1'
_cell_length_a   4.55387059
_cell_length_b   4.55387059
_cell_length_c   16.30690930
_cell_angle_alpha   90.00000000
_cell_angle_beta   90.00000000
_cell_angle_gamma   120.00000000
_symmetry_Int_Tables_number   1
_chemical_formula_structural   SmZnSn
_chemical_formula_sum   'Sm4 Zn4 Sn4'
_cell_volume   292.86242680
_cell_formula_units_Z   4
loop_
 _symmetry_equiv_pos_site_id
 _symmetry_equiv_pos_as_xyz
  1  'x, y, z'
loop_
 _atom_site_type_symbol
 _atom_site_label
 _atom_site_symmetry_multiplicity
 _atom_site_fract_x
 _atom_site_fract_y
 _atom_site_fract_z
 _atom_site_occupancy
  Sm  Sm0  1  0.000000  0.000000  0.500000  1
  Sm  Sm1  1  0.000000  0.000000  0.000000  1
  Sm  Sm2  1  0.000000  0.000000  0.750000  1
  Sm  Sm3  1  0.000000  0.000000  0.250000  1
  Zn  Zn4  1  0.333333  0.666667  0.158278  1
  Zn  Zn5  1  0.666667  0.333333  0.658278  1
  Zn  Zn6  1  0.666667  0.333333  0.841722  1
  Zn  Zn7  1  0.333333  0.666667  0.341722  1
  Sn  Sn8  1  0.666667  0.333333  0.385181  1
  Sn  Sn9  1  0.666667  0.333333  0.114819  1
  Sn  Sn10  1  0.333333  0.666667  0.885181  1
  Sn  Sn11  1  0.333333  0.666667  0.614819  1
