# generated using pymatgen
data_Dy3Ge5
_symmetry_space_group_name_H-M   'P 1'
_cell_length_a   11.09534686
_cell_length_b   9.16798239
_cell_length_c   7.46639282
_cell_angle_alpha   82.99668603
_cell_angle_beta   55.09739587
_cell_angle_gamma   41.90591810
_symmetry_Int_Tables_number   1
_chemical_formula_structural   Dy3Ge5
_chemical_formula_sum   'Dy6 Ge10'
_cell_volume   346.12245054
_cell_formula_units_Z   2
loop_
 _symmetry_equiv_pos_site_id
 _symmetry_equiv_pos_as_xyz
  1  'x, y, z'
loop_
 _atom_site_type_symbol
 _atom_site_label
 _atom_site_symmetry_multiplicity
 _atom_site_fract_x
 _atom_site_fract_y
 _atom_site_fract_z
 _atom_site_occupancy
  Dy  Dy0  1  0.003749  0.996251  0.003749  1
  Dy  Dy1  1  0.253749  0.246251  0.253749  1
  Dy  Dy2  1  0.597287  0.567558  0.895620  1
  Dy  Dy3  1  0.895620  0.939535  0.597287  1
  Dy  Dy4  1  0.310465  0.354380  0.682442  1
  Dy  Dy5  1  0.682442  0.652713  0.310465  1
  Ge  Ge6  1  0.558444  0.441556  0.558444  1
  Ge  Ge7  1  0.808444  0.691556  0.808444  1
  Ge  Ge8  1  0.230129  0.896545  0.470428  1
  Ge  Ge9  1  0.470428  0.402899  0.230129  1
  Ge  Ge10  1  0.847101  0.779572  0.353455  1
  Ge  Ge11  1  0.353455  0.019871  0.847101  1
  Ge  Ge12  1  0.009363  0.165204  0.325005  1
  Ge  Ge13  1  0.325005  0.500428  0.009363  1
  Ge  Ge14  1  0.749572  0.924995  0.084796  1
  Ge  Ge15  1  0.084796  0.240637  0.749572  1
