# generated using pymatgen
data_AgHgSI
_symmetry_space_group_name_H-M   'P 1'
_cell_length_a   4.68547435
_cell_length_b   10.16108337
_cell_length_c   10.37088410
_cell_angle_alpha   90.00000000
_cell_angle_beta   90.00000000
_cell_angle_gamma   90.00000000
_symmetry_Int_Tables_number   1
_chemical_formula_structural   AgHgSI
_chemical_formula_sum   'Ag4 Hg4 S4 I4'
_cell_volume   493.75255987
_cell_formula_units_Z   4
loop_
 _symmetry_equiv_pos_site_id
 _symmetry_equiv_pos_as_xyz
  1  'x, y, z'
loop_
 _atom_site_type_symbol
 _atom_site_label
 _atom_site_symmetry_multiplicity
 _atom_site_fract_x
 _atom_site_fract_y
 _atom_site_fract_z
 _atom_site_occupancy
  Ag  Ag0  1  0.000000  0.208266  0.427923  1
  Ag  Ag1  1  0.000000  0.791734  0.927923  1
  Ag  Ag2  1  0.000000  0.791734  0.572077  1
  Ag  Ag3  1  0.000000  0.208266  0.072077  1
  Hg  Hg4  1  0.500000  0.236980  0.750000  1
  Hg  Hg5  1  0.500000  0.500000  0.000000  1
  Hg  Hg6  1  0.500000  0.763020  0.250000  1
  Hg  Hg7  1  0.500000  0.500000  0.500000  1
  S  S8  1  0.500000  0.261321  0.516693  1
  S  S9  1  0.500000  0.738679  0.483307  1
  S  S10  1  0.500000  0.261321  0.983307  1
  S  S11  1  0.500000  0.738679  0.016693  1
  I  I12  1  0.000000  0.537424  0.750000  1
  I  I13  1  0.000000  0.995375  0.250000  1
  I  I14  1  0.000000  0.462576  0.250000  1
  I  I15  1  0.000000  0.004625  0.750000  1
