# generated using pymatgen
data_Ti6Sn5
_symmetry_space_group_name_H-M   'P 1'
_cell_length_a   9.87896516
_cell_length_b   9.87896516
_cell_length_c   9.87896516
_cell_angle_alpha   146.24442714
_cell_angle_beta   124.74693097
_cell_angle_gamma   66.33625323
_symmetry_Int_Tables_number   1
_chemical_formula_structural   Ti6Sn5
_chemical_formula_sum   'Ti12 Sn10'
_cell_volume   434.60260346
_cell_formula_units_Z   2
loop_
 _symmetry_equiv_pos_site_id
 _symmetry_equiv_pos_as_xyz
  1  'x, y, z'
loop_
 _atom_site_type_symbol
 _atom_site_label
 _atom_site_symmetry_multiplicity
 _atom_site_fract_x
 _atom_site_fract_y
 _atom_site_fract_z
 _atom_site_occupancy
  Ti  Ti0  1  0.157861  0.657861  0.500000  1
  Ti  Ti1  1  0.684980  0.913953  0.771027  1
  Ti  Ti2  1  0.857074  0.086047  0.771027  1
  Ti  Ti3  1  0.842139  0.342139  0.500000  1
  Ti  Ti4  1  0.500000  0.766078  0.266078  1
  Ti  Ti5  1  1.000000  1.000000  0.500000  1
  Ti  Ti6  1  0.500000  0.233922  0.733922  1
  Ti  Ti7  1  0.315020  0.086047  0.228973  1
  Ti  Ti8  1  0.142926  0.913953  0.228973  1
  Ti  Ti9  1  0.500000  1.000000  1.000000  1
  Ti  Ti10  1  0.500000  0.500000  0.500000  1
  Ti  Ti11  1  1.000000  0.500000  0.000000  1
  Sn  Sn12  1  0.412554  0.604184  0.808370  1
  Sn  Sn13  1  0.791567  0.791567  0.000000  1
  Sn  Sn14  1  0.330700  0.830700  0.500000  1
  Sn  Sn15  1  0.795814  0.604184  0.191630  1
  Sn  Sn16  1  0.208433  0.208433  0.000000  1
  Sn  Sn17  1  1.000000  0.745442  0.745442  1
  Sn  Sn18  1  0.669300  0.169300  0.500000  1
  Sn  Sn19  1  0.587446  0.395816  0.191630  1
  Sn  Sn20  1  0.204186  0.395816  0.808370  1
  Sn  Sn21  1  1.000000  0.254558  0.254558  1
