# generated using pymatgen
data_MoP2O7
_symmetry_space_group_name_H-M   'P 1'
_cell_length_a   6.51685397
_cell_length_b   6.51685397
_cell_length_c   13.54037345
_cell_angle_alpha   73.84529239
_cell_angle_beta   106.15470761
_cell_angle_gamma   100.22761498
_symmetry_Int_Tables_number   1
_chemical_formula_structural   MoP2O7
_chemical_formula_sum   'Mo4 P8 O28'
_cell_volume   527.40000762
_cell_formula_units_Z   4
loop_
 _symmetry_equiv_pos_site_id
 _symmetry_equiv_pos_as_xyz
  1  'x, y, z'
loop_
 _atom_site_type_symbol
 _atom_site_label
 _atom_site_symmetry_multiplicity
 _atom_site_fract_x
 _atom_site_fract_y
 _atom_site_fract_z
 _atom_site_occupancy
  Mo  Mo0  1  0.406546  0.120578  0.644246  1
  Mo  Mo1  1  0.879422  0.593454  0.144246  1
  Mo  Mo2  1  0.120578  0.406546  0.855754  1
  Mo  Mo3  1  0.593454  0.879422  0.355754  1
  P  P4  1  0.911624  0.246927  0.633558  1
  P  P5  1  0.088376  0.753073  0.366442  1
  P  P6  1  0.753073  0.088376  0.133558  1
  P  P7  1  0.665153  0.409992  0.930148  1
  P  P8  1  0.590008  0.334847  0.430148  1
  P  P9  1  0.334847  0.590008  0.069852  1
  P  P10  1  0.246927  0.911624  0.866442  1
  P  P11  1  0.409992  0.665153  0.569852  1
  O  O12  1  0.810101  0.354373  0.872399  1
  O  O13  1  0.354373  0.810101  0.627601  1
  O  O14  1  0.445542  0.462587  0.857658  1
  O  O15  1  0.415493  0.017458  0.800670  1
  O  O16  1  0.645627  0.189899  0.372399  1
  O  O17  1  0.554458  0.537413  0.142342  1
  O  O18  1  0.584507  0.982542  0.199330  1
  O  O19  1  0.389734  0.801453  0.981300  1
  O  O20  1  0.076815  0.130187  0.617432  1
  O  O21  1  0.537413  0.554458  0.357658  1
  O  O22  1  0.130187  0.076815  0.882568  1
  O  O23  1  0.221265  0.411039  0.012783  1
  O  O24  1  0.017458  0.415493  0.699330  1
  O  O25  1  0.411039  0.221265  0.487217  1
  O  O26  1  0.093958  0.732905  0.824050  1
  O  O27  1  0.189899  0.645627  0.127601  1
  O  O28  1  0.801453  0.389734  0.518700  1
  O  O29  1  0.923185  0.869813  0.382568  1
  O  O30  1  0.732905  0.093958  0.675950  1
  O  O31  1  0.198547  0.610266  0.481300  1
  O  O32  1  0.610266  0.198547  0.018700  1
  O  O33  1  0.906042  0.267095  0.175950  1
  O  O34  1  0.588961  0.778735  0.512783  1
  O  O35  1  0.982542  0.584507  0.300670  1
  O  O36  1  0.778735  0.588961  0.987217  1
  O  O37  1  0.869813  0.923185  0.117432  1
  O  O38  1  0.462587  0.445542  0.642342  1
  O  O39  1  0.267095  0.906042  0.324050  1
