# generated using pymatgen
data_Nb3As
_symmetry_space_group_name_H-M   'P 1'
_cell_length_a   10.37562723
_cell_length_b   10.37562723
_cell_length_c   5.24186009
_cell_angle_alpha   90.00000000
_cell_angle_beta   90.00000000
_cell_angle_gamma   90.00000000
_symmetry_Int_Tables_number   1
_chemical_formula_structural   Nb3As
_chemical_formula_sum   'Nb24 As8'
_cell_volume   564.30532124
_cell_formula_units_Z   8
loop_
 _symmetry_equiv_pos_site_id
 _symmetry_equiv_pos_as_xyz
  1  'x, y, z'
loop_
 _atom_site_type_symbol
 _atom_site_label
 _atom_site_symmetry_multiplicity
 _atom_site_fract_x
 _atom_site_fract_y
 _atom_site_fract_z
 _atom_site_occupancy
  Nb  Nb0  1  0.405918  0.915509  0.477494  1
  Nb  Nb1  1  0.415509  0.094082  0.977494  1
  Nb  Nb2  1  0.584491  0.905918  0.977494  1
  Nb  Nb3  1  0.594082  0.084491  0.477494  1
  Nb  Nb4  1  0.094082  0.584491  0.022506  1
  Nb  Nb5  1  0.084491  0.405918  0.522506  1
  Nb  Nb6  1  0.915509  0.594082  0.522506  1
  Nb  Nb7  1  0.905918  0.415509  0.022506  1
  Nb  Nb8  1  0.011493  0.851193  0.268065  1
  Nb  Nb9  1  0.351193  0.488507  0.768065  1
  Nb  Nb10  1  0.648807  0.511493  0.768065  1
  Nb  Nb11  1  0.988507  0.148807  0.268065  1
  Nb  Nb12  1  0.488507  0.648807  0.231935  1
  Nb  Nb13  1  0.148807  0.011493  0.731935  1
  Nb  Nb14  1  0.851193  0.988507  0.731935  1
  Nb  Nb15  1  0.511493  0.351193  0.231935  1
  Nb  Nb16  1  0.286554  0.806050  0.990987  1
  Nb  Nb17  1  0.306050  0.213446  0.490987  1
  Nb  Nb18  1  0.693950  0.786554  0.490987  1
  Nb  Nb19  1  0.713446  0.193950  0.990987  1
  Nb  Nb20  1  0.213446  0.693950  0.509013  1
  Nb  Nb21  1  0.193950  0.286554  0.009013  1
  Nb  Nb22  1  0.806050  0.713446  0.009013  1
  Nb  Nb23  1  0.786554  0.306050  0.509013  1
  As  As24  1  0.021237  0.793357  0.769892  1
  As  As25  1  0.293357  0.478763  0.269892  1
  As  As26  1  0.706643  0.521237  0.269892  1
  As  As27  1  0.978763  0.206643  0.769892  1
  As  As28  1  0.478763  0.706643  0.730108  1
  As  As29  1  0.206643  0.021237  0.230108  1
  As  As30  1  0.793357  0.978763  0.230108  1
  As  As31  1  0.521237  0.293357  0.730108  1
