# generated using pymatgen
data_Nd4Mg3Co2
_symmetry_space_group_name_H-M   'P 1'
_cell_length_a   7.62643384
_cell_length_b   3.85035667
_cell_length_c   8.31146378
_cell_angle_alpha   90.00000000
_cell_angle_beta   109.79767449
_cell_angle_gamma   90.00000000
_symmetry_Int_Tables_number   1
_chemical_formula_structural   Nd4Mg3Co2
_chemical_formula_sum   'Nd4 Mg3 Co2'
_cell_volume   229.63650203
_cell_formula_units_Z   1
loop_
 _symmetry_equiv_pos_site_id
 _symmetry_equiv_pos_as_xyz
  1  'x, y, z'
loop_
 _atom_site_type_symbol
 _atom_site_label
 _atom_site_symmetry_multiplicity
 _atom_site_fract_x
 _atom_site_fract_y
 _atom_site_fract_z
 _atom_site_occupancy
  Nd  Nd0  1  0.601964  0.500000  0.817888  1
  Nd  Nd1  1  0.903248  0.500000  0.274798  1
  Nd  Nd2  1  0.096752  0.500000  0.725202  1
  Nd  Nd3  1  0.398036  0.500000  0.182112  1
  Mg  Mg4  1  0.706269  0.000000  0.498364  1
  Mg  Mg5  1  0.293731  0.000000  0.501636  1
  Mg  Mg6  1  0.000000  0.000000  0.000000  1
  Co  Co7  1  0.351996  0.000000  0.894486  1
  Co  Co8  1  0.648004  0.000000  0.105514  1
