# generated using pymatgen
data_Li6Br3N
_symmetry_space_group_name_H-M   'P 1'
_cell_length_a   6.27188059
_cell_length_b   6.38385360
_cell_length_c   10.98309455
_cell_angle_alpha   90.00000000
_cell_angle_beta   124.47725714
_cell_angle_gamma   90.00000000
_symmetry_Int_Tables_number   1
_chemical_formula_structural   Li6Br3N
_chemical_formula_sum   'Li12 Br6 N2'
_cell_volume   362.50797574
_cell_formula_units_Z   2
loop_
 _symmetry_equiv_pos_site_id
 _symmetry_equiv_pos_as_xyz
  1  'x, y, z'
loop_
 _atom_site_type_symbol
 _atom_site_label
 _atom_site_symmetry_multiplicity
 _atom_site_fract_x
 _atom_site_fract_y
 _atom_site_fract_z
 _atom_site_occupancy
  Li  Li0  1  0.297786  0.437633  0.699862  1
  Li  Li1  1  0.215788  0.829313  0.964768  1
  Li  Li2  1  0.784212  0.170687  0.035232  1
  Li  Li3  1  0.215788  0.670687  0.464768  1
  Li  Li4  1  0.784212  0.329313  0.535232  1
  Li  Li5  1  0.907082  0.764002  0.074379  1
  Li  Li6  1  0.702214  0.937633  0.800138  1
  Li  Li7  1  0.907082  0.735998  0.574379  1
  Li  Li8  1  0.702214  0.562367  0.300138  1
  Li  Li9  1  0.297786  0.062367  0.199862  1
  Li  Li10  1  0.092918  0.235998  0.925621  1
  Li  Li11  1  0.092918  0.264002  0.425621  1
  Br  Br12  1  0.249392  0.481790  0.257145  1
  Br  Br13  1  0.750608  0.518210  0.742855  1
  Br  Br14  1  0.249392  0.018210  0.757145  1
  Br  Br15  1  0.750608  0.981790  0.242855  1
  Br  Br16  1  0.500000  0.500000  0.000000  1
  Br  Br17  1  0.500000  0.000000  0.500000  1
  N  N18  1  0.000000  0.500000  0.500000  1
  N  N19  1  0.000000  0.000000  0.000000  1
