# generated using pymatgen
data_AlV4C3
_symmetry_space_group_name_H-M   'P 1'
_cell_length_a   2.92271982
_cell_length_b   2.92271982
_cell_length_c   22.81461430
_cell_angle_alpha   90.00000000
_cell_angle_beta   90.00000000
_cell_angle_gamma   120.00000000
_symmetry_Int_Tables_number   1
_chemical_formula_structural   AlV4C3
_chemical_formula_sum   'Al2 V8 C6'
_cell_volume   168.77889240
_cell_formula_units_Z   2
loop_
 _symmetry_equiv_pos_site_id
 _symmetry_equiv_pos_as_xyz
  1  'x, y, z'
loop_
 _atom_site_type_symbol
 _atom_site_label
 _atom_site_symmetry_multiplicity
 _atom_site_fract_x
 _atom_site_fract_y
 _atom_site_fract_z
 _atom_site_occupancy
  Al  Al0  1  0.666667  0.333333  0.750000  1
  Al  Al1  1  0.333333  0.666667  0.250000  1
  V  V2  1  0.000000  0.000000  0.345556  1
  V  V3  1  0.000000  0.000000  0.654444  1
  V  V4  1  0.000000  0.000000  0.154444  1
  V  V5  1  0.333333  0.666667  0.445566  1
  V  V6  1  0.666667  0.333333  0.945566  1
  V  V7  1  0.000000  0.000000  0.845556  1
  V  V8  1  0.666667  0.333333  0.554434  1
  V  V9  1  0.333333  0.666667  0.054434  1
  C  C10  1  0.333333  0.666667  0.892378  1
  C  C11  1  0.666667  0.333333  0.392378  1
  C  C12  1  0.000000  0.000000  0.000000  1
  C  C13  1  0.333333  0.666667  0.607622  1
  C  C14  1  0.666667  0.333333  0.107622  1
  C  C15  1  0.000000  0.000000  0.500000  1
