# generated using pymatgen
data_Dy12C6I17
_symmetry_space_group_name_H-M   'P 1'
_cell_length_a   11.60890802
_cell_length_b   11.60890802
_cell_length_c   18.71395841
_cell_angle_alpha   89.25728233
_cell_angle_beta   90.74271767
_cell_angle_gamma   116.24723789
_symmetry_Int_Tables_number   1
_chemical_formula_structural   Dy12C6I17
_chemical_formula_sum   'Dy24 C12 I34'
_cell_volume   2261.72056075
_cell_formula_units_Z   2
loop_
 _symmetry_equiv_pos_site_id
 _symmetry_equiv_pos_as_xyz
  1  'x, y, z'
loop_
 _atom_site_type_symbol
 _atom_site_label
 _atom_site_symmetry_multiplicity
 _atom_site_fract_x
 _atom_site_fract_y
 _atom_site_fract_z
 _atom_site_occupancy
  Dy  Dy0  1  0.703003  0.698525  0.476822  1
  Dy  Dy1  1  0.452420  0.531657  0.125328  1
  Dy  Dy2  1  0.078700  0.984396  0.847638  1
  Dy  Dy3  1  0.109483  0.418840  0.617677  1
  Dy  Dy4  1  0.195422  0.337789  0.787684  1
  Dy  Dy5  1  0.531657  0.452421  0.374672  1
  Dy  Dy6  1  0.984396  0.078700  0.652362  1
  Dy  Dy7  1  0.921300  0.015604  0.152362  1
  Dy  Dy8  1  0.547579  0.468343  0.874672  1
  Dy  Dy9  1  0.804578  0.662211  0.212316  1
  Dy  Dy10  1  0.418840  0.109483  0.882323  1
  Dy  Dy11  1  0.662211  0.804578  0.287684  1
  Dy  Dy12  1  0.637463  0.357675  0.050039  1
  Dy  Dy13  1  0.301475  0.296997  0.976822  1
  Dy  Dy14  1  0.337789  0.195422  0.712316  1
  Dy  Dy15  1  0.698525  0.703003  0.023178  1
  Dy  Dy16  1  0.890517  0.581160  0.382323  1
  Dy  Dy17  1  0.468343  0.547579  0.625328  1
  Dy  Dy18  1  0.296997  0.301475  0.523178  1
  Dy  Dy19  1  0.357675  0.637463  0.449961  1
  Dy  Dy20  1  0.362537  0.642325  0.949961  1
  Dy  Dy21  1  0.581160  0.890517  0.117677  1
  Dy  Dy22  1  0.642325  0.362537  0.550039  1
  Dy  Dy23  1  0.015604  0.921300  0.347638  1
  C  C24  1  0.535244  0.467269  0.512148  1
  C  C25  1  0.746776  0.829817  0.153747  1
  C  C26  1  0.467269  0.535244  0.987852  1
  C  C27  1  0.368774  0.286925  0.849661  1
  C  C28  1  0.829817  0.746776  0.346253  1
  C  C29  1  0.464756  0.532731  0.487852  1
  C  C30  1  0.170183  0.253224  0.653747  1
  C  C31  1  0.532731  0.464756  0.012148  1
  C  C32  1  0.286925  0.368774  0.650339  1
  C  C33  1  0.631226  0.713075  0.150339  1
  C  C34  1  0.713075  0.631226  0.349661  1
  C  C35  1  0.253224  0.170183  0.846253  1
  I  I36  1  0.372067  0.573346  0.292385  1
  I  I37  1  0.714104  0.807495  0.636084  1
  I  I38  1  0.963751  0.502914  0.248559  1
  I  I39  1  0.108783  0.905178  0.697690  1
  I  I40  1  0.310061  0.706521  0.599656  1
  I  I41  1  0.901854  0.605970  0.546986  1
  I  I42  1  0.036249  0.497086  0.751441  1
  I  I43  1  0.107685  0.399720  0.938455  1
  I  I44  1  1.000000  0.000000  0.500000  1
  I  I45  1  0.807495  0.714104  0.863916  1
  I  I46  1  0.689939  0.293479  0.400344  1
  I  I47  1  0.706521  0.310061  0.900344  1
  I  I48  1  0.605970  0.901854  0.953014  1
  I  I49  1  0.098146  0.394030  0.453014  1
  I  I50  1  0.600280  0.892315  0.438455  1
  I  I51  1  0.502914  0.963751  0.251441  1
  I  I52  1  0.892315  0.600280  0.061545  1
  I  I53  1  0.573346  0.372067  0.207615  1
  I  I54  1  0.094822  0.891217  0.197690  1
  I  I55  1  0.293479  0.689939  0.099656  1
  I  I56  1  0.214721  0.823051  0.898482  1
  I  I57  1  0.497086  0.036249  0.748559  1
  I  I58  1  0.394030  0.098146  0.046986  1
  I  I59  1  0.785279  0.176949  0.101518  1
  I  I60  1  0.426654  0.627933  0.792385  1
  I  I61  1  0.627933  0.426654  0.707615  1
  I  I62  1  0.176949  0.785279  0.398482  1
  I  I63  1  0.000000  0.000000  0.000000  1
  I  I64  1  0.285896  0.192505  0.363916  1
  I  I65  1  0.823051  0.214721  0.601518  1
  I  I66  1  0.399720  0.107685  0.561545  1
  I  I67  1  0.905178  0.108783  0.802310  1
  I  I68  1  0.891217  0.094822  0.302310  1
  I  I69  1  0.192505  0.285896  0.136084  1
