# generated using pymatgen
data_LiCoP2O7
_symmetry_space_group_name_H-M   'P 1'
_cell_length_a   6.80247504
_cell_length_b   8.01688420
_cell_length_c   9.51134004
_cell_angle_alpha   90.00000000
_cell_angle_beta   109.17365405
_cell_angle_gamma   90.00000000
_symmetry_Int_Tables_number   1
_chemical_formula_structural   LiCoP2O7
_chemical_formula_sum   'Li4 Co4 P8 O28'
_cell_volume   489.92418466
_cell_formula_units_Z   4
loop_
 _symmetry_equiv_pos_site_id
 _symmetry_equiv_pos_as_xyz
  1  'x, y, z'
loop_
 _atom_site_type_symbol
 _atom_site_label
 _atom_site_symmetry_multiplicity
 _atom_site_fract_x
 _atom_site_fract_y
 _atom_site_fract_z
 _atom_site_occupancy
  Li  Li0  1  0.204775  0.874958  0.537057  1
  Li  Li1  1  0.204775  0.625042  0.037057  1
  Li  Li2  1  0.795225  0.374958  0.962943  1
  Li  Li3  1  0.795225  0.125042  0.462943  1
  Co  Co4  1  0.281442  0.224758  0.995973  1
  Co  Co5  1  0.281442  0.275242  0.495973  1
  Co  Co6  1  0.718558  0.724758  0.504027  1
  Co  Co7  1  0.718558  0.775242  0.004027  1
  P  P8  1  0.533571  0.415872  0.295466  1
  P  P9  1  0.466429  0.915872  0.204534  1
  P  P10  1  0.533571  0.084128  0.795466  1
  P  P11  1  0.054257  0.462386  0.705187  1
  P  P12  1  0.945743  0.962385  0.794813  1
  P  P13  1  0.466429  0.584128  0.704534  1
  P  P14  1  0.054257  0.037614  0.205187  1
  P  P15  1  0.945743  0.537614  0.294813  1
  O  O16  1  0.938529  0.681648  0.398560  1
  O  O17  1  0.089708  0.087228  0.367931  1
  O  O18  1  0.910292  0.587228  0.132069  1
  O  O19  1  0.487901  0.766183  0.110614  1
  O  O20  1  0.512099  0.266183  0.389386  1
  O  O21  1  0.770368  0.102734  0.791283  1
  O  O22  1  0.229632  0.602734  0.708717  1
  O  O23  1  0.611712  0.913917  0.368086  1
  O  O24  1  0.851273  0.561934  0.647858  1
  O  O25  1  0.770368  0.397266  0.291283  1
  O  O26  1  0.089708  0.412772  0.867931  1
  O  O27  1  0.061471  0.181648  0.101440  1
  O  O28  1  0.519310  0.584600  0.363649  1
  O  O29  1  0.388288  0.086083  0.631914  1
  O  O30  1  0.229632  0.897266  0.208717  1
  O  O31  1  0.512099  0.233817  0.889386  1
  O  O32  1  0.480690  0.084600  0.136351  1
  O  O33  1  0.851273  0.938066  0.147858  1
  O  O34  1  0.148727  0.438066  0.352142  1
  O  O35  1  0.938529  0.818352  0.898560  1
  O  O36  1  0.519310  0.915400  0.863649  1
  O  O37  1  0.487901  0.733817  0.610614  1
  O  O38  1  0.480690  0.415400  0.636351  1
  O  O39  1  0.388288  0.413917  0.131914  1
  O  O40  1  0.061471  0.318352  0.601440  1
  O  O41  1  0.910292  0.912772  0.632069  1
  O  O42  1  0.611712  0.586083  0.868086  1
  O  O43  1  0.148727  0.061934  0.852142  1
