# generated using pymatgen
data_Sr5Nb5O17
_symmetry_space_group_name_H-M   'P 1'
_cell_length_a   4.04878772
_cell_length_b   5.75167605
_cell_length_c   33.15188111
_cell_angle_alpha   90.00000000
_cell_angle_beta   90.00000000
_cell_angle_gamma   90.00000000
_symmetry_Int_Tables_number   1
_chemical_formula_structural   Sr5Nb5O17
_chemical_formula_sum   'Sr10 Nb10 O34'
_cell_volume   772.01831021
_cell_formula_units_Z   2
loop_
 _symmetry_equiv_pos_site_id
 _symmetry_equiv_pos_as_xyz
  1  'x, y, z'
loop_
 _atom_site_type_symbol
 _atom_site_label
 _atom_site_symmetry_multiplicity
 _atom_site_fract_x
 _atom_site_fract_y
 _atom_site_fract_z
 _atom_site_occupancy
  Sr  Sr0  1  0.000000  0.932952  0.782996  1
  Sr  Sr1  1  0.000000  0.067048  0.217004  1
  Sr  Sr2  1  0.500000  0.567048  0.282996  1
  Sr  Sr3  1  0.500000  0.432952  0.717004  1
  Sr  Sr4  1  0.500000  0.500000  0.500000  1
  Sr  Sr5  1  0.000000  0.000000  0.000000  1
  Sr  Sr6  1  0.500000  0.002312  0.590117  1
  Sr  Sr7  1  0.500000  0.997688  0.409883  1
  Sr  Sr8  1  0.000000  0.497688  0.090117  1
  Sr  Sr9  1  0.000000  0.502312  0.909883  1
  Nb  Nb10  1  0.000000  0.000000  0.500000  1
  Nb  Nb11  1  0.500000  0.500000  0.000000  1
  Nb  Nb12  1  0.000000  0.965820  0.676780  1
  Nb  Nb13  1  0.000000  0.034180  0.323220  1
  Nb  Nb14  1  0.500000  0.534180  0.176780  1
  Nb  Nb15  1  0.500000  0.465820  0.823220  1
  Nb  Nb16  1  0.000000  0.494790  0.590050  1
  Nb  Nb17  1  0.000000  0.505210  0.409950  1
  Nb  Nb18  1  0.500000  0.005210  0.090050  1
  Nb  Nb19  1  0.500000  0.994790  0.909950  1
  O  O20  1  0.000000  0.280917  0.463713  1
  O  O21  1  0.000000  0.719083  0.536287  1
  O  O22  1  0.500000  0.219083  0.963713  1
  O  O23  1  0.500000  0.780917  0.036287  1
  O  O24  1  0.000000  0.222440  0.548138  1
  O  O25  1  0.000000  0.777560  0.451862  1
  O  O26  1  0.500000  0.277560  0.048138  1
  O  O27  1  0.500000  0.722440  0.951862  1
  O  O28  1  0.500000  0.000000  0.500000  1
  O  O29  1  0.000000  0.500000  0.000000  1
  O  O30  1  0.500000  0.201726  0.791126  1
  O  O31  1  0.500000  0.798274  0.208874  1
  O  O32  1  0.000000  0.298274  0.291126  1
  O  O33  1  0.000000  0.701726  0.708874  1
  O  O34  1  0.500000  0.293992  0.879798  1
  O  O35  1  0.500000  0.706008  0.120202  1
  O  O36  1  0.000000  0.206008  0.379798  1
  O  O37  1  0.000000  0.793992  0.620202  1
  O  O38  1  0.500000  0.775424  0.867957  1
  O  O39  1  0.500000  0.224576  0.132043  1
  O  O40  1  0.000000  0.724576  0.367957  1
  O  O41  1  0.000000  0.275424  0.632043  1
  O  O42  1  0.000000  0.183156  0.720183  1
  O  O43  1  0.000000  0.816844  0.279817  1
  O  O44  1  0.500000  0.316844  0.220183  1
  O  O45  1  0.500000  0.683156  0.779817  1
  O  O46  1  0.500000  0.998450  0.669149  1
  O  O47  1  0.500000  0.001550  0.330851  1
  O  O48  1  0.000000  0.501550  0.169149  1
  O  O49  1  0.000000  0.498450  0.830851  1
  O  O50  1  0.500000  0.509049  0.583356  1
  O  O51  1  0.500000  0.490951  0.416644  1
  O  O52  1  0.000000  0.990951  0.083356  1
  O  O53  1  0.000000  0.009049  0.916644  1
