# generated using pymatgen
data_Tm5Sb3
_symmetry_space_group_name_H-M   'P 1'
_cell_length_a   8.05490800
_cell_length_b   9.19151964
_cell_length_c   11.69273544
_cell_angle_alpha   90.00000000
_cell_angle_beta   90.00000000
_cell_angle_gamma   90.00000000
_symmetry_Int_Tables_number   1
_chemical_formula_structural   Tm5Sb3
_chemical_formula_sum   'Tm20 Sb12'
_cell_volume   865.69324234
_cell_formula_units_Z   4
loop_
 _symmetry_equiv_pos_site_id
 _symmetry_equiv_pos_as_xyz
  1  'x, y, z'
loop_
 _atom_site_type_symbol
 _atom_site_label
 _atom_site_symmetry_multiplicity
 _atom_site_fract_x
 _atom_site_fract_y
 _atom_site_fract_z
 _atom_site_occupancy
  Tm  Tm0  1  0.808863  0.940825  0.066283  1
  Tm  Tm1  1  0.308863  0.059175  0.433717  1
  Tm  Tm2  1  0.191137  0.440825  0.933717  1
  Tm  Tm3  1  0.691137  0.559175  0.566283  1
  Tm  Tm4  1  0.191137  0.059175  0.933717  1
  Tm  Tm5  1  0.691137  0.940825  0.566283  1
  Tm  Tm6  1  0.808863  0.559175  0.066283  1
  Tm  Tm7  1  0.308863  0.440825  0.433717  1
  Tm  Tm8  1  0.524567  0.250000  0.995167  1
  Tm  Tm9  1  0.024567  0.750000  0.504833  1
  Tm  Tm10  1  0.475433  0.750000  0.004833  1
  Tm  Tm11  1  0.975433  0.250000  0.495167  1
  Tm  Tm12  1  0.174866  0.750000  0.228655  1
  Tm  Tm13  1  0.674866  0.250000  0.271345  1
  Tm  Tm14  1  0.825134  0.250000  0.771345  1
  Tm  Tm15  1  0.325134  0.750000  0.728655  1
  Tm  Tm16  1  0.656805  0.750000  0.290938  1
  Tm  Tm17  1  0.156805  0.250000  0.209062  1
  Tm  Tm18  1  0.343195  0.250000  0.709062  1
  Tm  Tm19  1  0.843195  0.750000  0.790938  1
  Sb  Sb20  1  0.936379  0.990791  0.325527  1
  Sb  Sb21  1  0.436379  0.009209  0.174473  1
  Sb  Sb22  1  0.063621  0.490791  0.674473  1
  Sb  Sb23  1  0.563621  0.509209  0.825527  1
  Sb  Sb24  1  0.063621  0.009209  0.674473  1
  Sb  Sb25  1  0.563621  0.990791  0.825527  1
  Sb  Sb26  1  0.936379  0.509209  0.325527  1
  Sb  Sb27  1  0.436379  0.490791  0.174473  1
  Sb  Sb28  1  0.903849  0.250000  0.023705  1
  Sb  Sb29  1  0.403849  0.750000  0.476295  1
  Sb  Sb30  1  0.096151  0.750000  0.976295  1
  Sb  Sb31  1  0.596151  0.250000  0.523705  1
