# generated using pymatgen
data_K3Bi5(PO4)6
_symmetry_space_group_name_H-M   'P 1'
_cell_length_a   9.59211843
_cell_length_b   9.59211843
_cell_length_c   18.89795701
_cell_angle_alpha   68.44412258
_cell_angle_beta   111.55587742
_cell_angle_gamma   136.84263071
_symmetry_Int_Tables_number   1
_chemical_formula_structural   K3Bi5(PO4)6
_chemical_formula_sum   'K6 Bi10 P12 O48'
_cell_volume   1092.56537937
_cell_formula_units_Z   2
loop_
 _symmetry_equiv_pos_site_id
 _symmetry_equiv_pos_as_xyz
  1  'x, y, z'
loop_
 _atom_site_type_symbol
 _atom_site_label
 _atom_site_symmetry_multiplicity
 _atom_site_fract_x
 _atom_site_fract_y
 _atom_site_fract_z
 _atom_site_occupancy
  K  K0  1  0.686928  0.686928  0.750000  1
  K  K1  1  0.313072  0.313072  0.250000  1
  K  K2  1  0.521545  0.677127  0.930078  1
  K  K3  1  0.322873  0.478455  0.430078  1
  K  K4  1  0.478455  0.322873  0.069922  1
  K  K5  1  0.677127  0.521545  0.569922  1
  Bi  Bi6  1  0.236431  0.961956  0.471465  1
  Bi  Bi7  1  0.166829  0.616009  0.704422  1
  Bi  Bi8  1  0.383991  0.833171  0.204422  1
  Bi  Bi9  1  0.833171  0.383991  0.295578  1
  Bi  Bi10  1  0.038044  0.763569  0.971465  1
  Bi  Bi11  1  0.763569  0.038044  0.528535  1
  Bi  Bi12  1  0.961956  0.236431  0.028535  1
  Bi  Bi13  1  0.852670  0.852670  0.250000  1
  Bi  Bi14  1  0.147330  0.147330  0.750000  1
  Bi  Bi15  1  0.616009  0.166829  0.795578  1
  P  P16  1  0.846266  0.991231  0.381836  1
  P  P17  1  0.681715  0.112739  0.651234  1
  P  P18  1  0.112739  0.681715  0.848766  1
  P  P19  1  0.543071  0.283303  0.908780  1
  P  P20  1  0.887261  0.318285  0.151234  1
  P  P21  1  0.318285  0.887261  0.348766  1
  P  P22  1  0.991231  0.846266  0.118164  1
  P  P23  1  0.456929  0.716697  0.091220  1
  P  P24  1  0.716697  0.456929  0.408780  1
  P  P25  1  0.008769  0.153734  0.881836  1
  P  P26  1  0.153734  0.008769  0.618164  1
  P  P27  1  0.283303  0.543071  0.591220  1
  O  O28  1  0.133352  0.371047  0.542836  1
  O  O29  1  0.628953  0.866648  0.042836  1
  O  O30  1  0.950892  0.954167  0.881349  1
  O  O31  1  0.296850  0.460062  0.682053  1
  O  O32  1  0.692631  0.507109  0.924592  1
  O  O33  1  0.460062  0.296850  0.817947  1
  O  O34  1  0.213691  0.653114  0.584643  1
  O  O35  1  0.864752  0.753439  0.042960  1
  O  O36  1  0.867457  0.685858  0.186922  1
  O  O37  1  0.314142  0.132543  0.686922  1
  O  O38  1  0.418178  0.898216  0.434317  1
  O  O39  1  0.923871  0.177266  0.161873  1
  O  O40  1  0.674575  0.193043  0.173190  1
  O  O41  1  0.798898  0.090618  0.870167  1
  O  O42  1  0.307369  0.492891  0.075408  1
  O  O43  1  0.954167  0.950892  0.618651  1
  O  O44  1  0.177266  0.923871  0.338127  1
  O  O45  1  0.581822  0.101784  0.565683  1
  O  O46  1  0.135248  0.246561  0.957040  1
  O  O47  1  0.822734  0.076129  0.661873  1
  O  O48  1  0.090618  0.798898  0.629833  1
  O  O49  1  0.949646  0.524050  0.790931  1
  O  O50  1  0.492891  0.307369  0.424592  1
  O  O51  1  0.539938  0.703150  0.182053  1
  O  O52  1  0.806957  0.325425  0.673190  1
  O  O53  1  0.045833  0.049108  0.381349  1
  O  O54  1  0.685858  0.867457  0.313078  1
  O  O55  1  0.076129  0.822734  0.838127  1
  O  O56  1  0.325425  0.806957  0.826810  1
  O  O57  1  0.524050  0.949646  0.709069  1
  O  O58  1  0.653114  0.213691  0.915357  1
  O  O59  1  0.346886  0.786309  0.084643  1
  O  O60  1  0.101784  0.581822  0.934317  1
  O  O61  1  0.050354  0.475950  0.209069  1
  O  O62  1  0.246561  0.135248  0.542960  1
  O  O63  1  0.703150  0.539938  0.317947  1
  O  O64  1  0.371047  0.133352  0.957164  1
  O  O65  1  0.909382  0.201102  0.370167  1
  O  O66  1  0.507109  0.692631  0.575408  1
  O  O67  1  0.753439  0.864752  0.457040  1
  O  O68  1  0.866648  0.628953  0.457164  1
  O  O69  1  0.201102  0.909382  0.129833  1
  O  O70  1  0.049108  0.045833  0.118651  1
  O  O71  1  0.898216  0.418178  0.065683  1
  O  O72  1  0.193043  0.674575  0.326810  1
  O  O73  1  0.475950  0.050354  0.290931  1
  O  O74  1  0.132543  0.314142  0.813078  1
  O  O75  1  0.786309  0.346886  0.415357  1
