# generated using pymatgen
data_Li3Ni2(PO4)3
_symmetry_space_group_name_H-M   'P 1'
_cell_length_a   9.75254658
_cell_length_b   9.75254658
_cell_length_c   9.69638122
_cell_angle_alpha   85.86009512
_cell_angle_beta   94.13990488
_cell_angle_gamma   94.85275057
_symmetry_Int_Tables_number   1
_chemical_formula_structural   Li3Ni2(PO4)3
_chemical_formula_sum   'Li12 Ni8 P12 O48'
_cell_volume   914.51158724
_cell_formula_units_Z   4
loop_
 _symmetry_equiv_pos_site_id
 _symmetry_equiv_pos_as_xyz
  1  'x, y, z'
loop_
 _atom_site_type_symbol
 _atom_site_label
 _atom_site_symmetry_multiplicity
 _atom_site_fract_x
 _atom_site_fract_y
 _atom_site_fract_z
 _atom_site_occupancy
  Li  Li0  1  0.249712  0.624389  0.802732  1
  Li  Li1  1  0.624389  0.249712  0.197268  1
  Li  Li2  1  0.981544  0.497617  0.757220  1
  Li  Li3  1  0.497617  0.981544  0.242780  1
  Li  Li4  1  0.444439  0.774598  0.479027  1
  Li  Li5  1  0.774598  0.444439  0.520973  1
  Li  Li6  1  0.757767  0.018962  0.398249  1
  Li  Li7  1  0.767626  0.266922  0.818789  1
  Li  Li8  1  0.018962  0.757767  0.601751  1
  Li  Li9  1  0.070631  0.298970  0.981687  1
  Li  Li10  1  0.266922  0.767626  0.181211  1
  Li  Li11  1  0.298970  0.070631  0.018313  1
  Ni  Ni12  1  0.467370  0.467370  0.500000  1
  Ni  Ni13  1  0.250245  0.250245  0.500000  1
  Ni  Ni14  1  0.746454  0.969831  0.785096  1
  Ni  Ni15  1  0.969831  0.746454  0.214904  1
  Ni  Ni16  1  0.035766  0.249713  0.282728  1
  Ni  Ni17  1  0.249713  0.035766  0.717272  1
  Ni  Ni18  1  0.751730  0.751730  0.000000  1
  Ni  Ni19  1  0.533787  0.533787  0.000000  1
  P  P20  1  0.050772  0.827257  0.902707  1
  P  P21  1  0.162665  0.552202  0.427480  1
  P  P22  1  0.449609  0.842896  0.927301  1
  P  P23  1  0.948513  0.178948  0.594023  1
  P  P24  1  0.660537  0.678887  0.300830  1
  P  P25  1  0.827257  0.050772  0.097293  1
  P  P26  1  0.347551  0.319660  0.198685  1
  P  P27  1  0.552202  0.162665  0.572520  1
  P  P28  1  0.319660  0.347551  0.801315  1
  P  P29  1  0.842896  0.449609  0.072699  1
  P  P30  1  0.178948  0.948513  0.405977  1
  P  P31  1  0.678887  0.660537  0.699170  1
  O  O32  1  0.800485  0.094629  0.941326  1
  O  O33  1  0.109072  0.175654  0.627515  1
  O  O34  1  0.910725  0.180102  0.435196  1
  O  O35  1  0.593415  0.802860  0.347819  1
  O  O36  1  0.377261  0.328678  0.360771  1
  O  O37  1  0.085518  0.713981  0.812138  1
  O  O38  1  0.594374  0.095366  0.446273  1
  O  O39  1  0.409750  0.685210  0.927383  1
  O  O40  1  0.713981  0.085518  0.187862  1
  O  O41  1  0.610371  0.877030  0.924089  1
  O  O42  1  0.884646  0.037731  0.651333  1
  O  O43  1  0.890429  0.838018  0.875805  1
  O  O44  1  0.461259  0.405349  0.861469  1
  O  O45  1  0.672219  0.624253  0.860101  1
  O  O46  1  0.303537  0.896319  0.342785  1
  O  O47  1  0.838018  0.890429  0.124195  1
  O  O48  1  0.687450  0.818315  0.662029  1
  O  O49  1  0.115539  0.624387  0.287178  1
  O  O50  1  0.818315  0.687450  0.337971  1
  O  O51  1  0.399360  0.901431  0.056849  1
  O  O52  1  0.624387  0.115539  0.712822  1
  O  O53  1  0.175654  0.109072  0.372485  1
  O  O54  1  0.970200  0.123838  0.136487  1
  O  O55  1  0.128404  0.392257  0.417285  1
  O  O56  1  0.685210  0.409750  0.072617  1
  O  O57  1  0.191528  0.304893  0.155226  1
  O  O58  1  0.037731  0.884646  0.348667  1
  O  O59  1  0.095366  0.594374  0.553727  1
  O  O60  1  0.123838  0.970200  0.863513  1
  O  O61  1  0.896319  0.303537  0.657215  1
  O  O62  1  0.901431  0.399360  0.943151  1
  O  O63  1  0.197345  0.420626  0.844495  1
  O  O64  1  0.328678  0.377261  0.639229  1
  O  O65  1  0.321636  0.593162  0.438271  1
  O  O66  1  0.405349  0.461259  0.138531  1
  O  O67  1  0.624253  0.672219  0.139899  1
  O  O68  1  0.386753  0.905116  0.789021  1
  O  O69  1  0.877030  0.610371  0.075911  1
  O  O70  1  0.537541  0.611616  0.628364  1
  O  O71  1  0.420626  0.197345  0.155505  1
  O  O72  1  0.611616  0.537541  0.371636  1
  O  O73  1  0.593162  0.321636  0.561729  1
  O  O74  1  0.180102  0.910725  0.564804  1
  O  O75  1  0.905116  0.386753  0.210979  1
  O  O76  1  0.392257  0.128404  0.582715  1
  O  O77  1  0.304893  0.191528  0.844774  1
  O  O78  1  0.094629  0.800485  0.058674  1
  O  O79  1  0.802860  0.593415  0.652181  1
