# generated using pymatgen
data_LiCoF4
_symmetry_space_group_name_H-M   'P 1'
_cell_length_a   5.53173427
_cell_length_b   4.74461807
_cell_length_c   5.62228377
_cell_angle_alpha   90.00000000
_cell_angle_beta   114.37511370
_cell_angle_gamma   90.00000000
_symmetry_Int_Tables_number   1
_chemical_formula_structural   LiCoF4
_chemical_formula_sum   'Li2 Co2 F8'
_cell_volume   134.40901337
_cell_formula_units_Z   2
loop_
 _symmetry_equiv_pos_site_id
 _symmetry_equiv_pos_as_xyz
  1  'x, y, z'
loop_
 _atom_site_type_symbol
 _atom_site_label
 _atom_site_symmetry_multiplicity
 _atom_site_fract_x
 _atom_site_fract_y
 _atom_site_fract_z
 _atom_site_occupancy
  Li  Li0  1  0.500000  0.500000  0.000000  1
  Li  Li1  1  0.500000  0.000000  0.500000  1
  Co  Co2  1  0.000000  0.000000  0.000000  1
  Co  Co3  1  0.000000  0.500000  0.500000  1
  F  F4  1  0.853470  0.204795  0.657499  1
  F  F5  1  0.321135  0.182514  0.127215  1
  F  F6  1  0.146530  0.795205  0.342501  1
  F  F7  1  0.146530  0.704795  0.842501  1
  F  F8  1  0.853470  0.295205  0.157499  1
  F  F9  1  0.678865  0.817486  0.872785  1
  F  F10  1  0.321135  0.317486  0.627215  1
  F  F11  1  0.678865  0.682514  0.372785  1
