# generated using pymatgen
data_Pr23Mg4Ni7
_symmetry_space_group_name_H-M   'P 1'
_cell_length_a   10.03246266
_cell_length_b   10.03246266
_cell_length_c   22.75325953
_cell_angle_alpha   90.00000000
_cell_angle_beta   90.00000000
_cell_angle_gamma   120.00000000
_symmetry_Int_Tables_number   1
_chemical_formula_structural   Pr23Mg4Ni7
_chemical_formula_sum   'Pr46 Mg8 Ni14'
_cell_volume   1983.30431201
_cell_formula_units_Z   2
loop_
 _symmetry_equiv_pos_site_id
 _symmetry_equiv_pos_as_xyz
  1  'x, y, z'
loop_
 _atom_site_type_symbol
 _atom_site_label
 _atom_site_symmetry_multiplicity
 _atom_site_fract_x
 _atom_site_fract_y
 _atom_site_fract_z
 _atom_site_occupancy
  Pr  Pr0  1  0.792811  0.207189  0.948333  1
  Pr  Pr1  1  0.079054  0.539527  0.586591  1
  Pr  Pr2  1  0.414377  0.207189  0.948333  1
  Pr  Pr3  1  0.666667  0.333333  0.645324  1
  Pr  Pr4  1  0.792811  0.585623  0.948333  1
  Pr  Pr5  1  0.920946  0.460473  0.086591  1
  Pr  Pr6  1  0.793252  0.206748  0.219895  1
  Pr  Pr7  1  0.206748  0.793252  0.719895  1
  Pr  Pr8  1  0.211871  0.423742  0.992491  1
  Pr  Pr9  1  0.206748  0.413496  0.719895  1
  Pr  Pr10  1  0.872103  0.744206  0.633113  1
  Pr  Pr11  1  0.127897  0.872103  0.133113  1
  Pr  Pr12  1  0.086197  0.543098  0.856547  1
  Pr  Pr13  1  0.255794  0.127897  0.633113  1
  Pr  Pr14  1  0.000000  0.000000  0.998434  1
  Pr  Pr15  1  0.207189  0.414377  0.448333  1
  Pr  Pr16  1  0.586504  0.793252  0.719895  1
  Pr  Pr17  1  0.576258  0.788129  0.992491  1
  Pr  Pr18  1  0.793252  0.586504  0.219895  1
  Pr  Pr19  1  0.205122  0.794878  0.282167  1
  Pr  Pr20  1  0.794878  0.205122  0.782167  1
  Pr  Pr21  1  0.794878  0.589756  0.782167  1
  Pr  Pr22  1  0.456902  0.543098  0.856547  1
  Pr  Pr23  1  0.000000  0.000000  0.498434  1
  Pr  Pr24  1  0.744206  0.872103  0.133113  1
  Pr  Pr25  1  0.788129  0.211871  0.492491  1
  Pr  Pr26  1  0.127897  0.255794  0.133113  1
  Pr  Pr27  1  0.539527  0.460473  0.086591  1
  Pr  Pr28  1  0.333333  0.666667  0.145324  1
  Pr  Pr29  1  0.456902  0.913803  0.856547  1
  Pr  Pr30  1  0.207189  0.792811  0.448333  1
  Pr  Pr31  1  0.913803  0.456902  0.356547  1
  Pr  Pr32  1  0.423742  0.211871  0.492491  1
  Pr  Pr33  1  0.211871  0.788129  0.992491  1
  Pr  Pr34  1  0.543098  0.086197  0.356547  1
  Pr  Pr35  1  0.460473  0.920946  0.586591  1
  Pr  Pr36  1  0.543098  0.456902  0.356547  1
  Pr  Pr37  1  0.585623  0.792811  0.448333  1
  Pr  Pr38  1  0.460473  0.539527  0.586591  1
  Pr  Pr39  1  0.413496  0.206748  0.219895  1
  Pr  Pr40  1  0.205122  0.410244  0.282167  1
  Pr  Pr41  1  0.410244  0.205122  0.782167  1
  Pr  Pr42  1  0.589756  0.794878  0.282167  1
  Pr  Pr43  1  0.872103  0.127897  0.633113  1
  Pr  Pr44  1  0.788129  0.576258  0.492491  1
  Pr  Pr45  1  0.539527  0.079054  0.086591  1
  Mg  Mg46  1  0.894499  0.788998  0.363418  1
  Mg  Mg47  1  0.000000  0.000000  0.749801  1
  Mg  Mg48  1  0.211002  0.105501  0.363418  1
  Mg  Mg49  1  0.788998  0.894499  0.863418  1
  Mg  Mg50  1  0.894499  0.105501  0.363418  1
  Mg  Mg51  1  0.105501  0.211002  0.863418  1
  Mg  Mg52  1  0.000000  0.000000  0.249801  1
  Mg  Mg53  1  0.105501  0.894499  0.863418  1
  Ni  Ni54  1  0.285397  0.142699  0.063619  1
  Ni  Ni55  1  0.333333  0.666667  0.362879  1
  Ni  Ni56  1  0.478746  0.521254  0.211206  1
  Ni  Ni57  1  0.857301  0.714603  0.063619  1
  Ni  Ni58  1  0.142699  0.285397  0.563619  1
  Ni  Ni59  1  0.042508  0.521254  0.211206  1
  Ni  Ni60  1  0.142699  0.857301  0.563619  1
  Ni  Ni61  1  0.666667  0.333333  0.862879  1
  Ni  Ni62  1  0.857301  0.142699  0.063619  1
  Ni  Ni63  1  0.714603  0.857301  0.563619  1
  Ni  Ni64  1  0.521254  0.042508  0.711206  1
  Ni  Ni65  1  0.957492  0.478746  0.711206  1
  Ni  Ni66  1  0.521254  0.478746  0.711206  1
  Ni  Ni67  1  0.478746  0.957492  0.211206  1
