# generated using pymatgen
data_ZnS
_symmetry_space_group_name_H-M   'P 1'
_cell_length_a   3.85245182
_cell_length_b   3.85245182
_cell_length_c   88.18292676
_cell_angle_alpha   90.00000000
_cell_angle_beta   90.00000000
_cell_angle_gamma   120.00000000
_symmetry_Int_Tables_number   1
_chemical_formula_structural   ZnS
_chemical_formula_sum   'Zn28 S28'
_cell_volume   1133.41661058
_cell_formula_units_Z   28
loop_
 _symmetry_equiv_pos_site_id
 _symmetry_equiv_pos_as_xyz
  1  'x, y, z'
loop_
 _atom_site_type_symbol
 _atom_site_label
 _atom_site_symmetry_multiplicity
 _atom_site_fract_x
 _atom_site_fract_y
 _atom_site_fract_z
 _atom_site_occupancy
  Zn  Zn0  1  0.000000  0.000000  0.071437  1
  Zn  Zn1  1  0.333333  0.666667  0.321435  1
  Zn  Zn2  1  0.333333  0.666667  0.678578  1
  Zn  Zn3  1  0.666667  0.333333  0.142867  1
  Zn  Zn4  1  0.333333  0.666667  0.892867  1
  Zn  Zn5  1  0.000000  0.000000  0.464293  1
  Zn  Zn6  1  0.000000  0.000000  0.535731  1
  Zn  Zn7  1  0.333333  0.666667  0.214297  1
  Zn  Zn8  1  0.000000  0.000000  0.642863  1
  Zn  Zn9  1  0.000000  0.000000  0.357159  1
  Zn  Zn10  1  0.666667  0.333333  0.607151  1
  Zn  Zn11  1  0.666667  0.333333  0.964293  1
  Zn  Zn12  1  0.000000  0.000000  0.285719  1
  Zn  Zn13  1  0.333333  0.666667  0.785725  1
  Zn  Zn14  1  0.000000  0.000000  0.714305  1
  Zn  Zn15  1  0.000000  0.000000  0.821464  1
  Zn  Zn16  1  0.333333  0.666667  0.107151  1
  Zn  Zn17  1  0.000000  0.000000  0.928581  1
  Zn  Zn18  1  0.666667  0.333333  0.035731  1
  Zn  Zn19  1  0.666667  0.333333  0.250011  1
  Zn  Zn20  1  0.666667  0.333333  0.500008  1
  Zn  Zn21  1  0.000000  0.000000  0.178581  1
  Zn  Zn22  1  0.333333  0.666667  0.000008  1
  Zn  Zn23  1  0.666667  0.333333  0.392867  1
  Zn  Zn24  1  0.333333  0.666667  0.571437  1
  Zn  Zn25  1  0.333333  0.666667  0.428581  1
  Zn  Zn26  1  0.666667  0.333333  0.857153  1
  Zn  Zn27  1  0.666667  0.333333  0.750010  1
  S  S28  1  0.000000  0.000000  0.205348  1
  S  S29  1  0.333333  0.666667  0.348223  1
  S  S30  1  0.666667  0.333333  0.419633  1
  S  S31  1  0.000000  0.000000  0.669614  1
  S  S32  1  0.666667  0.333333  0.776777  1
  S  S33  1  0.666667  0.333333  0.991044  1
  S  S34  1  0.666667  0.333333  0.276776  1
  S  S35  1  0.333333  0.666667  0.455348  1
  S  S36  1  0.333333  0.666667  0.026798  1
  S  S37  1  0.666667  0.333333  0.633918  1
  S  S38  1  0.333333  0.666667  0.598203  1
  S  S39  1  0.666667  0.333333  0.062488  1
  S  S40  1  0.000000  0.000000  0.098202  1
  S  S41  1  0.333333  0.666667  0.133919  1
  S  S42  1  0.000000  0.000000  0.848220  1
  S  S43  1  0.000000  0.000000  0.312470  1
  S  S44  1  0.000000  0.000000  0.562488  1
  S  S45  1  0.000000  0.000000  0.955348  1
  S  S46  1  0.333333  0.666667  0.919633  1
  S  S47  1  0.666667  0.333333  0.883919  1
  S  S48  1  0.333333  0.666667  0.241063  1
  S  S49  1  0.333333  0.666667  0.705370  1
  S  S50  1  0.000000  0.000000  0.491044  1
  S  S51  1  0.000000  0.000000  0.741062  1
  S  S52  1  0.000000  0.000000  0.383917  1
  S  S53  1  0.666667  0.333333  0.169633  1
  S  S54  1  0.333333  0.666667  0.812502  1
  S  S55  1  0.666667  0.333333  0.526799  1
