# generated using pymatgen
data_CsTi2Cl7
_symmetry_space_group_name_H-M   'P 1'
_cell_length_a   6.81124730
_cell_length_b   11.41582631
_cell_length_c   7.58204545
_cell_angle_alpha   90.00000000
_cell_angle_beta   94.83466543
_cell_angle_gamma   90.00000000
_symmetry_Int_Tables_number   1
_chemical_formula_structural   CsTi2Cl7
_chemical_formula_sum   'Cs2 Ti4 Cl14'
_cell_volume   587.45205992
_cell_formula_units_Z   2
loop_
 _symmetry_equiv_pos_site_id
 _symmetry_equiv_pos_as_xyz
  1  'x, y, z'
loop_
 _atom_site_type_symbol
 _atom_site_label
 _atom_site_symmetry_multiplicity
 _atom_site_fract_x
 _atom_site_fract_y
 _atom_site_fract_z
 _atom_site_occupancy
  Cs  Cs0  1  0.058992  0.750000  0.370784  1
  Cs  Cs1  1  0.941008  0.250000  0.629216  1
  Ti  Ti2  1  0.417046  0.885607  0.874116  1
  Ti  Ti3  1  0.582954  0.385607  0.125884  1
  Ti  Ti4  1  0.582954  0.114393  0.125884  1
  Ti  Ti5  1  0.417046  0.614393  0.874116  1
  Cl  Cl6  1  0.560151  0.750000  0.104701  1
  Cl  Cl7  1  0.439849  0.250000  0.895299  1
  Cl  Cl8  1  0.547978  0.750000  0.660566  1
  Cl  Cl9  1  0.452022  0.250000  0.339434  1
  Cl  Cl10  1  0.132626  0.750000  0.869815  1
  Cl  Cl11  1  0.867374  0.250000  0.130185  1
  Cl  Cl12  1  0.279442  0.001803  0.105745  1
  Cl  Cl13  1  0.720558  0.501803  0.894255  1
  Cl  Cl14  1  0.720558  0.998197  0.894255  1
  Cl  Cl15  1  0.279442  0.498197  0.105745  1
  Cl  Cl16  1  0.260299  0.995294  0.648452  1
  Cl  Cl17  1  0.739701  0.495294  0.351548  1
  Cl  Cl18  1  0.739701  0.004706  0.351548  1
  Cl  Cl19  1  0.260299  0.504706  0.648452  1
