# generated using pymatgen
data_CuP4Se4I
_symmetry_space_group_name_H-M   'P 1'
_cell_length_a   9.83523974
_cell_length_b   9.83523974
_cell_length_c   12.60900495
_cell_angle_alpha   90.00000000
_cell_angle_beta   90.00000000
_cell_angle_gamma   98.75043860
_symmetry_Int_Tables_number   1
_chemical_formula_structural   CuP4Se4I
_chemical_formula_sum   'Cu4 P16 Se16 I4'
_cell_volume   1205.49670983
_cell_formula_units_Z   4
loop_
 _symmetry_equiv_pos_site_id
 _symmetry_equiv_pos_as_xyz
  1  'x, y, z'
loop_
 _atom_site_type_symbol
 _atom_site_label
 _atom_site_symmetry_multiplicity
 _atom_site_fract_x
 _atom_site_fract_y
 _atom_site_fract_z
 _atom_site_occupancy
  Cu  Cu0  1  0.099147  0.900853  0.500000  1
  Cu  Cu1  1  0.400853  0.599147  1.000000  1
  Cu  Cu2  1  0.599147  0.400853  1.000000  1
  Cu  Cu3  1  0.900853  0.099147  0.500000  1
  P  P4  1  0.721489  0.356049  0.145373  1
  P  P5  1  0.221489  0.856049  0.354627  1
  P  P6  1  0.856049  0.221489  0.354627  1
  P  P7  1  0.253971  0.035902  0.245058  1
  P  P8  1  0.143951  0.778511  0.645373  1
  P  P9  1  0.964097  0.746029  0.754942  1
  P  P10  1  0.278511  0.643951  0.854627  1
  P  P11  1  0.643951  0.278511  0.854627  1
  P  P12  1  0.746029  0.964098  0.754942  1
  P  P13  1  0.246029  0.464097  0.745058  1
  P  P14  1  0.356049  0.721489  0.145373  1
  P  P15  1  0.464097  0.246029  0.745058  1
  P  P16  1  0.753971  0.535902  0.254942  1
  P  P17  1  0.035903  0.253971  0.245058  1
  P  P18  1  0.535902  0.753971  0.254942  1
  P  P19  1  0.778511  0.143951  0.645373  1
  Se  Se20  1  0.333392  0.833392  0.750000  1
  Se  Se21  1  0.166608  0.666608  0.250000  1
  Se  Se22  1  0.470288  0.470288  0.691131  1
  Se  Se23  1  0.053814  0.648016  0.900082  1
  Se  Se24  1  0.648016  0.053814  0.900082  1
  Se  Se25  1  0.529712  0.529712  0.308869  1
  Se  Se26  1  0.833392  0.333392  0.750000  1
  Se  Se27  1  0.666608  0.166608  0.250000  1
  Se  Se28  1  0.970288  0.970288  0.808869  1
  Se  Se29  1  0.851984  0.446186  0.400082  1
  Se  Se30  1  0.351984  0.946186  0.099918  1
  Se  Se31  1  0.553814  0.148016  0.599918  1
  Se  Se32  1  0.029712  0.029712  0.191131  1
  Se  Se33  1  0.946186  0.351984  0.099918  1
  Se  Se34  1  0.148016  0.553814  0.599918  1
  Se  Se35  1  0.446186  0.851984  0.400082  1
  I  I36  1  0.829844  0.829844  0.475909  1
  I  I37  1  0.170156  0.170156  0.524091  1
  I  I38  1  0.329844  0.329844  0.024091  1
  I  I39  1  0.670156  0.670156  0.975909  1
