# generated using pymatgen
data_Ba4NdMn3O12
_symmetry_space_group_name_H-M   'P 1'
_cell_length_a   10.49148572
_cell_length_b   10.49148572
_cell_length_c   10.49148572
_cell_angle_alpha   32.74319390
_cell_angle_beta   32.74319390
_cell_angle_gamma   32.74319390
_symmetry_Int_Tables_number   1
_chemical_formula_structural   Ba4NdMn3O12
_chemical_formula_sum   'Ba4 Nd1 Mn3 O12'
_cell_volume   300.51908189
_cell_formula_units_Z   1
loop_
 _symmetry_equiv_pos_site_id
 _symmetry_equiv_pos_as_xyz
  1  'x, y, z'
loop_
 _atom_site_type_symbol
 _atom_site_label
 _atom_site_symmetry_multiplicity
 _atom_site_fract_x
 _atom_site_fract_y
 _atom_site_fract_z
 _atom_site_occupancy
  Ba  Ba0  1  0.869292  0.869292  0.869292  1
  Ba  Ba1  1  0.130708  0.130708  0.130708  1
  Ba  Ba2  1  0.720495  0.720495  0.720495  1
  Ba  Ba3  1  0.279505  0.279505  0.279505  1
  Nd  Nd4  1  0.000000  0.000000  0.000000  1
  Mn  Mn5  1  0.413563  0.413563  0.413563  1
  Mn  Mn6  1  0.500000  0.500000  0.500000  1
  Mn  Mn7  1  0.586437  0.586437  0.586437  1
  O  O8  1  0.774149  0.774149  0.310664  1
  O  O9  1  0.834084  0.394513  0.394513  1
  O  O10  1  0.165916  0.605487  0.605487  1
  O  O11  1  0.689336  0.225851  0.225851  1
  O  O12  1  0.225851  0.689336  0.225851  1
  O  O13  1  0.394513  0.834084  0.394513  1
  O  O14  1  0.310664  0.774149  0.774149  1
  O  O15  1  0.394513  0.394513  0.834084  1
  O  O16  1  0.225851  0.225851  0.689336  1
  O  O17  1  0.605487  0.605487  0.165916  1
  O  O18  1  0.605487  0.165916  0.605487  1
  O  O19  1  0.774149  0.310664  0.774149  1
