# generated using pymatgen
data_Ga2Te3(HO2)6
_symmetry_space_group_name_H-M   'P 1'
_cell_length_a   8.70027443
_cell_length_b   8.70027443
_cell_length_c   8.70027443
_cell_angle_alpha   66.59492418
_cell_angle_beta   66.59492418
_cell_angle_gamma   66.59492418
_symmetry_Int_Tables_number   1
_chemical_formula_structural   Ga2Te3(HO2)6
_chemical_formula_sum   'Ga4 Te6 H12 O24'
_cell_volume   531.76256542
_cell_formula_units_Z   2
loop_
 _symmetry_equiv_pos_site_id
 _symmetry_equiv_pos_as_xyz
  1  'x, y, z'
loop_
 _atom_site_type_symbol
 _atom_site_label
 _atom_site_symmetry_multiplicity
 _atom_site_fract_x
 _atom_site_fract_y
 _atom_site_fract_z
 _atom_site_occupancy
  Ga  Ga0  1  0.908176  0.908176  0.908176  1
  Ga  Ga1  1  0.408176  0.408176  0.408176  1
  Ga  Ga2  1  0.662642  0.662642  0.662642  1
  Ga  Ga3  1  0.162642  0.162642  0.162642  1
  Te  Te4  1  0.558803  0.098856  0.189275  1
  Te  Te5  1  0.189275  0.558803  0.098856  1
  Te  Te6  1  0.098856  0.189275  0.558803  1
  Te  Te7  1  0.598856  0.058803  0.689275  1
  Te  Te8  1  0.689275  0.598856  0.058803  1
  Te  Te9  1  0.058803  0.689275  0.598856  1
  H  H10  1  0.644362  0.651608  0.368432  1
  H  H11  1  0.368432  0.644362  0.651608  1
  H  H12  1  0.651608  0.368432  0.644362  1
  H  H13  1  0.151608  0.144362  0.868432  1
  H  H14  1  0.868432  0.151608  0.144362  1
  H  H15  1  0.144362  0.868432  0.151608  1
  H  H16  1  0.828243  0.690651  0.316989  1
  H  H17  1  0.316989  0.828243  0.690651  1
  H  H18  1  0.690651  0.316989  0.828243  1
  H  H19  1  0.190651  0.328243  0.816989  1
  H  H20  1  0.816989  0.190651  0.328243  1
  H  H21  1  0.328243  0.816989  0.190651  1
  O  O22  1  0.770518  0.116797  0.002050  1
  O  O23  1  0.002050  0.770518  0.116797  1
  O  O24  1  0.116797  0.002050  0.770518  1
  O  O25  1  0.616797  0.270518  0.502050  1
  O  O26  1  0.502050  0.616797  0.270518  1
  O  O27  1  0.270518  0.502050  0.616797  1
  O  O28  1  0.695864  0.824395  0.035041  1
  O  O29  1  0.035041  0.695864  0.824395  1
  O  O30  1  0.824395  0.035041  0.695864  1
  O  O31  1  0.324395  0.195864  0.535041  1
  O  O32  1  0.535041  0.324395  0.195864  1
  O  O33  1  0.195864  0.535041  0.324395  1
  O  O34  1  0.400141  0.183899  0.053961  1
  O  O35  1  0.053961  0.400141  0.183899  1
  O  O36  1  0.183899  0.053961  0.400141  1
  O  O37  1  0.683899  0.900141  0.553961  1
  O  O38  1  0.553961  0.683899  0.900141  1
  O  O39  1  0.900141  0.553961  0.683899  1
  O  O40  1  0.738517  0.637145  0.414627  1
  O  O41  1  0.414627  0.738517  0.637145  1
  O  O42  1  0.637145  0.414627  0.738517  1
  O  O43  1  0.137145  0.238517  0.914627  1
  O  O44  1  0.914627  0.137145  0.238517  1
  O  O45  1  0.238517  0.914627  0.137145  1
