# generated using pymatgen
data_CdAs2S2(OF3)4
_symmetry_space_group_name_H-M   'P 1'
_cell_length_a   12.18064868
_cell_length_b   10.35402552
_cell_length_c   9.12283547
_cell_angle_alpha   77.13477725
_cell_angle_beta   55.96542649
_cell_angle_gamma   46.89979626
_symmetry_Int_Tables_number   1
_chemical_formula_structural   CdAs2S2(OF3)4
_chemical_formula_sum   'Cd2 As4 S4 O8 F24'
_cell_volume   671.47864722
_cell_formula_units_Z   2
loop_
 _symmetry_equiv_pos_site_id
 _symmetry_equiv_pos_as_xyz
  1  'x, y, z'
loop_
 _atom_site_type_symbol
 _atom_site_label
 _atom_site_symmetry_multiplicity
 _atom_site_fract_x
 _atom_site_fract_y
 _atom_site_fract_z
 _atom_site_occupancy
  Cd  Cd0  1  0.630204  0.869796  0.869796  1
  Cd  Cd1  1  0.380204  0.619796  0.619796  1
  As  As2  1  0.604660  0.507280  0.074447  1
  As  As3  1  0.813613  0.074447  0.507280  1
  As  As4  1  0.175553  0.436387  0.645340  1
  As  As5  1  0.742720  0.645340  0.436387  1
  S  S6  1  0.706970  0.998693  0.115212  1
  S  S7  1  0.251307  0.543030  0.070875  1
  S  S8  1  0.179125  0.115212  0.998693  1
  S  S9  1  0.134788  0.070875  0.543030  1
  O  O10  1  0.262181  0.639202  0.925342  1
  O  O11  1  0.231445  0.969559  0.904704  1
  O  O12  1  0.324658  0.076724  0.987819  1
  O  O13  1  0.610798  0.987819  0.076724  1
  O  O14  1  0.173276  0.925342  0.639202  1
  O  O15  1  0.345296  0.355708  0.018555  1
  O  O16  1  0.894292  0.904704  0.969559  1
  O  O17  1  0.280441  0.018555  0.355708  1
  F  F18  1  0.236335  0.568832  0.588934  1
  F  F19  1  0.541428  0.382279  0.145775  1
  F  F20  1  0.942900  0.653828  0.727478  1
  F  F21  1  0.831143  0.029578  0.317818  1
  F  F22  1  0.661066  0.644100  0.013665  1
  F  F23  1  0.932182  0.428539  0.418857  1
  F  F24  1  0.930517  0.145775  0.382279  1
  F  F25  1  0.596172  0.307100  0.574205  1
  F  F26  1  0.542976  0.865658  0.471408  1
  F  F27  1  0.016558  0.848426  0.449214  1
  F  F28  1  0.605900  0.588934  0.568832  1
  F  F29  1  0.522522  0.574205  0.307100  1
  F  F30  1  0.681168  0.013665  0.644100  1
  F  F31  1  0.401574  0.233442  0.564197  1
  F  F32  1  0.220422  0.418857  0.428539  1
  F  F33  1  0.384342  0.707024  0.130042  1
  F  F34  1  0.104225  0.319483  0.708572  1
  F  F35  1  0.867721  0.708572  0.319483  1
  F  F36  1  0.821461  0.317818  0.029578  1
  F  F37  1  0.675795  0.727478  0.653828  1
  F  F38  1  0.685803  0.449214  0.848426  1
  F  F39  1  0.778592  0.130042  0.707024  1
  F  F40  1  0.800786  0.564197  0.233442  1
  F  F41  1  0.119958  0.471408  0.865658  1
