# generated using pymatgen
data_Li3Fe(PO4)2
_symmetry_space_group_name_H-M   'P 1'
_cell_length_a   4.92173433
_cell_length_b   8.83142506
_cell_length_c   7.85390700
_cell_angle_alpha   90.00000000
_cell_angle_beta   124.35097115
_cell_angle_gamma   90.00000000
_symmetry_Int_Tables_number   1
_chemical_formula_structural   Li3Fe(PO4)2
_chemical_formula_sum   'Li6 Fe2 P4 O16'
_cell_volume   281.83999962
_cell_formula_units_Z   2
loop_
 _symmetry_equiv_pos_site_id
 _symmetry_equiv_pos_as_xyz
  1  'x, y, z'
loop_
 _atom_site_type_symbol
 _atom_site_label
 _atom_site_symmetry_multiplicity
 _atom_site_fract_x
 _atom_site_fract_y
 _atom_site_fract_z
 _atom_site_occupancy
  Li  Li0  1  0.323897  0.139950  0.309425  1
  Li  Li1  1  0.676103  0.860050  0.690575  1
  Li  Li2  1  0.323897  0.360050  0.809425  1
  Li  Li3  1  0.000000  0.500000  0.000000  1
  Li  Li4  1  0.676103  0.639950  0.190575  1
  Li  Li5  1  0.000000  0.000000  0.500000  1
  Fe  Fe6  1  0.500000  0.000000  0.000000  1
  Fe  Fe7  1  0.500000  0.500000  0.500000  1
  P  P8  1  0.193010  0.681096  0.721171  1
  P  P9  1  0.806990  0.318904  0.278829  1
  P  P10  1  0.806990  0.181096  0.778829  1
  P  P11  1  0.193010  0.818904  0.221171  1
  O  O12  1  0.524791  0.355541  0.308932  1
  O  O13  1  0.174002  0.643389  0.245771  1
  O  O14  1  0.825998  0.356611  0.754229  1
  O  O15  1  0.742727  0.098275  0.589927  1
  O  O16  1  0.257273  0.598275  0.910073  1
  O  O17  1  0.144884  0.131549  0.975937  1
  O  O18  1  0.475209  0.644459  0.691068  1
  O  O19  1  0.855116  0.631549  0.524063  1
  O  O20  1  0.257273  0.901725  0.410073  1
  O  O21  1  0.174002  0.856611  0.745771  1
  O  O22  1  0.825998  0.143389  0.254229  1
  O  O23  1  0.742727  0.401725  0.089927  1
  O  O24  1  0.144884  0.368451  0.475937  1
  O  O25  1  0.524791  0.144459  0.808932  1
  O  O26  1  0.855116  0.868451  0.024063  1
  O  O27  1  0.475209  0.855541  0.191068  1
