# generated using pymatgen
data_Lu4B3C4
_symmetry_space_group_name_H-M   'P 1'
_cell_length_a   3.41419542
_cell_length_b   3.49909630
_cell_length_c   11.76727514
_cell_angle_alpha   92.63859874
_cell_angle_beta   96.05965734
_cell_angle_gamma   90.14600632
_symmetry_Int_Tables_number   1
_chemical_formula_structural   Lu4B3C4
_chemical_formula_sum   'Lu4 B3 C4'
_cell_volume   139.64133573
_cell_formula_units_Z   1
loop_
 _symmetry_equiv_pos_site_id
 _symmetry_equiv_pos_as_xyz
  1  'x, y, z'
loop_
 _atom_site_type_symbol
 _atom_site_label
 _atom_site_symmetry_multiplicity
 _atom_site_fract_x
 _atom_site_fract_y
 _atom_site_fract_z
 _atom_site_occupancy
  Lu  Lu0  1  0.804566  0.024936  0.650427  1
  Lu  Lu1  1  0.384636  0.553855  0.858860  1
  Lu  Lu2  1  0.615364  0.446145  0.141140  1
  Lu  Lu3  1  0.195434  0.975064  0.349573  1
  B  B4  1  0.266801  0.507290  0.540270  1
  B  B5  1  0.733199  0.492710  0.459730  1
  B  B6  1  0.000000  0.000000  0.000000  1
  C  C7  1  0.885806  0.063711  0.878618  1
  C  C8  1  0.688030  0.471838  0.331043  1
  C  C9  1  0.311970  0.528162  0.668957  1
  C  C10  1  0.114194  0.936289  0.121382  1
