# generated using pymatgen
data_Eu2I2O
_symmetry_space_group_name_H-M   'P 1'
_cell_length_a   8.13365070
_cell_length_b   8.13365070
_cell_length_c   8.13365070
_cell_angle_alpha   133.36591114
_cell_angle_beta   125.29835864
_cell_angle_gamma   74.66338798
_symmetry_Int_Tables_number   1
_chemical_formula_structural   Eu2I2O
_chemical_formula_sum   'Eu4 I4 O2'
_cell_volume   311.23035799
_cell_formula_units_Z   2
loop_
 _symmetry_equiv_pos_site_id
 _symmetry_equiv_pos_as_xyz
  1  'x, y, z'
loop_
 _atom_site_type_symbol
 _atom_site_label
 _atom_site_symmetry_multiplicity
 _atom_site_fract_x
 _atom_site_fract_y
 _atom_site_fract_z
 _atom_site_occupancy
  Eu  Eu0  1  0.582060  0.410352  0.171708  1
  Eu  Eu1  1  0.761356  0.089648  0.671708  1
  Eu  Eu2  1  0.238644  0.910352  0.328292  1
  Eu  Eu3  1  0.417940  0.589648  0.828292  1
  I  I4  1  0.998550  0.650103  0.348447  1
  I  I5  1  0.301656  0.150103  0.151553  1
  I  I6  1  0.698344  0.849897  0.848447  1
  I  I7  1  0.001450  0.349897  0.651553  1
  O  O8  1  0.500000  0.250000  0.750000  1
  O  O9  1  0.500000  0.750000  0.250000  1
