# generated using pymatgen
data_BaTm2CoO5
_symmetry_space_group_name_H-M   'P 1'
_cell_length_a   5.69863855
_cell_length_b   7.04738202
_cell_length_c   12.22877891
_cell_angle_alpha   90.00000000
_cell_angle_beta   90.00000000
_cell_angle_gamma   90.00000000
_symmetry_Int_Tables_number   1
_chemical_formula_structural   BaTm2CoO5
_chemical_formula_sum   'Ba4 Tm8 Co4 O20'
_cell_volume   491.11366576
_cell_formula_units_Z   4
loop_
 _symmetry_equiv_pos_site_id
 _symmetry_equiv_pos_as_xyz
  1  'x, y, z'
loop_
 _atom_site_type_symbol
 _atom_site_label
 _atom_site_symmetry_multiplicity
 _atom_site_fract_x
 _atom_site_fract_y
 _atom_site_fract_z
 _atom_site_occupancy
  Ba  Ba0  1  0.250000  0.920799  0.899385  1
  Ba  Ba1  1  0.750000  0.079201  0.100615  1
  Ba  Ba2  1  0.750000  0.420799  0.600615  1
  Ba  Ba3  1  0.250000  0.579201  0.399385  1
  Tm  Tm4  1  0.250000  0.119532  0.291533  1
  Tm  Tm5  1  0.750000  0.880468  0.708467  1
  Tm  Tm6  1  0.750000  0.619532  0.208467  1
  Tm  Tm7  1  0.250000  0.380468  0.791533  1
  Tm  Tm8  1  0.250000  0.401830  0.074458  1
  Tm  Tm9  1  0.750000  0.598170  0.925542  1
  Tm  Tm10  1  0.750000  0.901830  0.425542  1
  Tm  Tm11  1  0.250000  0.098170  0.574458  1
  Co  Co12  1  0.250000  0.692301  0.652358  1
  Co  Co13  1  0.750000  0.307699  0.347642  1
  Co  Co14  1  0.750000  0.192301  0.847642  1
  Co  Co15  1  0.250000  0.807699  0.152358  1
  O  O16  1  0.998218  0.164298  0.434202  1
  O  O17  1  0.498218  0.835702  0.565798  1
  O  O18  1  0.001782  0.664298  0.065798  1
  O  O19  1  0.501782  0.335702  0.934202  1
  O  O20  1  0.001782  0.835702  0.565798  1
  O  O21  1  0.501782  0.164298  0.434202  1
  O  O22  1  0.998218  0.335702  0.934202  1
  O  O23  1  0.498218  0.664298  0.065798  1
  O  O24  1  0.499626  0.362605  0.224606  1
  O  O25  1  0.999626  0.637395  0.775394  1
  O  O26  1  0.500374  0.862605  0.275394  1
  O  O27  1  0.000374  0.137395  0.724606  1
  O  O28  1  0.500374  0.637395  0.775394  1
  O  O29  1  0.000374  0.362605  0.224606  1
  O  O30  1  0.499626  0.137395  0.724606  1
  O  O31  1  0.999626  0.862605  0.275394  1
  O  O32  1  0.250000  0.079123  0.103317  1
  O  O33  1  0.750000  0.920877  0.896683  1
  O  O34  1  0.750000  0.579123  0.396683  1
  O  O35  1  0.250000  0.420877  0.603317  1
