# generated using pymatgen
data_PrCdPd
_symmetry_space_group_name_H-M   'P 1'
_cell_length_a   7.78208066
_cell_length_b   7.78208066
_cell_length_c   4.09141474
_cell_angle_alpha   90.00000000
_cell_angle_beta   90.00000000
_cell_angle_gamma   120.00000000
_symmetry_Int_Tables_number   1
_chemical_formula_structural   PrCdPd
_chemical_formula_sum   'Pr3 Cd3 Pd3'
_cell_volume   214.58313853
_cell_formula_units_Z   3
loop_
 _symmetry_equiv_pos_site_id
 _symmetry_equiv_pos_as_xyz
  1  'x, y, z'
loop_
 _atom_site_type_symbol
 _atom_site_label
 _atom_site_symmetry_multiplicity
 _atom_site_fract_x
 _atom_site_fract_y
 _atom_site_fract_z
 _atom_site_occupancy
  Pr  Pr0  1  0.409445  0.409445  0.500000  1
  Pr  Pr1  1  0.000000  0.590555  0.500000  1
  Pr  Pr2  1  0.590555  0.000000  0.500000  1
  Cd  Cd3  1  0.749826  0.749826  0.000000  1
  Cd  Cd4  1  0.250174  0.000000  0.000000  1
  Cd  Cd5  1  0.000000  0.250174  0.000000  1
  Pd  Pd6  1  0.666667  0.333333  0.000000  1
  Pd  Pd7  1  0.000000  0.000000  0.500000  1
  Pd  Pd8  1  0.333333  0.666667  0.000000  1
