# generated using pymatgen
data_SbP2O7
_symmetry_space_group_name_H-M   'P 1'
_cell_length_a   8.22587002
_cell_length_b   16.33308315
_cell_length_c   8.31073118
_cell_angle_alpha   90.00000000
_cell_angle_beta   90.17792783
_cell_angle_gamma   90.00000000
_symmetry_Int_Tables_number   1
_chemical_formula_structural   SbP2O7
_chemical_formula_sum   'Sb8 P16 O56'
_cell_volume   1116.57308855
_cell_formula_units_Z   8
loop_
 _symmetry_equiv_pos_site_id
 _symmetry_equiv_pos_as_xyz
  1  'x, y, z'
loop_
 _atom_site_type_symbol
 _atom_site_label
 _atom_site_symmetry_multiplicity
 _atom_site_fract_x
 _atom_site_fract_y
 _atom_site_fract_z
 _atom_site_occupancy
  Sb  Sb0  1  0.154343  0.873194  0.471743  1
  Sb  Sb1  1  0.845657  0.373194  0.028257  1
  Sb  Sb2  1  0.845657  0.126806  0.528257  1
  Sb  Sb3  1  0.154343  0.626806  0.971743  1
  Sb  Sb4  1  0.368644  0.366750  0.515577  1
  Sb  Sb5  1  0.631356  0.866750  0.984423  1
  Sb  Sb6  1  0.631356  0.633250  0.484423  1
  Sb  Sb7  1  0.368644  0.133250  0.015577  1
  P  P8  1  0.033509  0.678117  0.596555  1
  P  P9  1  0.966491  0.178117  0.903445  1
  P  P10  1  0.966491  0.321883  0.403445  1
  P  P11  1  0.033509  0.821883  0.096555  1
  P  P12  1  0.540689  0.667022  0.888464  1
  P  P13  1  0.459311  0.167022  0.611536  1
  P  P14  1  0.459311  0.332978  0.111536  1
  P  P15  1  0.540689  0.832978  0.388464  1
  P  P16  1  0.253115  0.589366  0.361670  1
  P  P17  1  0.746885  0.089366  0.138330  1
  P  P18  1  0.746885  0.410634  0.638330  1
  P  P19  1  0.253115  0.910634  0.861670  1
  P  P20  1  0.219210  0.428023  0.927329  1
  P  P21  1  0.780790  0.928023  0.572671  1
  P  P22  1  0.780790  0.571977  0.072671  1
  P  P23  1  0.219210  0.071977  0.427329  1
  O  O24  1  0.071110  0.415749  0.042275  1
  O  O25  1  0.928890  0.915749  0.457725  1
  O  O26  1  0.928890  0.584251  0.957725  1
  O  O27  1  0.071110  0.084251  0.542275  1
  O  O28  1  0.226796  0.374035  0.783234  1
  O  O29  1  0.773204  0.874035  0.716766  1
  O  O30  1  0.773204  0.625965  0.216766  1
  O  O31  1  0.226796  0.125965  0.283234  1
  O  O32  1  0.371173  0.415414  0.047999  1
  O  O33  1  0.628827  0.915414  0.452001  1
  O  O34  1  0.628827  0.584586  0.952001  1
  O  O35  1  0.371173  0.084586  0.547999  1
  O  O36  1  0.378318  0.669981  0.984925  1
  O  O37  1  0.621682  0.169981  0.515075  1
  O  O38  1  0.621682  0.330019  0.015075  1
  O  O39  1  0.378318  0.830019  0.484925  1
  O  O40  1  0.233467  0.520514  0.881383  1
  O  O41  1  0.766533  0.020514  0.618617  1
  O  O42  1  0.766533  0.479486  0.118617  1
  O  O43  1  0.233467  0.979486  0.381383  1
  O  O44  1  0.376679  0.658258  0.372058  1
  O  O45  1  0.623321  0.158258  0.127942  1
  O  O46  1  0.623321  0.341742  0.627942  1
  O  O47  1  0.376679  0.841742  0.872058  1
  O  O48  1  0.489087  0.343944  0.290430  1
  O  O49  1  0.510913  0.843944  0.209570  1
  O  O50  1  0.510913  0.656056  0.709570  1
  O  O51  1  0.489087  0.156056  0.790430  1
  O  O52  1  0.143215  0.665911  0.746505  1
  O  O53  1  0.856785  0.165911  0.753495  1
  O  O54  1  0.856785  0.334089  0.253495  1
  O  O55  1  0.143215  0.834089  0.246505  1
  O  O56  1  0.144299  0.337969  0.374663  1
  O  O57  1  0.855701  0.837969  0.125337  1
  O  O58  1  0.855701  0.662031  0.625337  1
  O  O59  1  0.144299  0.162031  0.874663  1
  O  O60  1  0.352992  0.238613  0.560501  1
  O  O61  1  0.647008  0.738613  0.939499  1
  O  O62  1  0.647008  0.761387  0.439499  1
  O  O63  1  0.352992  0.261387  0.060501  1
  O  O64  1  0.170738  0.582553  0.190551  1
  O  O65  1  0.829262  0.082553  0.309449  1
  O  O66  1  0.829262  0.417447  0.809449  1
  O  O67  1  0.170738  0.917447  0.690551  1
  O  O68  1  0.092203  0.614518  0.465798  1
  O  O69  1  0.907797  0.114518  0.034202  1
  O  O70  1  0.907797  0.385482  0.534202  1
  O  O71  1  0.092203  0.885482  0.965798  1
  O  O72  1  0.309770  0.506975  0.416901  1
  O  O73  1  0.690230  0.006975  0.083099  1
  O  O74  1  0.690230  0.493025  0.583099  1
  O  O75  1  0.309770  0.993025  0.916901  1
  O  O76  1  0.063912  0.765581  0.534689  1
  O  O77  1  0.936088  0.265581  0.965311  1
  O  O78  1  0.936088  0.234419  0.465311  1
  O  O79  1  0.063912  0.734419  0.034689  1
