# generated using pymatgen
data_Pr3MoO7
_symmetry_space_group_name_H-M   'P 1'
_cell_length_a   7.69390426
_cell_length_b   7.78143129
_cell_length_c   11.05669852
_cell_angle_alpha   90.00000000
_cell_angle_beta   90.00000000
_cell_angle_gamma   90.00000000
_symmetry_Int_Tables_number   1
_chemical_formula_structural   Pr3MoO7
_chemical_formula_sum   'Pr12 Mo4 O28'
_cell_volume   661.95997786
_cell_formula_units_Z   4
loop_
 _symmetry_equiv_pos_site_id
 _symmetry_equiv_pos_as_xyz
  1  'x, y, z'
loop_
 _atom_site_type_symbol
 _atom_site_label
 _atom_site_symmetry_multiplicity
 _atom_site_fract_x
 _atom_site_fract_y
 _atom_site_fract_z
 _atom_site_occupancy
  Pr  Pr0  1  0.761636  0.207221  0.496493  1
  Pr  Pr1  1  0.499250  0.458097  0.776322  1
  Pr  Pr2  1  0.000750  0.541903  0.276322  1
  Pr  Pr3  1  0.999250  0.041903  0.223678  1
  Pr  Pr4  1  0.500750  0.958097  0.723678  1
  Pr  Pr5  1  0.238364  0.707221  0.003507  1
  Pr  Pr6  1  0.261636  0.292779  0.503507  1
  Pr  Pr7  1  0.738364  0.792779  0.996493  1
  Pr  Pr8  1  0.001159  0.049790  0.771365  1
  Pr  Pr9  1  0.998841  0.549790  0.728635  1
  Pr  Pr10  1  0.501159  0.450210  0.228635  1
  Pr  Pr11  1  0.498841  0.950210  0.271365  1
  Mo  Mo12  1  0.754022  0.251677  0.000842  1
  Mo  Mo13  1  0.245978  0.751677  0.499158  1
  Mo  Mo14  1  0.254022  0.248323  0.999158  1
  Mo  Mo15  1  0.745978  0.748323  0.500842  1
  O  O16  1  0.510545  0.235590  0.632172  1
  O  O17  1  0.489455  0.735590  0.867828  1
  O  O18  1  0.010545  0.264410  0.367828  1
  O  O19  1  0.989455  0.764410  0.132172  1
  O  O20  1  0.717285  0.058695  0.875408  1
  O  O21  1  0.282715  0.558695  0.624592  1
  O  O22  1  0.217285  0.441305  0.124592  1
  O  O23  1  0.782715  0.941305  0.375408  1
  O  O24  1  0.496237  0.813536  0.495498  1
  O  O25  1  0.503763  0.313536  0.004502  1
  O  O26  1  0.996237  0.686464  0.504502  1
  O  O27  1  0.003763  0.186464  0.995498  1
  O  O28  1  0.717260  0.046321  0.120424  1
  O  O29  1  0.282740  0.546321  0.379576  1
  O  O30  1  0.217260  0.453679  0.879576  1
  O  O31  1  0.782740  0.953679  0.620424  1
  O  O32  1  0.714200  0.574688  0.375050  1
  O  O33  1  0.285800  0.074688  0.124950  1
  O  O34  1  0.214200  0.925312  0.624950  1
  O  O35  1  0.785800  0.425312  0.875050  1
  O  O36  1  0.708079  0.605479  0.642386  1
  O  O37  1  0.291921  0.105479  0.857614  1
  O  O38  1  0.499783  0.220341  0.367073  1
  O  O39  1  0.791921  0.394521  0.142386  1
  O  O40  1  0.000217  0.779659  0.867073  1
  O  O41  1  0.999783  0.279659  0.632927  1
  O  O42  1  0.500217  0.720341  0.132927  1
  O  O43  1  0.208079  0.894521  0.357614  1
