# generated using pymatgen
data_Cd8Ag5
_symmetry_space_group_name_H-M   'P 1'
_cell_length_a   8.81106650
_cell_length_b   8.81106650
_cell_length_c   8.81106650
_cell_angle_alpha   109.47122063
_cell_angle_beta   109.47122063
_cell_angle_gamma   109.47122063
_symmetry_Int_Tables_number   1
_chemical_formula_structural   Cd8Ag5
_chemical_formula_sum   'Cd16 Ag10'
_cell_volume   526.57901395
_cell_formula_units_Z   2
loop_
 _symmetry_equiv_pos_site_id
 _symmetry_equiv_pos_as_xyz
  1  'x, y, z'
loop_
 _atom_site_type_symbol
 _atom_site_label
 _atom_site_symmetry_multiplicity
 _atom_site_fract_x
 _atom_site_fract_y
 _atom_site_fract_z
 _atom_site_occupancy
  Cd  Cd0  1  0.276692  0.651411  0.000000  1
  Cd  Cd1  1  0.723308  0.374720  0.723308  1
  Cd  Cd2  1  0.276692  0.000000  0.651411  1
  Cd  Cd3  1  0.625280  0.348589  0.348589  1
  Cd  Cd4  1  1.000000  0.782198  1.000000  1
  Cd  Cd5  1  0.217802  0.217802  0.217802  1
  Cd  Cd6  1  0.723308  0.723308  0.374720  1
  Cd  Cd7  1  0.000000  0.651411  0.276692  1
  Cd  Cd8  1  0.651411  0.276692  1.000000  1
  Cd  Cd9  1  0.374720  0.723308  0.723308  1
  Cd  Cd10  1  0.348589  0.625280  0.348589  1
  Cd  Cd11  1  1.000000  0.276692  0.651411  1
  Cd  Cd12  1  0.651411  0.000000  0.276692  1
  Cd  Cd13  1  0.782198  1.000000  0.000000  1
  Cd  Cd14  1  0.000000  0.000000  0.782198  1
  Cd  Cd15  1  0.348589  0.348589  0.625280  1
  Ag  Ag16  1  0.345287  0.000000  1.000000  1
  Ag  Ag17  1  0.357298  0.000000  0.357298  1
  Ag  Ag18  1  1.000000  0.642702  0.642702  1
  Ag  Ag19  1  0.654713  0.654713  0.654713  1
  Ag  Ag20  1  0.000000  0.345287  0.000000  1
  Ag  Ag21  1  0.357298  0.357298  0.000000  1
  Ag  Ag22  1  0.000000  0.357298  0.357298  1
  Ag  Ag23  1  0.642702  1.000000  0.642702  1
  Ag  Ag24  1  1.000000  1.000000  0.345287  1
  Ag  Ag25  1  0.642702  0.642702  0.000000  1
