# generated using pymatgen
data_Li2Mo(PO4)2
_symmetry_space_group_name_H-M   'P 1'
_cell_length_a   5.24466962
_cell_length_b   5.24466962
_cell_length_c   13.93132889
_cell_angle_alpha   83.35384394
_cell_angle_beta   96.64615606
_cell_angle_gamma   126.48871196
_symmetry_Int_Tables_number   1
_chemical_formula_structural   Li2Mo(PO4)2
_chemical_formula_sum   'Li4 Mo2 P4 O16'
_cell_volume   305.48633446
_cell_formula_units_Z   2
loop_
 _symmetry_equiv_pos_site_id
 _symmetry_equiv_pos_as_xyz
  1  'x, y, z'
loop_
 _atom_site_type_symbol
 _atom_site_label
 _atom_site_symmetry_multiplicity
 _atom_site_fract_x
 _atom_site_fract_y
 _atom_site_fract_z
 _atom_site_occupancy
  Li  Li0  1  0.711028  0.351208  0.664728  1
  Li  Li1  1  0.648792  0.288972  0.164728  1
  Li  Li2  1  0.066513  0.073575  0.758373  1
  Li  Li3  1  0.926425  0.933487  0.258373  1
  Mo  Mo4  1  0.000604  0.998920  0.997696  1
  Mo  Mo5  1  0.001080  0.999396  0.497696  1
  P  P6  1  0.688732  0.368652  0.881727  1
  P  P7  1  0.631348  0.311268  0.381727  1
  P  P8  1  0.354027  0.673100  0.614278  1
  P  P9  1  0.326900  0.645973  0.114278  1
  O  O10  1  0.453871  0.228417  0.964883  1
  O  O11  1  0.037303  0.660233  0.084671  1
  O  O12  1  0.940167  0.304529  0.911657  1
  O  O13  1  0.339767  0.962697  0.584671  1
  O  O14  1  0.514634  0.844496  0.200548  1
  O  O15  1  0.259213  0.130668  0.377787  1
  O  O16  1  0.548872  0.776102  0.028606  1
  O  O17  1  0.182058  0.280346  0.127992  1
  O  O18  1  0.695471  0.059833  0.411657  1
  O  O19  1  0.755606  0.480192  0.284379  1
  O  O20  1  0.223898  0.451128  0.528606  1
  O  O21  1  0.519808  0.244394  0.784379  1
  O  O22  1  0.719654  0.817942  0.627992  1
  O  O23  1  0.869332  0.740787  0.877787  1
  O  O24  1  0.155504  0.485366  0.700548  1
  O  O25  1  0.771583  0.546129  0.464883  1
