# generated using pymatgen
data_BaYbCo4O7
_symmetry_space_group_name_H-M   'P 1'
_cell_length_a   6.33368441
_cell_length_b   10.30971298
_cell_length_c   11.12437928
_cell_angle_alpha   90.00000000
_cell_angle_beta   90.00000000
_cell_angle_gamma   90.00000000
_symmetry_Int_Tables_number   1
_chemical_formula_structural   BaYbCo4O7
_chemical_formula_sum   'Ba4 Yb4 Co16 O28'
_cell_volume   726.40492858
_cell_formula_units_Z   4
loop_
 _symmetry_equiv_pos_site_id
 _symmetry_equiv_pos_as_xyz
  1  'x, y, z'
loop_
 _atom_site_type_symbol
 _atom_site_label
 _atom_site_symmetry_multiplicity
 _atom_site_fract_x
 _atom_site_fract_y
 _atom_site_fract_z
 _atom_site_occupancy
  Ba  Ba0  1  0.496729  0.007240  0.172595  1
  Ba  Ba1  1  0.003271  0.007240  0.672595  1
  Ba  Ba2  1  0.996729  0.507240  0.327405  1
  Ba  Ba3  1  0.503271  0.507240  0.827405  1
  Yb  Yb4  1  0.989844  0.371799  0.670766  1
  Yb  Yb5  1  0.510156  0.371799  0.170766  1
  Yb  Yb6  1  0.489844  0.871799  0.829234  1
  Yb  Yb7  1  0.010156  0.871799  0.329234  1
  Co  Co8  1  0.998522  0.184668  0.171243  1
  Co  Co9  1  0.267107  0.192589  0.913888  1
  Co  Co10  1  0.996605  0.945006  0.000362  1
  Co  Co11  1  0.767107  0.692589  0.586112  1
  Co  Co12  1  0.232893  0.192589  0.413888  1
  Co  Co13  1  0.496605  0.445006  0.499638  1
  Co  Co14  1  0.503395  0.945006  0.500362  1
  Co  Co15  1  0.748228  0.180423  0.417278  1
  Co  Co16  1  0.003395  0.445006  0.999638  1
  Co  Co17  1  0.498522  0.684668  0.328757  1
  Co  Co18  1  0.251772  0.680423  0.582722  1
  Co  Co19  1  0.501478  0.184668  0.671243  1
  Co  Co20  1  0.751772  0.180423  0.917278  1
  Co  Co21  1  0.732893  0.692589  0.086112  1
  Co  Co22  1  0.248228  0.680423  0.082722  1
  Co  Co23  1  0.001478  0.684668  0.828757  1
  O  O24  1  0.230010  0.266571  0.264746  1
  O  O25  1  0.232267  0.716857  0.251959  1
  O  O26  1  0.730010  0.766571  0.235254  1
  O  O27  1  0.245693  0.491455  0.569455  1
  O  O28  1  0.267733  0.716857  0.751959  1
  O  O29  1  0.732267  0.216857  0.248041  1
  O  O30  1  0.997007  0.728742  0.490154  1
  O  O31  1  0.502993  0.728742  0.990154  1
  O  O32  1  0.279213  0.007448  0.399732  1
  O  O33  1  0.269990  0.266571  0.764746  1
  O  O34  1  0.062607  0.997682  0.154251  1
  O  O35  1  0.437393  0.997682  0.654251  1
  O  O36  1  0.491038  0.255119  0.500675  1
  O  O37  1  0.008962  0.255119  0.000675  1
  O  O38  1  0.220787  0.007448  0.899732  1
  O  O39  1  0.769990  0.766571  0.735254  1
  O  O40  1  0.497007  0.228742  0.009846  1
  O  O41  1  0.779213  0.507448  0.100268  1
  O  O42  1  0.508962  0.755119  0.499325  1
  O  O43  1  0.767733  0.216857  0.748041  1
  O  O44  1  0.991038  0.755119  0.999325  1
  O  O45  1  0.002993  0.228742  0.509846  1
  O  O46  1  0.720787  0.507448  0.600268  1
  O  O47  1  0.937393  0.497682  0.845749  1
  O  O48  1  0.562607  0.497682  0.345749  1
  O  O49  1  0.745693  0.991455  0.930545  1
  O  O50  1  0.254307  0.491455  0.069455  1
  O  O51  1  0.754307  0.991455  0.430545  1
