# generated using pymatgen
data_K6Ti2S6O
_symmetry_space_group_name_H-M   'P 1'
_cell_length_a   13.12379299
_cell_length_b   10.47563618
_cell_length_c   13.46625827
_cell_angle_alpha   90.00000000
_cell_angle_beta   105.87560479
_cell_angle_gamma   90.00000000
_symmetry_Int_Tables_number   1
_chemical_formula_structural   K6Ti2S6O
_chemical_formula_sum   'K24 Ti8 S24 O4'
_cell_volume   1780.72813193
_cell_formula_units_Z   4
loop_
 _symmetry_equiv_pos_site_id
 _symmetry_equiv_pos_as_xyz
  1  'x, y, z'
loop_
 _atom_site_type_symbol
 _atom_site_label
 _atom_site_symmetry_multiplicity
 _atom_site_fract_x
 _atom_site_fract_y
 _atom_site_fract_z
 _atom_site_occupancy
  K  K0  1  0.396218  0.341726  0.004744  1
  K  K1  1  0.396992  0.167765  0.469308  1
  K  K2  1  0.169878  0.044810  0.593952  1
  K  K3  1  0.330122  0.544810  0.406048  1
  K  K4  1  0.064810  0.264823  0.796607  1
  K  K5  1  0.416368  0.716465  0.714112  1
  K  K6  1  0.564810  0.235177  0.796607  1
  K  K7  1  0.669878  0.455190  0.593952  1
  K  K8  1  0.839553  0.523851  0.913149  1
  K  K9  1  0.935190  0.735177  0.203393  1
  K  K10  1  0.830122  0.955190  0.406048  1
  K  K11  1  0.603008  0.832235  0.530692  1
  K  K12  1  0.896218  0.158274  0.004744  1
  K  K13  1  0.896992  0.332235  0.469308  1
  K  K14  1  0.083632  0.216465  0.285888  1
  K  K15  1  0.583632  0.283535  0.285888  1
  K  K16  1  0.435190  0.764823  0.203393  1
  K  K17  1  0.660447  0.023851  0.086851  1
  K  K18  1  0.603782  0.658274  0.995256  1
  K  K19  1  0.103782  0.841726  0.995256  1
  K  K20  1  0.160447  0.476149  0.086851  1
  K  K21  1  0.916368  0.783535  0.714112  1
  K  K22  1  0.103008  0.667765  0.530692  1
  K  K23  1  0.339553  0.976149  0.913149  1
  Ti  Ti24  1  0.716595  0.609444  0.337994  1
  Ti  Ti25  1  0.706979  0.869824  0.821585  1
  Ti  Ti26  1  0.783405  0.109444  0.662006  1
  Ti  Ti27  1  0.206979  0.630176  0.821585  1
  Ti  Ti28  1  0.293021  0.130176  0.178415  1
  Ti  Ti29  1  0.793021  0.369824  0.178415  1
  Ti  Ti30  1  0.216595  0.890556  0.337994  1
  Ti  Ti31  1  0.283405  0.390556  0.662006  1
  S  S32  1  0.157483  0.350065  0.511248  1
  S  S33  1  0.441535  0.058248  0.142024  1
  S  S34  1  0.154922  0.146663  0.033050  1
  S  S35  1  0.832122  0.174202  0.247320  1
  S  S36  1  0.667878  0.674202  0.752680  1
  S  S37  1  0.842517  0.649935  0.488752  1
  S  S38  1  0.561844  0.573281  0.374906  1
  S  S39  1  0.061844  0.926719  0.374906  1
  S  S40  1  0.345078  0.646663  0.966950  1
  S  S41  1  0.654922  0.353337  0.033050  1
  S  S42  1  0.305290  0.226269  0.775259  1
  S  S43  1  0.694710  0.773731  0.224741  1
  S  S44  1  0.941535  0.441752  0.142024  1
  S  S45  1  0.845078  0.853337  0.966950  1
  S  S46  1  0.438156  0.426719  0.625094  1
  S  S47  1  0.342517  0.850065  0.488752  1
  S  S48  1  0.558465  0.941752  0.857976  1
  S  S49  1  0.194710  0.726269  0.224741  1
  S  S50  1  0.938156  0.073281  0.625094  1
  S  S51  1  0.657483  0.149935  0.511248  1
  S  S52  1  0.332122  0.325798  0.247320  1
  S  S53  1  0.167878  0.825798  0.752680  1
  S  S54  1  0.058465  0.558248  0.857976  1
  S  S55  1  0.805290  0.273731  0.775259  1
  O  O56  1  0.744137  0.962002  0.719032  1
  O  O57  1  0.255863  0.037998  0.280968  1
  O  O58  1  0.244137  0.537998  0.719032  1
  O  O59  1  0.755863  0.462002  0.280968  1
