# generated using pymatgen
data_SrGaBO4
_symmetry_space_group_name_H-M   'P 1'
_cell_length_a   5.98458910
_cell_length_b   9.12746635
_cell_length_c   15.56912644
_cell_angle_alpha   90.00000000
_cell_angle_beta   90.00000000
_cell_angle_gamma   90.00000000
_symmetry_Int_Tables_number   1
_chemical_formula_structural   SrGaBO4
_chemical_formula_sum   'Sr8 Ga8 B8 O32'
_cell_volume   850.45007428
_cell_formula_units_Z   8
loop_
 _symmetry_equiv_pos_site_id
 _symmetry_equiv_pos_as_xyz
  1  'x, y, z'
loop_
 _atom_site_type_symbol
 _atom_site_label
 _atom_site_symmetry_multiplicity
 _atom_site_fract_x
 _atom_site_fract_y
 _atom_site_fract_z
 _atom_site_occupancy
  Sr  Sr0  1  0.000000  0.713801  0.479096  1
  Sr  Sr1  1  0.000000  0.213801  0.020904  1
  Sr  Sr2  1  0.000000  0.286199  0.520904  1
  Sr  Sr3  1  0.500000  0.926551  0.120923  1
  Sr  Sr4  1  0.000000  0.786199  0.979096  1
  Sr  Sr5  1  0.500000  0.073449  0.879077  1
  Sr  Sr6  1  0.500000  0.426551  0.379077  1
  Sr  Sr7  1  0.500000  0.573449  0.620923  1
  Ga  Ga8  1  0.247968  0.536360  0.153316  1
  Ga  Ga9  1  0.247968  0.463640  0.846684  1
  Ga  Ga10  1  0.752032  0.536360  0.153316  1
  Ga  Ga11  1  0.247968  0.036360  0.346684  1
  Ga  Ga12  1  0.752032  0.036360  0.346684  1
  Ga  Ga13  1  0.247968  0.963640  0.653316  1
  Ga  Ga14  1  0.752032  0.463640  0.846684  1
  Ga  Ga15  1  0.752032  0.963640  0.653316  1
  B  B16  1  0.500000  0.792941  0.424572  1
  B  B17  1  0.000000  0.480866  0.313154  1
  B  B18  1  0.500000  0.207059  0.575428  1
  B  B19  1  0.000000  0.019134  0.813154  1
  B  B20  1  0.000000  0.519134  0.686846  1
  B  B21  1  0.000000  0.980866  0.186846  1
  B  B22  1  0.500000  0.707059  0.924572  1
  B  B23  1  0.500000  0.292941  0.075428  1
  O  O24  1  0.500000  0.153939  0.353785  1
  O  O25  1  0.000000  0.622098  0.107834  1
  O  O26  1  0.000000  0.030051  0.901131  1
  O  O27  1  0.796713  0.015750  0.768966  1
  O  O28  1  0.796713  0.984250  0.231034  1
  O  O29  1  0.700868  0.357686  0.098267  1
  O  O30  1  0.700868  0.642314  0.901733  1
  O  O31  1  0.000000  0.877902  0.607834  1
  O  O32  1  0.796713  0.515750  0.731034  1
  O  O33  1  0.203287  0.015750  0.768966  1
  O  O34  1  0.000000  0.969949  0.098869  1
  O  O35  1  0.299132  0.642314  0.901733  1
  O  O36  1  0.299132  0.857686  0.401733  1
  O  O37  1  0.500000  0.346061  0.853785  1
  O  O38  1  0.203287  0.984250  0.231034  1
  O  O39  1  0.796713  0.484250  0.268966  1
  O  O40  1  0.000000  0.469949  0.401131  1
  O  O41  1  0.500000  0.339344  0.533227  1
  O  O42  1  0.700868  0.142314  0.598267  1
  O  O43  1  0.700868  0.857686  0.401733  1
  O  O44  1  0.500000  0.160656  0.033227  1
  O  O45  1  0.000000  0.530051  0.598869  1
  O  O46  1  0.500000  0.660656  0.466773  1
  O  O47  1  0.299132  0.142314  0.598267  1
  O  O48  1  0.203287  0.484250  0.268966  1
  O  O49  1  0.000000  0.122098  0.392166  1
  O  O50  1  0.000000  0.377902  0.892166  1
  O  O51  1  0.500000  0.846061  0.646215  1
  O  O52  1  0.500000  0.653939  0.146215  1
  O  O53  1  0.500000  0.839344  0.966773  1
  O  O54  1  0.299132  0.357686  0.098267  1
  O  O55  1  0.203287  0.515750  0.731034  1
