# generated using pymatgen
data_Li3Cr2(PO4)3
_symmetry_space_group_name_H-M   'P 1'
_cell_length_a   8.45529197
_cell_length_b   8.72535047
_cell_length_c   14.62855769
_cell_angle_alpha   90.00000000
_cell_angle_beta   124.88041914
_cell_angle_gamma   90.00000000
_symmetry_Int_Tables_number   1
_chemical_formula_structural   Li3Cr2(PO4)3
_chemical_formula_sum   'Li12 Cr8 P12 O48'
_cell_volume   885.34141849
_cell_formula_units_Z   4
loop_
 _symmetry_equiv_pos_site_id
 _symmetry_equiv_pos_as_xyz
  1  'x, y, z'
loop_
 _atom_site_type_symbol
 _atom_site_label
 _atom_site_symmetry_multiplicity
 _atom_site_fract_x
 _atom_site_fract_y
 _atom_site_fract_z
 _atom_site_occupancy
  Li  Li0  1  0.224403  0.488349  0.154888  1
  Li  Li1  1  0.891638  0.912104  0.809597  1
  Li  Li2  1  0.500667  0.217695  0.324189  1
  Li  Li3  1  0.499333  0.717695  0.175811  1
  Li  Li4  1  0.108362  0.412104  0.690403  1
  Li  Li5  1  0.775597  0.988349  0.345112  1
  Li  Li6  1  0.224403  0.011651  0.654888  1
  Li  Li7  1  0.891638  0.587896  0.309597  1
  Li  Li8  1  0.500667  0.282305  0.824189  1
  Li  Li9  1  0.499333  0.782305  0.675811  1
  Li  Li10  1  0.108362  0.087896  0.190403  1
  Li  Li11  1  0.775597  0.511651  0.845112  1
  Cr  Cr12  1  0.854078  0.972618  0.606861  1
  Cr  Cr13  1  0.635363  0.534828  0.389166  1
  Cr  Cr14  1  0.145922  0.472618  0.893139  1
  Cr  Cr15  1  0.364637  0.034828  0.110834  1
  Cr  Cr16  1  0.635363  0.965172  0.889166  1
  Cr  Cr17  1  0.854078  0.527382  0.106861  1
  Cr  Cr18  1  0.364637  0.465172  0.610834  1
  Cr  Cr19  1  0.145922  0.027382  0.393139  1
  P  P20  1  0.048036  0.750792  0.009397  1
  P  P21  1  0.761277  0.617279  0.649552  1
  P  P22  1  0.465043  0.887508  0.353574  1
  P  P23  1  0.238723  0.117279  0.850448  1
  P  P24  1  0.534957  0.387508  0.146426  1
  P  P25  1  0.951964  0.250792  0.490603  1
  P  P26  1  0.048036  0.749208  0.509397  1
  P  P27  1  0.465043  0.612492  0.853574  1
  P  P28  1  0.761277  0.882721  0.149552  1
  P  P29  1  0.534957  0.112492  0.646426  1
  P  P30  1  0.238723  0.382721  0.350448  1
  P  P31  1  0.951964  0.249208  0.990603  1
  O  O32  1  0.109689  0.126996  0.056089  1
  O  O33  1  0.955671  0.332639  0.898282  1
  O  O34  1  0.662911  0.114524  0.604017  1
  O  O35  1  0.376690  0.423640  0.313450  1
  O  O36  1  0.011711  0.637850  0.916914  1
  O  O37  1  0.786122  0.794693  0.668476  1
  O  O38  1  0.381027  0.005400  0.254521  1
  O  O39  1  0.665570  0.581196  0.527655  1
  O  O40  1  0.485373  0.729585  0.312375  1
  O  O41  1  0.250577  0.822517  0.064277  1
  O  O42  1  0.951188  0.525612  0.724783  1
  O  O43  1  0.673038  0.950273  0.440792  1
  O  O44  1  0.326962  0.450273  0.059208  1
  O  O45  1  0.048812  0.025612  0.775217  1
  O  O46  1  0.749423  0.322517  0.435723  1
  O  O47  1  0.514627  0.229585  0.187625  1
  O  O48  1  0.334430  0.081196  0.972345  1
  O  O49  1  0.618973  0.505400  0.245479  1
  O  O50  1  0.213878  0.294693  0.831524  1
  O  O51  1  0.988289  0.137850  0.583086  1
  O  O52  1  0.623310  0.923640  0.186550  1
  O  O53  1  0.337089  0.614524  0.895983  1
  O  O54  1  0.044329  0.832639  0.601718  1
  O  O55  1  0.890311  0.626996  0.443911  1
  O  O56  1  0.109689  0.373004  0.556089  1
  O  O57  1  0.955671  0.167361  0.398282  1
  O  O58  1  0.662911  0.385476  0.104017  1
  O  O59  1  0.376690  0.076360  0.813450  1
  O  O60  1  0.011711  0.862150  0.416914  1
  O  O61  1  0.786122  0.705307  0.168476  1
  O  O62  1  0.381027  0.494600  0.754521  1
  O  O63  1  0.665570  0.918804  0.027655  1
  O  O64  1  0.485373  0.770415  0.812375  1
  O  O65  1  0.250577  0.677483  0.564277  1
  O  O66  1  0.951188  0.974388  0.224783  1
  O  O67  1  0.673038  0.549727  0.940792  1
  O  O68  1  0.326962  0.049727  0.559208  1
  O  O69  1  0.048812  0.474388  0.275217  1
  O  O70  1  0.749423  0.177483  0.935723  1
  O  O71  1  0.514627  0.270415  0.687625  1
  O  O72  1  0.334430  0.418804  0.472345  1
  O  O73  1  0.618973  0.994600  0.745479  1
  O  O74  1  0.213878  0.205307  0.331524  1
  O  O75  1  0.988289  0.362150  0.083086  1
  O  O76  1  0.623310  0.576360  0.686550  1
  O  O77  1  0.337089  0.885476  0.395983  1
  O  O78  1  0.044329  0.667361  0.101718  1
  O  O79  1  0.890311  0.873004  0.943911  1
