# generated using pymatgen
data_BaLaGaO4
_symmetry_space_group_name_H-M   'P 1'
_cell_length_a   5.96565224
_cell_length_b   7.32680489
_cell_length_c   10.08654203
_cell_angle_alpha   90.00000000
_cell_angle_beta   90.00000000
_cell_angle_gamma   90.00000000
_symmetry_Int_Tables_number   1
_chemical_formula_structural   BaLaGaO4
_chemical_formula_sum   'Ba4 La4 Ga4 O16'
_cell_volume   440.87438034
_cell_formula_units_Z   4
loop_
 _symmetry_equiv_pos_site_id
 _symmetry_equiv_pos_as_xyz
  1  'x, y, z'
loop_
 _atom_site_type_symbol
 _atom_site_label
 _atom_site_symmetry_multiplicity
 _atom_site_fract_x
 _atom_site_fract_y
 _atom_site_fract_z
 _atom_site_occupancy
  Ba  Ba0  1  0.510072  0.417893  0.079526  1
  Ba  Ba1  1  0.010072  0.082107  0.920474  1
  Ba  Ba2  1  0.489928  0.917893  0.420474  1
  Ba  Ba3  1  0.989928  0.582107  0.579526  1
  La  La4  1  0.513235  0.253753  0.700508  1
  La  La5  1  0.013235  0.246247  0.299492  1
  La  La6  1  0.486765  0.753753  0.799492  1
  La  La7  1  0.986765  0.746247  0.200508  1
  Ga  Ga8  1  0.485651  0.467615  0.416098  1
  Ga  Ga9  1  0.985651  0.032385  0.583902  1
  Ga  Ga10  1  0.514349  0.967615  0.083902  1
  Ga  Ga11  1  0.014349  0.532385  0.916098  1
  O  O12  1  0.497250  0.598843  0.576200  1
  O  O13  1  0.997250  0.901157  0.423800  1
  O  O14  1  0.502750  0.098843  0.923800  1
  O  O15  1  0.002750  0.401157  0.076200  1
  O  O16  1  0.256994  0.558349  0.304391  1
  O  O17  1  0.756994  0.941651  0.695609  1
  O  O18  1  0.743006  0.058349  0.195609  1
  O  O19  1  0.243006  0.441651  0.804391  1
  O  O20  1  0.351068  0.247897  0.463654  1
  O  O21  1  0.851068  0.252103  0.536346  1
  O  O22  1  0.648932  0.747897  0.036346  1
  O  O23  1  0.148932  0.752103  0.963654  1
  O  O24  1  0.747546  0.511683  0.319797  1
  O  O25  1  0.247546  0.988317  0.680203  1
  O  O26  1  0.252454  0.011683  0.180203  1
  O  O27  1  0.752454  0.488317  0.819797  1
