# generated using pymatgen
data_SiO2
_symmetry_space_group_name_H-M   'P 1'
_cell_length_a   15.80455013
_cell_length_b   15.80455013
_cell_length_c   9.95923679
_cell_angle_alpha   90.00000000
_cell_angle_beta   90.00000000
_cell_angle_gamma   90.00000000
_symmetry_Int_Tables_number   1
_chemical_formula_structural   SiO2
_chemical_formula_sum   'Si32 O64'
_cell_volume   2487.65605843
_cell_formula_units_Z   32
loop_
 _symmetry_equiv_pos_site_id
 _symmetry_equiv_pos_as_xyz
  1  'x, y, z'
loop_
 _atom_site_type_symbol
 _atom_site_label
 _atom_site_symmetry_multiplicity
 _atom_site_fract_x
 _atom_site_fract_y
 _atom_site_fract_z
 _atom_site_occupancy
  Si  Si0  1  0.707642  0.081362  0.642349  1
  Si  Si1  1  0.571992  0.071992  0.156386  1
  Si  Si2  1  0.928008  0.571992  0.843614  1
  Si  Si3  1  0.071992  0.428008  0.156386  1
  Si  Si4  1  0.292358  0.918638  0.642349  1
  Si  Si5  1  0.792358  0.581362  0.642349  1
  Si  Si6  1  0.707642  0.081362  0.357651  1
  Si  Si7  1  0.792358  0.581362  0.357651  1
  Si  Si8  1  0.048331  0.133830  0.500000  1
  Si  Si9  1  0.951669  0.866170  0.500000  1
  Si  Si10  1  0.918638  0.707642  0.642349  1
  Si  Si11  1  0.292358  0.918638  0.357651  1
  Si  Si12  1  0.571992  0.071992  0.843614  1
  Si  Si13  1  0.207642  0.418638  0.357651  1
  Si  Si14  1  0.081362  0.292358  0.357651  1
  Si  Si15  1  0.548331  0.366170  0.500000  1
  Si  Si16  1  0.581362  0.207642  0.357651  1
  Si  Si17  1  0.928008  0.571992  0.156386  1
  Si  Si18  1  0.866170  0.048331  0.500000  1
  Si  Si19  1  0.418638  0.792358  0.357651  1
  Si  Si20  1  0.366170  0.451669  0.500000  1
  Si  Si21  1  0.207642  0.418638  0.642349  1
  Si  Si22  1  0.133830  0.951669  0.500000  1
  Si  Si23  1  0.581362  0.207642  0.642349  1
  Si  Si24  1  0.081362  0.292358  0.642349  1
  Si  Si25  1  0.918638  0.707642  0.357651  1
  Si  Si26  1  0.428008  0.928008  0.156386  1
  Si  Si27  1  0.071992  0.428008  0.843614  1
  Si  Si28  1  0.451669  0.633830  0.500000  1
  Si  Si29  1  0.428008  0.928008  0.843614  1
  Si  Si30  1  0.418638  0.792358  0.642349  1
  Si  Si31  1  0.633830  0.548331  0.500000  1
  O  O32  1  0.458670  0.828105  0.500000  1
  O  O33  1  0.310232  0.431291  0.363697  1
  O  O34  1  0.810232  0.068709  0.636303  1
  O  O35  1  0.171895  0.458670  0.500000  1
  O  O36  1  0.000000  0.500000  0.168192  1
  O  O37  1  0.689768  0.568709  0.636303  1
  O  O38  1  0.828105  0.541330  0.500000  1
  O  O39  1  0.961949  0.659211  0.770059  1
  O  O40  1  0.000000  0.500000  0.831808  1
  O  O41  1  0.840789  0.538051  0.229941  1
  O  O42  1  0.182835  0.317165  0.648588  1
  O  O43  1  0.159211  0.461949  0.229941  1
  O  O44  1  0.931291  0.810232  0.363697  1
  O  O45  1  0.961949  0.659211  0.229941  1
  O  O46  1  0.682835  0.182835  0.351412  1
  O  O47  1  0.317165  0.817165  0.351412  1
  O  O48  1  0.461949  0.840789  0.229941  1
  O  O49  1  0.392230  0.550790  0.500000  1
  O  O50  1  0.607770  0.449210  0.500000  1
  O  O51  1  0.431291  0.689768  0.363697  1
  O  O52  1  0.182835  0.317165  0.351412  1
  O  O53  1  0.538051  0.159211  0.229941  1
  O  O54  1  0.500000  0.000000  0.168192  1
  O  O55  1  0.568709  0.310232  0.363697  1
  O  O56  1  0.038051  0.340789  0.229941  1
  O  O57  1  0.840789  0.538051  0.770059  1
  O  O58  1  0.892230  0.949210  0.500000  1
  O  O59  1  0.159211  0.461949  0.770059  1
  O  O60  1  0.538051  0.159211  0.770059  1
  O  O61  1  0.449210  0.392230  0.500000  1
  O  O62  1  0.340789  0.961949  0.229941  1
  O  O63  1  0.659211  0.038051  0.229941  1
  O  O64  1  0.817165  0.682835  0.648588  1
  O  O65  1  0.107770  0.050790  0.500000  1
  O  O66  1  0.340789  0.961949  0.770059  1
  O  O67  1  0.810232  0.068709  0.363697  1
  O  O68  1  0.050790  0.892230  0.500000  1
  O  O69  1  0.500000  0.000000  0.831808  1
  O  O70  1  0.068709  0.189768  0.636303  1
  O  O71  1  0.461949  0.840789  0.770059  1
  O  O72  1  0.407831  0.907831  0.000000  1
  O  O73  1  0.592169  0.092169  0.000000  1
  O  O74  1  0.189768  0.931291  0.636303  1
  O  O75  1  0.568709  0.310232  0.636303  1
  O  O76  1  0.907831  0.592169  0.000000  1
  O  O77  1  0.931291  0.810232  0.636303  1
  O  O78  1  0.431291  0.689768  0.636303  1
  O  O79  1  0.682835  0.182835  0.648588  1
  O  O80  1  0.310232  0.431291  0.636303  1
  O  O81  1  0.068709  0.189768  0.363697  1
  O  O82  1  0.659211  0.038051  0.770059  1
  O  O83  1  0.189768  0.931291  0.363697  1
  O  O84  1  0.041330  0.328105  0.500000  1
  O  O85  1  0.038051  0.340789  0.770059  1
  O  O86  1  0.328105  0.958670  0.500000  1
  O  O87  1  0.092169  0.407831  0.000000  1
  O  O88  1  0.317165  0.817165  0.648588  1
  O  O89  1  0.949210  0.107770  0.500000  1
  O  O90  1  0.671895  0.041330  0.500000  1
  O  O91  1  0.689768  0.568709  0.363697  1
  O  O92  1  0.541330  0.171895  0.500000  1
  O  O93  1  0.817165  0.682835  0.351412  1
  O  O94  1  0.550790  0.607770  0.500000  1
  O  O95  1  0.958670  0.671895  0.500000  1
