# generated using pymatgen
data_CsAuSe
_symmetry_space_group_name_H-M   'P 1'
_cell_length_a   5.73656660
_cell_length_b   5.73656660
_cell_length_c   7.20388273
_cell_angle_alpha   90.00000000
_cell_angle_beta   90.00000000
_cell_angle_gamma   100.12730260
_symmetry_Int_Tables_number   1
_chemical_formula_structural   CsAuSe
_chemical_formula_sum   'Cs2 Au2 Se2'
_cell_volume   233.37316876
_cell_formula_units_Z   2
loop_
 _symmetry_equiv_pos_site_id
 _symmetry_equiv_pos_as_xyz
  1  'x, y, z'
loop_
 _atom_site_type_symbol
 _atom_site_label
 _atom_site_symmetry_multiplicity
 _atom_site_fract_x
 _atom_site_fract_y
 _atom_site_fract_z
 _atom_site_occupancy
  Cs  Cs0  1  0.369116  0.630884  0.750000  1
  Cs  Cs1  1  0.630884  0.369116  0.250000  1
  Au  Au2  1  0.000000  0.000000  0.000000  1
  Au  Au3  1  0.000000  0.000000  0.500000  1
  Se  Se4  1  0.809005  0.190995  0.750000  1
  Se  Se5  1  0.190995  0.809005  0.250000  1
