# generated using pymatgen
data_Li3ScN2
_symmetry_space_group_name_H-M   'P 1'
_cell_length_a   8.71520514
_cell_length_b   8.71520514
_cell_length_c   8.71520514
_cell_angle_alpha   109.47122063
_cell_angle_beta   109.47122063
_cell_angle_gamma   109.47122063
_symmetry_Int_Tables_number   1
_chemical_formula_structural   Li3ScN2
_chemical_formula_sum   'Li24 Sc8 N16'
_cell_volume   509.57833047
_cell_formula_units_Z   8
loop_
 _symmetry_equiv_pos_site_id
 _symmetry_equiv_pos_as_xyz
  1  'x, y, z'
loop_
 _atom_site_type_symbol
 _atom_site_label
 _atom_site_symmetry_multiplicity
 _atom_site_fract_x
 _atom_site_fract_y
 _atom_site_fract_z
 _atom_site_occupancy
  Li  Li0  1  0.501865  0.267667  0.541716  1
  Li  Li1  1  0.960149  0.958284  0.225951  1
  Li  Li2  1  0.734198  0.274049  0.232333  1
  Li  Li3  1  0.539851  0.765802  0.998135  1
  Li  Li4  1  0.958284  0.225951  0.960149  1
  Li  Li5  1  0.232333  0.734198  0.274049  1
  Li  Li6  1  0.765802  0.998135  0.539851  1
  Li  Li7  1  0.541716  0.501865  0.267667  1
  Li  Li8  1  0.267667  0.541716  0.501865  1
  Li  Li9  1  0.225951  0.960149  0.958284  1
  Li  Li10  1  0.274049  0.232333  0.734198  1
  Li  Li11  1  0.998135  0.539851  0.765802  1
  Li  Li12  1  0.498135  0.732333  0.458284  1
  Li  Li13  1  0.039851  0.041716  0.774049  1
  Li  Li14  1  0.265802  0.725951  0.767667  1
  Li  Li15  1  0.460149  0.234198  0.001865  1
  Li  Li16  1  0.041716  0.774049  0.039851  1
  Li  Li17  1  0.767667  0.265802  0.725951  1
  Li  Li18  1  0.234198  0.001865  0.460149  1
  Li  Li19  1  0.458284  0.498135  0.732333  1
  Li  Li20  1  0.732333  0.458284  0.498135  1
  Li  Li21  1  0.774049  0.039851  0.041716  1
  Li  Li22  1  0.725951  0.767667  0.265802  1
  Li  Li23  1  0.001865  0.460149  0.234198  1
  Sc  Sc24  1  0.242407  0.242407  0.242407  1
  Sc  Sc25  1  0.000000  0.257593  0.500000  1
  Sc  Sc26  1  0.500000  0.000000  0.257593  1
  Sc  Sc27  1  0.257593  0.500000  0.000000  1
  Sc  Sc28  1  0.757593  0.757593  0.757593  1
  Sc  Sc29  1  0.000000  0.742407  0.500000  1
  Sc  Sc30  1  0.500000  0.000000  0.742407  1
  Sc  Sc31  1  0.742407  0.500000  0.000000  1
  N  N32  1  0.000000  0.000000  0.000000  1
  N  N33  1  0.000000  0.500000  0.500000  1
  N  N34  1  0.500000  0.000000  0.500000  1
  N  N35  1  0.500000  0.500000  0.000000  1
  N  N36  1  0.250000  0.486001  0.236001  1
  N  N37  1  0.013999  0.263999  0.750000  1
  N  N38  1  0.263999  0.750000  0.013999  1
  N  N39  1  0.486001  0.236001  0.250000  1
  N  N40  1  0.236001  0.250000  0.486001  1
  N  N41  1  0.750000  0.013999  0.263999  1
  N  N42  1  0.750000  0.513999  0.763999  1
  N  N43  1  0.986001  0.736001  0.250000  1
  N  N44  1  0.736001  0.250000  0.986001  1
  N  N45  1  0.513999  0.763999  0.750000  1
  N  N46  1  0.763999  0.750000  0.513999  1
  N  N47  1  0.250000  0.986001  0.736001  1
