# generated using pymatgen
data_Re4Si7
_symmetry_space_group_name_H-M   'P 1'
_cell_length_a   11.80895749
_cell_length_b   11.80895749
_cell_length_c   8.37227009
_cell_angle_alpha   87.41781857
_cell_angle_beta   92.58218143
_cell_angle_gamma   164.71044251
_symmetry_Int_Tables_number   1
_chemical_formula_structural   Re4Si7
_chemical_formula_sum   'Re8 Si14'
_cell_volume   307.55500344
_cell_formula_units_Z   2
loop_
 _symmetry_equiv_pos_site_id
 _symmetry_equiv_pos_as_xyz
  1  'x, y, z'
loop_
 _atom_site_type_symbol
 _atom_site_label
 _atom_site_symmetry_multiplicity
 _atom_site_fract_x
 _atom_site_fract_y
 _atom_site_fract_z
 _atom_site_occupancy
  Re  Re0  1  0.251483  0.748517  0.743908  1
  Re  Re1  1  0.871981  0.128019  0.106883  1
  Re  Re2  1  0.125445  0.874555  0.874832  1
  Re  Re3  1  0.502870  0.497130  0.495976  1
  Re  Re4  1  0.375184  0.624816  0.621390  1
  Re  Re5  1  0.620856  0.379144  0.355358  1
  Re  Re6  1  0.751914  0.248086  0.237546  1
  Re  Re7  1  0.001396  0.998604  0.979984  1
  Si  Si8  1  0.041134  0.958866  0.274975  1
  Si  Si9  1  0.420523  0.579477  0.920713  1
  Si  Si10  1  0.170435  0.829565  0.170807  1
  Si  Si11  1  0.957827  0.042173  0.689946  1
  Si  Si12  1  0.695495  0.304505  0.563284  1
  Si  Si13  1  0.543415  0.456585  0.781083  1
  Si  Si14  1  0.795721  0.204279  0.522954  1
  Si  Si15  1  0.290785  0.709215  0.036680  1
  Si  Si16  1  0.835282  0.164718  0.819634  1
  Si  Si17  1  0.093433  0.906567  0.576412  1
  Si  Si18  1  0.705984  0.294016  0.939855  1
  Si  Si19  1  0.941536  0.058464  0.330177  1
  Si  Si20  1  0.583490  0.416510  0.069132  1
  Si  Si21  1  0.340212  0.659788  0.323371  1
