# generated using pymatgen
data_Tm2Ni12P7
_symmetry_space_group_name_H-M   'P 1'
_cell_length_a   9.01611474
_cell_length_b   9.01611474
_cell_length_c   3.66147326
_cell_angle_alpha   90.00000000
_cell_angle_beta   90.00000000
_cell_angle_gamma   120.00000000
_symmetry_Int_Tables_number   1
_chemical_formula_structural   Tm2Ni12P7
_chemical_formula_sum   'Tm2 Ni12 P7'
_cell_volume   257.76583756
_cell_formula_units_Z   1
loop_
 _symmetry_equiv_pos_site_id
 _symmetry_equiv_pos_as_xyz
  1  'x, y, z'
loop_
 _atom_site_type_symbol
 _atom_site_label
 _atom_site_symmetry_multiplicity
 _atom_site_fract_x
 _atom_site_fract_y
 _atom_site_fract_z
 _atom_site_occupancy
  Tm  Tm0  1  0.666667  0.333333  0.500000  1
  Tm  Tm1  1  0.333333  0.666667  0.000000  1
  Ni  Ni2  1  0.435101  0.060957  0.000000  1
  Ni  Ni3  1  0.625856  0.564899  0.000000  1
  Ni  Ni4  1  0.939043  0.374144  0.000000  1
  Ni  Ni5  1  0.153104  0.275227  0.000000  1
  Ni  Ni6  1  0.122123  0.846896  0.000000  1
  Ni  Ni7  1  0.724773  0.877877  0.000000  1
  Ni  Ni8  1  0.382332  0.431820  0.500000  1
  Ni  Ni9  1  0.049488  0.617668  0.500000  1
  Ni  Ni10  1  0.568180  0.950512  0.500000  1
  Ni  Ni11  1  0.217683  0.094596  0.500000  1
  Ni  Ni12  1  0.876913  0.782317  0.500000  1
  Ni  Ni13  1  0.905404  0.123087  0.500000  1
  P  P14  1  0.000000  0.000000  0.000000  1
  P  P15  1  0.408190  0.293189  0.000000  1
  P  P16  1  0.885000  0.591810  0.000000  1
  P  P17  1  0.706811  0.115000  0.000000  1
  P  P18  1  0.112687  0.406753  0.500000  1
  P  P19  1  0.294066  0.887313  0.500000  1
  P  P20  1  0.593247  0.705934  0.500000  1
