# generated using pymatgen
data_Lu7Te
_symmetry_space_group_name_H-M   'P 1'
_cell_length_a   6.41519561
_cell_length_b   6.41519561
_cell_length_c   19.97480342
_cell_angle_alpha   90.00000000
_cell_angle_beta   90.00000000
_cell_angle_gamma   146.08328754
_symmetry_Int_Tables_number   1
_chemical_formula_structural   Lu7Te
_chemical_formula_sum   'Lu14 Te2'
_cell_volume   458.69768502
_cell_formula_units_Z   2
loop_
 _symmetry_equiv_pos_site_id
 _symmetry_equiv_pos_as_xyz
  1  'x, y, z'
loop_
 _atom_site_type_symbol
 _atom_site_label
 _atom_site_symmetry_multiplicity
 _atom_site_fract_x
 _atom_site_fract_y
 _atom_site_fract_z
 _atom_site_occupancy
  Lu  Lu0  1  0.980058  0.019942  0.890845  1
  Lu  Lu1  1  0.019942  0.980058  0.109155  1
  Lu  Lu2  1  0.019942  0.980058  0.390845  1
  Lu  Lu3  1  0.980058  0.019942  0.609155  1
  Lu  Lu4  1  0.755036  0.244964  0.355457  1
  Lu  Lu5  1  0.244964  0.755036  0.644543  1
  Lu  Lu6  1  0.244964  0.755036  0.855457  1
  Lu  Lu7  1  0.755036  0.244964  0.144543  1
  Lu  Lu8  1  0.642403  0.357597  0.987546  1
  Lu  Lu9  1  0.357597  0.642403  0.012454  1
  Lu  Lu10  1  0.357597  0.642403  0.487546  1
  Lu  Lu11  1  0.642403  0.357597  0.512454  1
  Lu  Lu12  1  0.562663  0.437337  0.750000  1
  Lu  Lu13  1  0.437337  0.562663  0.250000  1
  Te  Te14  1  0.851352  0.148648  0.750000  1
  Te  Te15  1  0.148648  0.851352  0.250000  1
