# generated using pymatgen
data_ThV4O12
_symmetry_space_group_name_H-M   'P 1'
_cell_length_a   16.05387693
_cell_length_b   16.05387693
_cell_length_c   16.05387693
_cell_angle_alpha   148.34550913
_cell_angle_beta   148.34550913
_cell_angle_gamma   45.37558255
_symmetry_Int_Tables_number   1
_chemical_formula_structural   ThV4O12
_chemical_formula_sum   'Th4 V16 O48'
_cell_volume   1135.83007344
_cell_formula_units_Z   4
loop_
 _symmetry_equiv_pos_site_id
 _symmetry_equiv_pos_as_xyz
  1  'x, y, z'
loop_
 _atom_site_type_symbol
 _atom_site_label
 _atom_site_symmetry_multiplicity
 _atom_site_fract_x
 _atom_site_fract_y
 _atom_site_fract_z
 _atom_site_occupancy
  Th  Th0  1  0.000000  0.500000  0.500000  1
  Th  Th1  1  0.250000  0.250000  0.000000  1
  Th  Th2  1  0.750000  0.750000  0.000000  1
  Th  Th3  1  0.500000  0.000000  0.500000  1
  V  V4  1  0.034470  0.530932  0.215189  1
  V  V5  1  0.069281  0.065742  0.284811  1
  V  V6  1  0.434258  0.430719  0.715189  1
  V  V7  1  0.215530  0.930719  0.996461  1
  V  V8  1  0.680719  0.184258  0.215189  1
  V  V9  1  0.780932  0.784470  0.715189  1
  V  V10  1  0.934258  0.219068  0.003539  1
  V  V11  1  0.969068  0.465530  0.784811  1
  V  V12  1  0.280932  0.565742  0.996461  1
  V  V13  1  0.315742  0.819281  0.784811  1
  V  V14  1  0.815742  0.030932  0.496461  1
  V  V15  1  0.534470  0.319281  0.503539  1
  V  V16  1  0.715530  0.719068  0.284811  1
  V  V17  1  0.569281  0.284470  0.003539  1
  V  V18  1  0.469068  0.684258  0.503539  1
  V  V19  1  0.180719  0.965530  0.496461  1
  O  O20  1  0.468120  0.274044  0.672363  1
  O  O21  1  0.125000  0.558475  0.933475  1
  O  O22  1  0.941525  0.375000  0.066525  1
  O  O23  1  0.380177  0.749086  0.238581  1
  O  O24  1  0.750914  0.119823  0.761419  1
  O  O25  1  0.601681  0.795756  0.327637  1
  O  O26  1  0.999086  0.130177  0.738581  1
  O  O27  1  0.781880  0.954244  0.305924  1
  O  O28  1  0.587086  0.587086  0.000000  1
  O  O29  1  0.087086  0.087086  0.000000  1
  O  O30  1  0.739495  0.000914  0.131091  1
  O  O31  1  0.808475  0.875000  0.433475  1
  O  O32  1  0.148319  0.454244  0.172363  1
  O  O33  1  0.524044  0.218120  0.172363  1
  O  O34  1  0.648319  0.475956  0.694076  1
  O  O35  1  0.337086  0.837086  0.500000  1
  O  O36  1  0.125000  0.058475  0.433475  1
  O  O37  1  0.204244  0.531880  0.805924  1
  O  O38  1  0.358404  0.989495  0.238581  1
  O  O39  1  0.545756  0.718120  0.694076  1
  O  O40  1  0.281880  0.975956  0.827637  1
  O  O41  1  0.239495  0.108404  0.738581  1
  O  O42  1  0.162914  0.662914  0.500000  1
  O  O43  1  0.725956  0.398319  0.194076  1
  O  O44  1  0.250914  0.489495  0.631091  1
  O  O45  1  0.225956  0.031880  0.327637  1
  O  O46  1  0.369823  0.500914  0.261419  1
  O  O47  1  0.499086  0.760505  0.868909  1
  O  O48  1  0.869823  0.608404  0.868909  1
  O  O49  1  0.837086  0.337086  0.500000  1
  O  O50  1  0.024044  0.851681  0.305924  1
  O  O51  1  0.441525  0.375000  0.566525  1
  O  O52  1  0.968120  0.295756  0.194076  1
  O  O53  1  0.662914  0.162914  0.500000  1
  O  O54  1  0.858404  0.619823  0.368909  1
  O  O55  1  0.912914  0.912914  0.000000  1
  O  O56  1  0.625000  0.691525  0.566525  1
  O  O57  1  0.010505  0.249086  0.368909  1
  O  O58  1  0.391596  0.260505  0.261419  1
  O  O59  1  0.625000  0.191525  0.066525  1
  O  O60  1  0.101681  0.774044  0.805924  1
  O  O61  1  0.510505  0.141596  0.761419  1
  O  O62  1  0.880177  0.641596  0.631091  1
  O  O63  1  0.308475  0.875000  0.933475  1
  O  O64  1  0.412914  0.412914  0.000000  1
  O  O65  1  0.704244  0.898319  0.672363  1
  O  O66  1  0.891596  0.630177  0.131091  1
  O  O67  1  0.045756  0.351681  0.827637  1
