# generated using pymatgen
data_Co3(PO4)4
_symmetry_space_group_name_H-M   'P 1'
_cell_length_a   8.64701615
_cell_length_b   7.51926885
_cell_length_c   9.17424843
_cell_angle_alpha   90.00000000
_cell_angle_beta   112.11263837
_cell_angle_gamma   90.00000000
_symmetry_Int_Tables_number   1
_chemical_formula_structural   Co3(PO4)4
_chemical_formula_sum   'Co6 P8 O32'
_cell_volume   552.62727037
_cell_formula_units_Z   2
loop_
 _symmetry_equiv_pos_site_id
 _symmetry_equiv_pos_as_xyz
  1  'x, y, z'
loop_
 _atom_site_type_symbol
 _atom_site_label
 _atom_site_symmetry_multiplicity
 _atom_site_fract_x
 _atom_site_fract_y
 _atom_site_fract_z
 _atom_site_occupancy
  Co  Co0  1  0.996366  0.985934  0.754827  1
  Co  Co1  1  0.501448  0.505776  0.741735  1
  Co  Co2  1  0.894287  0.869396  0.236004  1
  Co  Co3  1  0.498552  0.005776  0.258265  1
  Co  Co4  1  0.105713  0.369396  0.763996  1
  Co  Co5  1  0.003634  0.485934  0.245173  1
  P  P6  1  0.855803  0.299734  0.914405  1
  P  P7  1  0.635809  0.816291  0.589705  1
  P  P8  1  0.857031  0.200390  0.418594  1
  P  P9  1  0.370003  0.173214  0.920358  1
  P  P10  1  0.364191  0.316291  0.410295  1
  P  P11  1  0.629997  0.673214  0.079642  1
  P  P12  1  0.142969  0.700390  0.581406  1
  P  P13  1  0.144197  0.799734  0.085595  1
  O  O14  1  0.321787  0.867464  0.115757  1
  O  O15  1  0.678480  0.145542  0.393727  1
  O  O16  1  0.147324  0.607744  0.150293  1
  O  O17  1  0.173202  0.151708  0.883233  1
  O  O18  1  0.860513  0.385639  0.346812  1
  O  O19  1  0.536461  0.685602  0.900637  1
  O  O20  1  0.469774  0.322978  0.591592  1
  O  O21  1  0.139487  0.885639  0.653188  1
  O  O22  1  0.545790  0.963757  0.644750  1
  O  O23  1  0.547986  0.530201  0.139398  1
  O  O24  1  0.952561  0.066019  0.357519  1
  O  O25  1  0.643683  0.630893  0.663652  1
  O  O26  1  0.653581  0.861382  0.168919  1
  O  O27  1  0.958164  0.201352  0.602685  1
  O  O28  1  0.052133  0.930197  0.155818  1
  O  O29  1  0.356317  0.130893  0.336348  1
  O  O30  1  0.183819  0.364176  0.393229  1
  O  O31  1  0.346419  0.361382  0.831081  1
  O  O32  1  0.852676  0.107744  0.849707  1
  O  O33  1  0.826798  0.651708  0.116767  1
  O  O34  1  0.463539  0.185602  0.099363  1
  O  O35  1  0.047439  0.566019  0.642481  1
  O  O36  1  0.321520  0.645542  0.606273  1
  O  O37  1  0.530226  0.822978  0.408408  1
  O  O38  1  0.816181  0.864176  0.606771  1
  O  O39  1  0.948917  0.293518  0.097487  1
  O  O40  1  0.051083  0.793518  0.902513  1
  O  O41  1  0.947867  0.430197  0.844182  1
  O  O42  1  0.041836  0.701352  0.397315  1
  O  O43  1  0.678213  0.367464  0.884243  1
  O  O44  1  0.454210  0.463757  0.355250  1
  O  O45  1  0.452014  0.030201  0.860602  1
