# generated using pymatgen
data_NaZr2CuF11
_symmetry_space_group_name_H-M   'P 1'
_cell_length_a   5.61602279
_cell_length_b   5.85751675
_cell_length_c   7.78216835
_cell_angle_alpha   110.48957975
_cell_angle_beta   96.72258469
_cell_angle_gamma   106.29340337
_symmetry_Int_Tables_number   1
_chemical_formula_structural   NaZr2CuF11
_chemical_formula_sum   'Na1 Zr2 Cu1 F11'
_cell_volume   223.48041369
_cell_formula_units_Z   1
loop_
 _symmetry_equiv_pos_site_id
 _symmetry_equiv_pos_as_xyz
  1  'x, y, z'
loop_
 _atom_site_type_symbol
 _atom_site_label
 _atom_site_symmetry_multiplicity
 _atom_site_fract_x
 _atom_site_fract_y
 _atom_site_fract_z
 _atom_site_occupancy
  Na  Na0  1  0.000000  0.000000  0.000000  1
  Zr  Zr1  1  0.487146  0.505721  0.762999  1
  Zr  Zr2  1  0.512854  0.494279  0.237001  1
  Cu  Cu3  1  0.000000  0.000000  0.500000  1
  F  F4  1  0.259511  0.721956  0.110439  1
  F  F5  1  0.189420  0.232442  0.709536  1
  F  F6  1  0.775569  0.817722  0.669416  1
  F  F7  1  0.740489  0.278044  0.889561  1
  F  F8  1  0.336982  0.323396  0.016165  1
  F  F9  1  0.810580  0.767558  0.290464  1
  F  F10  1  0.763141  0.238897  0.353018  1
  F  F11  1  0.236859  0.761103  0.646982  1
  F  F12  1  0.224431  0.182278  0.330584  1
  F  F13  1  0.500000  0.500000  0.500000  1
  F  F14  1  0.663018  0.676604  0.983835  1
