# generated using pymatgen
data_KTa3CuO9
_symmetry_space_group_name_H-M   'P 1'
_cell_length_a   7.71477431
_cell_length_b   8.96008564
_cell_length_c   10.24384931
_cell_angle_alpha   90.00000000
_cell_angle_beta   90.00000000
_cell_angle_gamma   90.00000000
_symmetry_Int_Tables_number   1
_chemical_formula_structural   KTa3CuO9
_chemical_formula_sum   'K4 Ta12 Cu4 O36'
_cell_volume   708.10647805
_cell_formula_units_Z   4
loop_
 _symmetry_equiv_pos_site_id
 _symmetry_equiv_pos_as_xyz
  1  'x, y, z'
loop_
 _atom_site_type_symbol
 _atom_site_label
 _atom_site_symmetry_multiplicity
 _atom_site_fract_x
 _atom_site_fract_y
 _atom_site_fract_z
 _atom_site_occupancy
  K  K0  1  0.000000  0.083594  0.244488  1
  K  K1  1  0.000000  0.916406  0.755512  1
  K  K2  1  0.500000  0.916406  0.744488  1
  K  K3  1  0.500000  0.083594  0.255512  1
  Ta  Ta4  1  0.750000  0.430237  0.250000  1
  Ta  Ta5  1  0.750000  0.569763  0.750000  1
  Ta  Ta6  1  0.250000  0.569763  0.750000  1
  Ta  Ta7  1  0.250000  0.430237  0.250000  1
  Ta  Ta8  1  0.752894  0.798905  0.437767  1
  Ta  Ta9  1  0.752894  0.201095  0.562233  1
  Ta  Ta10  1  0.252894  0.201095  0.937767  1
  Ta  Ta11  1  0.252894  0.798905  0.062233  1
  Ta  Ta12  1  0.747106  0.798905  0.062233  1
  Ta  Ta13  1  0.747106  0.201095  0.937767  1
  Ta  Ta14  1  0.247106  0.201095  0.562233  1
  Ta  Ta15  1  0.247106  0.798905  0.437767  1
  Cu  Cu16  1  0.000000  0.500000  0.000000  1
  Cu  Cu17  1  0.500000  0.500000  0.500000  1
  Cu  Cu18  1  0.500000  0.500000  0.000000  1
  Cu  Cu19  1  0.000000  0.500000  0.500000  1
  O  O20  1  0.808568  0.000000  0.000000  1
  O  O21  1  0.308568  0.000000  0.500000  1
  O  O22  1  0.191432  0.000000  0.000000  1
  O  O23  1  0.691432  0.000000  0.500000  1
  O  O24  1  0.713365  0.275182  0.120597  1
  O  O25  1  0.713365  0.724818  0.879403  1
  O  O26  1  0.213365  0.724818  0.620597  1
  O  O27  1  0.213365  0.275182  0.379403  1
  O  O28  1  0.786635  0.275182  0.379403  1
  O  O29  1  0.786635  0.724818  0.620597  1
  O  O30  1  0.286635  0.724818  0.879403  1
  O  O31  1  0.286635  0.275182  0.120597  1
  O  O32  1  0.817307  0.584272  0.385294  1
  O  O33  1  0.817307  0.415728  0.614706  1
  O  O34  1  0.317307  0.415728  0.885294  1
  O  O35  1  0.317307  0.584272  0.114706  1
  O  O36  1  0.182693  0.584272  0.385294  1
  O  O37  1  0.182693  0.415728  0.614706  1
  O  O38  1  0.682693  0.415728  0.885294  1
  O  O39  1  0.682693  0.584272  0.114706  1
  O  O40  1  0.750000  0.851582  0.250000  1
  O  O41  1  0.750000  0.148418  0.750000  1
  O  O42  1  0.250000  0.148418  0.750000  1
  O  O43  1  0.250000  0.851582  0.250000  1
  O  O44  1  0.000000  0.442739  0.186648  1
  O  O45  1  0.000000  0.557261  0.813352  1
  O  O46  1  0.500000  0.557261  0.686648  1
  O  O47  1  0.500000  0.442739  0.313352  1
  O  O48  1  0.000000  0.150428  0.558893  1
  O  O49  1  0.000000  0.849572  0.441107  1
  O  O50  1  0.500000  0.849572  0.058893  1
  O  O51  1  0.500000  0.150428  0.941107  1
  O  O52  1  0.500000  0.272797  0.552792  1
  O  O53  1  0.500000  0.727203  0.447208  1
  O  O54  1  0.000000  0.727203  0.052792  1
  O  O55  1  0.000000  0.272797  0.947208  1
