# generated using pymatgen
data_Rb2Mo2O7
_symmetry_space_group_name_H-M   'P 1'
_cell_length_a   8.41308249
_cell_length_b   8.41308249
_cell_length_c   12.18651774
_cell_angle_alpha   90.00000000
_cell_angle_beta   90.00000000
_cell_angle_gamma   102.79279064
_symmetry_Int_Tables_number   1
_chemical_formula_structural   Rb2Mo2O7
_chemical_formula_sum   'Rb8 Mo8 O28'
_cell_volume   841.15003733
_cell_formula_units_Z   4
loop_
 _symmetry_equiv_pos_site_id
 _symmetry_equiv_pos_as_xyz
  1  'x, y, z'
loop_
 _atom_site_type_symbol
 _atom_site_label
 _atom_site_symmetry_multiplicity
 _atom_site_fract_x
 _atom_site_fract_y
 _atom_site_fract_z
 _atom_site_occupancy
  Rb  Rb0  1  0.279569  0.706854  0.250000  1
  Rb  Rb1  1  0.706854  0.279569  0.750000  1
  Rb  Rb2  1  0.726124  0.234374  0.250000  1
  Rb  Rb3  1  0.995503  0.995503  1.000000  1
  Rb  Rb4  1  0.234374  0.726124  0.750000  1
  Rb  Rb5  1  0.252563  0.223013  0.250000  1
  Rb  Rb6  1  0.995503  0.995503  0.500000  1
  Rb  Rb7  1  0.223013  0.252563  0.750000  1
  Mo  Mo8  1  0.975206  0.481374  0.488393  1
  Mo  Mo9  1  0.815895  0.757542  0.250000  1
  Mo  Mo10  1  0.481374  0.975206  0.511607  1
  Mo  Mo11  1  0.563786  0.563786  0.500000  1
  Mo  Mo12  1  0.563786  0.563786  1.000000  1
  Mo  Mo13  1  0.975206  0.481374  0.011607  1
  Mo  Mo14  1  0.481374  0.975206  0.988393  1
  Mo  Mo15  1  0.757542  0.815895  0.750000  1
  O  O16  1  0.756383  0.698551  0.623932  1
  O  O17  1  0.092042  0.681002  0.034535  1
  O  O18  1  0.014727  0.426305  0.624404  1
  O  O19  1  0.477527  0.441427  0.889751  1
  O  O20  1  0.441427  0.477527  0.110249  1
  O  O21  1  0.681002  0.092042  0.965465  1
  O  O22  1  0.585181  0.903574  0.750000  1
  O  O23  1  0.463719  0.747595  0.968438  1
  O  O24  1  0.698551  0.756383  0.123932  1
  O  O25  1  0.034832  0.337413  0.399704  1
  O  O26  1  0.426305  0.014727  0.375596  1
  O  O27  1  0.337413  0.034832  0.899704  1
  O  O28  1  0.747595  0.463719  0.468438  1
  O  O29  1  0.940327  0.973020  0.750000  1
  O  O30  1  0.441427  0.477527  0.389751  1
  O  O31  1  0.747595  0.463719  0.031562  1
  O  O32  1  0.092042  0.681002  0.465465  1
  O  O33  1  0.034832  0.337413  0.100296  1
  O  O34  1  0.463719  0.747595  0.531562  1
  O  O35  1  0.014727  0.426305  0.875596  1
  O  O36  1  0.337413  0.034832  0.600296  1
  O  O37  1  0.681002  0.092042  0.534535  1
  O  O38  1  0.477527  0.441427  0.610249  1
  O  O39  1  0.426305  0.014727  0.124404  1
  O  O40  1  0.756383  0.698551  0.876068  1
  O  O41  1  0.698551  0.756383  0.376068  1
  O  O42  1  0.973020  0.940327  0.250000  1
  O  O43  1  0.903574  0.585181  0.250000  1
