# generated using pymatgen
data_Na2ZrGeO5
_symmetry_space_group_name_H-M   'P 1'
_cell_length_a   14.06172823
_cell_length_b   5.62409200
_cell_length_c   14.30189990
_cell_angle_alpha   90.00000000
_cell_angle_beta   119.06304865
_cell_angle_gamma   90.00000000
_symmetry_Int_Tables_number   1
_chemical_formula_structural   Na2ZrGeO5
_chemical_formula_sum   'Na16 Zr8 Ge8 O40'
_cell_volume   988.64155447
_cell_formula_units_Z   8
loop_
 _symmetry_equiv_pos_site_id
 _symmetry_equiv_pos_as_xyz
  1  'x, y, z'
loop_
 _atom_site_type_symbol
 _atom_site_label
 _atom_site_symmetry_multiplicity
 _atom_site_fract_x
 _atom_site_fract_y
 _atom_site_fract_z
 _atom_site_occupancy
  Na  Na0  1  0.849902  0.739116  0.679541  1
  Na  Na1  1  0.672109  0.271122  0.820361  1
  Na  Na2  1  0.070325  0.769708  0.422172  1
  Na  Na3  1  0.147165  0.265793  0.075905  1
  Na  Na4  1  0.827891  0.771122  0.179639  1
  Na  Na5  1  0.352835  0.765793  0.924095  1
  Na  Na6  1  0.650098  0.239116  0.320459  1
  Na  Na7  1  0.570325  0.730292  0.422172  1
  Na  Na8  1  0.349902  0.760884  0.679541  1
  Na  Na9  1  0.852835  0.734207  0.924095  1
  Na  Na10  1  0.150098  0.260884  0.320459  1
  Na  Na11  1  0.327891  0.728878  0.179639  1
  Na  Na12  1  0.429675  0.269708  0.577828  1
  Na  Na13  1  0.172109  0.228878  0.820361  1
  Na  Na14  1  0.929675  0.230292  0.577828  1
  Na  Na15  1  0.647165  0.234207  0.075905  1
  Zr  Zr16  1  0.694507  0.262403  0.562880  1
  Zr  Zr17  1  0.194507  0.237597  0.562880  1
  Zr  Zr18  1  0.368651  0.233337  0.063370  1
  Zr  Zr19  1  0.305493  0.737597  0.437120  1
  Zr  Zr20  1  0.131349  0.733337  0.936630  1
  Zr  Zr21  1  0.805493  0.762403  0.437120  1
  Zr  Zr22  1  0.868651  0.266663  0.063370  1
  Zr  Zr23  1  0.631349  0.766663  0.936630  1
  Ge  Ge24  1  0.592291  0.780968  0.659649  1
  Ge  Ge25  1  0.065784  0.783078  0.159164  1
  Ge  Ge26  1  0.934216  0.216922  0.840836  1
  Ge  Ge27  1  0.565784  0.716922  0.159164  1
  Ge  Ge28  1  0.907709  0.280968  0.340351  1
  Ge  Ge29  1  0.407709  0.219032  0.340351  1
  Ge  Ge30  1  0.092291  0.719032  0.659649  1
  Ge  Ge31  1  0.434216  0.283078  0.840836  1
  O  O32  1  0.452266  0.708159  0.589368  1
  O  O33  1  0.853103  0.216604  0.202373  1
  O  O34  1  0.838142  0.097356  0.386483  1
  O  O35  1  0.150439  0.749817  0.298617  1
  O  O36  1  0.610288  0.088846  0.641325  1
  O  O37  1  0.771715  0.974493  0.002347  1
  O  O38  1  0.233827  0.534558  0.507708  1
  O  O39  1  0.133510  0.691652  0.088116  1
  O  O40  1  0.338142  0.402644  0.386483  1
  O  O41  1  0.161858  0.902644  0.613517  1
  O  O42  1  0.728285  0.474493  0.997653  1
  O  O43  1  0.110288  0.411154  0.641325  1
  O  O44  1  0.866490  0.308348  0.911884  1
  O  O45  1  0.733827  0.965442  0.507708  1
  O  O46  1  0.849561  0.250183  0.701383  1
  O  O47  1  0.470698  0.590256  0.865599  1
  O  O48  1  0.389712  0.911154  0.358675  1
  O  O49  1  0.548410  0.099508  0.878206  1
  O  O50  1  0.029302  0.090256  0.134401  1
  O  O51  1  0.266173  0.034558  0.492292  1
  O  O52  1  0.951590  0.599508  0.121794  1
  O  O53  1  0.451590  0.900492  0.121794  1
  O  O54  1  0.766173  0.465442  0.492292  1
  O  O55  1  0.952266  0.791841  0.589368  1
  O  O56  1  0.047734  0.208159  0.410632  1
  O  O57  1  0.650439  0.750183  0.298617  1
  O  O58  1  0.349561  0.249817  0.701383  1
  O  O59  1  0.889712  0.588846  0.358675  1
  O  O60  1  0.661858  0.597356  0.613517  1
  O  O61  1  0.646897  0.716604  0.797627  1
  O  O62  1  0.048410  0.400492  0.878206  1
  O  O63  1  0.228285  0.025507  0.997653  1
  O  O64  1  0.529302  0.409744  0.134401  1
  O  O65  1  0.970698  0.909744  0.865599  1
  O  O66  1  0.366490  0.191652  0.911884  1
  O  O67  1  0.146897  0.783396  0.797627  1
  O  O68  1  0.353103  0.283396  0.202373  1
  O  O69  1  0.271715  0.525507  0.002347  1
  O  O70  1  0.547734  0.291841  0.410632  1
  O  O71  1  0.633510  0.808348  0.088116  1
