# generated using pymatgen
data_Ba(AlSi)2
_symmetry_space_group_name_H-M   'P 1'
_cell_length_a   5.84614357
_cell_length_b   5.84614357
_cell_length_c   10.22208387
_cell_angle_alpha   90.00000000
_cell_angle_beta   90.00000000
_cell_angle_gamma   136.27908939
_symmetry_Int_Tables_number   1
_chemical_formula_structural   Ba(AlSi)2
_chemical_formula_sum   'Ba2 Al4 Si4'
_cell_volume   241.46174153
_cell_formula_units_Z   2
loop_
 _symmetry_equiv_pos_site_id
 _symmetry_equiv_pos_as_xyz
  1  'x, y, z'
loop_
 _atom_site_type_symbol
 _atom_site_label
 _atom_site_symmetry_multiplicity
 _atom_site_fract_x
 _atom_site_fract_y
 _atom_site_fract_z
 _atom_site_occupancy
  Ba  Ba0  1  0.914215  0.085785  0.750000  1
  Ba  Ba1  1  0.085785  0.914215  0.250000  1
  Al  Al2  1  0.621138  0.378862  0.965482  1
  Al  Al3  1  0.378862  0.621138  0.465482  1
  Al  Al4  1  0.378862  0.621138  0.034518  1
  Al  Al5  1  0.621138  0.378862  0.534518  1
  Si  Si6  1  0.798589  0.201411  0.367598  1
  Si  Si7  1  0.201411  0.798589  0.867598  1
  Si  Si8  1  0.798589  0.201411  0.132402  1
  Si  Si9  1  0.201411  0.798589  0.632402  1
