# generated using pymatgen
data_KGd(WO4)2
_symmetry_space_group_name_H-M   'P 1'
_cell_length_a   7.67853302
_cell_length_b   7.67853302
_cell_length_c   7.49447794
_cell_angle_alpha   62.36633440
_cell_angle_beta   117.63366560
_cell_angle_gamma   91.41489134
_symmetry_Int_Tables_number   1
_chemical_formula_structural   KGd(WO4)2
_chemical_formula_sum   'K2 Gd2 W4 O16'
_cell_volume   336.45181659
_cell_formula_units_Z   2
loop_
 _symmetry_equiv_pos_site_id
 _symmetry_equiv_pos_as_xyz
  1  'x, y, z'
loop_
 _atom_site_type_symbol
 _atom_site_label
 _atom_site_symmetry_multiplicity
 _atom_site_fract_x
 _atom_site_fract_y
 _atom_site_fract_z
 _atom_site_occupancy
  K  K0  1  0.292074  0.292074  0.750000  1
  K  K1  1  0.707926  0.707926  0.250000  1
  Gd  Gd2  1  0.275290  0.275290  0.250000  1
  Gd  Gd3  1  0.724710  0.724710  0.750000  1
  W  W4  1  0.191117  0.799822  0.718509  1
  W  W5  1  0.799822  0.191117  0.781491  1
  W  W6  1  0.808883  0.200178  0.281491  1
  W  W7  1  0.200178  0.808883  0.218509  1
  O  O8  1  0.456979  0.720724  0.813776  1
  O  O9  1  0.720724  0.456979  0.686224  1
  O  O10  1  0.543021  0.279276  0.186224  1
  O  O11  1  0.279276  0.543021  0.313776  1
  O  O12  1  0.128527  0.090652  0.469373  1
  O  O13  1  0.090652  0.128527  0.030627  1
  O  O14  1  0.871473  0.909348  0.530627  1
  O  O15  1  0.909348  0.871473  0.969373  1
  O  O16  1  0.128489  0.560962  0.873046  1
  O  O17  1  0.560962  0.128489  0.626954  1
  O  O18  1  0.871511  0.439038  0.126954  1
  O  O19  1  0.439038  0.871511  0.373046  1
  O  O20  1  0.253107  0.876068  0.943908  1
  O  O21  1  0.876068  0.253107  0.556092  1
  O  O22  1  0.746893  0.123932  0.056092  1
  O  O23  1  0.123932  0.746893  0.443908  1
