# generated using pymatgen
data_CsMgH3
_symmetry_space_group_name_H-M   'P 1'
_cell_length_a   6.15760683
_cell_length_b   8.61119640
_cell_length_c   10.01945414
_cell_angle_alpha   90.00000000
_cell_angle_beta   90.00000000
_cell_angle_gamma   90.00000000
_symmetry_Int_Tables_number   1
_chemical_formula_structural   CsMgH3
_chemical_formula_sum   'Cs6 Mg6 H18'
_cell_volume   531.27516103
_cell_formula_units_Z   6
loop_
 _symmetry_equiv_pos_site_id
 _symmetry_equiv_pos_as_xyz
  1  'x, y, z'
loop_
 _atom_site_type_symbol
 _atom_site_label
 _atom_site_symmetry_multiplicity
 _atom_site_fract_x
 _atom_site_fract_y
 _atom_site_fract_z
 _atom_site_occupancy
  Cs  Cs0  1  0.500000  0.666059  0.279151  1
  Cs  Cs1  1  0.500000  0.181810  0.500000  1
  Cs  Cs2  1  0.000000  0.333941  0.779151  1
  Cs  Cs3  1  0.000000  0.818190  0.000000  1
  Cs  Cs4  1  0.000000  0.333941  0.220849  1
  Cs  Cs5  1  0.500000  0.666059  0.720849  1
  Mg  Mg6  1  0.500000  0.073388  0.139482  1
  Mg  Mg7  1  0.500000  0.364778  0.000000  1
  Mg  Mg8  1  0.000000  0.926612  0.639482  1
  Mg  Mg9  1  0.500000  0.073388  0.860518  1
  Mg  Mg10  1  0.000000  0.635222  0.500000  1
  Mg  Mg11  1  0.000000  0.926612  0.360518  1
  H  H12  1  0.799289  0.833205  0.500000  1
  H  H13  1  0.700711  0.166795  0.000000  1
  H  H14  1  0.735459  0.502048  0.000000  1
  H  H15  1  0.235459  0.497952  0.500000  1
  H  H16  1  0.764541  0.497952  0.500000  1
  H  H17  1  0.264541  0.502048  0.000000  1
  H  H18  1  0.500000  0.906456  0.000000  1
  H  H19  1  0.000000  0.708424  0.698532  1
  H  H20  1  0.000000  0.093544  0.500000  1
  H  H21  1  0.500000  0.291576  0.198532  1
  H  H22  1  0.000000  0.708424  0.301468  1
  H  H23  1  0.299289  0.166795  0.000000  1
  H  H24  1  0.750000  0.000000  0.250000  1
  H  H25  1  0.500000  0.291576  0.801468  1
  H  H26  1  0.200711  0.833205  0.500000  1
  H  H27  1  0.250000  0.000000  0.250000  1
  H  H28  1  0.750000  0.000000  0.750000  1
  H  H29  1  0.250000  0.000000  0.750000  1
