# generated using pymatgen
data_Cs2Te2O5
_symmetry_space_group_name_H-M   'P 1'
_cell_length_a   11.16787901
_cell_length_b   12.27062565
_cell_length_c   12.30753350
_cell_angle_alpha   90.00000000
_cell_angle_beta   90.00000000
_cell_angle_gamma   90.00000000
_symmetry_Int_Tables_number   1
_chemical_formula_structural   Cs2Te2O5
_chemical_formula_sum   'Cs16 Te16 O40'
_cell_volume   1686.58577763
_cell_formula_units_Z   8
loop_
 _symmetry_equiv_pos_site_id
 _symmetry_equiv_pos_as_xyz
  1  'x, y, z'
loop_
 _atom_site_type_symbol
 _atom_site_label
 _atom_site_symmetry_multiplicity
 _atom_site_fract_x
 _atom_site_fract_y
 _atom_site_fract_z
 _atom_site_occupancy
  Cs  Cs0  1  0.750571  0.247757  0.752662  1
  Cs  Cs1  1  0.287723  0.004114  0.002789  1
  Cs  Cs2  1  0.750571  0.747757  0.747338  1
  Cs  Cs3  1  0.212277  0.004114  0.502789  1
  Cs  Cs4  1  0.249429  0.252243  0.252662  1
  Cs  Cs5  1  0.749429  0.747757  0.247338  1
  Cs  Cs6  1  0.749429  0.247757  0.252662  1
  Cs  Cs7  1  0.787723  0.995886  0.497211  1
  Cs  Cs8  1  0.250571  0.752243  0.747338  1
  Cs  Cs9  1  0.212277  0.504114  0.997211  1
  Cs  Cs10  1  0.712277  0.495886  0.502789  1
  Cs  Cs11  1  0.287723  0.504114  0.497211  1
  Cs  Cs12  1  0.250571  0.252243  0.752662  1
  Cs  Cs13  1  0.712277  0.995886  0.997211  1
  Cs  Cs14  1  0.249429  0.752243  0.247338  1
  Cs  Cs15  1  0.787723  0.495886  0.002789  1
  Te  Te16  1  0.003702  0.989030  0.761370  1
  Te  Te17  1  0.505565  0.737666  0.986157  1
  Te  Te18  1  0.994435  0.737666  0.486157  1
  Te  Te19  1  0.503702  0.010970  0.738630  1
  Te  Te20  1  0.996298  0.510970  0.261370  1
  Te  Te21  1  0.003702  0.489030  0.738630  1
  Te  Te22  1  0.505565  0.237666  0.513843  1
  Te  Te23  1  0.494435  0.762334  0.486157  1
  Te  Te24  1  0.496298  0.489030  0.238630  1
  Te  Te25  1  0.005565  0.262334  0.513843  1
  Te  Te26  1  0.494435  0.262334  0.013843  1
  Te  Te27  1  0.994435  0.237666  0.013843  1
  Te  Te28  1  0.005565  0.762334  0.986157  1
  Te  Te29  1  0.996298  0.010970  0.238630  1
  Te  Te30  1  0.503702  0.510970  0.761370  1
  Te  Te31  1  0.496298  0.989030  0.261370  1
  O  O32  1  0.168711  0.005493  0.773298  1
  O  O33  1  0.967789  0.891953  0.890981  1
  O  O34  1  0.508158  0.384632  0.348943  1
  O  O35  1  0.491842  0.615368  0.651057  1
  O  O36  1  0.831289  0.494507  0.273298  1
  O  O37  1  0.671246  0.727397  0.996897  1
  O  O38  1  0.991842  0.384632  0.848943  1
  O  O39  1  0.331289  0.005493  0.273298  1
  O  O40  1  0.485826  0.848718  0.883137  1
  O  O41  1  0.828754  0.727397  0.496897  1
  O  O42  1  0.328754  0.272603  0.003103  1
  O  O43  1  0.532211  0.391953  0.109019  1
  O  O44  1  0.467789  0.108047  0.609019  1
  O  O45  1  0.985826  0.151282  0.616863  1
  O  O46  1  0.331289  0.505493  0.226702  1
  O  O47  1  0.985826  0.651282  0.883137  1
  O  O48  1  0.168711  0.505493  0.726702  1
  O  O49  1  0.328754  0.772603  0.496897  1
  O  O50  1  0.668711  0.494507  0.773298  1
  O  O51  1  0.514174  0.151282  0.116863  1
  O  O52  1  0.014174  0.348718  0.116863  1
  O  O53  1  0.171246  0.272603  0.503103  1
  O  O54  1  0.485826  0.348718  0.616863  1
  O  O55  1  0.008158  0.115368  0.348943  1
  O  O56  1  0.032211  0.108047  0.109019  1
  O  O57  1  0.491842  0.115368  0.848943  1
  O  O58  1  0.508158  0.884632  0.151057  1
  O  O59  1  0.668711  0.994507  0.726702  1
  O  O60  1  0.514174  0.651282  0.383137  1
  O  O61  1  0.991842  0.884632  0.651057  1
  O  O62  1  0.014174  0.848718  0.383137  1
  O  O63  1  0.831289  0.994507  0.226702  1
  O  O64  1  0.032211  0.608047  0.390981  1
  O  O65  1  0.008158  0.615368  0.151057  1
  O  O66  1  0.671246  0.227397  0.503103  1
  O  O67  1  0.828754  0.227397  0.003103  1
  O  O68  1  0.171246  0.772603  0.996897  1
  O  O69  1  0.467789  0.608047  0.890981  1
  O  O70  1  0.532211  0.891953  0.390981  1
  O  O71  1  0.967789  0.391953  0.609019  1
