# generated using pymatgen
data_SiO2
_symmetry_space_group_name_H-M   'P 1'
_cell_length_a   8.98279569
_cell_length_b   9.17688469
_cell_length_c   9.21061849
_cell_angle_alpha   111.52087212
_cell_angle_beta   98.19250752
_cell_angle_gamma   98.98007286
_symmetry_Int_Tables_number   1
_chemical_formula_structural   SiO2
_chemical_formula_sum   'Si12 O24'
_cell_volume   680.99207327
_cell_formula_units_Z   12
loop_
 _symmetry_equiv_pos_site_id
 _symmetry_equiv_pos_as_xyz
  1  'x, y, z'
loop_
 _atom_site_type_symbol
 _atom_site_label
 _atom_site_symmetry_multiplicity
 _atom_site_fract_x
 _atom_site_fract_y
 _atom_site_fract_z
 _atom_site_occupancy
  Si  Si0  1  0.337771  0.903344  0.713377  1
  Si  Si1  1  0.706858  0.808293  0.008597  1
  Si  Si2  1  0.692791  0.008783  0.799667  1
  Si  Si3  1  0.689802  0.109701  0.306364  1
  Si  Si4  1  0.333222  0.001936  0.219613  1
  Si  Si5  1  0.352164  0.701801  0.922718  1
  Si  Si6  1  0.119389  0.392322  0.891114  1
  Si  Si7  1  0.908782  0.593153  0.097483  1
  Si  Si8  1  0.676052  0.308681  0.099171  1
  Si  Si9  1  0.118186  0.878114  0.404674  1
  Si  Si10  1  0.319272  0.201509  0.012293  1
  Si  Si11  1  0.909471  0.100392  0.589626  1
  O  O12  1  0.225188  0.841623  0.539258  1
  O  O13  1  0.223734  0.995265  0.343172  1
  O  O14  1  0.249740  0.522494  0.870064  1
  O  O15  1  0.509488  0.090801  0.320458  1
  O  O16  1  0.270854  0.104163  0.121190  1
  O  O17  1  0.699192  0.189942  0.926288  1
  O  O18  1  0.986046  0.965526  0.476065  1
  O  O19  1  0.043094  0.252671  0.715008  1
  O  O20  1  0.775092  0.488660  0.145047  1
  O  O21  1  0.749119  0.902172  0.895329  1
  O  O22  1  0.038683  0.706613  0.257786  1
  O  O23  1  0.309663  0.075083  0.830246  1
  O  O24  1  0.798596  0.164436  0.481793  1
  O  O25  1  0.832313  0.700967  0.014827  1
  O  O26  1  0.298733  0.769974  0.788146  1
  O  O27  1  0.494154  0.312510  0.089587  1
  O  O28  1  0.807964  0.016228  0.682067  1
  O  O29  1  0.516914  0.925340  0.694609  1
  O  O30  1  0.987076  0.474502  0.968527  1
  O  O31  1  0.736010  0.246226  0.236767  1
  O  O32  1  0.199267  0.315436  0.007874  1
  O  O33  1  0.327054  0.819208  0.095588  1
  O  O34  1  0.715639  0.937600  0.188538  1
  O  O35  1  0.533360  0.693164  0.935592  1
