# generated using pymatgen
data_V2Te2O7F2
_symmetry_space_group_name_H-M   'P 1'
_cell_length_a   4.95646311
_cell_length_b   5.34098280
_cell_length_c   7.31902068
_cell_angle_alpha   108.82306531
_cell_angle_beta   91.38056102
_cell_angle_gamma   89.83059390
_symmetry_Int_Tables_number   1
_chemical_formula_structural   V2Te2O7F2
_chemical_formula_sum   'V2 Te2 O7 F2'
_cell_volume   183.33435824
_cell_formula_units_Z   1
loop_
 _symmetry_equiv_pos_site_id
 _symmetry_equiv_pos_as_xyz
  1  'x, y, z'
loop_
 _atom_site_type_symbol
 _atom_site_label
 _atom_site_symmetry_multiplicity
 _atom_site_fract_x
 _atom_site_fract_y
 _atom_site_fract_z
 _atom_site_occupancy
  V  V0  1  0.761225  0.345628  0.363570  1
  V  V1  1  0.238775  0.654372  0.636430  1
  Te  Te2  1  0.722341  0.314887  0.825143  1
  Te  Te3  1  0.277659  0.685113  0.174857  1
  O  O4  1  0.131853  0.949714  0.765259  1
  O  O5  1  0.075450  0.591208  0.372418  1
  O  O6  1  0.868147  0.050286  0.234741  1
  O  O7  1  0.477138  0.605855  0.859228  1
  O  O8  1  0.522862  0.394145  0.140772  1
  O  O9  1  0.924550  0.408792  0.627582  1
  O  O10  1  0.000000  0.500000  0.000000  1
  F  F11  1  0.438801  0.262906  0.490236  1
  F  F12  1  0.561199  0.737094  0.509764  1
