# generated using pymatgen
data_Rb5B19O31
_symmetry_space_group_name_H-M   'P 1'
_cell_length_a   10.89759726
_cell_length_b   10.89759726
_cell_length_c   13.47025877
_cell_angle_alpha   85.23583644
_cell_angle_beta   94.76416356
_cell_angle_gamma   115.03166854
_symmetry_Int_Tables_number   1
_chemical_formula_structural   Rb5B19O31
_chemical_formula_sum   'Rb10 B38 O62'
_cell_volume   1442.40024039
_cell_formula_units_Z   2
loop_
 _symmetry_equiv_pos_site_id
 _symmetry_equiv_pos_as_xyz
  1  'x, y, z'
loop_
 _atom_site_type_symbol
 _atom_site_label
 _atom_site_symmetry_multiplicity
 _atom_site_fract_x
 _atom_site_fract_y
 _atom_site_fract_z
 _atom_site_occupancy
  Rb  Rb0  1  0.592535  0.940262  0.329922  1
  Rb  Rb1  1  0.407465  0.059738  0.670078  1
  Rb  Rb2  1  0.273314  0.602393  0.316109  1
  Rb  Rb3  1  0.059738  0.407465  0.829922  1
  Rb  Rb4  1  0.000000  0.000000  0.000000  1
  Rb  Rb5  1  0.397607  0.726686  0.816109  1
  Rb  Rb6  1  0.000000  0.000000  0.500000  1
  Rb  Rb7  1  0.726686  0.397607  0.683891  1
  Rb  Rb8  1  0.602393  0.273314  0.183891  1
  Rb  Rb9  1  0.940262  0.592535  0.170078  1
  B  B10  1  0.726762  0.242879  0.467365  1
  B  B11  1  0.040923  0.704184  0.468697  1
  B  B12  1  0.439086  0.471980  0.120611  1
  B  B13  1  0.387935  0.387935  0.750000  1
  B  B14  1  0.288095  0.322328  0.998417  1
  B  B15  1  0.612065  0.612065  0.250000  1
  B  B16  1  0.901544  0.034621  0.757207  1
  B  B17  1  0.480499  0.215560  0.425689  1
  B  B18  1  0.034621  0.901544  0.742793  1
  B  B19  1  0.897740  0.244768  0.351744  1
  B  B20  1  0.029104  0.330636  0.197756  1
  B  B21  1  0.560914  0.528020  0.879389  1
  B  B22  1  0.102260  0.755232  0.648256  1
  B  B23  1  0.704184  0.040923  0.031303  1
  B  B24  1  0.757121  0.273238  0.967365  1
  B  B25  1  0.970896  0.669364  0.802244  1
  B  B26  1  0.098456  0.965379  0.242793  1
  B  B27  1  0.755232  0.102260  0.851744  1
  B  B28  1  0.273238  0.757121  0.532635  1
  B  B29  1  0.677312  0.821882  0.129620  1
  B  B30  1  0.965379  0.098456  0.257207  1
  B  B31  1  0.677672  0.711905  0.498417  1
  B  B32  1  0.322328  0.288095  0.501583  1
  B  B33  1  0.821882  0.677312  0.370380  1
  B  B34  1  0.959077  0.295816  0.531303  1
  B  B35  1  0.215560  0.480499  0.074311  1
  B  B36  1  0.471980  0.439086  0.379389  1
  B  B37  1  0.711905  0.677672  0.001583  1
  B  B38  1  0.669364  0.970896  0.697756  1
  B  B39  1  0.519501  0.784440  0.574311  1
  B  B40  1  0.244768  0.897740  0.148256  1
  B  B41  1  0.330636  0.029104  0.302244  1
  B  B42  1  0.528020  0.560914  0.620611  1
  B  B43  1  0.242879  0.726762  0.032635  1
  B  B44  1  0.784440  0.519501  0.925689  1
  B  B45  1  0.295816  0.959077  0.968697  1
  B  B46  1  0.178118  0.322688  0.629620  1
  B  B47  1  0.322688  0.178118  0.870380  1
  O  O48  1  0.322092  0.048576  0.885129  1
  O  O49  1  0.995755  0.287686  0.439228  1
  O  O50  1  0.516393  0.342953  0.363861  1
  O  O51  1  0.517213  0.564605  0.331298  1
  O  O52  1  0.887615  0.108407  0.327183  1
  O  O53  1  0.656292  0.049925  0.767411  1
  O  O54  1  0.173062  0.724185  0.452673  1
  O  O55  1  0.794717  0.964899  0.690439  1
  O  O56  1  0.712314  0.004245  0.939228  1
  O  O57  1  0.482787  0.435395  0.668702  1
  O  O58  1  0.049925  0.656292  0.732589  1
  O  O59  1  0.192803  0.369679  0.008418  1
  O  O60  1  0.964899  0.794717  0.809561  1
  O  O61  1  0.369679  0.192803  0.491582  1
  O  O62  1  0.951424  0.677908  0.385129  1
  O  O63  1  0.743460  0.782312  0.064187  1
  O  O64  1  0.256540  0.217688  0.935813  1
  O  O65  1  0.782312  0.743460  0.435813  1
  O  O66  1  0.112385  0.891593  0.672817  1
  O  O67  1  0.898654  0.557670  0.860017  1
  O  O68  1  0.275815  0.826938  0.952673  1
  O  O69  1  0.035101  0.205283  0.190439  1
  O  O70  1  0.557670  0.898654  0.639983  1
  O  O71  1  0.807197  0.630321  0.991582  1
  O  O72  1  0.229913  0.761667  0.125798  1
  O  O73  1  0.217688  0.256540  0.564187  1
  O  O74  1  0.004245  0.712314  0.560772  1
  O  O75  1  0.238333  0.770087  0.625798  1
  O  O76  1  0.677908  0.951424  0.114871  1
  O  O77  1  0.022327  0.022327  0.750000  1
  O  O78  1  0.775816  0.398965  0.991261  1
  O  O79  1  0.620927  0.748399  0.213016  1
  O  O80  1  0.205283  0.035101  0.309561  1
  O  O81  1  0.761667  0.229913  0.374202  1
  O  O82  1  0.564605  0.517213  0.168702  1
  O  O83  1  0.251601  0.379073  0.713016  1
  O  O84  1  0.724185  0.173062  0.047327  1
  O  O85  1  0.748399  0.620927  0.286984  1
  O  O86  1  0.368214  0.410598  0.445692  1
  O  O87  1  0.435395  0.482787  0.831298  1
  O  O88  1  0.342953  0.516393  0.136139  1
  O  O89  1  0.224184  0.601035  0.008739  1
  O  O90  1  0.770087  0.238333  0.874202  1
  O  O91  1  0.601035  0.224184  0.491261  1
  O  O92  1  0.048576  0.322092  0.614871  1
  O  O93  1  0.101346  0.442330  0.139983  1
  O  O94  1  0.657047  0.483607  0.863861  1
  O  O95  1  0.950075  0.343708  0.267411  1
  O  O96  1  0.442330  0.101346  0.360017  1
  O  O97  1  0.977673  0.977673  0.250000  1
  O  O98  1  0.108407  0.887615  0.172817  1
  O  O99  1  0.287686  0.995755  0.060772  1
  O  O100  1  0.891593  0.112385  0.827183  1
  O  O101  1  0.631786  0.589402  0.554308  1
  O  O102  1  0.343708  0.950075  0.232589  1
  O  O103  1  0.483607  0.657047  0.636139  1
  O  O104  1  0.379073  0.251601  0.786984  1
  O  O105  1  0.398965  0.775816  0.508739  1
  O  O106  1  0.630321  0.807197  0.508418  1
  O  O107  1  0.826938  0.275815  0.547327  1
  O  O108  1  0.589402  0.631786  0.945692  1
  O  O109  1  0.410598  0.368214  0.054308  1
