# generated using pymatgen
data_B4C
_symmetry_space_group_name_H-M   'P 1'
_cell_length_a   5.17473839
_cell_length_b   5.17473839
_cell_length_c   5.17473839
_cell_angle_alpha   91.20953493
_cell_angle_beta   91.20953493
_cell_angle_gamma   91.20953493
_symmetry_Int_Tables_number   1
_chemical_formula_structural   B4C
_chemical_formula_sum   'B12 C3'
_cell_volume   138.47476690
_cell_formula_units_Z   3
loop_
 _symmetry_equiv_pos_site_id
 _symmetry_equiv_pos_as_xyz
  1  'x, y, z'
loop_
 _atom_site_type_symbol
 _atom_site_label
 _atom_site_symmetry_multiplicity
 _atom_site_fract_x
 _atom_site_fract_y
 _atom_site_fract_z
 _atom_site_occupancy
  B  B0  1  0.961468  0.613649  0.613649  1
  B  B1  1  0.080031  0.837394  0.837394  1
  B  B2  1  0.038532  0.386351  0.386351  1
  B  B3  1  0.162606  0.919969  0.162606  1
  B  B4  1  0.837394  0.080031  0.837394  1
  B  B5  1  0.386351  0.038532  0.386351  1
  B  B6  1  0.837394  0.837394  0.080031  1
  B  B7  1  0.613649  0.961468  0.613649  1
  B  B8  1  0.162606  0.162606  0.919969  1
  B  B9  1  0.386351  0.386351  0.038532  1
  B  B10  1  0.919969  0.162606  0.162606  1
  B  B11  1  0.613649  0.613649  0.961468  1
  C  C12  1  0.350541  0.350541  0.350541  1
  C  C13  1  0.649459  0.649459  0.649459  1
  C  C14  1  0.500000  0.500000  0.500000  1
