# generated using pymatgen
data_Cd3(BO3)2
_symmetry_space_group_name_H-M   'P 1'
_cell_length_a   4.84219383
_cell_length_b   6.09889967
_cell_length_c   9.17602745
_cell_angle_alpha   90.00000000
_cell_angle_beta   90.00000000
_cell_angle_gamma   90.00000000
_symmetry_Int_Tables_number   1
_chemical_formula_structural   Cd3(BO3)2
_chemical_formula_sum   'Cd6 B4 O12'
_cell_volume   270.98694139
_cell_formula_units_Z   2
loop_
 _symmetry_equiv_pos_site_id
 _symmetry_equiv_pos_as_xyz
  1  'x, y, z'
loop_
 _atom_site_type_symbol
 _atom_site_label
 _atom_site_symmetry_multiplicity
 _atom_site_fract_x
 _atom_site_fract_y
 _atom_site_fract_z
 _atom_site_occupancy
  Cd  Cd0  1  0.000000  0.500000  0.188654  1
  Cd  Cd1  1  0.500000  0.000000  0.311346  1
  Cd  Cd2  1  0.000000  0.500000  0.811346  1
  Cd  Cd3  1  0.500000  0.000000  0.688654  1
  Cd  Cd4  1  0.500000  0.500000  0.500000  1
  Cd  Cd5  1  0.000000  0.000000  0.000000  1
  B  B6  1  0.034159  0.241373  0.500000  1
  B  B7  1  0.465841  0.741373  0.000000  1
  B  B8  1  0.965841  0.758627  0.500000  1
  B  B9  1  0.534159  0.258627  0.000000  1
  O  O10  1  0.321333  0.783264  0.870152  1
  O  O11  1  0.821333  0.716736  0.629848  1
  O  O12  1  0.321333  0.783264  0.129848  1
  O  O13  1  0.678667  0.216736  0.129848  1
  O  O14  1  0.821333  0.716736  0.370152  1
  O  O15  1  0.178667  0.283264  0.370152  1
  O  O16  1  0.741045  0.679518  0.000000  1
  O  O17  1  0.241045  0.820482  0.500000  1
  O  O18  1  0.758955  0.179518  0.500000  1
  O  O19  1  0.258955  0.320482  0.000000  1
  O  O20  1  0.678667  0.216736  0.870152  1
  O  O21  1  0.178667  0.283264  0.629848  1
