# generated using pymatgen
data_CsFeF3
_symmetry_space_group_name_H-M   'P 1'
_cell_length_a   6.30087329
_cell_length_b   6.30087329
_cell_length_c   14.84748199
_cell_angle_alpha   90.00000000
_cell_angle_beta   90.00000000
_cell_angle_gamma   120.00000000
_symmetry_Int_Tables_number   1
_chemical_formula_structural   CsFeF3
_chemical_formula_sum   'Cs6 Fe6 F18'
_cell_volume   510.48728676
_cell_formula_units_Z   6
loop_
 _symmetry_equiv_pos_site_id
 _symmetry_equiv_pos_as_xyz
  1  'x, y, z'
loop_
 _atom_site_type_symbol
 _atom_site_label
 _atom_site_symmetry_multiplicity
 _atom_site_fract_x
 _atom_site_fract_y
 _atom_site_fract_z
 _atom_site_occupancy
  Cs  Cs0  1  0.000000  0.000000  0.250000  1
  Cs  Cs1  1  0.000000  0.000000  0.750000  1
  Cs  Cs2  1  0.333333  0.666667  0.095355  1
  Cs  Cs3  1  0.666667  0.333333  0.595355  1
  Cs  Cs4  1  0.666667  0.333333  0.904645  1
  Cs  Cs5  1  0.333333  0.666667  0.404645  1
  Fe  Fe6  1  0.000000  0.000000  0.000000  1
  Fe  Fe7  1  0.333333  0.666667  0.652964  1
  Fe  Fe8  1  0.666667  0.333333  0.152964  1
  Fe  Fe9  1  0.666667  0.333333  0.347036  1
  Fe  Fe10  1  0.333333  0.666667  0.847036  1
  Fe  Fe11  1  0.000000  0.000000  0.500000  1
  F  F12  1  0.331916  0.165958  0.078928  1
  F  F13  1  0.834042  0.165958  0.421072  1
  F  F14  1  0.834042  0.668084  0.421072  1
  F  F15  1  0.331916  0.165958  0.421072  1
  F  F16  1  0.668084  0.834042  0.921072  1
  F  F17  1  0.165958  0.331916  0.578928  1
  F  F18  1  0.522088  0.044176  0.250000  1
  F  F19  1  0.477912  0.522088  0.750000  1
  F  F20  1  0.044176  0.522088  0.750000  1
  F  F21  1  0.955824  0.477912  0.250000  1
  F  F22  1  0.522088  0.477912  0.250000  1
  F  F23  1  0.477912  0.955824  0.750000  1
  F  F24  1  0.834042  0.668084  0.078928  1
  F  F25  1  0.165958  0.834042  0.578928  1
  F  F26  1  0.668084  0.834042  0.578928  1
  F  F27  1  0.165958  0.331916  0.921072  1
  F  F28  1  0.834042  0.165958  0.078928  1
  F  F29  1  0.165958  0.834042  0.921072  1
