# generated using pymatgen
data_CsV2P5O16
_symmetry_space_group_name_H-M   'P 1'
_cell_length_a   7.67878945
_cell_length_b   9.59337125
_cell_length_c   10.42910572
_cell_angle_alpha   90.00000000
_cell_angle_beta   111.91179642
_cell_angle_gamma   90.00000000
_symmetry_Int_Tables_number   1
_chemical_formula_structural   CsV2P5O16
_chemical_formula_sum   'Cs2 V4 P10 O32'
_cell_volume   712.76516011
_cell_formula_units_Z   2
loop_
 _symmetry_equiv_pos_site_id
 _symmetry_equiv_pos_as_xyz
  1  'x, y, z'
loop_
 _atom_site_type_symbol
 _atom_site_label
 _atom_site_symmetry_multiplicity
 _atom_site_fract_x
 _atom_site_fract_y
 _atom_site_fract_z
 _atom_site_occupancy
  Cs  Cs0  1  0.997916  0.805605  0.246527  1
  Cs  Cs1  1  0.997916  0.194395  0.746527  1
  V  V2  1  0.925823  0.368835  0.137636  1
  V  V3  1  0.925823  0.631165  0.637636  1
  V  V4  1  0.378688  0.143278  0.533351  1
  V  V5  1  0.378688  0.856722  0.033351  1
  P  P6  1  0.278567  0.873347  0.697327  1
  P  P7  1  0.278567  0.126653  0.197327  1
  P  P8  1  0.612010  0.860488  0.627033  1
  P  P9  1  0.612010  0.139512  0.127033  1
  P  P10  1  0.570428  0.706172  0.373061  1
  P  P11  1  0.570428  0.293828  0.873061  1
  P  P12  1  0.515431  0.459610  0.507154  1
  P  P13  1  0.515431  0.540390  0.007154  1
  P  P14  1  0.126437  0.417580  0.475247  1
  P  P15  1  0.126437  0.582420  0.975247  1
  O  O16  1  0.230338  0.989271  0.589088  1
  O  O17  1  0.230338  0.010729  0.089088  1
  O  O18  1  0.152602  0.747067  0.650901  1
  O  O19  1  0.152602  0.252933  0.150901  1
  O  O20  1  0.299701  0.929461  0.840442  1
  O  O21  1  0.299701  0.070539  0.340442  1
  O  O22  1  0.490971  0.818679  0.714707  1
  O  O23  1  0.490971  0.181321  0.214707  1
  O  O24  1  0.805884  0.799920  0.693929  1
  O  O25  1  0.805884  0.200080  0.193929  1
  O  O26  1  0.609708  0.016904  0.603393  1
  O  O27  1  0.609708  0.983096  0.103393  1
  O  O28  1  0.495626  0.787276  0.478690  1
  O  O29  1  0.495626  0.212724  0.978690  1
  O  O30  1  0.480836  0.769482  0.233451  1
  O  O31  1  0.480836  0.230518  0.733451  1
  O  O32  1  0.782391  0.702110  0.436235  1
  O  O33  1  0.782391  0.297890  0.936235  1
  O  O34  1  0.483496  0.551836  0.368209  1
  O  O35  1  0.483496  0.448164  0.868209  1
  O  O36  1  0.515797  0.306804  0.474698  1
  O  O37  1  0.515797  0.693196  0.974698  1
  O  O38  1  0.685203  0.518075  0.620692  1
  O  O39  1  0.685203  0.481925  0.120692  1
  O  O40  1  0.332100  0.495643  0.539228  1
  O  O41  1  0.332100  0.504357  0.039228  1
  O  O42  1  0.156328  0.260122  0.496190  1
  O  O43  1  0.156328  0.739878  0.996190  1
  O  O44  1  0.042055  0.458846  0.323627  1
  O  O45  1  0.042055  0.541154  0.823627  1
  O  O46  1  0.019262  0.470205  0.560884  1
  O  O47  1  0.019262  0.529795  0.060884  1
