# generated using pymatgen
data_NaSbS2
_symmetry_space_group_name_H-M   'P 1'
_cell_length_a   7.01485647
_cell_length_b   7.01485647
_cell_length_c   5.94227792
_cell_angle_alpha   66.50737923
_cell_angle_beta   113.49262077
_cell_angle_gamma   133.05527772
_symmetry_Int_Tables_number   1
_chemical_formula_structural   NaSbS2
_chemical_formula_sum   'Na2 Sb2 S4'
_cell_volume   192.42964081
_cell_formula_units_Z   2
loop_
 _symmetry_equiv_pos_site_id
 _symmetry_equiv_pos_as_xyz
  1  'x, y, z'
loop_
 _atom_site_type_symbol
 _atom_site_label
 _atom_site_symmetry_multiplicity
 _atom_site_fract_x
 _atom_site_fract_y
 _atom_site_fract_z
 _atom_site_occupancy
  Na  Na0  1  0.626328  0.373672  0.864556  1
  Na  Na1  1  0.373672  0.626328  0.135444  1
  Sb  Sb2  1  0.868626  0.131374  0.589440  1
  Sb  Sb3  1  0.131374  0.868626  0.410560  1
  S  S4  1  0.118299  0.881701  0.809876  1
  S  S5  1  0.637343  0.362657  0.367554  1
  S  S6  1  0.881701  0.118299  0.190124  1
  S  S7  1  0.362657  0.637343  0.632446  1
