# generated using pymatgen
data_Si5Rh4
_symmetry_space_group_name_H-M   'P 1'
_cell_length_a   5.98827266
_cell_length_b   3.55905722
_cell_length_c   12.44866777
_cell_angle_alpha   90.00000000
_cell_angle_beta   100.08836815
_cell_angle_gamma   90.00000000
_symmetry_Int_Tables_number   1
_chemical_formula_structural   Si5Rh4
_chemical_formula_sum   'Si10 Rh8'
_cell_volume   261.21146388
_cell_formula_units_Z   2
loop_
 _symmetry_equiv_pos_site_id
 _symmetry_equiv_pos_as_xyz
  1  'x, y, z'
loop_
 _atom_site_type_symbol
 _atom_site_label
 _atom_site_symmetry_multiplicity
 _atom_site_fract_x
 _atom_site_fract_y
 _atom_site_fract_z
 _atom_site_occupancy
  Si  Si0  1  0.487041  0.750000  0.922602  1
  Si  Si1  1  0.020147  0.750000  0.860176  1
  Si  Si2  1  0.361510  0.250000  0.364645  1
  Si  Si3  1  0.106791  0.250000  0.577550  1
  Si  Si4  1  0.532887  0.250000  0.776158  1
  Si  Si5  1  0.512959  0.250000  0.077398  1
  Si  Si6  1  0.638490  0.750000  0.635355  1
  Si  Si7  1  0.467113  0.750000  0.223842  1
  Si  Si8  1  0.979853  0.250000  0.139824  1
  Si  Si9  1  0.893209  0.750000  0.422450  1
  Rh  Rh10  1  0.699912  0.250000  0.499963  1
  Rh  Rh11  1  0.300088  0.750000  0.500037  1
  Rh  Rh12  1  0.107677  0.750000  0.273312  1
  Rh  Rh13  1  0.892323  0.250000  0.726688  1
  Rh  Rh14  1  0.714713  0.250000  0.269828  1
  Rh  Rh15  1  0.790943  0.250000  0.949881  1
  Rh  Rh16  1  0.209057  0.750000  0.050119  1
  Rh  Rh17  1  0.285287  0.750000  0.730172  1
