# generated using pymatgen
data_Cs3Zr2I9
_symmetry_space_group_name_H-M   'P 1'
_cell_length_a   8.60279020
_cell_length_b   8.60279020
_cell_length_c   20.54328980
_cell_angle_alpha   90.00000000
_cell_angle_beta   90.00000000
_cell_angle_gamma   120.00000000
_symmetry_Int_Tables_number   1
_chemical_formula_structural   Cs3Zr2I9
_chemical_formula_sum   'Cs6 Zr4 I18'
_cell_volume   1316.67711671
_cell_formula_units_Z   2
loop_
 _symmetry_equiv_pos_site_id
 _symmetry_equiv_pos_as_xyz
  1  'x, y, z'
loop_
 _atom_site_type_symbol
 _atom_site_label
 _atom_site_symmetry_multiplicity
 _atom_site_fract_x
 _atom_site_fract_y
 _atom_site_fract_z
 _atom_site_occupancy
  Cs  Cs0  1  0.333333  0.666667  0.067382  1
  Cs  Cs1  1  0.666667  0.333333  0.567382  1
  Cs  Cs2  1  0.666667  0.333333  0.932618  1
  Cs  Cs3  1  0.333333  0.666667  0.432618  1
  Cs  Cs4  1  0.000000  0.000000  0.250000  1
  Cs  Cs5  1  0.000000  0.000000  0.750000  1
  Zr  Zr6  1  0.666667  0.333333  0.171921  1
  Zr  Zr7  1  0.333333  0.666667  0.671921  1
  Zr  Zr8  1  0.333333  0.666667  0.828079  1
  Zr  Zr9  1  0.666667  0.333333  0.328079  1
  I  I10  1  0.827543  0.655085  0.091499  1
  I  I11  1  0.172457  0.827543  0.591499  1
  I  I12  1  0.655085  0.827543  0.591499  1
  I  I13  1  0.344915  0.172457  0.091499  1
  I  I14  1  0.827543  0.172457  0.091499  1
  I  I15  1  0.172457  0.344915  0.908501  1
  I  I16  1  0.172457  0.827543  0.908501  1
  I  I17  1  0.172457  0.344915  0.591499  1
  I  I18  1  0.655085  0.827543  0.908501  1
  I  I19  1  0.344915  0.172457  0.408501  1
  I  I20  1  0.827543  0.655085  0.408501  1
  I  I21  1  0.827543  0.172457  0.408501  1
  I  I22  1  0.499867  0.999734  0.250000  1
  I  I23  1  0.500133  0.499867  0.750000  1
  I  I24  1  0.999734  0.499867  0.750000  1
  I  I25  1  0.000266  0.500133  0.250000  1
  I  I26  1  0.499867  0.500133  0.250000  1
  I  I27  1  0.500133  0.000266  0.750000  1
