# generated using pymatgen
data_Rb2Ti6O13
_symmetry_space_group_name_H-M   'P 1'
_cell_length_a   8.30173970
_cell_length_b   8.30173970
_cell_length_c   9.23877606
_cell_angle_alpha   79.42997324
_cell_angle_beta   100.57002676
_cell_angle_gamma   153.23172744
_symmetry_Int_Tables_number   1
_chemical_formula_structural   Rb2Ti6O13
_chemical_formula_sum   'Rb2 Ti6 O13'
_cell_volume   281.62665055
_cell_formula_units_Z   1
loop_
 _symmetry_equiv_pos_site_id
 _symmetry_equiv_pos_as_xyz
  1  'x, y, z'
loop_
 _atom_site_type_symbol
 _atom_site_label
 _atom_site_symmetry_multiplicity
 _atom_site_fract_x
 _atom_site_fract_y
 _atom_site_fract_z
 _atom_site_occupancy
  Rb  Rb0  1  0.543898  0.456102  0.746849  1
  Rb  Rb1  1  0.456102  0.543898  0.253151  1
  Ti  Ti2  1  0.885111  0.114889  0.906455  1
  Ti  Ti3  1  0.114889  0.885111  0.093545  1
  Ti  Ti4  1  0.825415  0.174585  0.563555  1
  Ti  Ti5  1  0.174585  0.825415  0.436445  1
  Ti  Ti6  1  0.766900  0.233100  0.221134  1
  Ti  Ti7  1  0.233100  0.766900  0.778866  1
  O  O8  1  0.000000  0.000000  0.000000  1
  O  O9  1  0.761031  0.238969  0.762840  1
  O  O10  1  0.238969  0.761031  0.237160  1
  O  O11  1  0.916917  0.083083  0.712693  1
  O  O12  1  0.083083  0.916917  0.287307  1
  O  O13  1  0.703654  0.296346  0.427556  1
  O  O14  1  0.296346  0.703654  0.572444  1
  O  O15  1  0.861162  0.138838  0.387404  1
  O  O16  1  0.138838  0.861162  0.612596  1
  O  O17  1  0.642203  0.357797  0.108010  1
  O  O18  1  0.357797  0.642203  0.891990  1
  O  O19  1  0.832134  0.167866  0.086489  1
  O  O20  1  0.167866  0.832134  0.913511  1
