# generated using pymatgen
data_Na2TiSi4O11
_symmetry_space_group_name_H-M   'P 1'
_cell_length_a   8.65231536
_cell_length_b   8.65231536
_cell_length_c   8.65231536
_cell_angle_alpha   102.03368261
_cell_angle_beta   102.03368261
_cell_angle_gamma   125.66370304
_symmetry_Int_Tables_number   1
_chemical_formula_structural   Na2TiSi4O11
_chemical_formula_sum   'Na4 Ti2 Si8 O22'
_cell_volume   468.19244560
_cell_formula_units_Z   2
loop_
 _symmetry_equiv_pos_site_id
 _symmetry_equiv_pos_as_xyz
  1  'x, y, z'
loop_
 _atom_site_type_symbol
 _atom_site_label
 _atom_site_symmetry_multiplicity
 _atom_site_fract_x
 _atom_site_fract_y
 _atom_site_fract_z
 _atom_site_occupancy
  Na  Na0  1  0.317416  0.366140  0.683556  1
  Na  Na1  1  0.633860  0.317416  0.951276  1
  Na  Na2  1  0.682584  0.633860  0.316444  1
  Na  Na3  1  0.366140  0.682584  0.048724  1
  Ti  Ti4  1  0.243777  0.243777  0.000000  1
  Ti  Ti5  1  0.756223  0.756223  0.000000  1
  Si  Si6  1  0.180363  0.883953  0.679326  1
  Si  Si7  1  0.819637  0.116047  0.320674  1
  Si  Si8  1  0.498963  0.819637  0.703591  1
  Si  Si9  1  0.795372  0.498963  0.679326  1
  Si  Si10  1  0.116047  0.795372  0.296409  1
  Si  Si11  1  0.883953  0.204628  0.703591  1
  Si  Si12  1  0.204628  0.501037  0.320674  1
  Si  Si13  1  0.501037  0.180363  0.296409  1
  O  O14  1  0.219072  0.091100  0.773021  1
  O  O15  1  0.058112  0.788802  0.466394  1
  O  O16  1  0.780928  0.908900  0.226979  1
  O  O17  1  0.211198  0.677591  0.269310  1
  O  O18  1  0.908900  0.681921  0.127972  1
  O  O19  1  0.957863  0.303931  0.261794  1
  O  O20  1  0.091100  0.318079  0.872028  1
  O  O21  1  0.553949  0.780928  0.872028  1
  O  O22  1  0.591719  0.058112  0.269310  1
  O  O23  1  0.408281  0.941888  0.730690  1
  O  O24  1  0.042137  0.696069  0.738206  1
  O  O25  1  0.303931  0.042137  0.346068  1
  O  O26  1  0.500000  0.500000  0.000000  1
  O  O27  1  0.677591  0.408281  0.466394  1
  O  O28  1  0.322409  0.591719  0.533606  1
  O  O29  1  0.318079  0.446051  0.226979  1
  O  O30  1  0.681921  0.553949  0.773021  1
  O  O31  1  0.696069  0.957863  0.653932  1
  O  O32  1  0.446051  0.219072  0.127972  1
  O  O33  1  0.941888  0.211198  0.533606  1
  O  O34  1  0.000000  0.000000  0.000000  1
  O  O35  1  0.788802  0.322409  0.730690  1
