# generated using pymatgen
data_LaBC
_symmetry_space_group_name_H-M   'P 1'
_cell_length_a   8.68002604
_cell_length_b   8.70715845
_cell_length_c   12.39356381
_cell_angle_alpha   90.00000000
_cell_angle_beta   90.00000000
_cell_angle_gamma   90.00000000
_symmetry_Int_Tables_number   1
_chemical_formula_structural   LaBC
_chemical_formula_sum   'La20 B20 C20'
_cell_volume   936.68525310
_cell_formula_units_Z   20
loop_
 _symmetry_equiv_pos_site_id
 _symmetry_equiv_pos_as_xyz
  1  'x, y, z'
loop_
 _atom_site_type_symbol
 _atom_site_label
 _atom_site_symmetry_multiplicity
 _atom_site_fract_x
 _atom_site_fract_y
 _atom_site_fract_z
 _atom_site_occupancy
  La  La0  1  0.159746  0.591425  0.402924  1
  La  La1  1  0.754358  0.789058  0.326487  1
  La  La2  1  0.840316  0.494214  0.579684  1
  La  La3  1  0.449319  0.901954  0.141558  1
  La  La4  1  0.340316  0.005786  0.420316  1
  La  La5  1  0.254358  0.710942  0.673513  1
  La  La6  1  0.745642  0.210942  0.826487  1
  La  La7  1  0.550681  0.401954  0.358442  1
  La  La8  1  0.939035  0.197147  0.368476  1
  La  La9  1  0.949319  0.598046  0.858442  1
  La  La10  1  0.340254  0.408575  0.902924  1
  La  La11  1  0.659684  0.505786  0.079684  1
  La  La12  1  0.245642  0.289058  0.173513  1
  La  La13  1  0.159684  0.994214  0.920316  1
  La  La14  1  0.050681  0.098046  0.641558  1
  La  La15  1  0.659746  0.908575  0.597076  1
  La  La16  1  0.439035  0.302853  0.631524  1
  La  La17  1  0.840254  0.091425  0.097076  1
  La  La18  1  0.060965  0.697147  0.131524  1
  La  La19  1  0.560965  0.802853  0.868476  1
  B  B20  1  0.562032  0.198442  0.178740  1
  B  B21  1  0.480682  0.113479  0.960213  1
  B  B22  1  0.814934  0.810028  0.006579  1
  B  B23  1  0.616998  0.103243  0.286493  1
  B  B24  1  0.519318  0.613479  0.539787  1
  B  B25  1  0.901792  0.470167  0.257515  1
  B  B26  1  0.883002  0.896757  0.786493  1
  B  B27  1  0.401792  0.029833  0.742485  1
  B  B28  1  0.019318  0.886521  0.460213  1
  B  B29  1  0.185066  0.310028  0.493421  1
  B  B30  1  0.980682  0.386521  0.039787  1
  B  B31  1  0.937968  0.801558  0.678740  1
  B  B32  1  0.437968  0.698442  0.321260  1
  B  B33  1  0.598208  0.529833  0.757515  1
  B  B34  1  0.062032  0.301558  0.821260  1
  B  B35  1  0.685066  0.189972  0.506579  1
  B  B36  1  0.314934  0.689972  0.993421  1
  B  B37  1  0.116998  0.396757  0.713507  1
  B  B38  1  0.383002  0.603243  0.213507  1
  B  B39  1  0.098208  0.970167  0.242485  1
  C  C40  1  0.025904  0.308667  0.938257  1
  C  C41  1  0.055422  0.889871  0.343450  1
  C  C42  1  0.555422  0.610129  0.656550  1
  C  C43  1  0.141186  0.998427  0.129974  1
  C  C44  1  0.944578  0.389871  0.156550  1
  C  C45  1  0.245982  0.297121  0.383458  1
  C  C46  1  0.354062  0.607171  0.094532  1
  C  C47  1  0.254018  0.702879  0.883458  1
  C  C48  1  0.974096  0.808667  0.561743  1
  C  C49  1  0.444578  0.110129  0.843450  1
  C  C50  1  0.474096  0.691333  0.438257  1
  C  C51  1  0.854062  0.892829  0.905468  1
  C  C52  1  0.358814  0.001573  0.629974  1
  C  C53  1  0.525904  0.191333  0.061743  1
  C  C54  1  0.745982  0.202879  0.616542  1
  C  C55  1  0.754018  0.797121  0.116542  1
  C  C56  1  0.641186  0.501573  0.870026  1
  C  C57  1  0.145938  0.392829  0.594532  1
  C  C58  1  0.645938  0.107171  0.405468  1
  C  C59  1  0.858814  0.498427  0.370026  1
