# generated using pymatgen
data_K2U2WO10
_symmetry_space_group_name_H-M   'P 1'
_cell_length_a   8.37314128
_cell_length_b   29.13646811
_cell_length_c   10.93894413
_cell_angle_alpha   90.00000000
_cell_angle_beta   124.62103005
_cell_angle_gamma   90.00000000
_symmetry_Int_Tables_number   1
_chemical_formula_structural   K2U2WO10
_chemical_formula_sum   'K16 U16 W8 O80'
_cell_volume   2196.15258261
_cell_formula_units_Z   8
loop_
 _symmetry_equiv_pos_site_id
 _symmetry_equiv_pos_as_xyz
  1  'x, y, z'
loop_
 _atom_site_type_symbol
 _atom_site_label
 _atom_site_symmetry_multiplicity
 _atom_site_fract_x
 _atom_site_fract_y
 _atom_site_fract_z
 _atom_site_occupancy
  K  K0  1  0.983809  0.395267  0.500498  1
  K  K1  1  0.983876  0.122192  0.395117  1
  K  K2  1  0.959660  0.250607  0.032904  1
  K  K3  1  0.950983  0.481739  0.172694  1
  K  K4  1  0.983876  0.377808  0.895117  1
  K  K5  1  0.040340  0.749393  0.967096  1
  K  K6  1  0.016191  0.895267  0.999502  1
  K  K7  1  0.040340  0.750607  0.467096  1
  K  K8  1  0.016191  0.604733  0.499502  1
  K  K9  1  0.950983  0.018261  0.672694  1
  K  K10  1  0.959660  0.249393  0.532904  1
  K  K11  1  0.049017  0.518261  0.827306  1
  K  K12  1  0.016124  0.877808  0.604883  1
  K  K13  1  0.049017  0.981739  0.327306  1
  K  K14  1  0.016124  0.622192  0.104883  1
  K  K15  1  0.983809  0.104733  0.000498  1
  U  U16  1  0.456578  0.168437  0.787472  1
  U  U17  1  0.517382  0.097695  0.423835  1
  U  U18  1  0.500203  0.432486  0.531839  1
  U  U19  1  0.500203  0.067514  0.031839  1
  U  U20  1  0.456578  0.331563  0.287472  1
  U  U21  1  0.517382  0.402305  0.923835  1
  U  U22  1  0.467216  0.314248  0.646335  1
  U  U23  1  0.482618  0.597695  0.076165  1
  U  U24  1  0.467216  0.185752  0.146335  1
  U  U25  1  0.543422  0.668437  0.712528  1
  U  U26  1  0.499797  0.932486  0.968161  1
  U  U27  1  0.532784  0.685752  0.353665  1
  U  U28  1  0.543422  0.831563  0.212528  1
  U  U29  1  0.482618  0.902305  0.576165  1
  U  U30  1  0.532784  0.814248  0.853665  1
  U  U31  1  0.499797  0.567514  0.468161  1
  W  W32  1  0.630683  0.710181  0.043343  1
  W  W33  1  0.369317  0.210181  0.456657  1
  W  W34  1  0.630683  0.789819  0.543343  1
  W  W35  1  0.579125  0.533002  0.813184  1
  W  W36  1  0.369317  0.289819  0.956657  1
  W  W37  1  0.420875  0.466998  0.186816  1
  W  W38  1  0.579125  0.966998  0.313184  1
  W  W39  1  0.420875  0.033002  0.686816  1
  O  O40  1  0.748463  0.587332  0.191474  1
  O  O41  1  0.810540  0.833961  0.324010  1
  O  O42  1  0.472627  0.319578  0.858992  1
  O  O43  1  0.484796  0.411166  0.307980  1
  O  O44  1  0.527373  0.819578  0.641008  1
  O  O45  1  0.425757  0.527141  0.124309  1
  O  O46  1  0.768322  0.563633  0.569781  1
  O  O47  1  0.511966  0.109389  0.215511  1
  O  O48  1  0.800396  0.679443  0.464963  1
  O  O49  1  0.484796  0.088834  0.807980  1
  O  O50  1  0.769604  0.067493  0.135201  1
  O  O51  1  0.425757  0.972859  0.624309  1
  O  O52  1  0.115192  0.290786  0.822513  1
  O  O53  1  0.487601  0.357102  0.489712  1
  O  O54  1  0.596272  0.734655  0.863053  1
  O  O55  1  0.435651  0.152546  0.564458  1
  O  O56  1  0.476320  0.005873  0.869817  1
  O  O57  1  0.527373  0.680422  0.141008  1
  O  O58  1  0.523680  0.994127  0.130183  1
  O  O59  1  0.403728  0.265345  0.136947  1
  O  O60  1  0.476320  0.494127  0.369817  1
  O  O61  1  0.403728  0.234655  0.636947  1
  O  O62  1  0.472627  0.180422  0.358992  1
  O  O63  1  0.231678  0.436367  0.430219  1
  O  O64  1  0.427858  0.944047  0.374931  1
  O  O65  1  0.189460  0.166039  0.675990  1
  O  O66  1  0.488034  0.890611  0.784489  1
  O  O67  1  0.231678  0.063633  0.930219  1
  O  O68  1  0.523680  0.505873  0.630183  1
  O  O69  1  0.435651  0.347454  0.064458  1
  O  O70  1  0.731134  0.196630  0.269911  1
  O  O71  1  0.884808  0.709214  0.177487  1
  O  O72  1  0.277121  0.675105  0.610346  1
  O  O73  1  0.564349  0.652546  0.935542  1
  O  O74  1  0.722879  0.324895  0.389654  1
  O  O75  1  0.199604  0.320557  0.535037  1
  O  O76  1  0.189460  0.333961  0.175990  1
  O  O77  1  0.572142  0.055953  0.625069  1
  O  O78  1  0.251537  0.412668  0.808526  1
  O  O79  1  0.167365  0.044205  0.555291  1
  O  O80  1  0.515204  0.588834  0.692020  1
  O  O81  1  0.769604  0.432507  0.635201  1
  O  O82  1  0.230396  0.567493  0.364799  1
  O  O83  1  0.596272  0.765345  0.363053  1
  O  O84  1  0.455867  0.231633  0.939114  1
  O  O85  1  0.810540  0.666039  0.824010  1
  O  O86  1  0.572142  0.444047  0.125069  1
  O  O87  1  0.512399  0.857102  0.010288  1
  O  O88  1  0.832635  0.544205  0.944709  1
  O  O89  1  0.884808  0.790786  0.677487  1
  O  O90  1  0.780763  0.108064  0.540024  1
  O  O91  1  0.564349  0.847454  0.435542  1
  O  O92  1  0.780763  0.391936  0.040024  1
  O  O93  1  0.219237  0.891936  0.459976  1
  O  O94  1  0.731134  0.303370  0.769911  1
  O  O95  1  0.487601  0.142898  0.989712  1
  O  O96  1  0.167365  0.455795  0.055291  1
  O  O97  1  0.488034  0.609389  0.284489  1
  O  O98  1  0.832635  0.955795  0.444709  1
  O  O99  1  0.800396  0.820557  0.964963  1
  O  O100  1  0.722879  0.175105  0.889654  1
  O  O101  1  0.268866  0.696630  0.230089  1
  O  O102  1  0.219237  0.608064  0.959976  1
  O  O103  1  0.427858  0.555953  0.874931  1
  O  O104  1  0.574243  0.027141  0.375691  1
  O  O105  1  0.544133  0.768367  0.060886  1
  O  O106  1  0.512399  0.642898  0.510288  1
  O  O107  1  0.544133  0.731633  0.560886  1
  O  O108  1  0.268866  0.803370  0.730089  1
  O  O109  1  0.115192  0.209214  0.322513  1
  O  O110  1  0.515204  0.911166  0.192020  1
  O  O111  1  0.511966  0.390611  0.715511  1
  O  O112  1  0.574243  0.472859  0.875691  1
  O  O113  1  0.768322  0.936367  0.069781  1
  O  O114  1  0.199604  0.179443  0.035037  1
  O  O115  1  0.748463  0.912668  0.691474  1
  O  O116  1  0.277121  0.824895  0.110346  1
  O  O117  1  0.251537  0.087332  0.308526  1
  O  O118  1  0.455867  0.268367  0.439114  1
  O  O119  1  0.230396  0.932507  0.864799  1
