# generated using pymatgen
data_K6Mo10O33
_symmetry_space_group_name_H-M   'P 1'
_cell_length_a   7.85670467
_cell_length_b   12.40418239
_cell_length_c   17.54814237
_cell_angle_alpha   86.52049731
_cell_angle_beta   77.39672397
_cell_angle_gamma   74.37228903
_symmetry_Int_Tables_number   1
_chemical_formula_structural   K6Mo10O33
_chemical_formula_sum   'K12 Mo20 O66'
_cell_volume   1607.26298638
_cell_formula_units_Z   2
loop_
 _symmetry_equiv_pos_site_id
 _symmetry_equiv_pos_as_xyz
  1  'x, y, z'
loop_
 _atom_site_type_symbol
 _atom_site_label
 _atom_site_symmetry_multiplicity
 _atom_site_fract_x
 _atom_site_fract_y
 _atom_site_fract_z
 _atom_site_occupancy
  K  K0  1  0.493019  0.737587  0.267887  1
  K  K1  1  0.497852  0.271381  0.729150  1
  K  K2  1  0.227151  0.772302  0.761674  1
  K  K3  1  0.772904  0.236229  0.240286  1
  K  K4  1  0.655894  0.760001  0.988760  1
  K  K5  1  0.974193  0.273434  0.752147  1
  K  K6  1  0.728719  0.771665  0.755093  1
  K  K7  1  0.885060  0.739170  0.475394  1
  K  K8  1  0.127869  0.254927  0.520039  1
  K  K9  1  0.352262  0.243494  0.016936  1
  K  K10  1  0.021179  0.732538  0.246421  1
  K  K11  1  0.260702  0.237252  0.247911  1
  Mo  Mo12  1  0.672069  0.481227  0.577786  1
  Mo  Mo13  1  0.438783  0.010009  0.607389  1
  Mo  Mo14  1  0.823793  0.332856  0.993592  1
  Mo  Mo15  1  0.775412  0.473267  0.390195  1
  Mo  Mo16  1  0.346270  0.515705  0.412387  1
  Mo  Mo17  1  0.561693  0.989501  0.392628  1
  Mo  Mo18  1  0.679606  0.169907  0.490859  1
  Mo  Mo19  1  0.059632  0.994055  0.394024  1
  Mo  Mo20  1  0.448521  0.495808  0.107078  1
  Mo  Mo21  1  0.177915  0.672969  0.005385  1
  Mo  Mo22  1  0.247582  0.983108  0.920921  1
  Mo  Mo23  1  0.940831  0.006523  0.605962  1
  Mo  Mo24  1  0.943912  0.500220  0.106639  1
  Mo  Mo25  1  0.764805  0.024203  0.087830  1
  Mo  Mo26  1  0.194977  0.526330  0.617321  1
  Mo  Mo27  1  0.320347  0.830196  0.509040  1
  Mo  Mo28  1  0.175363  0.975773  0.108954  1
  Mo  Mo29  1  0.056771  0.505803  0.892685  1
  Mo  Mo30  1  0.552231  0.509197  0.892089  1
  Mo  Mo31  1  0.807186  0.032522  0.883127  1
  O  O32  1  0.541082  0.494194  0.481773  1
  O  O33  1  0.299868  0.974394  0.414376  1
  O  O34  1  0.030870  0.620492  0.681646  1
  O  O35  1  0.034734  0.391118  0.988239  1
  O  O36  1  0.981140  0.634193  0.847690  1
  O  O37  1  0.026119  0.998625  0.017003  1
  O  O38  1  0.548318  0.621154  0.826766  1
  O  O39  1  0.573622  0.495700  0.337139  1
  O  O40  1  0.087302  0.867224  0.348347  1
  O  O41  1  0.276466  0.524799  0.916442  1
  O  O42  1  0.469107  0.111388  0.499600  1
  O  O43  1  0.837086  0.236474  0.070769  1
  O  O44  1  0.915959  0.134098  0.649979  1
  O  O45  1  0.312573  0.748785  0.593552  1
  O  O46  1  0.177792  0.571752  0.515495  1
  O  O47  1  0.114602  0.759734  0.087145  1
  O  O48  1  0.939520  0.110409  0.488650  1
  O  O49  1  0.449696  0.383608  0.171958  1
  O  O50  1  0.589071  0.392862  0.833655  1
  O  O51  1  0.921312  0.002418  0.162354  1
  O  O52  1  0.220858  0.989081  0.582654  1
  O  O53  1  0.610811  0.269345  0.566244  1
  O  O54  1  0.708432  0.897575  0.093884  1
  O  O55  1  0.213297  0.104269  0.123946  1
  O  O56  1  0.938266  0.909589  0.682218  1
  O  O57  1  0.532607  0.886776  0.500514  1
  O  O58  1  0.706992  0.122358  0.815917  1
  O  O59  1  0.712569  0.610181  0.587036  1
  O  O60  1  0.161315  0.769018  0.928215  1
  O  O61  1  0.420195  0.508100  0.641534  1
  O  O62  1  0.725196  0.479983  0.082771  1
  O  O63  1  0.276278  0.880782  0.173993  1
  O  O64  1  0.768787  0.395003  0.647892  1
  O  O65  1  0.064867  0.092512  0.319169  1
  O  O66  1  0.861904  0.424040  0.487009  1
  O  O67  1  0.335562  0.125449  0.668967  1
  O  O68  1  0.681241  0.252276  0.406913  1
  O  O69  1  0.153665  0.409027  0.816868  1
  O  O70  1  0.386045  0.732165  0.432947  1
  O  O71  1  0.214107  0.607979  0.355598  1
  O  O72  1  0.827637  0.601799  0.372248  1
  O  O73  1  0.664008  0.873989  0.331034  1
  O  O74  1  0.780146  0.011119  0.416721  1
  O  O75  1  0.302622  0.110548  0.908253  1
  O  O76  1  0.579983  0.119185  0.143556  1
  O  O77  1  0.508927  0.103122  0.330466  1
  O  O78  1  0.488650  0.896150  0.669741  1
  O  O79  1  0.700218  0.025621  0.586802  1
  O  O80  1  0.967858  0.613158  0.010733  1
  O  O81  1  0.775953  0.900384  0.872788  1
  O  O82  1  0.208734  0.517706  0.086292  1
  O  O83  1  0.056839  0.012401  0.857471  1
  O  O84  1  0.351732  0.925705  0.011517  1
  O  O85  1  0.938070  0.374434  0.327637  1
  O  O86  1  0.438353  0.614727  0.996866  1
  O  O87  1  0.411784  0.611778  0.165770  1
  O  O88  1  0.562651  0.392012  0.001978  1
  O  O89  1  0.408798  0.891742  0.852910  1
  O  O90  1  0.152618  0.394311  0.631324  1
  O  O91  1  0.792600  0.488456  0.912511  1
  O  O92  1  0.020482  0.373292  0.153397  1
  O  O93  1  0.692617  0.079119  0.985000  1
  O  O94  1  0.295790  0.388572  0.409073  1
  O  O95  1  0.882986  0.248275  0.910931  1
  O  O96  1  0.058919  0.890938  0.511377  1
  O  O97  1  0.846915  0.599644  0.180461  1
