# generated using pymatgen
data_TiSCl6O
_symmetry_space_group_name_H-M   'P 1'
_cell_length_a   6.63209562
_cell_length_b   8.18878032
_cell_length_c   11.22515059
_cell_angle_alpha   108.50382994
_cell_angle_beta   91.38155619
_cell_angle_gamma   113.71642751
_symmetry_Int_Tables_number   1
_chemical_formula_structural   TiSCl6O
_chemical_formula_sum   'Ti2 S2 Cl12 O2'
_cell_volume   521.13695456
_cell_formula_units_Z   2
loop_
 _symmetry_equiv_pos_site_id
 _symmetry_equiv_pos_as_xyz
  1  'x, y, z'
loop_
 _atom_site_type_symbol
 _atom_site_label
 _atom_site_symmetry_multiplicity
 _atom_site_fract_x
 _atom_site_fract_y
 _atom_site_fract_z
 _atom_site_occupancy
  Ti  Ti0  1  0.072833  0.909578  0.857587  1
  Ti  Ti1  1  0.927167  0.090422  0.142413  1
  S  S2  1  0.054596  0.723625  0.299933  1
  S  S3  1  0.945404  0.276375  0.700067  1
  Cl  Cl4  1  0.804630  0.693683  0.807631  1
  Cl  Cl5  1  0.733892  0.499308  0.326866  1
  Cl  Cl6  1  0.969804  0.745619  0.483415  1
  Cl  Cl7  1  0.745187  0.830857  0.060083  1
  Cl  Cl8  1  0.030196  0.254381  0.516585  1
  Cl  Cl9  1  0.632671  0.932297  0.333153  1
  Cl  Cl10  1  0.195370  0.306317  0.192369  1
  Cl  Cl11  1  0.367329  0.067703  0.666847  1
  Cl  Cl12  1  0.254813  0.169143  0.939917  1
  Cl  Cl13  1  0.781138  0.258248  0.061096  1
  Cl  Cl14  1  0.266108  0.500692  0.673134  1
  Cl  Cl15  1  0.218862  0.741752  0.938904  1
  O  O16  1  0.916832  0.108022  0.786771  1
  O  O17  1  0.083168  0.891978  0.213229  1
