# generated using pymatgen
data_FeF3
_symmetry_space_group_name_H-M   'P 1'
_cell_length_a   7.41151865
_cell_length_b   7.41151865
_cell_length_c   7.41151865
_cell_angle_alpha   60.00000000
_cell_angle_beta   60.00000000
_cell_angle_gamma   60.00000000
_symmetry_Int_Tables_number   1
_chemical_formula_structural   FeF3
_chemical_formula_sum   'Fe4 F12'
_cell_volume   287.87676835
_cell_formula_units_Z   4
loop_
 _symmetry_equiv_pos_site_id
 _symmetry_equiv_pos_as_xyz
  1  'x, y, z'
loop_
 _atom_site_type_symbol
 _atom_site_label
 _atom_site_symmetry_multiplicity
 _atom_site_fract_x
 _atom_site_fract_y
 _atom_site_fract_z
 _atom_site_occupancy
  Fe  Fe0  1  0.625000  0.625000  0.625000  1
  Fe  Fe1  1  0.625000  0.125000  0.625000  1
  Fe  Fe2  1  0.125000  0.625000  0.625000  1
  Fe  Fe3  1  0.625000  0.625000  0.125000  1
  F  F4  1  0.686452  0.313548  0.686452  1
  F  F5  1  0.313548  0.686452  0.686452  1
  F  F6  1  0.686452  0.686452  0.313548  1
  F  F7  1  0.936452  0.936452  0.563548  1
  F  F8  1  0.563548  0.936452  0.936452  1
  F  F9  1  0.936452  0.563548  0.936452  1
  F  F10  1  0.313548  0.313548  0.686452  1
  F  F11  1  0.563548  0.936452  0.563548  1
  F  F12  1  0.563548  0.563548  0.936452  1
  F  F13  1  0.313548  0.686452  0.313548  1
  F  F14  1  0.936452  0.563548  0.563548  1
  F  F15  1  0.686452  0.313548  0.313548  1
