# generated using pymatgen
data_Zr5Sb3
_symmetry_space_group_name_H-M   'P 1'
_cell_length_a   7.61487351
_cell_length_b   8.88916695
_cell_length_c   10.86696868
_cell_angle_alpha   90.00000000
_cell_angle_beta   90.00000000
_cell_angle_gamma   90.00000000
_symmetry_Int_Tables_number   1
_chemical_formula_structural   Zr5Sb3
_chemical_formula_sum   'Zr20 Sb12'
_cell_volume   735.58382692
_cell_formula_units_Z   4
loop_
 _symmetry_equiv_pos_site_id
 _symmetry_equiv_pos_as_xyz
  1  'x, y, z'
loop_
 _atom_site_type_symbol
 _atom_site_label
 _atom_site_symmetry_multiplicity
 _atom_site_fract_x
 _atom_site_fract_y
 _atom_site_fract_z
 _atom_site_occupancy
  Zr  Zr0  1  0.474059  0.750000  0.503174  1
  Zr  Zr1  1  0.974059  0.250000  0.996826  1
  Zr  Zr2  1  0.525941  0.250000  0.496826  1
  Zr  Zr3  1  0.025941  0.750000  0.003174  1
  Zr  Zr4  1  0.320687  0.750000  0.231950  1
  Zr  Zr5  1  0.820687  0.250000  0.268050  1
  Zr  Zr6  1  0.679313  0.250000  0.768050  1
  Zr  Zr7  1  0.179313  0.750000  0.731950  1
  Zr  Zr8  1  0.172419  0.250000  0.712859  1
  Zr  Zr9  1  0.672419  0.750000  0.787141  1
  Zr  Zr10  1  0.827581  0.750000  0.287141  1
  Zr  Zr11  1  0.327581  0.250000  0.212859  1
  Zr  Zr12  1  0.199046  0.443371  0.447342  1
  Zr  Zr13  1  0.699046  0.556629  0.052658  1
  Zr  Zr14  1  0.800954  0.943371  0.552658  1
  Zr  Zr15  1  0.300954  0.056629  0.947342  1
  Zr  Zr16  1  0.800954  0.556629  0.552658  1
  Zr  Zr17  1  0.300954  0.443371  0.947342  1
  Zr  Zr18  1  0.199046  0.056629  0.447342  1
  Zr  Zr19  1  0.699046  0.943371  0.052658  1
  Sb  Sb20  1  0.090551  0.750000  0.472692  1
  Sb  Sb21  1  0.590551  0.250000  0.027308  1
  Sb  Sb22  1  0.909449  0.250000  0.527308  1
  Sb  Sb23  1  0.409449  0.750000  0.972692  1
  Sb  Sb24  1  0.066490  0.007611  0.178185  1
  Sb  Sb25  1  0.566490  0.992389  0.321815  1
  Sb  Sb26  1  0.933510  0.507611  0.821815  1
  Sb  Sb27  1  0.433510  0.492389  0.678185  1
  Sb  Sb28  1  0.933510  0.992389  0.821815  1
  Sb  Sb29  1  0.433510  0.007611  0.678185  1
  Sb  Sb30  1  0.066490  0.492389  0.178185  1
  Sb  Sb31  1  0.566490  0.507611  0.321815  1
