# generated using pymatgen
data_KNa(BH4)2
_symmetry_space_group_name_H-M   'P 1'
_cell_length_a   7.85665065
_cell_length_b   7.85665065
_cell_length_c   7.85665065
_cell_angle_alpha   33.52022972
_cell_angle_beta   33.52022972
_cell_angle_gamma   33.52022972
_symmetry_Int_Tables_number   1
_chemical_formula_structural   KNa(BH4)2
_chemical_formula_sum   'K1 Na1 B2 H8'
_cell_volume   131.72583059
_cell_formula_units_Z   1
loop_
 _symmetry_equiv_pos_site_id
 _symmetry_equiv_pos_as_xyz
  1  'x, y, z'
loop_
 _atom_site_type_symbol
 _atom_site_label
 _atom_site_symmetry_multiplicity
 _atom_site_fract_x
 _atom_site_fract_y
 _atom_site_fract_z
 _atom_site_occupancy
  K  K0  1  0.500000  0.500000  0.500000  1
  Na  Na1  1  0.000000  1.000000  0.000000  1
  B  B2  1  0.744212  0.744212  0.744212  1
  B  B3  1  0.255788  0.255788  0.255788  1
  H  H4  1  0.200283  0.200283  0.200283  1
  H  H5  1  0.985220  0.364989  0.471640  1
  H  H6  1  0.014780  0.635011  0.528360  1
  H  H7  1  0.528360  0.014780  0.635011  1
  H  H8  1  0.471640  0.985220  0.364989  1
  H  H9  1  0.799717  0.799717  0.799717  1
  H  H10  1  0.364989  0.471640  0.985220  1
  H  H11  1  0.635011  0.528360  0.014780  1
