# generated using pymatgen
data_Tb2Si5Os3
_symmetry_space_group_name_H-M   'P 1'
_cell_length_a   10.74754452
_cell_length_b   10.74754452
_cell_length_c   5.69952776
_cell_angle_alpha   90.00000000
_cell_angle_beta   90.00000000
_cell_angle_gamma   90.00000000
_symmetry_Int_Tables_number   1
_chemical_formula_structural   Tb2Si5Os3
_chemical_formula_sum   'Tb8 Si20 Os12'
_cell_volume   658.35081699
_cell_formula_units_Z   4
loop_
 _symmetry_equiv_pos_site_id
 _symmetry_equiv_pos_as_xyz
  1  'x, y, z'
loop_
 _atom_site_type_symbol
 _atom_site_label
 _atom_site_symmetry_multiplicity
 _atom_site_fract_x
 _atom_site_fract_y
 _atom_site_fract_z
 _atom_site_occupancy
  Tb  Tb0  1  0.764506  0.929504  0.500000  1
  Tb  Tb1  1  0.429504  0.264506  0.000000  1
  Tb  Tb2  1  0.264506  0.570496  0.000000  1
  Tb  Tb3  1  0.570496  0.735494  0.000000  1
  Tb  Tb4  1  0.235494  0.070496  0.500000  1
  Tb  Tb5  1  0.070496  0.764506  0.500000  1
  Tb  Tb6  1  0.735494  0.429504  0.000000  1
  Tb  Tb7  1  0.929504  0.235494  0.500000  1
  Si  Si8  1  0.500000  0.500000  0.743199  1
  Si  Si9  1  0.973776  0.320076  0.000000  1
  Si  Si10  1  0.026224  0.679924  0.000000  1
  Si  Si11  1  0.672839  0.172839  0.250000  1
  Si  Si12  1  0.672839  0.172839  0.750000  1
  Si  Si13  1  0.327161  0.827161  0.750000  1
  Si  Si14  1  0.327161  0.827161  0.250000  1
  Si  Si15  1  0.320076  0.026224  0.000000  1
  Si  Si16  1  0.000000  0.000000  0.756801  1
  Si  Si17  1  0.500000  0.500000  0.256801  1
  Si  Si18  1  0.179924  0.526224  0.500000  1
  Si  Si19  1  0.526224  0.820076  0.500000  1
  Si  Si20  1  0.172839  0.327161  0.250000  1
  Si  Si21  1  0.679924  0.973776  0.000000  1
  Si  Si22  1  0.000000  0.000000  0.243199  1
  Si  Si23  1  0.473776  0.179924  0.500000  1
  Si  Si24  1  0.827161  0.672839  0.250000  1
  Si  Si25  1  0.820076  0.473776  0.500000  1
  Si  Si26  1  0.172839  0.327161  0.750000  1
  Si  Si27  1  0.827161  0.672839  0.750000  1
  Os  Os28  1  0.353443  0.374398  0.500000  1
  Os  Os29  1  0.500000  0.000000  0.750000  1
  Os  Os30  1  0.853443  0.125602  0.000000  1
  Os  Os31  1  0.874398  0.853443  0.000000  1
  Os  Os32  1  0.000000  0.500000  0.250000  1
  Os  Os33  1  0.125602  0.146557  0.000000  1
  Os  Os34  1  0.646557  0.625602  0.500000  1
  Os  Os35  1  0.146557  0.874398  0.000000  1
  Os  Os36  1  0.374398  0.646557  0.500000  1
  Os  Os37  1  0.500000  0.000000  0.250000  1
  Os  Os38  1  0.625602  0.353443  0.500000  1
  Os  Os39  1  0.000000  0.500000  0.750000  1
