# generated using pymatgen
data_Zr2Fe12P7
_symmetry_space_group_name_H-M   'P 1'
_cell_length_a   8.84360306
_cell_length_b   8.84360306
_cell_length_c   3.59627040
_cell_angle_alpha   90.00000000
_cell_angle_beta   90.00000000
_cell_angle_gamma   120.00000000
_symmetry_Int_Tables_number   1
_chemical_formula_structural   Zr2Fe12P7
_chemical_formula_sum   'Zr2 Fe12 P7'
_cell_volume   243.57990256
_cell_formula_units_Z   1
loop_
 _symmetry_equiv_pos_site_id
 _symmetry_equiv_pos_as_xyz
  1  'x, y, z'
loop_
 _atom_site_type_symbol
 _atom_site_label
 _atom_site_symmetry_multiplicity
 _atom_site_fract_x
 _atom_site_fract_y
 _atom_site_fract_z
 _atom_site_occupancy
  Zr  Zr0  1  0.000000  0.000000  0.000000  1
  Zr  Zr1  1  0.333333  0.666667  0.500000  1
  Fe  Fe2  1  0.096482  0.394714  0.000000  1
  Fe  Fe3  1  0.298232  0.903518  0.000000  1
  Fe  Fe4  1  0.605286  0.701768  0.000000  1
  Fe  Fe5  1  0.822348  0.609072  0.000000  1
  Fe  Fe6  1  0.786724  0.177652  0.000000  1
  Fe  Fe7  1  0.390928  0.213276  0.000000  1
  Fe  Fe8  1  0.051209  0.770015  0.500000  1
  Fe  Fe9  1  0.718807  0.948791  0.500000  1
  Fe  Fe10  1  0.229985  0.281193  0.500000  1
  Fe  Fe11  1  0.882762  0.430229  0.500000  1
  Fe  Fe12  1  0.547467  0.117238  0.500000  1
  Fe  Fe13  1  0.569771  0.452533  0.500000  1
  P  P14  1  0.079732  0.632104  0.000000  1
  P  P15  1  0.552372  0.920268  0.000000  1
  P  P16  1  0.367896  0.447628  0.000000  1
  P  P17  1  0.780710  0.737058  0.500000  1
  P  P18  1  0.956348  0.219290  0.500000  1
  P  P19  1  0.262942  0.043652  0.500000  1
  P  P20  1  0.666667  0.333333  0.000000  1
