# generated using pymatgen
data_Pr9(SbO)5
_symmetry_space_group_name_H-M   'P 1'
_cell_length_a   10.34106479
_cell_length_b   10.34106479
_cell_length_c   9.31961670
_cell_angle_alpha   90.00000000
_cell_angle_beta   90.00000000
_cell_angle_gamma   90.00000000
_symmetry_Int_Tables_number   1
_chemical_formula_structural   Pr9(SbO)5
_chemical_formula_sum   'Pr18 Sb10 O10'
_cell_volume   996.61763845
_cell_formula_units_Z   2
loop_
 _symmetry_equiv_pos_site_id
 _symmetry_equiv_pos_as_xyz
  1  'x, y, z'
loop_
 _atom_site_type_symbol
 _atom_site_label
 _atom_site_symmetry_multiplicity
 _atom_site_fract_x
 _atom_site_fract_y
 _atom_site_fract_z
 _atom_site_occupancy
  Pr  Pr0  1  0.726626  0.918608  0.001212  1
  Pr  Pr1  1  0.581392  0.226626  0.001212  1
  Pr  Pr2  1  0.000000  0.500000  0.331743  1
  Pr  Pr3  1  0.773374  0.581392  0.998788  1
  Pr  Pr4  1  0.226626  0.418608  0.998788  1
  Pr  Pr5  1  0.204363  0.896150  0.344488  1
  Pr  Pr6  1  0.273374  0.081392  0.001212  1
  Pr  Pr7  1  0.896150  0.795637  0.655512  1
  Pr  Pr8  1  0.918608  0.273374  0.998788  1
  Pr  Pr9  1  0.295637  0.603850  0.655512  1
  Pr  Pr10  1  0.418608  0.773374  0.001212  1
  Pr  Pr11  1  0.103850  0.204363  0.655512  1
  Pr  Pr12  1  0.795637  0.103850  0.344488  1
  Pr  Pr13  1  0.500000  0.000000  0.668257  1
  Pr  Pr14  1  0.081392  0.726626  0.998788  1
  Pr  Pr15  1  0.396150  0.295637  0.344488  1
  Pr  Pr16  1  0.704363  0.396150  0.655512  1
  Pr  Pr17  1  0.603850  0.704363  0.344488  1
  Sb  Sb18  1  0.500000  0.000000  0.314526  1
  Sb  Sb19  1  0.196671  0.903307  0.700321  1
  Sb  Sb20  1  0.403307  0.303329  0.700321  1
  Sb  Sb21  1  0.000000  0.500000  0.685474  1
  Sb  Sb22  1  0.696671  0.403307  0.299679  1
  Sb  Sb23  1  0.096693  0.196671  0.299679  1
  Sb  Sb24  1  0.596693  0.696671  0.700321  1
  Sb  Sb25  1  0.303329  0.596693  0.299679  1
  Sb  Sb26  1  0.803329  0.096693  0.700321  1
  Sb  Sb27  1  0.903307  0.803329  0.299679  1
  O  O28  1  0.500000  0.000000  0.932603  1
  O  O29  1  0.724735  0.379095  0.910214  1
  O  O30  1  0.620905  0.724735  0.089786  1
  O  O31  1  0.379095  0.275265  0.089786  1
  O  O32  1  0.120905  0.224735  0.910214  1
  O  O33  1  0.275265  0.620905  0.910214  1
  O  O34  1  0.000000  0.500000  0.067397  1
  O  O35  1  0.224735  0.879095  0.089786  1
  O  O36  1  0.879095  0.775265  0.910214  1
  O  O37  1  0.775265  0.120905  0.089786  1
