# generated using pymatgen
data_LiCr(SiO3)2
_symmetry_space_group_name_H-M   'P 1'
_cell_length_a   5.33247571
_cell_length_b   8.73808612
_cell_length_c   9.31256247
_cell_angle_alpha   90.00000000
_cell_angle_beta   102.19579835
_cell_angle_gamma   90.00000000
_symmetry_Int_Tables_number   1
_chemical_formula_structural   LiCr(SiO3)2
_chemical_formula_sum   'Li4 Cr4 Si8 O24'
_cell_volume   424.13165509
_cell_formula_units_Z   4
loop_
 _symmetry_equiv_pos_site_id
 _symmetry_equiv_pos_as_xyz
  1  'x, y, z'
loop_
 _atom_site_type_symbol
 _atom_site_label
 _atom_site_symmetry_multiplicity
 _atom_site_fract_x
 _atom_site_fract_y
 _atom_site_fract_z
 _atom_site_occupancy
  Li  Li0  1  0.489699  0.008222  0.252147  1
  Li  Li1  1  0.010301  0.508222  0.747853  1
  Li  Li2  1  0.510301  0.991778  0.747853  1
  Li  Li3  1  0.989699  0.491778  0.252147  1
  Cr  Cr4  1  0.486384  0.656330  0.249720  1
  Cr  Cr5  1  0.986384  0.843670  0.249720  1
  Cr  Cr6  1  0.513616  0.343670  0.750280  1
  Cr  Cr7  1  0.013616  0.156330  0.750280  1
  Si  Si8  1  0.275860  0.659943  0.549409  1
  Si  Si9  1  0.703757  0.659595  0.950631  1
  Si  Si10  1  0.796243  0.159595  0.049369  1
  Si  Si11  1  0.296243  0.340405  0.049369  1
  Si  Si12  1  0.203757  0.840405  0.950631  1
  Si  Si13  1  0.224140  0.159943  0.450591  1
  Si  Si14  1  0.724140  0.340057  0.450591  1
  Si  Si15  1  0.775860  0.840057  0.549409  1
  O  O16  1  0.969881  0.267510  0.391590  1
  O  O17  1  0.294655  0.166395  0.633293  1
  O  O18  1  0.205345  0.666395  0.366707  1
  O  O19  1  0.705345  0.833605  0.366707  1
  O  O20  1  0.794655  0.333605  0.633293  1
  O  O21  1  0.770340  0.664391  0.133770  1
  O  O22  1  0.729660  0.164391  0.866230  1
  O  O23  1  0.229660  0.335609  0.866230  1
  O  O24  1  0.270340  0.835609  0.133770  1
  O  O25  1  0.195051  0.990378  0.382294  1
  O  O26  1  0.304949  0.490378  0.617706  1
  O  O27  1  0.804949  0.009622  0.617706  1
  O  O28  1  0.412173  0.727726  0.895310  1
  O  O29  1  0.087827  0.227726  0.104690  1
  O  O30  1  0.587827  0.272274  0.104690  1
  O  O31  1  0.912173  0.772274  0.895310  1
  O  O32  1  0.695051  0.509622  0.382294  1
  O  O33  1  0.530119  0.767510  0.608410  1
  O  O34  1  0.728697  0.494806  0.876818  1
  O  O35  1  0.469881  0.232490  0.391590  1
  O  O36  1  0.228697  0.005194  0.876818  1
  O  O37  1  0.271303  0.505194  0.123182  1
  O  O38  1  0.771303  0.994806  0.123182  1
  O  O39  1  0.030119  0.732490  0.608410  1
