# generated using pymatgen
data_GdZnPO
_symmetry_space_group_name_H-M   'P 1'
_cell_length_a   10.46709710
_cell_length_b   10.46709710
_cell_length_c   10.46709710
_cell_angle_alpha   21.67139565
_cell_angle_beta   21.67139565
_cell_angle_gamma   21.67139565
_symmetry_Int_Tables_number   1
_chemical_formula_structural   GdZnPO
_chemical_formula_sum   'Gd2 Zn2 P2 O2'
_cell_volume   137.04800618
_cell_formula_units_Z   2
loop_
 _symmetry_equiv_pos_site_id
 _symmetry_equiv_pos_as_xyz
  1  'x, y, z'
loop_
 _atom_site_type_symbol
 _atom_site_label
 _atom_site_symmetry_multiplicity
 _atom_site_fract_x
 _atom_site_fract_y
 _atom_site_fract_z
 _atom_site_occupancy
  Gd  Gd0  1  0.380382  0.380382  0.380382  1
  Gd  Gd1  1  0.619618  0.619618  0.619618  1
  Zn  Zn2  1  0.803722  0.803722  0.803722  1
  Zn  Zn3  1  0.196278  0.196278  0.196278  1
  P  P4  1  0.112484  0.112484  0.112484  1
  P  P5  1  0.887516  0.887516  0.887516  1
  O  O6  1  0.694708  0.694708  0.694708  1
  O  O7  1  0.305292  0.305292  0.305292  1
