# generated using pymatgen
data_Ba5Re3BrO15
_symmetry_space_group_name_H-M   'P 1'
_cell_length_a   11.17859822
_cell_length_b   11.17859822
_cell_length_c   7.95533528
_cell_angle_alpha   90.00000000
_cell_angle_beta   90.00000000
_cell_angle_gamma   120.00000000
_symmetry_Int_Tables_number   1
_chemical_formula_structural   Ba5Re3BrO15
_chemical_formula_sum   'Ba10 Re6 Br2 O30'
_cell_volume   860.92201556
_cell_formula_units_Z   2
loop_
 _symmetry_equiv_pos_site_id
 _symmetry_equiv_pos_as_xyz
  1  'x, y, z'
loop_
 _atom_site_type_symbol
 _atom_site_label
 _atom_site_symmetry_multiplicity
 _atom_site_fract_x
 _atom_site_fract_y
 _atom_site_fract_z
 _atom_site_occupancy
  Ba  Ba0  1  0.000000  0.268273  0.742954  1
  Ba  Ba1  1  0.333333  0.666667  0.003412  1
  Ba  Ba2  1  0.268273  0.268273  0.242954  1
  Ba  Ba3  1  0.731727  0.731727  0.742954  1
  Ba  Ba4  1  0.666667  0.333333  0.003412  1
  Ba  Ba5  1  0.731727  0.000000  0.242954  1
  Ba  Ba6  1  0.666667  0.333333  0.503412  1
  Ba  Ba7  1  0.333333  0.666667  0.503412  1
  Ba  Ba8  1  0.268273  0.000000  0.742954  1
  Ba  Ba9  1  0.000000  0.731727  0.242954  1
  Re  Re10  1  0.607790  0.607790  0.298801  1
  Re  Re11  1  0.607790  0.000000  0.798801  1
  Re  Re12  1  0.392210  0.000000  0.298801  1
  Re  Re13  1  0.000000  0.392210  0.298801  1
  Re  Re14  1  0.000000  0.607790  0.798801  1
  Re  Re15  1  0.392210  0.392210  0.798801  1
  Br  Br16  1  0.000000  0.000000  0.970652  1
  Br  Br17  1  0.000000  0.000000  0.470652  1
  O  O18  1  0.130312  0.552688  0.759729  1
  O  O19  1  0.609734  0.868802  0.938741  1
  O  O20  1  0.868802  0.259068  0.438741  1
  O  O21  1  0.740932  0.609734  0.438741  1
  O  O22  1  0.390266  0.259068  0.938741  1
  O  O23  1  0.000000  0.299299  0.119914  1
  O  O24  1  0.577623  0.447312  0.759729  1
  O  O25  1  0.422377  0.869688  0.759729  1
  O  O26  1  0.131198  0.740932  0.938741  1
  O  O27  1  0.447312  0.869688  0.259729  1
  O  O28  1  0.868802  0.609734  0.938741  1
  O  O29  1  0.700701  0.000000  0.619914  1
  O  O30  1  0.447312  0.577623  0.759729  1
  O  O31  1  0.131198  0.390266  0.438741  1
  O  O32  1  0.869688  0.422377  0.759729  1
  O  O33  1  0.259068  0.868802  0.438741  1
  O  O34  1  0.299299  0.000000  0.119914  1
  O  O35  1  0.577623  0.130312  0.259729  1
  O  O36  1  0.000000  0.700701  0.619914  1
  O  O37  1  0.390266  0.131198  0.438741  1
  O  O38  1  0.422377  0.552688  0.259729  1
  O  O39  1  0.552688  0.422377  0.259729  1
  O  O40  1  0.130312  0.577623  0.259729  1
  O  O41  1  0.869688  0.447312  0.259729  1
  O  O42  1  0.609734  0.740932  0.438741  1
  O  O43  1  0.700701  0.700701  0.119914  1
  O  O44  1  0.740932  0.131198  0.938741  1
  O  O45  1  0.552688  0.130312  0.759729  1
  O  O46  1  0.299299  0.299299  0.619914  1
  O  O47  1  0.259068  0.390266  0.938741  1
