# generated using pymatgen
data_Rb3InP2
_symmetry_space_group_name_H-M   'P 1'
_cell_length_a   9.51241274
_cell_length_b   12.63846294
_cell_length_c   16.08613310
_cell_angle_alpha   97.10993002
_cell_angle_beta   106.92627208
_cell_angle_gamma   106.67750098
_symmetry_Int_Tables_number   1
_chemical_formula_structural   Rb3InP2
_chemical_formula_sum   'Rb24 In8 P16'
_cell_volume   1726.36006823
_cell_formula_units_Z   8
loop_
 _symmetry_equiv_pos_site_id
 _symmetry_equiv_pos_as_xyz
  1  'x, y, z'
loop_
 _atom_site_type_symbol
 _atom_site_label
 _atom_site_symmetry_multiplicity
 _atom_site_fract_x
 _atom_site_fract_y
 _atom_site_fract_z
 _atom_site_occupancy
  Rb  Rb0  1  0.689117  0.119755  0.521415  1
  Rb  Rb1  1  0.149129  0.585782  0.473582  1
  Rb  Rb2  1  0.393861  0.396918  0.354206  1
  Rb  Rb3  1  0.310883  0.880245  0.478585  1
  Rb  Rb4  1  0.606139  0.603082  0.645794  1
  Rb  Rb5  1  0.463045  0.421282  0.805202  1
  Rb  Rb6  1  0.077038  0.393732  0.089160  1
  Rb  Rb7  1  0.582457  0.931183  0.746080  1
  Rb  Rb8  1  0.784248  0.415659  0.244705  1
  Rb  Rb9  1  0.831685  0.923707  0.343764  1
  Rb  Rb10  1  0.019612  0.265063  0.820378  1
  Rb  Rb11  1  0.609980  0.122761  0.085369  1
  Rb  Rb12  1  0.980388  0.734937  0.179622  1
  Rb  Rb13  1  0.417543  0.068817  0.253920  1
  Rb  Rb14  1  0.850871  0.414218  0.526418  1
  Rb  Rb15  1  0.334889  0.747841  0.118770  1
  Rb  Rb16  1  0.536955  0.578718  0.194798  1
  Rb  Rb17  1  0.017614  0.098580  0.195218  1
  Rb  Rb18  1  0.922962  0.606268  0.910840  1
  Rb  Rb19  1  0.982386  0.901420  0.804782  1
  Rb  Rb20  1  0.665111  0.252159  0.881230  1
  Rb  Rb21  1  0.390020  0.877239  0.914631  1
  Rb  Rb22  1  0.168315  0.076293  0.656236  1
  Rb  Rb23  1  0.215752  0.584341  0.755295  1
  In  In24  1  0.438275  0.281483  0.579047  1
  In  In25  1  0.077072  0.231855  0.442437  1
  In  In26  1  0.172077  0.109150  0.010836  1
  In  In27  1  0.922928  0.768145  0.557563  1
  In  In28  1  0.579021  0.643786  0.991642  1
  In  In29  1  0.827923  0.890850  0.989164  1
  In  In30  1  0.561725  0.718517  0.420953  1
  In  In31  1  0.420979  0.356214  0.008358  1
  P  P32  1  0.276297  0.129501  0.431125  1
  P  P33  1  0.630530  0.720663  0.852609  1
  P  P34  1  0.285243  0.512802  0.961170  1
  P  P35  1  0.127673  0.901917  0.039380  1
  P  P36  1  0.769723  0.625114  0.407663  1
  P  P37  1  0.706109  0.338894  0.687359  1
  P  P38  1  0.186597  0.801321  0.660775  1
  P  P39  1  0.311140  0.156351  0.890947  1
  P  P40  1  0.688860  0.843649  0.109053  1
  P  P41  1  0.872327  0.098083  0.960620  1
  P  P42  1  0.230277  0.374886  0.592337  1
  P  P43  1  0.714757  0.487198  0.038830  1
  P  P44  1  0.723703  0.870499  0.568875  1
  P  P45  1  0.813403  0.198679  0.339225  1
  P  P46  1  0.293891  0.661106  0.312641  1
  P  P47  1  0.369470  0.279337  0.147391  1
