# generated using pymatgen
data_CaFe3P3O13
_symmetry_space_group_name_H-M   'P 1'
_cell_length_a   7.67636045
_cell_length_b   6.40859766
_cell_length_c   10.29249098
_cell_angle_alpha   90.00000000
_cell_angle_beta   99.87260799
_cell_angle_gamma   90.00000000
_symmetry_Int_Tables_number   1
_chemical_formula_structural   CaFe3P3O13
_chemical_formula_sum   'Ca2 Fe6 P6 O26'
_cell_volume   498.83794026
_cell_formula_units_Z   2
loop_
 _symmetry_equiv_pos_site_id
 _symmetry_equiv_pos_as_xyz
  1  'x, y, z'
loop_
 _atom_site_type_symbol
 _atom_site_label
 _atom_site_symmetry_multiplicity
 _atom_site_fract_x
 _atom_site_fract_y
 _atom_site_fract_z
 _atom_site_occupancy
  Ca  Ca0  1  0.344528  0.750000  0.805272  1
  Ca  Ca1  1  0.655472  0.250000  0.194728  1
  Fe  Fe2  1  0.646376  0.250000  0.797267  1
  Fe  Fe3  1  0.353624  0.750000  0.202733  1
  Fe  Fe4  1  0.212612  0.250000  0.562250  1
  Fe  Fe5  1  0.000000  0.500000  0.000000  1
  Fe  Fe6  1  0.787388  0.750000  0.437750  1
  Fe  Fe7  1  0.000000  0.000000  0.000000  1
  P  P8  1  0.783139  0.250000  0.510350  1
  P  P9  1  0.216861  0.750000  0.489650  1
  P  P10  1  0.263195  0.250000  0.238598  1
  P  P11  1  0.736805  0.750000  0.761402  1
  P  P12  1  0.683956  0.750000  0.114033  1
  P  P13  1  0.316044  0.250000  0.885967  1
  O  O14  1  0.640263  0.750000  0.257218  1
  O  O15  1  0.249507  0.560493  0.585794  1
  O  O16  1  0.210305  0.250000  0.374970  1
  O  O17  1  0.789493  0.548882  0.095763  1
  O  O18  1  0.346512  0.750000  0.392487  1
  O  O19  1  0.123458  0.750000  0.092020  1
  O  O20  1  0.653488  0.250000  0.607513  1
  O  O21  1  0.210507  0.048882  0.904237  1
  O  O22  1  0.974432  0.250000  0.588476  1
  O  O23  1  0.025568  0.750000  0.411524  1
  O  O24  1  0.378958  0.061990  0.213852  1
  O  O25  1  0.876542  0.250000  0.907980  1
  O  O26  1  0.621042  0.561990  0.786148  1
  O  O27  1  0.495176  0.750000  0.032835  1
  O  O28  1  0.789695  0.750000  0.625030  1
  O  O29  1  0.210507  0.451118  0.904237  1
  O  O30  1  0.249507  0.939507  0.585794  1
  O  O31  1  0.750493  0.439507  0.414206  1
  O  O32  1  0.378958  0.438010  0.213852  1
  O  O33  1  0.359737  0.250000  0.742782  1
  O  O34  1  0.911847  0.750000  0.867642  1
  O  O35  1  0.088153  0.250000  0.132358  1
  O  O36  1  0.621042  0.938010  0.786148  1
  O  O37  1  0.789493  0.951118  0.095763  1
  O  O38  1  0.750493  0.060493  0.414206  1
  O  O39  1  0.504824  0.250000  0.967165  1
