# generated using pymatgen
data_Rb3Cr(HO)6
_symmetry_space_group_name_H-M   'P 1'
_cell_length_a   8.10938428
_cell_length_b   8.10938428
_cell_length_c   8.10938428
_cell_angle_alpha   85.64514071
_cell_angle_beta   85.64514071
_cell_angle_gamma   85.64514071
_symmetry_Int_Tables_number   1
_chemical_formula_structural   Rb3Cr(HO)6
_chemical_formula_sum   'Rb6 Cr2 H12 O12'
_cell_volume   528.89326873
_cell_formula_units_Z   2
loop_
 _symmetry_equiv_pos_site_id
 _symmetry_equiv_pos_as_xyz
  1  'x, y, z'
loop_
 _atom_site_type_symbol
 _atom_site_label
 _atom_site_symmetry_multiplicity
 _atom_site_fract_x
 _atom_site_fract_y
 _atom_site_fract_z
 _atom_site_occupancy
  Rb  Rb0  1  0.750000  0.358360  0.141640  1
  Rb  Rb1  1  0.141640  0.750000  0.358360  1
  Rb  Rb2  1  0.358360  0.141640  0.750000  1
  Rb  Rb3  1  0.250000  0.641640  0.858360  1
  Rb  Rb4  1  0.858360  0.250000  0.641640  1
  Rb  Rb5  1  0.641640  0.858360  0.250000  1
  Cr  Cr6  1  0.000000  0.000000  0.000000  1
  Cr  Cr7  1  0.500000  0.500000  0.500000  1
  H  H8  1  0.859788  0.720485  0.594784  1
  H  H9  1  0.594784  0.859788  0.720485  1
  H  H10  1  0.720485  0.594784  0.859788  1
  H  H11  1  0.640212  0.905216  0.779515  1
  H  H12  1  0.779515  0.640212  0.905216  1
  H  H13  1  0.905216  0.779515  0.640212  1
  H  H14  1  0.140212  0.279515  0.405216  1
  H  H15  1  0.405216  0.140212  0.279515  1
  H  H16  1  0.279515  0.405216  0.140212  1
  H  H17  1  0.359788  0.094784  0.220485  1
  H  H18  1  0.220485  0.359788  0.094784  1
  H  H19  1  0.094784  0.220485  0.359788  1
  O  O20  1  0.714768  0.545161  0.446408  1
  O  O21  1  0.446408  0.714768  0.545161  1
  O  O22  1  0.545161  0.446408  0.714768  1
  O  O23  1  0.785232  0.053592  0.954839  1
  O  O24  1  0.954839  0.785232  0.053592  1
  O  O25  1  0.053592  0.954839  0.785232  1
  O  O26  1  0.285232  0.454839  0.553592  1
  O  O27  1  0.553592  0.285232  0.454839  1
  O  O28  1  0.454839  0.553592  0.285232  1
  O  O29  1  0.214768  0.946408  0.045161  1
  O  O30  1  0.045161  0.214768  0.946408  1
  O  O31  1  0.946408  0.045161  0.214768  1
