# generated using pymatgen
data_K3ClO
_symmetry_space_group_name_H-M   'P 1'
_cell_length_a   7.33791475
_cell_length_b   7.35301070
_cell_length_c   10.42158948
_cell_angle_alpha   90.00000000
_cell_angle_beta   90.00000000
_cell_angle_gamma   90.00000000
_symmetry_Int_Tables_number   1
_chemical_formula_structural   K3ClO
_chemical_formula_sum   'K12 Cl4 O4'
_cell_volume   562.30483992
_cell_formula_units_Z   4
loop_
 _symmetry_equiv_pos_site_id
 _symmetry_equiv_pos_as_xyz
  1  'x, y, z'
loop_
 _atom_site_type_symbol
 _atom_site_label
 _atom_site_symmetry_multiplicity
 _atom_site_fract_x
 _atom_site_fract_y
 _atom_site_fract_z
 _atom_site_occupancy
  K  K0  1  0.057905  0.483818  0.250000  1
  K  K1  1  0.791080  0.791073  0.029331  1
  K  K2  1  0.442095  0.983818  0.250000  1
  K  K3  1  0.291081  0.708927  0.970669  1
  K  K4  1  0.708920  0.291073  0.470669  1
  K  K5  1  0.708920  0.291073  0.029331  1
  K  K6  1  0.208920  0.208927  0.970669  1
  K  K7  1  0.942095  0.516182  0.750000  1
  K  K8  1  0.208920  0.208927  0.529331  1
  K  K9  1  0.557905  0.016182  0.750000  1
  K  K10  1  0.291081  0.708927  0.529331  1
  K  K11  1  0.791080  0.791073  0.470669  1
  Cl  Cl12  1  0.499197  0.474836  0.750000  1
  Cl  Cl13  1  0.000803  0.974836  0.750000  1
  Cl  Cl14  1  0.500803  0.525164  0.250000  1
  Cl  Cl15  1  0.999197  0.025164  0.250000  1
  O  O16  1  0.000000  0.500000  0.000000  1
  O  O17  1  0.500000  0.000000  0.500000  1
  O  O18  1  0.500000  0.000000  0.000000  1
  O  O19  1  0.000000  0.500000  0.500000  1
