# generated using pymatgen
data_Ag3RuO4
_symmetry_space_group_name_H-M   'P 1'
_cell_length_a   7.30317291
_cell_length_b   7.30317291
_cell_length_c   8.41550210
_cell_angle_alpha   90.00000000
_cell_angle_beta   90.00000000
_cell_angle_gamma   90.00000000
_symmetry_Int_Tables_number   1
_chemical_formula_structural   Ag3RuO4
_chemical_formula_sum   'Ag12 Ru4 O16'
_cell_volume   448.85203544
_cell_formula_units_Z   4
loop_
 _symmetry_equiv_pos_site_id
 _symmetry_equiv_pos_as_xyz
  1  'x, y, z'
loop_
 _atom_site_type_symbol
 _atom_site_label
 _atom_site_symmetry_multiplicity
 _atom_site_fract_x
 _atom_site_fract_y
 _atom_site_fract_z
 _atom_site_occupancy
  Ag  Ag0  1  0.253676  0.000000  0.250000  1
  Ag  Ag1  1  0.000000  0.253676  0.500000  1
  Ag  Ag2  1  0.000000  0.746324  0.000000  1
  Ag  Ag3  1  0.746324  0.000000  0.750000  1
  Ag  Ag4  1  0.000000  0.184526  0.000000  1
  Ag  Ag5  1  0.815474  0.000000  0.250000  1
  Ag  Ag6  1  0.184526  0.000000  0.750000  1
  Ag  Ag7  1  0.000000  0.815474  0.500000  1
  Ag  Ag8  1  0.500000  0.799327  0.000000  1
  Ag  Ag9  1  0.200673  0.500000  0.250000  1
  Ag  Ag10  1  0.799327  0.500000  0.750000  1
  Ag  Ag11  1  0.500000  0.200673  0.500000  1
  Ru  Ru12  1  0.500000  0.283614  0.000000  1
  Ru  Ru13  1  0.716386  0.500000  0.250000  1
  Ru  Ru14  1  0.283614  0.500000  0.750000  1
  Ru  Ru15  1  0.500000  0.716386  0.500000  1
  O  O16  1  0.691826  0.482916  0.015355  1
  O  O17  1  0.517084  0.691826  0.265355  1
  O  O18  1  0.482916  0.308174  0.765355  1
  O  O19  1  0.691826  0.517084  0.484645  1
  O  O20  1  0.308174  0.482916  0.984645  1
  O  O21  1  0.308174  0.517084  0.515355  1
  O  O22  1  0.482916  0.691826  0.734645  1
  O  O23  1  0.517084  0.308174  0.234645  1
  O  O24  1  0.309591  0.095705  0.012326  1
  O  O25  1  0.904295  0.309591  0.262326  1
  O  O26  1  0.095705  0.690409  0.762326  1
  O  O27  1  0.309591  0.904295  0.487674  1
  O  O28  1  0.690409  0.095705  0.987674  1
  O  O29  1  0.690409  0.904295  0.512326  1
  O  O30  1  0.095705  0.309591  0.737674  1
  O  O31  1  0.904295  0.690409  0.237674  1
