# generated using pymatgen
data_Bi6P4PbO20
_symmetry_space_group_name_H-M   'P 1'
_cell_length_a   7.05320264
_cell_length_b   7.73982654
_cell_length_c   9.29843840
_cell_angle_alpha   107.11819848
_cell_angle_beta   93.19232968
_cell_angle_gamma   111.95732307
_symmetry_Int_Tables_number   1
_chemical_formula_structural   Bi6P4PbO20
_chemical_formula_sum   'Bi6 P4 Pb1 O20'
_cell_volume   441.99410796
_cell_formula_units_Z   1
loop_
 _symmetry_equiv_pos_site_id
 _symmetry_equiv_pos_as_xyz
  1  'x, y, z'
loop_
 _atom_site_type_symbol
 _atom_site_label
 _atom_site_symmetry_multiplicity
 _atom_site_fract_x
 _atom_site_fract_y
 _atom_site_fract_z
 _atom_site_occupancy
  Bi  Bi0  1  0.193609  0.695659  0.674608  1
  Bi  Bi1  1  0.806391  0.304341  0.325392  1
  Bi  Bi2  1  0.560983  0.207289  0.911829  1
  Bi  Bi3  1  0.439017  0.792711  0.088171  1
  Bi  Bi4  1  0.668482  0.873866  0.490249  1
  Bi  Bi5  1  0.331518  0.126134  0.509751  1
  P  P6  1  0.953057  0.730070  0.243959  1
  P  P7  1  0.046943  0.269930  0.756041  1
  P  P8  1  0.349589  0.400787  0.258472  1
  P  P9  1  0.650411  0.599213  0.741528  1
  Pb  Pb10  1  0.000000  0.000000  0.000000  1
  O  O11  1  0.123365  0.825767  0.157715  1
  O  O12  1  0.876635  0.174233  0.842285  1
  O  O13  1  0.134478  0.267551  0.283236  1
  O  O14  1  0.865522  0.732449  0.716764  1
  O  O15  1  0.786022  0.817490  0.241262  1
  O  O16  1  0.213978  0.182510  0.758738  1
  O  O17  1  0.676407  0.093932  0.097364  1
  O  O18  1  0.323593  0.906068  0.902636  1
  O  O19  1  0.377899  0.620993  0.312891  1
  O  O20  1  0.622101  0.379007  0.687109  1
  O  O21  1  0.356563  0.329521  0.085405  1
  O  O22  1  0.643437  0.670479  0.914595  1
  O  O23  1  0.554203  0.027935  0.362900  1
  O  O24  1  0.445797  0.972065  0.637100  1
  O  O25  1  0.522027  0.380068  0.355887  1
  O  O26  1  0.477973  0.619932  0.644113  1
  O  O27  1  0.048306  0.790213  0.416496  1
  O  O28  1  0.951694  0.209787  0.583504  1
  O  O29  1  0.855625  0.500395  0.168910  1
  O  O30  1  0.144375  0.499605  0.831090  1
