# generated using pymatgen
data_Nd(CoAs)2
_symmetry_space_group_name_H-M   'P 1'
_cell_length_a   5.88381044
_cell_length_b   5.88381044
_cell_length_c   5.88381044
_cell_angle_alpha   139.70257986
_cell_angle_beta   139.70257986
_cell_angle_gamma   58.30516821
_symmetry_Int_Tables_number   1
_chemical_formula_structural   Nd(CoAs)2
_chemical_formula_sum   'Nd1 Co2 As2'
_cell_volume   84.42762290
_cell_formula_units_Z   1
loop_
 _symmetry_equiv_pos_site_id
 _symmetry_equiv_pos_as_xyz
  1  'x, y, z'
loop_
 _atom_site_type_symbol
 _atom_site_label
 _atom_site_symmetry_multiplicity
 _atom_site_fract_x
 _atom_site_fract_y
 _atom_site_fract_z
 _atom_site_occupancy
  Nd  Nd0  1  0.000000  0.000000  0.000000  1
  Co  Co1  1  0.750000  0.250000  0.500000  1
  Co  Co2  1  0.250000  0.750000  0.500000  1
  As  As3  1  0.364871  0.364871  0.000000  1
  As  As4  1  0.635129  0.635129  0.000000  1
