# generated using pymatgen
data_KV3(SeO6)2
_symmetry_space_group_name_H-M   'P 1'
_cell_length_a   7.15859930
_cell_length_b   7.15859930
_cell_length_c   11.93219058
_cell_angle_alpha   90.00000000
_cell_angle_beta   90.00000000
_cell_angle_gamma   120.00000000
_symmetry_Int_Tables_number   1
_chemical_formula_structural   KV3(SeO6)2
_chemical_formula_sum   'K2 V6 Se4 O24'
_cell_volume   529.54993601
_cell_formula_units_Z   2
loop_
 _symmetry_equiv_pos_site_id
 _symmetry_equiv_pos_as_xyz
  1  'x, y, z'
loop_
 _atom_site_type_symbol
 _atom_site_label
 _atom_site_symmetry_multiplicity
 _atom_site_fract_x
 _atom_site_fract_y
 _atom_site_fract_z
 _atom_site_occupancy
  K  K0  1  0.333333  0.666667  0.949163  1
  K  K1  1  0.666667  0.333333  0.449163  1
  V  V2  1  0.793436  0.126514  0.784148  1
  V  V3  1  0.666922  0.793436  0.284148  1
  V  V4  1  0.126514  0.333078  0.284148  1
  V  V5  1  0.873486  0.666922  0.784148  1
  V  V6  1  0.333078  0.206564  0.784148  1
  V  V7  1  0.206564  0.873486  0.284148  1
  Se  Se8  1  0.333333  0.666667  0.505563  1
  Se  Se9  1  0.666667  0.333333  0.005563  1
  Se  Se10  1  0.000000  0.000000  0.066151  1
  Se  Se11  1  0.000000  0.000000  0.566151  1
  O  O12  1  0.800577  0.213448  0.944686  1
  O  O13  1  0.587129  0.800577  0.444686  1
  O  O14  1  0.213448  0.412871  0.444686  1
  O  O15  1  0.786552  0.587129  0.944686  1
  O  O16  1  0.412871  0.199423  0.944686  1
  O  O17  1  0.199423  0.786552  0.444686  1
  O  O18  1  0.877590  0.131917  0.628449  1
  O  O19  1  0.745672  0.877590  0.128449  1
  O  O20  1  0.131917  0.254328  0.128449  1
  O  O21  1  0.868083  0.745672  0.628449  1
  O  O22  1  0.254328  0.122410  0.628449  1
  O  O23  1  0.122410  0.868083  0.128449  1
  O  O24  1  0.747805  0.874454  0.815417  1
  O  O25  1  0.873351  0.747805  0.315417  1
  O  O26  1  0.874454  0.126649  0.315417  1
  O  O27  1  0.125546  0.873351  0.815417  1
  O  O28  1  0.126649  0.252195  0.815417  1
  O  O29  1  0.252195  0.125546  0.315417  1
  O  O30  1  0.541060  0.082621  0.759359  1
  O  O31  1  0.458439  0.541060  0.259359  1
  O  O32  1  0.082621  0.541561  0.259359  1
  O  O33  1  0.917379  0.458439  0.759359  1
  O  O34  1  0.541561  0.458940  0.759359  1
  O  O35  1  0.458940  0.917379  0.259359  1
