# generated using pymatgen
data_AuSe
_symmetry_space_group_name_H-M   'P 1'
_cell_length_a   6.57338519
_cell_length_b   6.57338519
_cell_length_c   8.83547278
_cell_angle_alpha   78.98273894
_cell_angle_beta   101.01726106
_cell_angle_gamma   146.46663320
_symmetry_Int_Tables_number   1
_chemical_formula_structural   AuSe
_chemical_formula_sum   'Au4 Se4'
_cell_volume   206.65790230
_cell_formula_units_Z   4
loop_
 _symmetry_equiv_pos_site_id
 _symmetry_equiv_pos_as_xyz
  1  'x, y, z'
loop_
 _atom_site_type_symbol
 _atom_site_label
 _atom_site_symmetry_multiplicity
 _atom_site_fract_x
 _atom_site_fract_y
 _atom_site_fract_z
 _atom_site_occupancy
  Au  Au0  1  0.968458  0.031542  0.712732  1
  Au  Au1  1  0.031542  0.968458  0.287268  1
  Au  Au2  1  0.649163  0.350837  0.017017  1
  Au  Au3  1  0.350837  0.649163  0.982983  1
  Se  Se4  1  0.604263  0.395737  0.732295  1
  Se  Se5  1  0.333192  0.666808  0.699200  1
  Se  Se6  1  0.666808  0.333192  0.300800  1
  Se  Se7  1  0.395737  0.604263  0.267705  1
