# generated using pymatgen
data_CsV(SO4)2
_symmetry_space_group_name_H-M   'P 1'
_cell_length_a   4.97878075
_cell_length_b   4.97878075
_cell_length_c   9.00184402
_cell_angle_alpha   90.00000000
_cell_angle_beta   90.00000000
_cell_angle_gamma   120.00000000
_symmetry_Int_Tables_number   1
_chemical_formula_structural   CsV(SO4)2
_chemical_formula_sum   'Cs1 V1 S2 O8'
_cell_volume   193.24493470
_cell_formula_units_Z   1
loop_
 _symmetry_equiv_pos_site_id
 _symmetry_equiv_pos_as_xyz
  1  'x, y, z'
loop_
 _atom_site_type_symbol
 _atom_site_label
 _atom_site_symmetry_multiplicity
 _atom_site_fract_x
 _atom_site_fract_y
 _atom_site_fract_z
 _atom_site_occupancy
  Cs  Cs0  1  0.000000  0.000000  0.000000  1
  V  V1  1  0.000000  0.000000  0.500000  1
  S  S2  1  0.666667  0.333333  0.689889  1
  S  S3  1  0.333333  0.666667  0.310111  1
  O  O4  1  0.666667  0.333333  0.852315  1
  O  O5  1  0.077081  0.714842  0.365976  1
  O  O6  1  0.333333  0.666667  0.147685  1
  O  O7  1  0.714842  0.637761  0.634024  1
  O  O8  1  0.922919  0.285158  0.634024  1
  O  O9  1  0.637761  0.922919  0.365976  1
  O  O10  1  0.285158  0.362239  0.365976  1
  O  O11  1  0.362239  0.077081  0.634024  1
