# generated using pymatgen
data_TaCo2
_symmetry_space_group_name_H-M   'P 1'
_cell_length_a   4.75240382
_cell_length_b   4.75240382
_cell_length_c   15.47540010
_cell_angle_alpha   90.00000000
_cell_angle_beta   90.00000000
_cell_angle_gamma   120.00000000
_symmetry_Int_Tables_number   1
_chemical_formula_structural   TaCo2
_chemical_formula_sum   'Ta8 Co16'
_cell_volume   302.69077888
_cell_formula_units_Z   8
loop_
 _symmetry_equiv_pos_site_id
 _symmetry_equiv_pos_as_xyz
  1  'x, y, z'
loop_
 _atom_site_type_symbol
 _atom_site_label
 _atom_site_symmetry_multiplicity
 _atom_site_fract_x
 _atom_site_fract_y
 _atom_site_fract_z
 _atom_site_occupancy
  Ta  Ta0  1  0.333333  0.666667  0.844178  1
  Ta  Ta1  1  0.000000  0.000000  0.092366  1
  Ta  Ta2  1  0.666667  0.333333  0.155822  1
  Ta  Ta3  1  0.000000  0.000000  0.907634  1
  Ta  Ta4  1  0.000000  0.000000  0.592366  1
  Ta  Ta5  1  0.000000  0.000000  0.407634  1
  Ta  Ta6  1  0.666667  0.333333  0.344178  1
  Ta  Ta7  1  0.333333  0.666667  0.655822  1
  Co  Co8  1  0.500000  0.000000  0.000000  1
  Co  Co9  1  0.834856  0.165144  0.750000  1
  Co  Co10  1  0.666667  0.333333  0.874123  1
  Co  Co11  1  0.165144  0.330288  0.250000  1
  Co  Co12  1  0.330288  0.165144  0.750000  1
  Co  Co13  1  0.834856  0.669712  0.750000  1
  Co  Co14  1  0.000000  0.500000  0.000000  1
  Co  Co15  1  0.669712  0.834856  0.250000  1
  Co  Co16  1  0.500000  0.000000  0.500000  1
  Co  Co17  1  0.165144  0.834856  0.250000  1
  Co  Co18  1  0.333333  0.666667  0.125877  1
  Co  Co19  1  0.500000  0.500000  0.000000  1
  Co  Co20  1  0.666667  0.333333  0.625877  1
  Co  Co21  1  0.000000  0.500000  0.500000  1
  Co  Co22  1  0.333333  0.666667  0.374123  1
  Co  Co23  1  0.500000  0.500000  0.500000  1
