# generated using pymatgen
data_Sm(FeSi)2
_symmetry_space_group_name_H-M   'P 1'
_cell_length_a   5.58488642
_cell_length_b   5.58488642
_cell_length_c   5.58488642
_cell_angle_alpha   138.00552202
_cell_angle_beta   138.00552202
_cell_angle_gamma   60.89454144
_symmetry_Int_Tables_number   1
_chemical_formula_structural   Sm(FeSi)2
_chemical_formula_sum   'Sm1 Fe2 Si2'
_cell_volume   77.12725506
_cell_formula_units_Z   1
loop_
 _symmetry_equiv_pos_site_id
 _symmetry_equiv_pos_as_xyz
  1  'x, y, z'
loop_
 _atom_site_type_symbol
 _atom_site_label
 _atom_site_symmetry_multiplicity
 _atom_site_fract_x
 _atom_site_fract_y
 _atom_site_fract_z
 _atom_site_occupancy
  Sm  Sm0  1  0.000000  0.000000  0.000000  1
  Fe  Fe1  1  0.750000  0.250000  0.500000  1
  Fe  Fe2  1  0.250000  0.750000  0.500000  1
  Si  Si3  1  0.362173  0.362173  0.000000  1
  Si  Si4  1  0.637827  0.637827  0.000000  1
