# generated using pymatgen
data_Cs2Sn2Hg3S8
_symmetry_space_group_name_H-M   'P 1'
_cell_length_a   6.96670259
_cell_length_b   8.14256860
_cell_length_c   9.53380961
_cell_angle_alpha   108.22884345
_cell_angle_beta   92.89387275
_cell_angle_gamma   108.64864881
_symmetry_Int_Tables_number   1
_chemical_formula_structural   Cs2Sn2Hg3S8
_chemical_formula_sum   'Cs2 Sn2 Hg3 S8'
_cell_volume   479.85671447
_cell_formula_units_Z   1
loop_
 _symmetry_equiv_pos_site_id
 _symmetry_equiv_pos_as_xyz
  1  'x, y, z'
loop_
 _atom_site_type_symbol
 _atom_site_label
 _atom_site_symmetry_multiplicity
 _atom_site_fract_x
 _atom_site_fract_y
 _atom_site_fract_z
 _atom_site_occupancy
  Cs  Cs0  1  0.111088  0.457481  0.746173  1
  Cs  Cs1  1  0.888912  0.542519  0.253827  1
  Sn  Sn2  1  0.742891  0.838436  0.740910  1
  Sn  Sn3  1  0.257109  0.161564  0.259090  1
  Hg  Hg4  1  0.332797  0.082110  0.883309  1
  Hg  Hg5  1  0.500000  0.000000  0.500000  1
  Hg  Hg6  1  0.667203  0.917890  0.116691  1
  S  S7  1  0.926394  0.135971  0.339546  1
  S  S8  1  0.337077  0.354161  0.106713  1
  S  S9  1  0.498747  0.291908  0.496414  1
  S  S10  1  0.720465  0.134320  0.881274  1
  S  S11  1  0.501253  0.708092  0.503586  1
  S  S12  1  0.279535  0.865680  0.118726  1
  S  S13  1  0.073606  0.864029  0.660454  1
  S  S14  1  0.662923  0.645839  0.893287  1
