# generated using pymatgen
data_Nb6Co16Ge7
_symmetry_space_group_name_H-M   'P 1'
_cell_length_a   8.04937827
_cell_length_b   8.04937827
_cell_length_c   8.04937827
_cell_angle_alpha   60.00000000
_cell_angle_beta   60.00000000
_cell_angle_gamma   60.00000000
_symmetry_Int_Tables_number   1
_chemical_formula_structural   Nb6Co16Ge7
_chemical_formula_sum   'Nb6 Co16 Ge7'
_cell_volume   368.78395088
_cell_formula_units_Z   1
loop_
 _symmetry_equiv_pos_site_id
 _symmetry_equiv_pos_as_xyz
  1  'x, y, z'
loop_
 _atom_site_type_symbol
 _atom_site_label
 _atom_site_symmetry_multiplicity
 _atom_site_fract_x
 _atom_site_fract_y
 _atom_site_fract_z
 _atom_site_occupancy
  Nb  Nb0  1  0.201104  0.798896  0.201104  1
  Nb  Nb1  1  0.798896  0.798896  0.201104  1
  Nb  Nb2  1  0.798896  0.201104  0.798896  1
  Nb  Nb3  1  0.201104  0.201104  0.798896  1
  Nb  Nb4  1  0.201104  0.798896  0.798896  1
  Nb  Nb5  1  0.798896  0.201104  0.201104  1
  Co  Co6  1  0.857160  0.380947  0.380947  1
  Co  Co7  1  0.834170  0.834170  0.497489  1
  Co  Co8  1  0.619053  0.619053  0.619053  1
  Co  Co9  1  0.165830  0.165830  0.165830  1
  Co  Co10  1  0.834170  0.834170  0.834170  1
  Co  Co11  1  0.502511  0.165830  0.165830  1
  Co  Co12  1  0.497489  0.834170  0.834170  1
  Co  Co13  1  0.380947  0.380947  0.380947  1
  Co  Co14  1  0.834170  0.497489  0.834170  1
  Co  Co15  1  0.142840  0.619053  0.619053  1
  Co  Co16  1  0.380947  0.857160  0.380947  1
  Co  Co17  1  0.619053  0.619053  0.142840  1
  Co  Co18  1  0.619053  0.142840  0.619053  1
  Co  Co19  1  0.165830  0.502511  0.165830  1
  Co  Co20  1  0.380947  0.380947  0.857160  1
  Co  Co21  1  0.165830  0.165830  0.502511  1
  Ge  Ge22  1  0.500000  0.000000  0.000000  1
  Ge  Ge23  1  1.000000  1.000000  0.500000  1
  Ge  Ge24  1  0.500000  0.500000  0.500000  1
  Ge  Ge25  1  0.500000  0.500000  1.000000  1
  Ge  Ge26  1  1.000000  0.500000  0.500000  1
  Ge  Ge27  1  0.500000  0.000000  0.500000  1
  Ge  Ge28  1  0.000000  0.500000  1.000000  1
