# generated using pymatgen
data_CsErTa6Cl18
_symmetry_space_group_name_H-M   'P 1'
_cell_length_a   9.40802481
_cell_length_b   9.40802481
_cell_length_c   17.47716462
_cell_angle_alpha   90.00000000
_cell_angle_beta   90.00000000
_cell_angle_gamma   120.00000000
_symmetry_Int_Tables_number   1
_chemical_formula_structural   CsErTa6Cl18
_chemical_formula_sum   'Cs2 Er2 Ta12 Cl36'
_cell_volume   1339.67211269
_cell_formula_units_Z   2
loop_
 _symmetry_equiv_pos_site_id
 _symmetry_equiv_pos_as_xyz
  1  'x, y, z'
loop_
 _atom_site_type_symbol
 _atom_site_label
 _atom_site_symmetry_multiplicity
 _atom_site_fract_x
 _atom_site_fract_y
 _atom_site_fract_z
 _atom_site_occupancy
  Cs  Cs0  1  0.333333  0.666667  0.750000  1
  Cs  Cs1  1  0.666667  0.333333  0.250000  1
  Er  Er2  1  0.666667  0.333333  0.750000  1
  Er  Er3  1  0.333333  0.666667  0.250000  1
  Ta  Ta4  1  0.040864  0.194022  0.067277  1
  Ta  Ta5  1  0.153159  0.959136  0.067277  1
  Ta  Ta6  1  0.805978  0.959136  0.432723  1
  Ta  Ta7  1  0.846841  0.040864  0.932723  1
  Ta  Ta8  1  0.846841  0.805978  0.567277  1
  Ta  Ta9  1  0.194022  0.040864  0.567277  1
  Ta  Ta10  1  0.959136  0.153159  0.567277  1
  Ta  Ta11  1  0.040864  0.846841  0.432723  1
  Ta  Ta12  1  0.153159  0.194022  0.432723  1
  Ta  Ta13  1  0.194022  0.153159  0.932723  1
  Ta  Ta14  1  0.805978  0.846841  0.067277  1
  Ta  Ta15  1  0.959136  0.805978  0.932723  1
  Cl  Cl16  1  0.184946  0.951611  0.840107  1
  Cl  Cl17  1  0.861869  0.584906  0.498632  1
  Cl  Cl18  1  0.233334  0.184946  0.159893  1
  Cl  Cl19  1  0.723037  0.584906  0.001368  1
  Cl  Cl20  1  0.184946  0.233334  0.659893  1
  Cl  Cl21  1  0.276963  0.861869  0.501368  1
  Cl  Cl22  1  0.723037  0.138131  0.498632  1
  Cl  Cl23  1  0.355808  0.908083  0.161834  1
  Cl  Cl24  1  0.138131  0.415094  0.501368  1
  Cl  Cl25  1  0.644192  0.091917  0.838166  1
  Cl  Cl26  1  0.447725  0.355808  0.838166  1
  Cl  Cl27  1  0.815054  0.048389  0.159893  1
  Cl  Cl28  1  0.584906  0.861869  0.998632  1
  Cl  Cl29  1  0.091917  0.644192  0.338166  1
  Cl  Cl30  1  0.138131  0.723037  0.998632  1
  Cl  Cl31  1  0.415094  0.276963  0.498632  1
  Cl  Cl32  1  0.048389  0.233334  0.840107  1
  Cl  Cl33  1  0.276963  0.415094  0.998632  1
  Cl  Cl34  1  0.815054  0.766666  0.340107  1
  Cl  Cl35  1  0.951611  0.184946  0.340107  1
  Cl  Cl36  1  0.355808  0.447725  0.338166  1
  Cl  Cl37  1  0.766666  0.951611  0.659893  1
  Cl  Cl38  1  0.552275  0.908083  0.338166  1
  Cl  Cl39  1  0.951611  0.766666  0.159893  1
  Cl  Cl40  1  0.415094  0.138131  0.001368  1
  Cl  Cl41  1  0.048389  0.815054  0.659893  1
  Cl  Cl42  1  0.552275  0.644192  0.161834  1
  Cl  Cl43  1  0.908083  0.355808  0.661834  1
  Cl  Cl44  1  0.644192  0.552275  0.661834  1
  Cl  Cl45  1  0.447725  0.091917  0.661834  1
  Cl  Cl46  1  0.233334  0.048389  0.340107  1
  Cl  Cl47  1  0.908083  0.552275  0.838166  1
  Cl  Cl48  1  0.584906  0.723037  0.501368  1
  Cl  Cl49  1  0.861869  0.276963  0.001368  1
  Cl  Cl50  1  0.766666  0.815054  0.840107  1
  Cl  Cl51  1  0.091917  0.447725  0.161834  1
