# generated using pymatgen
data_Fe5O8
_symmetry_space_group_name_H-M   'P 1'
_cell_length_a   8.41966639
_cell_length_b   8.41966639
_cell_length_c   8.41966639
_cell_angle_alpha   90.00000000
_cell_angle_beta   90.00000000
_cell_angle_gamma   90.00000000
_symmetry_Int_Tables_number   1
_chemical_formula_structural   Fe5O8
_chemical_formula_sum   'Fe20 O32'
_cell_volume   596.87673557
_cell_formula_units_Z   4
loop_
 _symmetry_equiv_pos_site_id
 _symmetry_equiv_pos_as_xyz
  1  'x, y, z'
loop_
 _atom_site_type_symbol
 _atom_site_label
 _atom_site_symmetry_multiplicity
 _atom_site_fract_x
 _atom_site_fract_y
 _atom_site_fract_z
 _atom_site_occupancy
  Fe  Fe0  1  0.996920  0.996920  0.996920  1
  Fe  Fe1  1  0.003080  0.496920  0.503080  1
  Fe  Fe2  1  0.135233  0.114767  0.625000  1
  Fe  Fe3  1  0.114767  0.625000  0.135233  1
  Fe  Fe4  1  0.125000  0.364767  0.885233  1
  Fe  Fe5  1  0.253080  0.253080  0.253080  1
  Fe  Fe6  1  0.246920  0.746920  0.753080  1
  Fe  Fe7  1  0.385233  0.375000  0.635233  1
  Fe  Fe8  1  0.375000  0.635233  0.385233  1
  Fe  Fe9  1  0.364767  0.885233  0.125000  1
  Fe  Fe10  1  0.503080  0.003080  0.496920  1
  Fe  Fe11  1  0.496920  0.503080  0.003080  1
  Fe  Fe12  1  0.625000  0.135233  0.114767  1
  Fe  Fe13  1  0.635233  0.385233  0.375000  1
  Fe  Fe14  1  0.614767  0.875000  0.864767  1
  Fe  Fe15  1  0.753080  0.246920  0.746920  1
  Fe  Fe16  1  0.746920  0.753080  0.246920  1
  Fe  Fe17  1  0.885233  0.125000  0.364767  1
  Fe  Fe18  1  0.864767  0.614767  0.875000  1
  Fe  Fe19  1  0.875000  0.864767  0.614767  1
  O  O20  1  0.143998  0.382468  0.118132  1
  O  O21  1  0.142254  0.357746  0.642254  1
  O  O22  1  0.131868  0.867532  0.106002  1
  O  O23  1  0.118132  0.143998  0.382468  1
  O  O24  1  0.117532  0.881868  0.643998  1
  O  O25  1  0.106002  0.131868  0.867532  1
  O  O26  1  0.132468  0.606002  0.368132  1
  O  O27  1  0.107746  0.607746  0.892254  1
  O  O28  1  0.382468  0.118132  0.143998  1
  O  O29  1  0.392254  0.392254  0.392254  1
  O  O30  1  0.368132  0.132468  0.606002  1
  O  O31  1  0.367532  0.393998  0.868132  1
  O  O32  1  0.357746  0.642254  0.142254  1
  O  O33  1  0.393998  0.868132  0.367532  1
  O  O34  1  0.356002  0.617532  0.618132  1
  O  O35  1  0.381868  0.856002  0.882468  1
  O  O36  1  0.642254  0.142254  0.357746  1
  O  O37  1  0.606002  0.368132  0.132468  1
  O  O38  1  0.618132  0.356002  0.617532  1
  O  O39  1  0.617532  0.618132  0.356002  1
  O  O40  1  0.643998  0.117532  0.881868  1
  O  O41  1  0.631868  0.632468  0.893998  1
  O  O42  1  0.607746  0.892254  0.107746  1
  O  O43  1  0.632468  0.893998  0.631868  1
  O  O44  1  0.867532  0.106002  0.131868  1
  O  O45  1  0.892254  0.107746  0.607746  1
  O  O46  1  0.868132  0.367532  0.393998  1
  O  O47  1  0.881868  0.643998  0.117532  1
  O  O48  1  0.893998  0.631868  0.632468  1
  O  O49  1  0.882468  0.381868  0.856002  1
  O  O50  1  0.856002  0.882468  0.381868  1
  O  O51  1  0.857746  0.857746  0.857746  1
