# generated using pymatgen
data_KTaTe3
_symmetry_space_group_name_H-M   'P 1'
_cell_length_a   7.98636523
_cell_length_b   14.26880863
_cell_length_c   31.32861632
_cell_angle_alpha   90.00000000
_cell_angle_beta   90.07541675
_cell_angle_gamma   90.00000000
_symmetry_Int_Tables_number   1
_chemical_formula_structural   KTaTe3
_chemical_formula_sum   'K20 Ta20 Te60'
_cell_volume   3570.07811288
_cell_formula_units_Z   20
loop_
 _symmetry_equiv_pos_site_id
 _symmetry_equiv_pos_as_xyz
  1  'x, y, z'
loop_
 _atom_site_type_symbol
 _atom_site_label
 _atom_site_symmetry_multiplicity
 _atom_site_fract_x
 _atom_site_fract_y
 _atom_site_fract_z
 _atom_site_occupancy
  K  K0  1  0.281415  0.948194  0.450441  1
  K  K1  1  0.718585  0.051806  0.549559  1
  K  K2  1  0.281415  0.551806  0.950441  1
  K  K3  1  0.236628  0.910312  0.858798  1
  K  K4  1  0.224255  0.965316  0.648495  1
  K  K5  1  0.211699  0.892340  0.249723  1
  K  K6  1  0.718585  0.448194  0.049559  1
  K  K7  1  0.788301  0.392340  0.250277  1
  K  K8  1  0.227011  0.880606  0.050743  1
  K  K9  1  0.772989  0.119394  0.949257  1
  K  K10  1  0.763372  0.410312  0.641202  1
  K  K11  1  0.224255  0.534684  0.148495  1
  K  K12  1  0.775745  0.034684  0.351505  1
  K  K13  1  0.763372  0.089688  0.141202  1
  K  K14  1  0.772989  0.380606  0.449257  1
  K  K15  1  0.227011  0.619394  0.550743  1
  K  K16  1  0.788301  0.107660  0.750277  1
  K  K17  1  0.236628  0.589688  0.358798  1
  K  K18  1  0.775745  0.465316  0.851505  1
  K  K19  1  0.211699  0.607660  0.749723  1
  Ta  Ta20  1  0.775279  0.817116  0.804871  1
  Ta  Ta21  1  0.313622  0.256820  0.896329  1
  Ta  Ta22  1  0.766362  0.757903  0.908749  1
  Ta  Ta23  1  0.313622  0.243180  0.396329  1
  Ta  Ta24  1  0.686378  0.756820  0.603671  1
  Ta  Ta25  1  0.650436  0.786285  0.701786  1
  Ta  Ta26  1  0.650436  0.713715  0.201786  1
  Ta  Ta27  1  0.224721  0.317116  0.695129  1
  Ta  Ta28  1  0.719828  0.746698  0.508150  1
  Ta  Ta29  1  0.233638  0.242097  0.091251  1
  Ta  Ta30  1  0.280172  0.246698  0.991850  1
  Ta  Ta31  1  0.686378  0.743180  0.103671  1
  Ta  Ta32  1  0.766362  0.742097  0.408749  1
  Ta  Ta33  1  0.349564  0.213715  0.298214  1
  Ta  Ta34  1  0.349564  0.286285  0.798214  1
  Ta  Ta35  1  0.224721  0.182884  0.195129  1
  Ta  Ta36  1  0.233638  0.257903  0.591251  1
  Ta  Ta37  1  0.280172  0.253302  0.491850  1
  Ta  Ta38  1  0.775279  0.682884  0.304871  1
  Ta  Ta39  1  0.719828  0.753302  0.008150  1
  Te  Te40  1  0.542061  0.216174  0.053919  1
  Te  Te41  1  0.477189  0.621594  0.263730  1
  Te  Te42  1  0.320699  0.088916  0.940638  1
  Te  Te43  1  0.525511  0.690725  0.846908  1
  Te  Te44  1  0.263526  0.430739  0.850083  1
  Te  Te45  1  0.002097  0.197972  0.651628  1
  Te  Te46  1  0.679143  0.861872  0.263651  1
  Te  Te47  1  0.542061  0.283826  0.553919  1
  Te  Te48  1  0.865877  0.845576  0.167346  1
  Te  Te49  1  0.614978  0.268358  0.345210  1
  Te  Te50  1  0.983476  0.634800  0.244023  1
  Te  Te51  1  0.961543  0.825961  0.560881  1
  Te  Te52  1  0.679301  0.911084  0.059362  1
  Te  Te53  1  0.067283  0.121861  0.037590  1
  Te  Te54  1  0.838616  0.602802  0.955028  1
  Te  Te55  1  0.457939  0.716174  0.446081  1
  Te  Te56  1  0.161384  0.397198  0.044972  1
  Te  Te57  1  0.134123  0.154424  0.832654  1
  Te  Te58  1  0.997903  0.802028  0.348372  1
  Te  Te59  1  0.385022  0.768358  0.154790  1
  Te  Te60  1  0.016524  0.134800  0.255977  1
  Te  Te61  1  0.522811  0.378406  0.736270  1
  Te  Te62  1  0.385022  0.731642  0.654790  1
  Te  Te63  1  0.263526  0.069261  0.350083  1
  Te  Te64  1  0.679143  0.638128  0.763651  1
  Te  Te65  1  0.038457  0.174039  0.439119  1
  Te  Te66  1  0.038457  0.325961  0.939119  1
  Te  Te67  1  0.932717  0.878139  0.962410  1
  Te  Te68  1  0.320699  0.411084  0.440638  1
  Te  Te69  1  0.477189  0.878406  0.763730  1
  Te  Te70  1  0.161384  0.102802  0.544972  1
  Te  Te71  1  0.750882  0.552877  0.364285  1
  Te  Te72  1  0.002097  0.302028  0.151628  1
  Te  Te73  1  0.249118  0.052877  0.135715  1
  Te  Te74  1  0.522811  0.121594  0.236270  1
  Te  Te75  1  0.320857  0.138128  0.736349  1
  Te  Te76  1  0.134123  0.345576  0.332654  1
  Te  Te77  1  0.736474  0.930739  0.649917  1
  Te  Te78  1  0.983476  0.865200  0.744023  1
  Te  Te79  1  0.997903  0.697972  0.848372  1
  Te  Te80  1  0.932717  0.621861  0.462410  1
  Te  Te81  1  0.474489  0.309275  0.153092  1
  Te  Te82  1  0.614978  0.231642  0.845210  1
  Te  Te83  1  0.067283  0.378139  0.537590  1
  Te  Te84  1  0.541399  0.342611  0.952012  1
  Te  Te85  1  0.320857  0.361872  0.236349  1
  Te  Te86  1  0.016524  0.365200  0.755977  1
  Te  Te87  1  0.961543  0.674039  0.060881  1
  Te  Te88  1  0.249118  0.447123  0.635715  1
  Te  Te89  1  0.458601  0.842611  0.547988  1
  Te  Te90  1  0.541399  0.157389  0.452012  1
  Te  Te91  1  0.679301  0.588916  0.559362  1
  Te  Te92  1  0.458601  0.657389  0.047988  1
  Te  Te93  1  0.457939  0.783826  0.946081  1
  Te  Te94  1  0.525511  0.809275  0.346908  1
  Te  Te95  1  0.750882  0.947123  0.864285  1
  Te  Te96  1  0.838616  0.897198  0.455028  1
  Te  Te97  1  0.736474  0.569261  0.149917  1
  Te  Te98  1  0.474489  0.190725  0.653092  1
  Te  Te99  1  0.865877  0.654424  0.667346  1
