# generated using pymatgen
data_GdP4H4NO12
_symmetry_space_group_name_H-M   'P 1'
_cell_length_a   10.51559910
_cell_length_b   9.11267792
_cell_length_c   12.82409760
_cell_angle_alpha   90.00000000
_cell_angle_beta   124.81522991
_cell_angle_gamma   90.00000000
_symmetry_Int_Tables_number   1
_chemical_formula_structural   GdP4H4NO12
_chemical_formula_sum   'Gd4 P16 H16 N4 O48'
_cell_volume   1008.90129361
_cell_formula_units_Z   4
loop_
 _symmetry_equiv_pos_site_id
 _symmetry_equiv_pos_as_xyz
  1  'x, y, z'
loop_
 _atom_site_type_symbol
 _atom_site_label
 _atom_site_symmetry_multiplicity
 _atom_site_fract_x
 _atom_site_fract_y
 _atom_site_fract_z
 _atom_site_occupancy
  Gd  Gd0  1  0.185904  0.724331  0.187594  1
  Gd  Gd1  1  0.814096  0.224331  0.312406  1
  Gd  Gd2  1  0.814096  0.275669  0.812406  1
  Gd  Gd3  1  0.185904  0.775669  0.687594  1
  P  P4  1  0.888192  0.588795  0.242622  1
  P  P5  1  0.111808  0.088795  0.257378  1
  P  P6  1  0.819182  0.825815  0.360131  1
  P  P7  1  0.698390  0.394212  0.019961  1
  P  P8  1  0.180818  0.174185  0.639869  1
  P  P9  1  0.888192  0.911205  0.742622  1
  P  P10  1  0.301610  0.605788  0.980039  1
  P  P11  1  0.478141  0.027574  0.728228  1
  P  P12  1  0.698390  0.105788  0.519961  1
  P  P13  1  0.301610  0.894212  0.480039  1
  P  P14  1  0.521859  0.527574  0.771772  1
  P  P15  1  0.819182  0.674185  0.860131  1
  P  P16  1  0.478141  0.472426  0.228228  1
  P  P17  1  0.521859  0.972426  0.271772  1
  P  P18  1  0.111808  0.411205  0.757378  1
  P  P19  1  0.180818  0.325815  0.139869  1
  H  H20  1  0.227621  0.069249  0.863445  1
  H  H21  1  0.255071  0.534422  0.483424  1
  H  H22  1  0.626600  0.893102  0.979793  1
  H  H23  1  0.373400  0.106898  0.020207  1
  H  H24  1  0.772379  0.569249  0.636555  1
  H  H25  1  0.744929  0.465578  0.516576  1
  H  H26  1  0.184910  0.364120  0.463752  1
  H  H27  1  0.815090  0.635880  0.536248  1
  H  H28  1  0.772379  0.930751  0.136555  1
  H  H29  1  0.626600  0.606898  0.479793  1
  H  H30  1  0.744929  0.034422  0.016576  1
  H  H31  1  0.815090  0.864120  0.036248  1
  H  H32  1  0.227621  0.430751  0.363445  1
  H  H33  1  0.255071  0.965578  0.983424  1
  H  H34  1  0.184910  0.135880  0.963752  1
  H  H35  1  0.373400  0.393102  0.520207  1
  N  N36  1  0.261054  0.070451  0.956773  1
  N  N37  1  0.261054  0.429549  0.456773  1
  N  N38  1  0.738946  0.929549  0.043227  1
  N  N39  1  0.738946  0.570451  0.543227  1
  O  O40  1  0.364949  0.903096  0.193257  1
  O  O41  1  0.650397  0.657909  0.834589  1
  O  O42  1  0.799487  0.159704  0.480254  1
  O  O43  1  0.979884  0.326668  0.741633  1
  O  O44  1  0.435460  0.582407  0.291378  1
  O  O45  1  0.076026  0.235610  0.508175  1
  O  O46  1  0.650397  0.842091  0.334589  1
  O  O47  1  0.635051  0.096904  0.806743  1
  O  O48  1  0.222117  0.200906  0.244173  1
  O  O49  1  0.923974  0.735610  0.991825  1
  O  O50  1  0.233810  0.047921  0.404718  1
  O  O51  1  0.662172  0.291272  0.091118  1
  O  O52  1  0.635051  0.403096  0.306743  1
  O  O53  1  0.979884  0.173332  0.241633  1
  O  O54  1  0.200513  0.840296  0.519746  1
  O  O55  1  0.200513  0.659704  0.019746  1
  O  O56  1  0.766190  0.547921  0.095282  1
  O  O57  1  0.349603  0.342091  0.165411  1
  O  O58  1  0.020116  0.826668  0.758367  1
  O  O59  1  0.139847  0.036958  0.679905  1
  O  O60  1  0.222117  0.299094  0.744173  1
  O  O61  1  0.020116  0.673332  0.258367  1
  O  O62  1  0.564540  0.417593  0.708622  1
  O  O63  1  0.777883  0.799094  0.755827  1
  O  O64  1  0.766190  0.952079  0.595282  1
  O  O65  1  0.349603  0.157909  0.665411  1
  O  O66  1  0.077055  0.956216  0.175805  1
  O  O67  1  0.799487  0.340296  0.980254  1
  O  O68  1  0.460985  0.955627  0.604676  1
  O  O69  1  0.233810  0.452079  0.904718  1
  O  O70  1  0.077055  0.543784  0.675805  1
  O  O71  1  0.860153  0.536958  0.820095  1
  O  O72  1  0.337828  0.708728  0.908882  1
  O  O73  1  0.539015  0.455627  0.895324  1
  O  O74  1  0.435460  0.917593  0.791378  1
  O  O75  1  0.777883  0.700906  0.255827  1
  O  O76  1  0.662172  0.208728  0.591118  1
  O  O77  1  0.564540  0.082407  0.208622  1
  O  O78  1  0.139847  0.463042  0.179905  1
  O  O79  1  0.922945  0.456216  0.324195  1
  O  O80  1  0.922945  0.043784  0.824195  1
  O  O81  1  0.337828  0.791272  0.408882  1
  O  O82  1  0.364949  0.596904  0.693257  1
  O  O83  1  0.539015  0.044373  0.395324  1
  O  O84  1  0.076026  0.264390  0.008175  1
  O  O85  1  0.860153  0.963042  0.320095  1
  O  O86  1  0.460985  0.544373  0.104676  1
  O  O87  1  0.923974  0.764390  0.491825  1
