# generated using pymatgen
data_Ce2Sn5
_symmetry_space_group_name_H-M   'P 1'
_cell_length_a   17.53071517
_cell_length_b   17.53071517
_cell_length_c   4.66437673
_cell_angle_alpha   90.00000000
_cell_angle_beta   90.00000000
_cell_angle_gamma   164.80284253
_symmetry_Int_Tables_number   1
_chemical_formula_structural   Ce2Sn5
_chemical_formula_sum   'Ce4 Sn10'
_cell_volume   375.77539501
_cell_formula_units_Z   2
loop_
 _symmetry_equiv_pos_site_id
 _symmetry_equiv_pos_as_xyz
  1  'x, y, z'
loop_
 _atom_site_type_symbol
 _atom_site_label
 _atom_site_symmetry_multiplicity
 _atom_site_fract_x
 _atom_site_fract_y
 _atom_site_fract_z
 _atom_site_occupancy
  Ce  Ce0  1  0.431622  0.568378  0.000000  1
  Ce  Ce1  1  0.568378  0.431622  0.000000  1
  Ce  Ce2  1  0.297219  0.702781  0.000000  1
  Ce  Ce3  1  0.702781  0.297219  1.000000  1
  Sn  Sn4  1  0.000000  0.000000  0.000000  1
  Sn  Sn5  1  0.500000  0.500000  0.500000  1
  Sn  Sn6  1  0.137473  0.862527  1.000000  1
  Sn  Sn7  1  0.862527  0.137473  0.000000  1
  Sn  Sn8  1  0.362140  0.637860  0.500000  1
  Sn  Sn9  1  0.637860  0.362140  0.500000  1
  Sn  Sn10  1  0.070427  0.929573  0.500000  1
  Sn  Sn11  1  0.929573  0.070427  0.500000  1
  Sn  Sn12  1  0.219852  0.780148  0.500000  1
  Sn  Sn13  1  0.780148  0.219852  0.500000  1
