# generated using pymatgen
data_ScIO
_symmetry_space_group_name_H-M   'P 1'
_cell_length_a   10.25530735
_cell_length_b   10.25530735
_cell_length_c   7.26309953
_cell_angle_alpha   86.83168891
_cell_angle_beta   93.16831109
_cell_angle_gamma   158.12803900
_symmetry_Int_Tables_number   1
_chemical_formula_structural   ScIO
_chemical_formula_sum   'Sc4 I4 O4'
_cell_volume   284.11602107
_cell_formula_units_Z   4
loop_
 _symmetry_equiv_pos_site_id
 _symmetry_equiv_pos_as_xyz
  1  'x, y, z'
loop_
 _atom_site_type_symbol
 _atom_site_label
 _atom_site_symmetry_multiplicity
 _atom_site_fract_x
 _atom_site_fract_y
 _atom_site_fract_z
 _atom_site_occupancy
  Sc  Sc0  1  0.702816  0.297184  0.617087  1
  Sc  Sc1  1  0.298481  0.701519  0.881895  1
  Sc  Sc2  1  0.297184  0.702816  0.382913  1
  Sc  Sc3  1  0.701519  0.298481  0.118105  1
  I  I4  1  0.893094  0.106906  0.648166  1
  I  I5  1  0.588712  0.411288  0.845373  1
  I  I6  1  0.411288  0.588712  0.154627  1
  I  I7  1  0.106906  0.893094  0.351834  1
  O  O8  1  0.754877  0.245123  0.371917  1
  O  O9  1  0.244615  0.755385  0.120163  1
  O  O10  1  0.245123  0.754877  0.628083  1
  O  O11  1  0.755385  0.244615  0.879837  1
