# generated using pymatgen
data_Ba2Sc2B4O11
_symmetry_space_group_name_H-M   'P 1'
_cell_length_a   9.37710485
_cell_length_b   9.37710485
_cell_length_c   6.42403915
_cell_angle_alpha   81.30785364
_cell_angle_beta   98.69214636
_cell_angle_gamma   119.40090165
_symmetry_Int_Tables_number   1
_chemical_formula_structural   Ba2Sc2B4O11
_chemical_formula_sum   'Ba4 Sc4 B8 O22'
_cell_volume   484.51783744
_cell_formula_units_Z   2
loop_
 _symmetry_equiv_pos_site_id
 _symmetry_equiv_pos_as_xyz
  1  'x, y, z'
loop_
 _atom_site_type_symbol
 _atom_site_label
 _atom_site_symmetry_multiplicity
 _atom_site_fract_x
 _atom_site_fract_y
 _atom_site_fract_z
 _atom_site_occupancy
  Ba  Ba0  1  0.471655  0.196558  0.424800  1
  Ba  Ba1  1  0.803442  0.528345  0.924800  1
  Ba  Ba2  1  0.196558  0.471655  0.075200  1
  Ba  Ba3  1  0.528345  0.803442  0.575200  1
  Sc  Sc4  1  0.000000  0.000000  0.500000  1
  Sc  Sc5  1  0.500000  0.000000  0.000000  1
  Sc  Sc6  1  1.000000  0.500000  0.500000  1
  Sc  Sc7  1  0.000000  0.000000  0.000000  1
  B  B8  1  0.278760  0.380066  0.588192  1
  B  B9  1  0.380066  0.278760  0.911808  1
  B  B10  1  0.829041  0.168751  0.745009  1
  B  B11  1  0.170959  0.831249  0.254991  1
  B  B12  1  0.168751  0.829041  0.754991  1
  B  B13  1  0.831249  0.170959  0.245009  1
  B  B14  1  0.721240  0.619934  0.411808  1
  B  B15  1  0.619934  0.721240  0.088192  1
  O  O16  1  0.785871  0.765932  0.497664  1
  O  O17  1  0.333318  0.929070  0.734617  1
  O  O18  1  0.072425  0.898076  0.794169  1
  O  O19  1  0.095149  0.663305  0.736586  1
  O  O20  1  0.762475  0.498182  0.478688  1
  O  O21  1  0.663305  0.095149  0.763414  1
  O  O22  1  0.070930  0.666682  0.234617  1
  O  O23  1  0.898076  0.072425  0.705831  1
  O  O24  1  0.904851  0.336695  0.263414  1
  O  O25  1  0.414253  0.414253  0.750000  1
  O  O26  1  0.237525  0.501818  0.521312  1
  O  O27  1  0.927575  0.101924  0.205831  1
  O  O28  1  0.585747  0.585747  0.250000  1
  O  O29  1  0.498182  0.762475  0.021312  1
  O  O30  1  0.101924  0.927575  0.294169  1
  O  O31  1  0.929070  0.333318  0.765383  1
  O  O32  1  0.765932  0.785871  0.002336  1
  O  O33  1  0.214129  0.234068  0.502336  1
  O  O34  1  0.234068  0.214129  0.997664  1
  O  O35  1  0.336695  0.904851  0.236586  1
  O  O36  1  0.501818  0.237525  0.978688  1
  O  O37  1  0.666682  0.070930  0.265383  1
