# generated using pymatgen
data_SbP(Cl3O)2
_symmetry_space_group_name_H-M   'P 1'
_cell_length_a   8.91593649
_cell_length_b   12.05493030
_cell_length_c   11.37702833
_cell_angle_alpha   90.00000000
_cell_angle_beta   108.78744972
_cell_angle_gamma   90.00000000
_symmetry_Int_Tables_number   1
_chemical_formula_structural   SbP(Cl3O)2
_chemical_formula_sum   'Sb4 P4 Cl24 O8'
_cell_volume   1157.66254557
_cell_formula_units_Z   4
loop_
 _symmetry_equiv_pos_site_id
 _symmetry_equiv_pos_as_xyz
  1  'x, y, z'
loop_
 _atom_site_type_symbol
 _atom_site_label
 _atom_site_symmetry_multiplicity
 _atom_site_fract_x
 _atom_site_fract_y
 _atom_site_fract_z
 _atom_site_occupancy
  Sb  Sb0  1  0.190743  0.538598  0.229520  1
  Sb  Sb1  1  0.190743  0.961402  0.729520  1
  Sb  Sb2  1  0.809257  0.038598  0.270480  1
  Sb  Sb3  1  0.809257  0.461402  0.770480  1
  P  P4  1  0.809928  0.594141  0.041542  1
  P  P5  1  0.190072  0.094141  0.458458  1
  P  P6  1  0.190072  0.405859  0.958458  1
  P  P7  1  0.809928  0.905859  0.541542  1
  Cl  Cl8  1  0.311701  0.706129  0.205161  1
  Cl  Cl9  1  0.958181  0.625901  0.785109  1
  Cl  Cl10  1  0.717732  0.737275  0.964937  1
  Cl  Cl11  1  0.688299  0.293871  0.794839  1
  Cl  Cl12  1  0.139767  0.597557  0.410473  1
  Cl  Cl13  1  0.565234  0.550252  0.669828  1
  Cl  Cl14  1  0.565234  0.949748  0.169828  1
  Cl  Cl15  1  0.434766  0.050252  0.830172  1
  Cl  Cl16  1  0.282268  0.237275  0.535063  1
  Cl  Cl17  1  0.282268  0.262725  0.035063  1
  Cl  Cl18  1  0.958181  0.874099  0.285109  1
  Cl  Cl19  1  0.315180  0.447780  0.848404  1
  Cl  Cl20  1  0.041819  0.374099  0.214891  1
  Cl  Cl21  1  0.315180  0.052220  0.348404  1
  Cl  Cl22  1  0.041819  0.125901  0.714891  1
  Cl  Cl23  1  0.139767  0.902443  0.910473  1
  Cl  Cl24  1  0.717732  0.762725  0.464937  1
  Cl  Cl25  1  0.684820  0.947780  0.651596  1
  Cl  Cl26  1  0.684820  0.552220  0.151596  1
  Cl  Cl27  1  0.860233  0.402443  0.589527  1
  Cl  Cl28  1  0.311701  0.793871  0.705161  1
  Cl  Cl29  1  0.688299  0.206129  0.294839  1
  Cl  Cl30  1  0.434766  0.449748  0.330172  1
  Cl  Cl31  1  0.860233  0.097557  0.089527  1
  O  O32  1  0.217446  0.497591  0.055137  1
  O  O33  1  0.981327  0.618980  0.118264  1
  O  O34  1  0.782554  0.997591  0.444863  1
  O  O35  1  0.782554  0.502409  0.944863  1
  O  O36  1  0.981327  0.881020  0.618264  1
  O  O37  1  0.018673  0.118980  0.381736  1
  O  O38  1  0.217446  0.002409  0.555137  1
  O  O39  1  0.018673  0.381020  0.881736  1
