# generated using pymatgen
data_K2MoH2(CO4)2
_symmetry_space_group_name_H-M   'P 1'
_cell_length_a   7.66104540
_cell_length_b   12.94994602
_cell_length_c   8.84385971
_cell_angle_alpha   90.00000000
_cell_angle_beta   93.96930400
_cell_angle_gamma   90.00000000
_symmetry_Int_Tables_number   1
_chemical_formula_structural   K2MoH2(CO4)2
_chemical_formula_sum   'K8 Mo4 H8 C8 O32'
_cell_volume   875.29578230
_cell_formula_units_Z   4
loop_
 _symmetry_equiv_pos_site_id
 _symmetry_equiv_pos_as_xyz
  1  'x, y, z'
loop_
 _atom_site_type_symbol
 _atom_site_label
 _atom_site_symmetry_multiplicity
 _atom_site_fract_x
 _atom_site_fract_y
 _atom_site_fract_z
 _atom_site_occupancy
  K  K0  1  0.686378  0.888461  0.104796  1
  K  K1  1  0.313622  0.111539  0.895204  1
  K  K2  1  0.774904  0.014452  0.639119  1
  K  K3  1  0.274904  0.485548  0.639119  1
  K  K4  1  0.225096  0.985548  0.360881  1
  K  K5  1  0.186378  0.611539  0.104796  1
  K  K6  1  0.725096  0.514452  0.360881  1
  K  K7  1  0.813622  0.388461  0.895204  1
  Mo  Mo8  1  0.939014  0.764995  0.444693  1
  Mo  Mo9  1  0.439014  0.735005  0.444693  1
  Mo  Mo10  1  0.560986  0.264995  0.555307  1
  Mo  Mo11  1  0.060986  0.235005  0.555307  1
  H  H12  1  0.238400  0.379866  0.954012  1
  H  H13  1  0.261600  0.879866  0.045988  1
  H  H14  1  0.434393  0.385327  0.005042  1
  H  H15  1  0.934393  0.114673  0.005042  1
  H  H16  1  0.065607  0.885327  0.994958  1
  H  H17  1  0.738400  0.120134  0.954012  1
  H  H18  1  0.761600  0.620134  0.045988  1
  H  H19  1  0.565607  0.614673  0.994958  1
  C  C20  1  0.571991  0.247754  0.207867  1
  C  C21  1  0.928009  0.747754  0.792133  1
  C  C22  1  0.032719  0.363832  0.262588  1
  C  C23  1  0.532719  0.136168  0.262588  1
  C  C24  1  0.071991  0.252246  0.207867  1
  C  C25  1  0.967281  0.636168  0.737412  1
  C  C26  1  0.467281  0.863832  0.737412  1
  C  C27  1  0.428009  0.752246  0.792133  1
  O  O28  1  0.378885  0.607919  0.388212  1
  O  O29  1  0.822659  0.220687  0.522919  1
  O  O30  1  0.529821  0.125704  0.407404  1
  O  O31  1  0.621115  0.392081  0.611788  1
  O  O32  1  0.498608  0.934128  0.831711  1
  O  O33  1  0.998608  0.565872  0.831711  1
  O  O34  1  0.088617  0.184619  0.313981  1
  O  O35  1  0.501392  0.065872  0.168289  1
  O  O36  1  0.923226  0.691222  0.276933  1
  O  O37  1  0.970179  0.625704  0.592596  1
  O  O38  1  0.162069  0.927366  0.041154  1
  O  O39  1  0.081032  0.234743  0.069269  1
  O  O40  1  0.878885  0.892081  0.388212  1
  O  O41  1  0.423226  0.808778  0.276933  1
  O  O42  1  0.322659  0.279313  0.522919  1
  O  O43  1  0.418968  0.734743  0.930731  1
  O  O44  1  0.662069  0.572634  0.041154  1
  O  O45  1  0.576774  0.191222  0.723067  1
  O  O46  1  0.076774  0.308778  0.723067  1
  O  O47  1  0.581032  0.265257  0.069269  1
  O  O48  1  0.911383  0.815381  0.686019  1
  O  O49  1  0.470179  0.874296  0.592596  1
  O  O50  1  0.588617  0.315381  0.313981  1
  O  O51  1  0.029821  0.374296  0.407404  1
  O  O52  1  0.121115  0.107919  0.611788  1
  O  O53  1  0.001392  0.434128  0.168289  1
  O  O54  1  0.677341  0.720687  0.477081  1
  O  O55  1  0.411383  0.684619  0.686019  1
  O  O56  1  0.918968  0.765257  0.930731  1
  O  O57  1  0.177341  0.779313  0.477081  1
  O  O58  1  0.337931  0.427366  0.958846  1
  O  O59  1  0.837931  0.072634  0.958846  1
