# generated using pymatgen
data_W2NCl8
_symmetry_space_group_name_H-M   'P 1'
_cell_length_a   6.70367317
_cell_length_b   6.75469685
_cell_length_c   7.05456317
_cell_angle_alpha   89.95334366
_cell_angle_beta   97.80085523
_cell_angle_gamma   97.03723443
_symmetry_Int_Tables_number   1
_chemical_formula_structural   W2NCl8
_chemical_formula_sum   'W2 N1 Cl8'
_cell_volume   314.05871739
_cell_formula_units_Z   1
loop_
 _symmetry_equiv_pos_site_id
 _symmetry_equiv_pos_as_xyz
  1  'x, y, z'
loop_
 _atom_site_type_symbol
 _atom_site_label
 _atom_site_symmetry_multiplicity
 _atom_site_fract_x
 _atom_site_fract_y
 _atom_site_fract_z
 _atom_site_occupancy
  W  W0  1  0.051024  0.410643  0.768351  1
  W  W1  1  0.948976  0.589357  0.231649  1
  N  N2  1  0.000000  0.500000  0.000000  1
  Cl  Cl3  1  0.645479  0.390512  0.226227  1
  Cl  Cl4  1  0.894727  0.680274  0.589812  1
  Cl  Cl5  1  0.257017  0.780738  0.304686  1
  Cl  Cl6  1  0.791557  0.860073  0.130724  1
  Cl  Cl7  1  0.208443  0.139927  0.869276  1
  Cl  Cl8  1  0.354521  0.609488  0.773773  1
  Cl  Cl9  1  0.105273  0.319726  0.410188  1
  Cl  Cl10  1  0.742983  0.219262  0.695314  1
