# generated using pymatgen
data_Na3(FeS2)2
_symmetry_space_group_name_H-M   'P 1'
_cell_length_a   6.66314217
_cell_length_b   10.49862472
_cell_length_c   10.69988835
_cell_angle_alpha   90.00000000
_cell_angle_beta   90.00000000
_cell_angle_gamma   90.00000000
_symmetry_Int_Tables_number   1
_chemical_formula_structural   Na3(FeS2)2
_chemical_formula_sum   'Na12 Fe8 S16'
_cell_volume   748.49816101
_cell_formula_units_Z   4
loop_
 _symmetry_equiv_pos_site_id
 _symmetry_equiv_pos_as_xyz
  1  'x, y, z'
loop_
 _atom_site_type_symbol
 _atom_site_label
 _atom_site_symmetry_multiplicity
 _atom_site_fract_x
 _atom_site_fract_y
 _atom_site_fract_z
 _atom_site_occupancy
  Na  Na0  1  0.082103  0.750000  0.765147  1
  Na  Na1  1  0.582103  0.750000  0.734853  1
  Na  Na2  1  0.917897  0.250000  0.234853  1
  Na  Na3  1  0.417897  0.250000  0.265147  1
  Na  Na4  1  0.043118  0.915104  0.143636  1
  Na  Na5  1  0.543118  0.584896  0.356364  1
  Na  Na6  1  0.956882  0.415104  0.856364  1
  Na  Na7  1  0.456882  0.084896  0.643636  1
  Na  Na8  1  0.956882  0.084896  0.856364  1
  Na  Na9  1  0.456882  0.415104  0.643636  1
  Na  Na10  1  0.043118  0.584896  0.143636  1
  Na  Na11  1  0.543118  0.915104  0.356364  1
  Fe  Fe12  1  0.046038  0.874051  0.471147  1
  Fe  Fe13  1  0.546038  0.625949  0.028853  1
  Fe  Fe14  1  0.953962  0.374051  0.528853  1
  Fe  Fe15  1  0.453962  0.125949  0.971147  1
  Fe  Fe16  1  0.953962  0.125949  0.528853  1
  Fe  Fe17  1  0.453962  0.374051  0.971147  1
  Fe  Fe18  1  0.046038  0.625949  0.471147  1
  Fe  Fe19  1  0.546038  0.874051  0.028853  1
  S  S20  1  0.165335  0.051865  0.377210  1
  S  S21  1  0.665335  0.448135  0.122790  1
  S  S22  1  0.834665  0.551865  0.622790  1
  S  S23  1  0.334665  0.948135  0.877210  1
  S  S24  1  0.834665  0.948135  0.622790  1
  S  S25  1  0.334665  0.551865  0.877210  1
  S  S26  1  0.165335  0.448135  0.377210  1
  S  S27  1  0.665335  0.051865  0.122790  1
  S  S28  1  0.305038  0.750000  0.537734  1
  S  S29  1  0.805038  0.750000  0.962266  1
  S  S30  1  0.694962  0.250000  0.462266  1
  S  S31  1  0.194962  0.250000  0.037734  1
  S  S32  1  0.376570  0.750000  0.164722  1
  S  S33  1  0.876570  0.750000  0.335278  1
  S  S34  1  0.623430  0.250000  0.835278  1
  S  S35  1  0.123430  0.250000  0.664722  1
