# generated using pymatgen
data_MnTl2SnTe4
_symmetry_space_group_name_H-M   'P 1'
_cell_length_a   7.09026284
_cell_length_b   7.09026284
_cell_length_c   7.09026284
_cell_angle_alpha   104.52193808
_cell_angle_beta   104.52193808
_cell_angle_gamma   119.90072024
_symmetry_Int_Tables_number   1
_chemical_formula_structural   MnTl2SnTe4
_chemical_formula_sum   'Mn1 Tl2 Sn1 Te4'
_cell_volume   267.46343509
_cell_formula_units_Z   1
loop_
 _symmetry_equiv_pos_site_id
 _symmetry_equiv_pos_as_xyz
  1  'x, y, z'
loop_
 _atom_site_type_symbol
 _atom_site_label
 _atom_site_symmetry_multiplicity
 _atom_site_fract_x
 _atom_site_fract_y
 _atom_site_fract_z
 _atom_site_occupancy
  Mn  Mn0  1  0.500000  0.500000  0.000000  1
  Tl  Tl1  1  1.000000  0.500000  0.500000  1
  Tl  Tl2  1  0.500000  1.000000  0.500000  1
  Sn  Sn3  1  0.000000  0.000000  0.000000  1
  Te  Te4  1  0.077651  0.077651  0.647908  1
  Te  Te5  1  0.570257  0.922349  0.000000  1
  Te  Te6  1  0.429743  0.429743  0.352092  1
  Te  Te7  1  0.922349  0.570257  0.000000  1
