# generated using pymatgen
data_U(TeO3)3
_symmetry_space_group_name_H-M   'P 1'
_cell_length_a   11.48703271
_cell_length_b   11.48703271
_cell_length_c   11.48703271
_cell_angle_alpha   90.00000000
_cell_angle_beta   90.00000000
_cell_angle_gamma   90.00000000
_symmetry_Int_Tables_number   1
_chemical_formula_structural   U(TeO3)3
_chemical_formula_sum   'U8 Te24 O72'
_cell_volume   1515.73602671
_cell_formula_units_Z   8
loop_
 _symmetry_equiv_pos_site_id
 _symmetry_equiv_pos_as_xyz
  1  'x, y, z'
loop_
 _atom_site_type_symbol
 _atom_site_label
 _atom_site_symmetry_multiplicity
 _atom_site_fract_x
 _atom_site_fract_y
 _atom_site_fract_z
 _atom_site_occupancy
  U  U0  1  0.500000  0.500000  0.500000  1
  U  U1  1  0.500000  0.000000  0.500000  1
  U  U2  1  0.000000  0.500000  0.500000  1
  U  U3  1  0.500000  0.000000  0.000000  1
  U  U4  1  0.000000  0.000000  0.000000  1
  U  U5  1  0.500000  0.500000  0.000000  1
  U  U6  1  0.000000  0.000000  0.500000  1
  U  U7  1  0.000000  0.500000  0.000000  1
  Te  Te8  1  0.950883  0.762943  0.214108  1
  Te  Te9  1  0.737057  0.785892  0.450883  1
  Te  Te10  1  0.285892  0.049117  0.262943  1
  Te  Te11  1  0.450883  0.762943  0.285892  1
  Te  Te12  1  0.549117  0.237057  0.714108  1
  Te  Te13  1  0.785892  0.049117  0.237057  1
  Te  Te14  1  0.049117  0.237057  0.785892  1
  Te  Te15  1  0.049117  0.262943  0.285892  1
  Te  Te16  1  0.285892  0.450883  0.762943  1
  Te  Te17  1  0.450883  0.737057  0.785892  1
  Te  Te18  1  0.762943  0.285892  0.450883  1
  Te  Te19  1  0.262943  0.214108  0.549117  1
  Te  Te20  1  0.237057  0.785892  0.049117  1
  Te  Te21  1  0.762943  0.214108  0.950883  1
  Te  Te22  1  0.714108  0.950883  0.737057  1
  Te  Te23  1  0.214108  0.950883  0.762943  1
  Te  Te24  1  0.214108  0.549117  0.262943  1
  Te  Te25  1  0.549117  0.262943  0.214108  1
  Te  Te26  1  0.737057  0.714108  0.950883  1
  Te  Te27  1  0.714108  0.549117  0.237057  1
  Te  Te28  1  0.237057  0.714108  0.549117  1
  Te  Te29  1  0.950883  0.737057  0.714108  1
  Te  Te30  1  0.262943  0.285892  0.049117  1
  Te  Te31  1  0.785892  0.450883  0.737057  1
  O  O32  1  0.908352  0.408352  0.091648  1
  O  O33  1  0.655928  0.613255  0.088216  1
  O  O34  1  0.591648  0.591648  0.591648  1
  O  O35  1  0.407862  0.907862  0.592138  1
  O  O36  1  0.918206  0.098264  0.324175  1
  O  O37  1  0.886745  0.588216  0.655928  1
  O  O38  1  0.091648  0.908352  0.408352  1
  O  O39  1  0.088216  0.655928  0.613255  1
  O  O40  1  0.844072  0.386745  0.588216  1
  O  O41  1  0.411784  0.155928  0.613255  1
  O  O42  1  0.092138  0.092138  0.092138  1
  O  O43  1  0.081794  0.901736  0.675825  1
  O  O44  1  0.907862  0.592138  0.407862  1
  O  O45  1  0.581794  0.598264  0.324175  1
  O  O46  1  0.113255  0.088216  0.844072  1
  O  O47  1  0.588216  0.655928  0.886745  1
  O  O48  1  0.098264  0.324175  0.918206  1
  O  O49  1  0.591648  0.908352  0.091648  1
  O  O50  1  0.592138  0.407862  0.907862  1
  O  O51  1  0.773255  0.773255  0.773255  1
  O  O52  1  0.901736  0.824175  0.581794  1
  O  O53  1  0.655928  0.886745  0.588216  1
  O  O54  1  0.091648  0.591648  0.908352  1
  O  O55  1  0.401736  0.675825  0.418206  1
  O  O56  1  0.418206  0.401736  0.675825  1
  O  O57  1  0.726745  0.273255  0.773255  1
  O  O58  1  0.581794  0.901736  0.824175  1
  O  O59  1  0.386745  0.911784  0.344072  1
  O  O60  1  0.598264  0.175825  0.081794  1
  O  O61  1  0.911784  0.155928  0.886745  1
  O  O62  1  0.824175  0.581794  0.901736  1
  O  O63  1  0.824175  0.918206  0.401736  1
  O  O64  1  0.324175  0.581794  0.598264  1
  O  O65  1  0.908352  0.091648  0.591648  1
  O  O66  1  0.344072  0.386745  0.911784  1
  O  O67  1  0.344072  0.113255  0.411784  1
  O  O68  1  0.592138  0.092138  0.407862  1
  O  O69  1  0.155928  0.886745  0.911784  1
  O  O70  1  0.907862  0.907862  0.907862  1
  O  O71  1  0.408352  0.091648  0.908352  1
  O  O72  1  0.911784  0.344072  0.386745  1
  O  O73  1  0.613255  0.088216  0.655928  1
  O  O74  1  0.588216  0.844072  0.386745  1
  O  O75  1  0.726745  0.226745  0.273255  1
  O  O76  1  0.081794  0.598264  0.175825  1
  O  O77  1  0.598264  0.324175  0.581794  1
  O  O78  1  0.675825  0.081794  0.901736  1
  O  O79  1  0.155928  0.613255  0.411784  1
  O  O80  1  0.226745  0.226745  0.226745  1
  O  O81  1  0.773255  0.726745  0.273255  1
  O  O82  1  0.408352  0.408352  0.408352  1
  O  O83  1  0.418206  0.098264  0.175825  1
  O  O84  1  0.613255  0.411784  0.155928  1
  O  O85  1  0.088216  0.844072  0.113255  1
  O  O86  1  0.226745  0.273255  0.726745  1
  O  O87  1  0.175825  0.418206  0.098264  1
  O  O88  1  0.113255  0.411784  0.344072  1
  O  O89  1  0.675825  0.418206  0.401736  1
  O  O90  1  0.918206  0.401736  0.824175  1
  O  O91  1  0.324175  0.918206  0.098264  1
  O  O92  1  0.175825  0.081794  0.598264  1
  O  O93  1  0.901736  0.675825  0.081794  1
  O  O94  1  0.401736  0.824175  0.918206  1
  O  O95  1  0.098264  0.175825  0.418206  1
  O  O96  1  0.886745  0.911784  0.155928  1
  O  O97  1  0.407862  0.592138  0.092138  1
  O  O98  1  0.411784  0.344072  0.113255  1
  O  O99  1  0.844072  0.113255  0.088216  1
  O  O100  1  0.273255  0.773255  0.726745  1
  O  O101  1  0.273255  0.726745  0.226745  1
  O  O102  1  0.386745  0.588216  0.844072  1
  O  O103  1  0.092138  0.407862  0.592138  1
