# generated using pymatgen
data_Rb2U2O7
_symmetry_space_group_name_H-M   'P 1'
_cell_length_a   7.00726220
_cell_length_b   8.11459798
_cell_length_c   7.51339073
_cell_angle_alpha   90.00000000
_cell_angle_beta   108.27737388
_cell_angle_gamma   90.00000000
_symmetry_Int_Tables_number   1
_chemical_formula_structural   Rb2U2O7
_chemical_formula_sum   'Rb4 U4 O14'
_cell_volume   405.66628494
_cell_formula_units_Z   2
loop_
 _symmetry_equiv_pos_site_id
 _symmetry_equiv_pos_as_xyz
  1  'x, y, z'
loop_
 _atom_site_type_symbol
 _atom_site_label
 _atom_site_symmetry_multiplicity
 _atom_site_fract_x
 _atom_site_fract_y
 _atom_site_fract_z
 _atom_site_occupancy
  Rb  Rb0  1  0.770115  0.120306  0.506841  1
  Rb  Rb1  1  0.270115  0.379694  0.506841  1
  Rb  Rb2  1  0.729885  0.620306  0.493159  1
  Rb  Rb3  1  0.229885  0.879694  0.493159  1
  U  U4  1  0.223331  0.620060  0.994257  1
  U  U5  1  0.276669  0.120060  0.005743  1
  U  U6  1  0.776669  0.379940  0.005743  1
  U  U7  1  0.723331  0.879940  0.994257  1
  O  O8  1  0.635958  0.879849  0.729679  1
  O  O9  1  0.135958  0.620151  0.729679  1
  O  O10  1  0.892319  0.638970  0.987814  1
  O  O11  1  0.864042  0.379849  0.270321  1
  O  O12  1  0.309422  0.634879  0.258340  1
  O  O13  1  0.607681  0.138970  0.012186  1
  O  O14  1  0.190578  0.134879  0.741660  1
  O  O15  1  0.392319  0.861030  0.987814  1
  O  O16  1  0.809422  0.865121  0.258340  1
  O  O17  1  0.690578  0.365121  0.741660  1
  O  O18  1  0.107681  0.361030  0.012186  1
  O  O19  1  0.500000  0.500000  0.000000  1
  O  O20  1  0.364042  0.120151  0.270321  1
  O  O21  1  0.000000  0.000000  0.000000  1
