# generated using pymatgen
data_K2La6OsI12
_symmetry_space_group_name_H-M   'P 1'
_cell_length_a   10.06193248
_cell_length_b   19.64852111
_cell_length_c   10.09074849
_cell_angle_alpha   90.00000000
_cell_angle_beta   108.24188016
_cell_angle_gamma   90.00000000
_symmetry_Int_Tables_number   1
_chemical_formula_structural   K2La6OsI12
_chemical_formula_sum   'K4 La12 Os2 I24'
_cell_volume   1894.70227657
_cell_formula_units_Z   2
loop_
 _symmetry_equiv_pos_site_id
 _symmetry_equiv_pos_as_xyz
  1  'x, y, z'
loop_
 _atom_site_type_symbol
 _atom_site_label
 _atom_site_symmetry_multiplicity
 _atom_site_fract_x
 _atom_site_fract_y
 _atom_site_fract_z
 _atom_site_occupancy
  K  K0  1  0.911847  0.307584  0.573337  1
  K  K1  1  0.588153  0.807584  0.426663  1
  K  K2  1  0.088153  0.692416  0.426663  1
  K  K3  1  0.411847  0.192416  0.573337  1
  La  La4  1  0.763256  0.455785  0.992507  1
  La  La5  1  0.597794  0.644678  0.022557  1
  La  La6  1  0.236744  0.544215  0.007493  1
  La  La7  1  0.906716  0.986741  0.707490  1
  La  La8  1  0.406716  0.513259  0.707490  1
  La  La9  1  0.097794  0.855322  0.022557  1
  La  La10  1  0.263256  0.044215  0.992507  1
  La  La11  1  0.902206  0.144678  0.977443  1
  La  La12  1  0.736744  0.955785  0.007493  1
  La  La13  1  0.093284  0.013259  0.292510  1
  La  La14  1  0.593284  0.486741  0.292510  1
  La  La15  1  0.402206  0.355322  0.977443  1
  Os  Os16  1  0.500000  0.500000  0.000000  1
  Os  Os17  1  0.000000  0.000000  0.000000  1
  I  I18  1  0.405631  0.066039  0.322929  1
  I  I19  1  0.186561  0.205554  0.919170  1
  I  I20  1  0.019789  0.177615  0.308452  1
  I  I21  1  0.313439  0.705554  0.080830  1
  I  I22  1  0.905631  0.433961  0.322929  1
  I  I23  1  0.299615  0.531481  0.347873  1
  I  I24  1  0.700385  0.468519  0.652127  1
  I  I25  1  0.583802  0.103536  0.974847  1
  I  I26  1  0.094369  0.566039  0.677071  1
  I  I27  1  0.219979  0.855278  0.363698  1
  I  I28  1  0.280021  0.355278  0.636302  1
  I  I29  1  0.480211  0.677615  0.691548  1
  I  I30  1  0.916198  0.603536  0.025153  1
  I  I31  1  0.200385  0.031481  0.652127  1
  I  I32  1  0.813439  0.794446  0.080830  1
  I  I33  1  0.686561  0.294446  0.919170  1
  I  I34  1  0.416198  0.896464  0.025153  1
  I  I35  1  0.083802  0.396464  0.974847  1
  I  I36  1  0.594369  0.933961  0.677071  1
  I  I37  1  0.719979  0.644722  0.363698  1
  I  I38  1  0.780021  0.144722  0.636302  1
  I  I39  1  0.980211  0.822385  0.691548  1
  I  I40  1  0.799615  0.968519  0.347873  1
  I  I41  1  0.519789  0.322385  0.308452  1
