# generated using pymatgen
data_Yb2MoO6
_symmetry_space_group_name_H-M   'P 1'
_cell_length_a   9.75011969
_cell_length_b   9.75011969
_cell_length_c   5.46551941
_cell_angle_alpha   76.06702327
_cell_angle_beta   103.93297673
_cell_angle_gamma   107.79507091
_symmetry_Int_Tables_number   1
_chemical_formula_structural   Yb2MoO6
_chemical_formula_sum   'Yb8 Mo4 O24'
_cell_volume   472.24010917
_cell_formula_units_Z   4
loop_
 _symmetry_equiv_pos_site_id
 _symmetry_equiv_pos_as_xyz
  1  'x, y, z'
loop_
 _atom_site_type_symbol
 _atom_site_label
 _atom_site_symmetry_multiplicity
 _atom_site_fract_x
 _atom_site_fract_y
 _atom_site_fract_z
 _atom_site_occupancy
  Yb  Yb0  1  0.125909  0.125909  0.750000  1
  Yb  Yb1  1  0.787878  0.443370  0.397216  1
  Yb  Yb2  1  0.635316  0.635316  0.750000  1
  Yb  Yb3  1  0.212122  0.556630  0.602784  1
  Yb  Yb4  1  0.443370  0.787878  0.102784  1
  Yb  Yb5  1  0.364684  0.364684  0.250000  1
  Yb  Yb6  1  0.874091  0.874091  0.250000  1
  Yb  Yb7  1  0.556630  0.212122  0.897216  1
  Mo  Mo8  1  0.704989  0.011650  0.578775  1
  Mo  Mo9  1  0.011650  0.704989  0.921225  1
  Mo  Mo10  1  0.988350  0.295011  0.078775  1
  Mo  Mo11  1  0.295011  0.988350  0.421225  1
  O  O12  1  0.169629  0.343812  0.901264  1
  O  O13  1  0.952538  0.112857  0.026886  1
  O  O14  1  0.320441  0.122368  0.124843  1
  O  O15  1  0.679559  0.877632  0.875157  1
  O  O16  1  0.579970  0.431884  0.559015  1
  O  O17  1  0.887143  0.047462  0.526886  1
  O  O18  1  0.568116  0.420030  0.059015  1
  O  O19  1  0.979467  0.432983  0.762312  1
  O  O20  1  0.432983  0.979467  0.737688  1
  O  O21  1  0.301160  0.811664  0.373863  1
  O  O22  1  0.698840  0.188336  0.626137  1
  O  O23  1  0.112857  0.952538  0.473114  1
  O  O24  1  0.420030  0.568116  0.440985  1
  O  O25  1  0.656188  0.830371  0.401264  1
  O  O26  1  0.830371  0.656188  0.098736  1
  O  O27  1  0.343812  0.169629  0.598736  1
  O  O28  1  0.567017  0.020533  0.262312  1
  O  O29  1  0.877632  0.679559  0.624843  1
  O  O30  1  0.188336  0.698840  0.873863  1
  O  O31  1  0.811664  0.301160  0.126137  1
  O  O32  1  0.020533  0.567017  0.237688  1
  O  O33  1  0.122368  0.320441  0.375157  1
  O  O34  1  0.431884  0.579970  0.940985  1
  O  O35  1  0.047462  0.887143  0.973114  1
