# generated using pymatgen
data_Na3VB6O13
_symmetry_space_group_name_H-M   'P 1'
_cell_length_a   7.75098408
_cell_length_b   10.33244996
_cell_length_c   12.76914316
_cell_angle_alpha   90.00000000
_cell_angle_beta   90.00000000
_cell_angle_gamma   90.00000000
_symmetry_Int_Tables_number   1
_chemical_formula_structural   Na3VB6O13
_chemical_formula_sum   'Na12 V4 B24 O52'
_cell_volume   1022.63796478
_cell_formula_units_Z   4
loop_
 _symmetry_equiv_pos_site_id
 _symmetry_equiv_pos_as_xyz
  1  'x, y, z'
loop_
 _atom_site_type_symbol
 _atom_site_label
 _atom_site_symmetry_multiplicity
 _atom_site_fract_x
 _atom_site_fract_y
 _atom_site_fract_z
 _atom_site_occupancy
  Na  Na0  1  0.735211  0.289282  0.238140  1
  Na  Na1  1  0.758244  0.275689  0.739081  1
  Na  Na2  1  0.129471  0.494833  0.522063  1
  Na  Na3  1  0.235211  0.210718  0.761860  1
  Na  Na4  1  0.629471  0.005167  0.477937  1
  Na  Na5  1  0.264789  0.789282  0.261860  1
  Na  Na6  1  0.741756  0.724311  0.239081  1
  Na  Na7  1  0.764789  0.710718  0.738140  1
  Na  Na8  1  0.241756  0.775689  0.760919  1
  Na  Na9  1  0.258244  0.224311  0.260919  1
  Na  Na10  1  0.870529  0.994833  0.977937  1
  Na  Na11  1  0.370529  0.505167  0.022063  1
  V  V12  1  0.050566  0.508819  0.247012  1
  V  V13  1  0.949434  0.008819  0.252988  1
  V  V14  1  0.550566  0.991181  0.752988  1
  V  V15  1  0.449434  0.491181  0.747012  1
  B  B16  1  0.030056  0.129241  0.575014  1
  B  B17  1  0.405475  0.500879  0.277872  1
  B  B18  1  0.029292  0.870270  0.575544  1
  B  B19  1  0.799679  0.724298  0.494846  1
  B  B20  1  0.905475  0.999121  0.722128  1
  B  B21  1  0.530056  0.370759  0.424986  1
  B  B22  1  0.221693  0.998451  0.441919  1
  B  B23  1  0.094525  0.499121  0.777872  1
  B  B24  1  0.529292  0.629730  0.424456  1
  B  B25  1  0.297370  0.224202  0.503586  1
  B  B26  1  0.470708  0.129730  0.075544  1
  B  B27  1  0.202630  0.775798  0.003586  1
  B  B28  1  0.970708  0.370270  0.924456  1
  B  B29  1  0.702630  0.724202  0.996414  1
  B  B30  1  0.778307  0.498451  0.058081  1
  B  B31  1  0.797370  0.275798  0.496414  1
  B  B32  1  0.299679  0.775702  0.505154  1
  B  B33  1  0.469944  0.870759  0.075014  1
  B  B34  1  0.969944  0.629241  0.924986  1
  B  B35  1  0.594525  0.000879  0.222128  1
  B  B36  1  0.278307  0.001549  0.941919  1
  B  B37  1  0.721693  0.501549  0.558081  1
  B  B38  1  0.700321  0.275702  0.994846  1
  B  B39  1  0.200321  0.224298  0.005154  1
  O  O40  1  0.177415  0.880870  0.937730  1
  O  O41  1  0.889386  0.162996  0.504406  1
  O  O42  1  0.115893  0.339550  0.992489  1
  O  O43  1  0.533213  0.116438  0.184690  1
  O  O44  1  0.338782  0.886063  0.447911  1
  O  O45  1  0.884107  0.839550  0.507511  1
  O  O46  1  0.161218  0.113937  0.947911  1
  O  O47  1  0.604971  0.500239  0.461597  1
  O  O48  1  0.335419  0.226072  0.075282  1
  O  O49  1  0.615893  0.160450  0.007511  1
  O  O50  1  0.610614  0.837004  0.004406  1
  O  O51  1  0.104971  0.999761  0.538403  1
  O  O52  1  0.879385  0.484327  0.155129  1
  O  O53  1  0.221212  0.499262  0.700730  1
  O  O54  1  0.036027  0.615039  0.816716  1
  O  O55  1  0.540551  0.104671  0.658976  1
  O  O56  1  0.379385  0.015673  0.844871  1
  O  O57  1  0.525362  0.846647  0.694784  1
  O  O58  1  0.466787  0.616438  0.315310  1
  O  O59  1  0.895029  0.499761  0.961597  1
  O  O60  1  0.822585  0.380870  0.562270  1
  O  O61  1  0.322585  0.119130  0.437730  1
  O  O62  1  0.832179  0.724185  0.922426  1
  O  O63  1  0.332179  0.775815  0.077574  1
  O  O64  1  0.661218  0.386063  0.052089  1
  O  O65  1  0.110614  0.662996  0.995594  1
  O  O66  1  0.536027  0.884961  0.183284  1
  O  O67  1  0.167821  0.224185  0.577574  1
  O  O68  1  0.677415  0.619130  0.062270  1
  O  O69  1  0.033213  0.383562  0.815310  1
  O  O70  1  0.778788  0.999262  0.799270  1
  O  O71  1  0.620615  0.515673  0.655129  1
  O  O72  1  0.959449  0.895329  0.158976  1
  O  O73  1  0.474638  0.346647  0.805216  1
  O  O74  1  0.040551  0.395329  0.341024  1
  O  O75  1  0.838782  0.613937  0.552089  1
  O  O76  1  0.966787  0.883562  0.684690  1
  O  O77  1  0.667821  0.275815  0.422426  1
  O  O78  1  0.389386  0.337004  0.495594  1
  O  O79  1  0.278788  0.500738  0.200730  1
  O  O80  1  0.463973  0.384961  0.316716  1
  O  O81  1  0.974638  0.153353  0.194784  1
  O  O82  1  0.721212  0.000738  0.299270  1
  O  O83  1  0.459449  0.604671  0.841024  1
  O  O84  1  0.835419  0.273928  0.924718  1
  O  O85  1  0.384107  0.660450  0.492489  1
  O  O86  1  0.120615  0.984327  0.344871  1
  O  O87  1  0.395029  0.000239  0.038403  1
  O  O88  1  0.164581  0.773928  0.575282  1
  O  O89  1  0.664581  0.726072  0.424718  1
  O  O90  1  0.025362  0.653353  0.305216  1
  O  O91  1  0.963973  0.115039  0.683284  1
