# generated using pymatgen
data_RbH3WO7
_symmetry_space_group_name_H-M   'P 1'
_cell_length_a   6.54184792
_cell_length_b   8.28508362
_cell_length_c   12.67250469
_cell_angle_alpha   106.68701612
_cell_angle_beta   92.92909016
_cell_angle_gamma   104.70322442
_symmetry_Int_Tables_number   1
_chemical_formula_structural   RbH3WO7
_chemical_formula_sum   'Rb4 H12 W4 O28'
_cell_volume   630.65403952
_cell_formula_units_Z   4
loop_
 _symmetry_equiv_pos_site_id
 _symmetry_equiv_pos_as_xyz
  1  'x, y, z'
loop_
 _atom_site_type_symbol
 _atom_site_label
 _atom_site_symmetry_multiplicity
 _atom_site_fract_x
 _atom_site_fract_y
 _atom_site_fract_z
 _atom_site_occupancy
  Rb  Rb0  1  0.216001  0.242519  0.860700  1
  Rb  Rb1  1  0.098629  0.262494  0.539111  1
  Rb  Rb2  1  0.783999  0.757481  0.139300  1
  Rb  Rb3  1  0.901371  0.737506  0.460889  1
  H  H4  1  0.397530  0.006910  0.082222  1
  H  H5  1  0.603380  0.574817  0.666843  1
  H  H6  1  0.362089  0.691318  0.275316  1
  H  H7  1  0.673100  0.491428  0.812590  1
  H  H8  1  0.326900  0.508572  0.187410  1
  H  H9  1  0.781096  0.749551  0.728060  1
  H  H10  1  0.602470  0.993090  0.917778  1
  H  H11  1  0.218904  0.250449  0.271940  1
  H  H12  1  0.637911  0.308682  0.724684  1
  H  H13  1  0.164562  0.022921  0.065523  1
  H  H14  1  0.396620  0.425183  0.333157  1
  H  H15  1  0.835438  0.977079  0.934477  1
  W  W16  1  0.184327  0.707063  0.875416  1
  W  W17  1  0.560514  0.125030  0.342411  1
  W  W18  1  0.439486  0.874970  0.657589  1
  W  W19  1  0.815673  0.292937  0.124584  1
  O  O20  1  0.762218  0.363651  0.411673  1
  O  O21  1  0.573899  0.325798  0.040565  1
  O  O22  1  0.783546  0.397616  0.004339  1
  O  O23  1  0.714467  0.059172  0.731070  1
  O  O24  1  0.643790  0.292589  0.494476  1
  O  O25  1  0.356210  0.707411  0.505524  1
  O  O26  1  0.334605  0.304853  0.336728  1
  O  O27  1  0.237782  0.636349  0.588327  1
  O  O28  1  0.113515  0.299516  0.090269  1
  O  O29  1  0.573283  0.405476  0.748436  1
  O  O30  1  0.266110  0.963740  0.027271  1
  O  O31  1  0.426717  0.594524  0.251564  1
  O  O32  1  0.665395  0.695147  0.663272  1
  O  O33  1  0.887122  0.486946  0.238101  1
  O  O34  1  0.734725  0.994186  0.349064  1
  O  O35  1  0.305211  0.996982  0.393578  1
  O  O36  1  0.112878  0.513054  0.761899  1
  O  O37  1  0.610590  0.142476  0.190268  1
  O  O38  1  0.285533  0.940828  0.268930  1
  O  O39  1  0.265275  0.005814  0.650936  1
  O  O40  1  0.694789  0.003018  0.606422  1
  O  O41  1  0.216454  0.602384  0.995661  1
  O  O42  1  0.733890  0.036260  0.972729  1
  O  O43  1  0.957625  0.827074  0.845608  1
  O  O44  1  0.886485  0.700484  0.909731  1
  O  O45  1  0.389410  0.857524  0.809732  1
  O  O46  1  0.042375  0.172926  0.154392  1
  O  O47  1  0.426101  0.674202  0.959435  1
