# generated using pymatgen
data_Te3MoCl16
_symmetry_space_group_name_H-M   'P 1'
_cell_length_a   10.47925999
_cell_length_b   10.47925999
_cell_length_c   12.59573027
_cell_angle_alpha   90.00000000
_cell_angle_beta   90.00000000
_cell_angle_gamma   102.48675123
_symmetry_Int_Tables_number   1
_chemical_formula_structural   Te3MoCl16
_chemical_formula_sum   'Te6 Mo2 Cl32'
_cell_volume   1350.48059032
_cell_formula_units_Z   2
loop_
 _symmetry_equiv_pos_site_id
 _symmetry_equiv_pos_as_xyz
  1  'x, y, z'
loop_
 _atom_site_type_symbol
 _atom_site_label
 _atom_site_symmetry_multiplicity
 _atom_site_fract_x
 _atom_site_fract_y
 _atom_site_fract_z
 _atom_site_occupancy
  Te  Te0  1  0.737114  0.460583  0.002920  1
  Te  Te1  1  0.262886  0.539417  0.502920  1
  Te  Te2  1  0.539417  0.262886  0.502920  1
  Te  Te3  1  0.460583  0.737114  0.002920  1
  Te  Te4  1  0.864285  0.864285  0.266785  1
  Te  Te5  1  0.135715  0.135715  0.766785  1
  Mo  Mo6  1  0.329801  0.329801  0.022619  1
  Mo  Mo7  1  0.670199  0.670199  0.522619  1
  Cl  Cl8  1  0.751755  0.266991  0.911573  1
  Cl  Cl9  1  0.248245  0.733009  0.411573  1
  Cl  Cl10  1  0.733009  0.248245  0.411573  1
  Cl  Cl11  1  0.266991  0.751755  0.911573  1
  Cl  Cl12  1  0.885236  0.435326  0.137313  1
  Cl  Cl13  1  0.114764  0.564674  0.637313  1
  Cl  Cl14  1  0.564674  0.114764  0.637313  1
  Cl  Cl15  1  0.435326  0.885236  0.137313  1
  Cl  Cl16  1  0.891627  0.595889  0.889800  1
  Cl  Cl17  1  0.108373  0.404111  0.389800  1
  Cl  Cl18  1  0.404111  0.108373  0.389800  1
  Cl  Cl19  1  0.595889  0.891627  0.889800  1
  Cl  Cl20  1  0.999507  0.999507  0.389633  1
  Cl  Cl21  1  0.000493  0.000493  0.889633  1
  Cl  Cl22  1  0.044133  0.825340  0.166937  1
  Cl  Cl23  1  0.955867  0.174660  0.666937  1
  Cl  Cl24  1  0.174660  0.955867  0.666937  1
  Cl  Cl25  1  0.825340  0.044133  0.166937  1
  Cl  Cl26  1  0.147452  0.352131  0.914181  1
  Cl  Cl27  1  0.852548  0.647869  0.414181  1
  Cl  Cl28  1  0.647869  0.852548  0.414181  1
  Cl  Cl29  1  0.352131  0.147452  0.914181  1
  Cl  Cl30  1  0.204231  0.204231  0.147205  1
  Cl  Cl31  1  0.795769  0.795769  0.647205  1
  Cl  Cl32  1  0.526340  0.313132  0.121229  1
  Cl  Cl33  1  0.473660  0.686868  0.621229  1
  Cl  Cl34  1  0.686868  0.473660  0.621229  1
  Cl  Cl35  1  0.313132  0.526340  0.121229  1
  Cl  Cl36  1  0.476750  0.476750  0.897792  1
  Cl  Cl37  1  0.523250  0.523250  0.397792  1
  Cl  Cl38  1  0.692305  0.692305  0.111210  1
  Cl  Cl39  1  0.307695  0.307695  0.611210  1
