# generated using pymatgen
data_Y2Si2O7
_symmetry_space_group_name_H-M   'P 1'
_cell_length_a   6.67168659
_cell_length_b   6.71321393
_cell_length_c   12.18723560
_cell_angle_alpha   94.48800751
_cell_angle_beta   91.21502959
_cell_angle_gamma   91.88246303
_symmetry_Int_Tables_number   1
_chemical_formula_structural   Y2Si2O7
_chemical_formula_sum   'Y8 Si8 O28'
_cell_volume   543.72525897
_cell_formula_units_Z   4
loop_
 _symmetry_equiv_pos_site_id
 _symmetry_equiv_pos_as_xyz
  1  'x, y, z'
loop_
 _atom_site_type_symbol
 _atom_site_label
 _atom_site_symmetry_multiplicity
 _atom_site_fract_x
 _atom_site_fract_y
 _atom_site_fract_z
 _atom_site_occupancy
  Y  Y0  1  0.116149  0.092159  0.356925  1
  Y  Y1  1  0.329259  0.827652  0.108153  1
  Y  Y2  1  0.630299  0.783044  0.366475  1
  Y  Y3  1  0.883851  0.907841  0.643075  1
  Y  Y4  1  0.670741  0.172348  0.891847  1
  Y  Y5  1  0.369701  0.216956  0.633525  1
  Y  Y6  1  0.948421  0.670272  0.884868  1
  Y  Y7  1  0.051579  0.329728  0.115132  1
  Si  Si8  1  0.486448  0.664576  0.824163  1
  Si  Si9  1  0.845526  0.852943  0.115407  1
  Si  Si10  1  0.513552  0.335424  0.175837  1
  Si  Si11  1  0.154474  0.147057  0.884593  1
  Si  Si12  1  0.144254  0.627860  0.379621  1
  Si  Si13  1  0.855746  0.372140  0.620379  1
  Si  Si14  1  0.621883  0.274831  0.405803  1
  Si  Si15  1  0.378117  0.725169  0.594197  1
  O  O16  1  0.286032  0.576548  0.488415  1
  O  O17  1  0.234583  0.085172  0.003916  1
  O  O18  1  0.400943  0.568066  0.693520  1
  O  O19  1  0.038137  0.227707  0.577760  1
  O  O20  1  0.384372  0.137999  0.210630  1
  O  O21  1  0.653858  0.789690  0.186238  1
  O  O22  1  0.001663  0.982742  0.815721  1
  O  O23  1  0.001225  0.669313  0.081306  1
  O  O24  1  0.701409  0.296841  0.095067  1
  O  O25  1  0.346142  0.210310  0.813762  1
  O  O26  1  0.075835  0.418280  0.311226  1
  O  O27  1  0.227764  0.903628  0.623438  1
  O  O28  1  0.643552  0.510134  0.872694  1
  O  O29  1  0.587004  0.826166  0.553087  1
  O  O30  1  0.765417  0.914828  0.996085  1
  O  O31  1  0.998337  0.017258  0.184279  1
  O  O32  1  0.924165  0.581720  0.688774  1
  O  O33  1  0.961863  0.772293  0.422240  1
  O  O34  1  0.772236  0.096372  0.376562  1
  O  O35  1  0.599057  0.431934  0.306480  1
  O  O36  1  0.412996  0.173834  0.446913  1
  O  O37  1  0.615628  0.862001  0.789370  1
  O  O38  1  0.712453  0.216262  0.687037  1
  O  O39  1  0.713968  0.423452  0.511585  1
  O  O40  1  0.287547  0.783738  0.312963  1
  O  O41  1  0.356448  0.489866  0.127306  1
  O  O42  1  0.298591  0.703159  0.904933  1
  O  O43  1  0.998775  0.330687  0.918694  1
