# generated using pymatgen
data_MnBr2
_symmetry_space_group_name_H-M   'P 1'
_cell_length_a   7.83772712
_cell_length_b   7.83772712
_cell_length_c   7.83772712
_cell_angle_alpha   60.00000000
_cell_angle_beta   60.00000000
_cell_angle_gamma   60.00000000
_symmetry_Int_Tables_number   1
_chemical_formula_structural   MnBr2
_chemical_formula_sum   'Mn4 Br8'
_cell_volume   340.45163058
_cell_formula_units_Z   4
loop_
 _symmetry_equiv_pos_site_id
 _symmetry_equiv_pos_as_xyz
  1  'x, y, z'
loop_
 _atom_site_type_symbol
 _atom_site_label
 _atom_site_symmetry_multiplicity
 _atom_site_fract_x
 _atom_site_fract_y
 _atom_site_fract_z
 _atom_site_occupancy
  Mn  Mn0  1  0.125000  0.125000  0.125000  1
  Mn  Mn1  1  0.125000  0.625000  0.125000  1
  Mn  Mn2  1  0.625000  0.125000  0.125000  1
  Mn  Mn3  1  0.125000  0.125000  0.625000  1
  Br  Br4  1  0.880659  0.358022  0.880659  1
  Br  Br5  1  0.358022  0.880659  0.880659  1
  Br  Br6  1  0.369341  0.891978  0.369341  1
  Br  Br7  1  0.891978  0.369341  0.369341  1
  Br  Br8  1  0.369341  0.369341  0.369341  1
  Br  Br9  1  0.880659  0.880659  0.358022  1
  Br  Br10  1  0.369341  0.369341  0.891978  1
  Br  Br11  1  0.880659  0.880659  0.880659  1
