# generated using pymatgen
data_K5Na(Ti2Se9)3
_symmetry_space_group_name_H-M   'P 1'
_cell_length_a   13.62490535
_cell_length_b   13.62490535
_cell_length_c   14.06020387
_cell_angle_alpha   90.00000000
_cell_angle_beta   90.00000000
_cell_angle_gamma   120.00000000
_symmetry_Int_Tables_number   1
_chemical_formula_structural   K5Na(Ti2Se9)3
_chemical_formula_sum   'K10 Na2 Ti12 Se54'
_cell_volume   2260.42049985
_cell_formula_units_Z   2
loop_
 _symmetry_equiv_pos_site_id
 _symmetry_equiv_pos_as_xyz
  1  'x, y, z'
loop_
 _atom_site_type_symbol
 _atom_site_label
 _atom_site_symmetry_multiplicity
 _atom_site_fract_x
 _atom_site_fract_y
 _atom_site_fract_z
 _atom_site_occupancy
  K  K0  1  0.627567  0.957636  0.529806  1
  K  K1  1  0.957636  0.627567  0.029806  1
  K  K2  1  0.666667  0.333333  0.203836  1
  K  K3  1  0.333333  0.666667  0.345963  1
  K  K4  1  0.042364  0.669931  0.529806  1
  K  K5  1  0.372433  0.330069  0.029806  1
  K  K6  1  0.330069  0.372433  0.529806  1
  K  K7  1  0.333333  0.666667  0.703836  1
  K  K8  1  0.666667  0.333333  0.845963  1
  K  K9  1  0.669931  0.042364  0.029806  1
  Na  Na10  1  0.000000  0.000000  0.276416  1
  Na  Na11  1  0.000000  0.000000  0.776416  1
  Ti  Ti12  1  0.985068  0.339345  0.156254  1
  Ti  Ti13  1  0.014033  0.344879  0.398420  1
  Ti  Ti14  1  0.344879  0.014033  0.898420  1
  Ti  Ti15  1  0.354277  0.014932  0.156254  1
  Ti  Ti16  1  0.330847  0.985967  0.398420  1
  Ti  Ti17  1  0.645723  0.660655  0.656254  1
  Ti  Ti18  1  0.669153  0.655121  0.898420  1
  Ti  Ti19  1  0.655121  0.669153  0.398420  1
  Ti  Ti20  1  0.660655  0.645723  0.156254  1
  Ti  Ti21  1  0.339345  0.985068  0.656254  1
  Ti  Ti22  1  0.014932  0.354277  0.656254  1
  Ti  Ti23  1  0.985967  0.330847  0.898420  1
  Se  Se24  1  0.496498  0.681730  0.938497  1
  Se  Se25  1  0.551098  0.130474  0.663421  1
  Se  Se26  1  0.497405  0.014787  0.282581  1
  Se  Se27  1  0.185232  0.503502  0.938497  1
  Se  Se28  1  0.076534  0.204663  0.649552  1
  Se  Se29  1  0.503502  0.185232  0.438497  1
  Se  Se30  1  0.795337  0.871871  0.649552  1
  Se  Se31  1  0.839093  0.210705  0.774150  1
  Se  Se32  1  0.371612  0.160907  0.774150  1
  Se  Se33  1  0.896118  0.118109  0.887450  1
  Se  Se34  1  0.579377  0.448902  0.663421  1
  Se  Se35  1  0.482618  0.985213  0.782581  1
  Se  Se36  1  0.814768  0.318270  0.438497  1
  Se  Se37  1  0.669975  0.788534  0.027223  1
  Se  Se38  1  0.210705  0.839093  0.274150  1
  Se  Se39  1  0.347707  0.153293  0.272840  1
  Se  Se40  1  0.486034  0.138732  0.024334  1
  Se  Se41  1  0.778009  0.881891  0.387450  1
  Se  Se42  1  0.194414  0.846707  0.772840  1
  Se  Se43  1  0.628388  0.789295  0.274150  1
  Se  Se44  1  0.448902  0.579377  0.163421  1
  Se  Se45  1  0.869526  0.420623  0.663421  1
  Se  Se46  1  0.517382  0.502595  0.282581  1
  Se  Se47  1  0.330025  0.118559  0.527223  1
  Se  Se48  1  0.881441  0.211466  0.527223  1
  Se  Se49  1  0.513966  0.652698  0.524334  1
  Se  Se50  1  0.347302  0.861268  0.524334  1
  Se  Se51  1  0.221991  0.103882  0.887450  1
  Se  Se52  1  0.118559  0.330025  0.027223  1
  Se  Se53  1  0.138732  0.486034  0.524334  1
  Se  Se54  1  0.160907  0.371612  0.274150  1
  Se  Se55  1  0.103882  0.221991  0.387450  1
  Se  Se56  1  0.805586  0.652293  0.272840  1
  Se  Se57  1  0.204663  0.076534  0.149552  1
  Se  Se58  1  0.681730  0.496498  0.438497  1
  Se  Se59  1  0.128129  0.923466  0.649552  1
  Se  Se60  1  0.318270  0.814768  0.938497  1
  Se  Se61  1  0.502595  0.517382  0.782581  1
  Se  Se62  1  0.652293  0.805586  0.772840  1
  Se  Se63  1  0.871871  0.795337  0.149552  1
  Se  Se64  1  0.846707  0.194414  0.272840  1
  Se  Se65  1  0.014787  0.497405  0.782581  1
  Se  Se66  1  0.788534  0.669975  0.527223  1
  Se  Se67  1  0.923466  0.128129  0.149552  1
  Se  Se68  1  0.130474  0.551098  0.163421  1
  Se  Se69  1  0.652698  0.513966  0.024334  1
  Se  Se70  1  0.861268  0.347302  0.024334  1
  Se  Se71  1  0.789295  0.628388  0.774150  1
  Se  Se72  1  0.985213  0.482618  0.282581  1
  Se  Se73  1  0.153293  0.347707  0.772840  1
  Se  Se74  1  0.420623  0.869526  0.163421  1
  Se  Se75  1  0.211466  0.881441  0.027223  1
  Se  Se76  1  0.881891  0.778009  0.887450  1
  Se  Se77  1  0.118109  0.896118  0.387450  1
