# generated using pymatgen
data_KGa(Te3O7)2
_symmetry_space_group_name_H-M   'P 1'
_cell_length_a   11.07269220
_cell_length_b   11.07269220
_cell_length_c   11.07269220
_cell_angle_alpha   90.00000000
_cell_angle_beta   90.00000000
_cell_angle_gamma   90.00000000
_symmetry_Int_Tables_number   1
_chemical_formula_structural   KGa(Te3O7)2
_chemical_formula_sum   'K4 Ga4 Te24 O56'
_cell_volume   1357.56202986
_cell_formula_units_Z   4
loop_
 _symmetry_equiv_pos_site_id
 _symmetry_equiv_pos_as_xyz
  1  'x, y, z'
loop_
 _atom_site_type_symbol
 _atom_site_label
 _atom_site_symmetry_multiplicity
 _atom_site_fract_x
 _atom_site_fract_y
 _atom_site_fract_z
 _atom_site_occupancy
  K  K0  1  0.500000  0.500000  0.000000  1
  K  K1  1  0.000000  0.500000  0.500000  1
  K  K2  1  0.000000  0.000000  0.000000  1
  K  K3  1  0.500000  0.000000  0.500000  1
  Ga  Ga4  1  0.000000  0.000000  0.500000  1
  Ga  Ga5  1  0.500000  0.500000  0.500000  1
  Ga  Ga6  1  0.500000  0.000000  0.000000  1
  Ga  Ga7  1  0.000000  0.500000  0.000000  1
  Te  Te8  1  0.991193  0.735018  0.772457  1
  Te  Te9  1  0.491193  0.735018  0.727543  1
  Te  Te10  1  0.764982  0.272457  0.991193  1
  Te  Te11  1  0.264982  0.227543  0.008807  1
  Te  Te12  1  0.735018  0.772457  0.991193  1
  Te  Te13  1  0.735018  0.727543  0.491193  1
  Te  Te14  1  0.272457  0.991193  0.764982  1
  Te  Te15  1  0.772457  0.991193  0.735018  1
  Te  Te16  1  0.227543  0.008807  0.264982  1
  Te  Te17  1  0.991193  0.764982  0.272457  1
  Te  Te18  1  0.772457  0.508807  0.235018  1
  Te  Te19  1  0.008807  0.235018  0.727543  1
  Te  Te20  1  0.727543  0.491193  0.735018  1
  Te  Te21  1  0.264982  0.272457  0.508807  1
  Te  Te22  1  0.235018  0.727543  0.008807  1
  Te  Te23  1  0.272457  0.508807  0.264982  1
  Te  Te24  1  0.491193  0.764982  0.227543  1
  Te  Te25  1  0.727543  0.008807  0.235018  1
  Te  Te26  1  0.227543  0.491193  0.764982  1
  Te  Te27  1  0.508807  0.264982  0.272457  1
  Te  Te28  1  0.764982  0.227543  0.491193  1
  Te  Te29  1  0.508807  0.235018  0.772457  1
  Te  Te30  1  0.008807  0.264982  0.227543  1
  Te  Te31  1  0.235018  0.772457  0.508807  1
  O  O32  1  0.877470  0.389407  0.307176  1
  O  O33  1  0.622530  0.610593  0.807176  1
  O  O34  1  0.124507  0.431506  0.886743  1
  O  O35  1  0.110593  0.807176  0.877470  1
  O  O36  1  0.622530  0.889407  0.307176  1
  O  O37  1  0.122530  0.889407  0.192824  1
  O  O38  1  0.431506  0.613257  0.624507  1
  O  O39  1  0.377470  0.110593  0.692824  1
  O  O40  1  0.624507  0.431506  0.613257  1
  O  O41  1  0.068494  0.113257  0.624507  1
  O  O42  1  0.307176  0.877470  0.389407  1
  O  O43  1  0.886743  0.124507  0.431506  1
  O  O44  1  0.147519  0.147519  0.147519  1
  O  O45  1  0.389407  0.307176  0.877470  1
  O  O46  1  0.875493  0.568494  0.113257  1
  O  O47  1  0.875493  0.931506  0.613257  1
  O  O48  1  0.889407  0.307176  0.622530  1
  O  O49  1  0.568494  0.386743  0.375493  1
  O  O50  1  0.068494  0.386743  0.124507  1
  O  O51  1  0.852481  0.647519  0.352481  1
  O  O52  1  0.375493  0.931506  0.886743  1
  O  O53  1  0.931506  0.886743  0.375493  1
  O  O54  1  0.147519  0.352481  0.647519  1
  O  O55  1  0.431506  0.886743  0.124507  1
  O  O56  1  0.377470  0.389407  0.192824  1
  O  O57  1  0.122530  0.610593  0.692824  1
  O  O58  1  0.568494  0.113257  0.875493  1
  O  O59  1  0.389407  0.192824  0.377470  1
  O  O60  1  0.807176  0.877470  0.110593  1
  O  O61  1  0.192824  0.377470  0.389407  1
  O  O62  1  0.375493  0.568494  0.386743  1
  O  O63  1  0.110593  0.692824  0.377470  1
  O  O64  1  0.852481  0.852481  0.852481  1
  O  O65  1  0.889407  0.192824  0.122530  1
  O  O66  1  0.124507  0.068494  0.386743  1
  O  O67  1  0.692824  0.377470  0.110593  1
  O  O68  1  0.647519  0.352481  0.852481  1
  O  O69  1  0.113257  0.875493  0.568494  1
  O  O70  1  0.192824  0.122530  0.889407  1
  O  O71  1  0.610593  0.807176  0.622530  1
  O  O72  1  0.307176  0.622530  0.889407  1
  O  O73  1  0.931506  0.613257  0.875493  1
  O  O74  1  0.610593  0.692824  0.122530  1
  O  O75  1  0.113257  0.624507  0.068494  1
  O  O76  1  0.613257  0.624507  0.431506  1
  O  O77  1  0.692824  0.122530  0.610593  1
  O  O78  1  0.807176  0.622530  0.610593  1
  O  O79  1  0.352481  0.852481  0.647519  1
  O  O80  1  0.877470  0.110593  0.807176  1
  O  O81  1  0.613257  0.875493  0.931506  1
  O  O82  1  0.886743  0.375493  0.931506  1
  O  O83  1  0.647519  0.147519  0.352481  1
  O  O84  1  0.352481  0.647519  0.147519  1
  O  O85  1  0.624507  0.068494  0.113257  1
  O  O86  1  0.386743  0.124507  0.068494  1
  O  O87  1  0.386743  0.375493  0.568494  1
