# generated using pymatgen
data_ZnS
_symmetry_space_group_name_H-M   'P 1'
_cell_length_a   3.85291673
_cell_length_b   3.85291673
_cell_length_c   75.59097724
_cell_angle_alpha   90.00000000
_cell_angle_beta   90.00000000
_cell_angle_gamma   120.00000000
_symmetry_Int_Tables_number   1
_chemical_formula_structural   ZnS
_chemical_formula_sum   'Zn24 S24'
_cell_volume   971.80658654
_cell_formula_units_Z   24
loop_
 _symmetry_equiv_pos_site_id
 _symmetry_equiv_pos_as_xyz
  1  'x, y, z'
loop_
 _atom_site_type_symbol
 _atom_site_label
 _atom_site_symmetry_multiplicity
 _atom_site_fract_x
 _atom_site_fract_y
 _atom_site_fract_z
 _atom_site_occupancy
  Zn  Zn0  1  0.000000  0.000000  0.333353  1
  Zn  Zn1  1  0.000000  0.000000  0.000006  1
  Zn  Zn2  1  0.333333  0.666667  0.291677  1
  Zn  Zn3  1  0.666667  0.333333  0.083341  1
  Zn  Zn4  1  0.333333  0.666667  0.833342  1
  Zn  Zn5  1  0.000000  0.000000  0.666675  1
  Zn  Zn6  1  0.666667  0.333333  0.500007  1
  Zn  Zn7  1  0.666667  0.333333  0.916680  1
  Zn  Zn8  1  0.666667  0.333333  0.208342  1
  Zn  Zn9  1  0.666667  0.333333  0.625010  1
  Zn  Zn10  1  0.000000  0.000000  0.541689  1
  Zn  Zn11  1  0.333333  0.666667  0.041690  1
  Zn  Zn12  1  0.000000  0.000000  0.125009  1
  Zn  Zn13  1  0.333333  0.666667  0.166680  1
  Zn  Zn14  1  0.333333  0.666667  0.416680  1
  Zn  Zn15  1  0.333333  0.666667  0.708338  1
  Zn  Zn16  1  0.333333  0.666667  0.958337  1
  Zn  Zn17  1  0.000000  0.000000  0.458338  1
  Zn  Zn18  1  0.333333  0.666667  0.583341  1
  Zn  Zn19  1  0.000000  0.000000  0.875010  1
  Zn  Zn20  1  0.666667  0.333333  0.791679  1
  Zn  Zn21  1  0.666667  0.333333  0.375009  1
  Zn  Zn22  1  0.000000  0.000000  0.750019  1
  Zn  Zn23  1  0.000000  0.000000  0.250005  1
  S  S24  1  0.666667  0.333333  0.947907  1
  S  S25  1  0.000000  0.000000  0.572906  1
  S  S26  1  0.333333  0.666667  0.197908  1
  S  S27  1  0.333333  0.666667  0.989547  1
  S  S28  1  0.000000  0.000000  0.364570  1
  S  S29  1  0.000000  0.000000  0.489548  1
  S  S30  1  0.666667  0.333333  0.531265  1
  S  S31  1  0.000000  0.000000  0.781238  1
  S  S32  1  0.666667  0.333333  0.822907  1
  S  S33  1  0.333333  0.666667  0.447908  1
  S  S34  1  0.666667  0.333333  0.239569  1
  S  S35  1  0.666667  0.333333  0.114570  1
  S  S36  1  0.000000  0.000000  0.031265  1
  S  S37  1  0.333333  0.666667  0.739595  1
  S  S38  1  0.000000  0.000000  0.156240  1
  S  S39  1  0.333333  0.666667  0.864570  1
  S  S40  1  0.666667  0.333333  0.656239  1
  S  S41  1  0.333333  0.666667  0.614570  1
  S  S42  1  0.000000  0.000000  0.281216  1
  S  S43  1  0.333333  0.666667  0.072907  1
  S  S44  1  0.000000  0.000000  0.697884  1
  S  S45  1  0.666667  0.333333  0.406240  1
  S  S46  1  0.333333  0.666667  0.322934  1
  S  S47  1  0.000000  0.000000  0.906240  1
