# generated using pymatgen
data_CsSb2F7
_symmetry_space_group_name_H-M   'P 1'
_cell_length_a   10.51265209
_cell_length_b   10.51265209
_cell_length_c   5.74097105
_cell_angle_alpha   88.45111374
_cell_angle_beta   91.54888626
_cell_angle_gamma   141.50333599
_symmetry_Int_Tables_number   1
_chemical_formula_structural   CsSb2F7
_chemical_formula_sum   'Cs2 Sb4 F14'
_cell_volume   394.77500575
_cell_formula_units_Z   2
loop_
 _symmetry_equiv_pos_site_id
 _symmetry_equiv_pos_as_xyz
  1  'x, y, z'
loop_
 _atom_site_type_symbol
 _atom_site_label
 _atom_site_symmetry_multiplicity
 _atom_site_fract_x
 _atom_site_fract_y
 _atom_site_fract_z
 _atom_site_occupancy
  Cs  Cs0  1  0.000000  0.500000  0.500000  1
  Cs  Cs1  1  0.500000  0.000000  0.000000  1
  Sb  Sb2  1  0.851728  0.685711  0.959507  1
  Sb  Sb3  1  0.314289  0.148272  0.459507  1
  Sb  Sb4  1  0.685711  0.851728  0.540493  1
  Sb  Sb5  1  0.148272  0.314289  0.040493  1
  F  F6  1  0.533049  0.692526  0.829929  1
  F  F7  1  0.848075  0.111982  0.700650  1
  F  F8  1  0.489216  0.844796  0.493342  1
  F  F9  1  0.307474  0.466951  0.329929  1
  F  F10  1  0.155204  0.510784  0.993342  1
  F  F11  1  0.151925  0.888018  0.299350  1
  F  F12  1  0.466951  0.307474  0.170071  1
  F  F13  1  0.510784  0.155204  0.506658  1
  F  F14  1  0.919202  0.919202  0.750000  1
  F  F15  1  0.080798  0.080798  0.250000  1
  F  F16  1  0.844796  0.489216  0.006658  1
  F  F17  1  0.888018  0.151925  0.200650  1
  F  F18  1  0.111982  0.848075  0.799350  1
  F  F19  1  0.692526  0.533049  0.670071  1
