# generated using pymatgen
data_ZnS
_symmetry_space_group_name_H-M   'P 1'
_cell_length_a   3.85357883
_cell_length_b   3.85357883
_cell_length_c   56.70237435
_cell_angle_alpha   90.00000000
_cell_angle_beta   90.00000000
_cell_angle_gamma   120.00000000
_symmetry_Int_Tables_number   1
_chemical_formula_structural   ZnS
_chemical_formula_sum   'Zn18 S18'
_cell_volume   729.22302454
_cell_formula_units_Z   18
loop_
 _symmetry_equiv_pos_site_id
 _symmetry_equiv_pos_as_xyz
  1  'x, y, z'
loop_
 _atom_site_type_symbol
 _atom_site_label
 _atom_site_symmetry_multiplicity
 _atom_site_fract_x
 _atom_site_fract_y
 _atom_site_fract_z
 _atom_site_occupancy
  Zn  Zn0  1  0.000000  0.000000  0.166668  1
  Zn  Zn1  1  0.000000  0.000000  0.555561  1
  Zn  Zn2  1  0.666667  0.333333  0.277777  1
  Zn  Zn3  1  0.666667  0.333333  0.722219  1
  Zn  Zn4  1  0.000000  0.000000  0.777784  1
  Zn  Zn5  1  0.000000  0.000000  0.444455  1
  Zn  Zn6  1  0.000000  0.000000  0.666674  1
  Zn  Zn7  1  0.333333  0.666667  0.055561  1
  Zn  Zn8  1  0.333333  0.666667  0.611106  1
  Zn  Zn9  1  0.666667  0.333333  0.111112  1
  Zn  Zn10  1  0.333333  0.666667  0.222223  1
  Zn  Zn11  1  0.666667  0.333333  0.944438  1
  Zn  Zn12  1  0.333333  0.666667  0.388896  1
  Zn  Zn13  1  0.000000  0.000000  0.333326  1
  Zn  Zn14  1  0.333333  0.666667  0.833327  1
  Zn  Zn15  1  0.000000  0.000000  0.000013  1
  Zn  Zn16  1  0.666667  0.333333  0.499997  1
  Zn  Zn17  1  0.000000  0.000000  0.888898  1
  S  S18  1  0.333333  0.666667  0.430601  1
  S  S19  1  0.000000  0.000000  0.041669  1
  S  S20  1  0.000000  0.000000  0.597185  1
  S  S21  1  0.666667  0.333333  0.152779  1
  S  S22  1  0.666667  0.333333  0.763921  1
  S  S23  1  0.333333  0.666667  0.097227  1
  S  S24  1  0.666667  0.333333  0.986142  1
  S  S25  1  0.000000  0.000000  0.708298  1
  S  S26  1  0.000000  0.000000  0.819407  1
  S  S27  1  0.000000  0.000000  0.374967  1
  S  S28  1  0.666667  0.333333  0.319440  1
  S  S29  1  0.333333  0.666667  0.652810  1
  S  S30  1  0.000000  0.000000  0.930522  1
  S  S31  1  0.000000  0.000000  0.486076  1
  S  S32  1  0.333333  0.666667  0.263890  1
  S  S33  1  0.666667  0.333333  0.541699  1
  S  S34  1  0.000000  0.000000  0.208332  1
  S  S35  1  0.333333  0.666667  0.875032  1
