# generated using pymatgen
data_As2O5
_symmetry_space_group_name_H-M   'P 1'
_cell_length_a   8.76446394
_cell_length_b   8.76446394
_cell_length_c   4.71234692
_cell_angle_alpha   90.00000000
_cell_angle_beta   90.00000000
_cell_angle_gamma   90.00000000
_symmetry_Int_Tables_number   1
_chemical_formula_structural   As2O5
_chemical_formula_sum   'As8 O20'
_cell_volume   361.98283122
_cell_formula_units_Z   4
loop_
 _symmetry_equiv_pos_site_id
 _symmetry_equiv_pos_as_xyz
  1  'x, y, z'
loop_
 _atom_site_type_symbol
 _atom_site_label
 _atom_site_symmetry_multiplicity
 _atom_site_fract_x
 _atom_site_fract_y
 _atom_site_fract_z
 _atom_site_occupancy
  As  As0  1  0.597352  0.597352  0.500000  1
  As  As1  1  0.216044  0.216044  0.500000  1
  As  As2  1  0.783956  0.783956  0.000000  1
  As  As3  1  0.716044  0.283956  0.750000  1
  As  As4  1  0.902648  0.097352  0.250000  1
  As  As5  1  0.402648  0.402648  0.000000  1
  As  As6  1  0.283956  0.716044  0.250000  1
  As  As7  1  0.097352  0.902648  0.750000  1
  O  O8  1  0.753756  0.975898  0.076929  1
  O  O9  1  0.246244  0.024102  0.576929  1
  O  O10  1  0.345826  0.234470  0.230036  1
  O  O11  1  0.443432  0.556568  0.750000  1
  O  O12  1  0.943432  0.943432  0.500000  1
  O  O13  1  0.765530  0.654174  0.269964  1
  O  O14  1  0.556568  0.443432  0.250000  1
  O  O15  1  0.475898  0.746244  0.326929  1
  O  O16  1  0.265530  0.845826  0.980036  1
  O  O17  1  0.734470  0.154174  0.480036  1
  O  O18  1  0.746244  0.475898  0.673071  1
  O  O19  1  0.056568  0.056568  0.000000  1
  O  O20  1  0.234470  0.345826  0.769964  1
  O  O21  1  0.845826  0.265530  0.019964  1
  O  O22  1  0.024102  0.246244  0.423071  1
  O  O23  1  0.654174  0.765530  0.730036  1
  O  O24  1  0.154174  0.734470  0.519964  1
  O  O25  1  0.524102  0.253756  0.826929  1
  O  O26  1  0.253756  0.524102  0.173071  1
  O  O27  1  0.975898  0.753756  0.923071  1
