# generated using pymatgen
data_K2Th(PSe3)3
_symmetry_space_group_name_H-M   'P 1'
_cell_length_a   10.34417986
_cell_length_b   10.70068207
_cell_length_c   16.88009736
_cell_angle_alpha   89.90864131
_cell_angle_beta   107.37840544
_cell_angle_gamma   91.30756167
_symmetry_Int_Tables_number   1
_chemical_formula_structural   K2Th(PSe3)3
_chemical_formula_sum   'K8 Th4 P12 Se36'
_cell_volume   1782.67385227
_cell_formula_units_Z   4
loop_
 _symmetry_equiv_pos_site_id
 _symmetry_equiv_pos_as_xyz
  1  'x, y, z'
loop_
 _atom_site_type_symbol
 _atom_site_label
 _atom_site_symmetry_multiplicity
 _atom_site_fract_x
 _atom_site_fract_y
 _atom_site_fract_z
 _atom_site_occupancy
  K  K0  1  0.794859  0.830751  0.148850  1
  K  K1  1  0.205141  0.169249  0.851150  1
  K  K2  1  0.949660  0.737125  0.453551  1
  K  K3  1  0.050340  0.262875  0.546449  1
  K  K4  1  0.528042  0.257576  0.533511  1
  K  K5  1  0.471958  0.742424  0.466489  1
  K  K6  1  0.739840  0.307600  0.861327  1
  K  K7  1  0.260160  0.692400  0.138673  1
  Th  Th8  1  0.726366  0.281330  0.169279  1
  Th  Th9  1  0.273634  0.718670  0.830721  1
  Th  Th10  1  0.305590  0.223308  0.221046  1
  Th  Th11  1  0.694410  0.776692  0.778954  1
  P  P12  1  0.035686  0.501213  0.281997  1
  P  P13  1  0.964314  0.498787  0.718003  1
  P  P14  1  0.720439  0.087200  0.349662  1
  P  P15  1  0.279561  0.912800  0.650338  1
  P  P16  1  0.224527  0.430579  0.376109  1
  P  P17  1  0.775473  0.569421  0.623891  1
  P  P18  1  0.571239  0.575025  0.990851  1
  P  P19  1  0.428761  0.424975  0.009149  1
  P  P20  1  0.010755  0.071738  0.053501  1
  P  P21  1  0.989245  0.928262  0.946499  1
  P  P22  1  0.550548  0.961191  0.274569  1
  P  P23  1  0.449452  0.038809  0.725431  1
  Se  Se24  1  0.774120  0.512886  0.065831  1
  Se  Se25  1  0.225880  0.487114  0.934169  1
  Se  Se26  1  0.497787  0.062995  0.150055  1
  Se  Se27  1  0.502213  0.937005  0.849945  1
  Se  Se28  1  0.466887  0.433074  0.147861  1
  Se  Se29  1  0.533113  0.566926  0.852139  1
  Se  Se30  1  0.030677  0.378400  0.171426  1
  Se  Se31  1  0.969323  0.621600  0.828574  1
  Se  Se32  1  0.795492  0.119658  0.036602  1
  Se  Se33  1  0.204508  0.880342  0.963398  1
  Se  Se34  1  0.875017  0.080987  0.282843  1
  Se  Se35  1  0.124983  0.919013  0.717157  1
  Se  Se36  1  0.212756  0.223731  0.374859  1
  Se  Se37  1  0.787244  0.776269  0.625141  1
  Se  Se38  1  0.609343  0.271516  0.325849  1
  Se  Se39  1  0.390657  0.728484  0.674151  1
  Se  Se40  1  0.512505  0.245851  0.986674  1
  Se  Se41  1  0.487495  0.754149  0.013326  1
  Se  Se42  1  0.852723  0.445508  0.317443  1
  Se  Se43  1  0.147277  0.554492  0.682557  1
  Se  Se44  1  0.123840  0.990017  0.174397  1
  Se  Se45  1  0.876160  0.009983  0.825603  1
  Se  Se46  1  0.136316  0.230822  0.032771  1
  Se  Se47  1  0.863684  0.769178  0.967229  1
  Se  Se48  1  0.388423  0.996654  0.332433  1
  Se  Se49  1  0.611577  0.003346  0.667567  1
  Se  Se50  1  0.072857  0.700579  0.274324  1
  Se  Se51  1  0.927143  0.299421  0.725676  1
  Se  Se52  1  0.785145  0.034531  0.478025  1
  Se  Se53  1  0.214855  0.965469  0.521975  1
  Se  Se54  1  0.608476  0.768743  0.278549  1
  Se  Se55  1  0.391524  0.231257  0.721451  1
  Se  Se56  1  0.252534  0.513454  0.496481  1
  Se  Se57  1  0.747466  0.486546  0.503519  1
  Se  Se58  1  0.373795  0.480622  0.308480  1
  Se  Se59  1  0.626205  0.519378  0.691520  1
