# generated using pymatgen
data_EuCd11
_symmetry_space_group_name_H-M   'P 1'
_cell_length_a   9.43733670
_cell_length_b   9.43733670
_cell_length_c   9.43733670
_cell_angle_alpha   99.88885524
_cell_angle_beta   99.88885524
_cell_angle_gamma   131.03538785
_symmetry_Int_Tables_number   1
_chemical_formula_structural   EuCd11
_chemical_formula_sum   'Eu2 Cd22'
_cell_volume   577.00409917
_cell_formula_units_Z   2
loop_
 _symmetry_equiv_pos_site_id
 _symmetry_equiv_pos_as_xyz
  1  'x, y, z'
loop_
 _atom_site_type_symbol
 _atom_site_label
 _atom_site_symmetry_multiplicity
 _atom_site_fract_x
 _atom_site_fract_y
 _atom_site_fract_z
 _atom_site_occupancy
  Eu  Eu0  1  0.750000  0.250000  0.500000  1
  Eu  Eu1  1  0.500000  0.500000  0.000000  1
  Cd  Cd2  1  0.330527  0.745586  0.175069  1
  Cd  Cd3  1  0.625000  0.875000  0.750000  1
  Cd  Cd4  1  0.995586  0.320516  0.915058  1
  Cd  Cd5  1  0.570516  0.745586  0.415058  1
  Cd  Cd6  1  0.405458  0.320516  0.324931  1
  Cd  Cd7  1  0.254414  0.669473  0.824931  1
  Cd  Cd8  1  0.844542  0.669473  0.415058  1
  Cd  Cd9  1  0.919473  0.594542  0.915058  1
  Cd  Cd10  1  0.679484  0.004414  0.084942  1
  Cd  Cd11  1  0.000000  0.000000  0.000000  1
  Cd  Cd12  1  0.844542  0.429484  0.175069  1
  Cd  Cd13  1  0.250000  0.750000  0.500000  1
  Cd  Cd14  1  0.125000  0.375000  0.250000  1
  Cd  Cd15  1  0.254414  0.429484  0.584942  1
  Cd  Cd16  1  0.570516  0.155458  0.824931  1
  Cd  Cd17  1  0.919473  0.004414  0.324931  1
  Cd  Cd18  1  0.405458  0.080527  0.084942  1
  Cd  Cd19  1  0.995586  0.080527  0.675069  1
  Cd  Cd20  1  0.679484  0.594542  0.675069  1
  Cd  Cd21  1  0.330527  0.155458  0.584942  1
  Cd  Cd22  1  0.125000  0.875000  0.750000  1
  Cd  Cd23  1  0.125000  0.875000  0.250000  1
