# generated using pymatgen
data_KBS4(ClO3)4
_symmetry_space_group_name_H-M   'P 1'
_cell_length_a   11.20561515
_cell_length_b   11.20561515
_cell_length_c   10.76033338
_cell_angle_alpha   83.00038563
_cell_angle_beta   96.99961437
_cell_angle_gamma   43.84689222
_symmetry_Int_Tables_number   1
_chemical_formula_structural   KBS4(ClO3)4
_chemical_formula_sum   'K2 B2 S8 Cl8 O24'
_cell_volume   884.71544590
_cell_formula_units_Z   2
loop_
 _symmetry_equiv_pos_site_id
 _symmetry_equiv_pos_as_xyz
  1  'x, y, z'
loop_
 _atom_site_type_symbol
 _atom_site_label
 _atom_site_symmetry_multiplicity
 _atom_site_fract_x
 _atom_site_fract_y
 _atom_site_fract_z
 _atom_site_occupancy
  K  K0  1  0.347660  0.486322  0.595812  1
  K  K1  1  0.513678  0.652340  0.095812  1
  B  B2  1  0.121877  0.119831  0.498852  1
  B  B3  1  0.880169  0.878123  0.998852  1
  S  S4  1  0.614027  0.939460  0.059657  1
  S  S5  1  0.196948  0.620843  0.200567  1
  S  S6  1  0.060540  0.385973  0.559657  1
  S  S7  1  0.250445  0.048298  0.288462  1
  S  S8  1  0.741051  0.209829  0.948865  1
  S  S9  1  0.951702  0.749555  0.788462  1
  S  S10  1  0.379157  0.803052  0.700567  1
  S  S11  1  0.790171  0.258949  0.448865  1
  Cl  Cl12  1  0.696505  0.952696  0.657154  1
  Cl  Cl13  1  0.342948  0.359155  0.232894  1
  Cl  Cl14  1  0.640845  0.657052  0.732894  1
  Cl  Cl15  1  0.835060  0.069180  0.385947  1
  Cl  Cl16  1  0.355942  0.158260  0.940103  1
  Cl  Cl17  1  0.841740  0.644058  0.440103  1
  Cl  Cl18  1  0.930820  0.164940  0.885947  1
  Cl  Cl19  1  0.047304  0.303495  0.157154  1
  O  O20  1  0.730531  0.390768  0.334964  1
  O  O21  1  0.285605  0.988872  0.616121  1
  O  O22  1  0.678365  0.314050  0.532439  1
  O  O23  1  0.981950  0.146787  0.537088  1
  O  O24  1  0.272815  0.653324  0.124710  1
  O  O25  1  0.070997  0.285681  0.464845  1
  O  O26  1  0.346546  0.814828  0.825929  1
  O  O27  1  0.972636  0.614131  0.854890  1
  O  O28  1  0.945195  0.849169  0.882140  1
  O  O29  1  0.212817  0.352368  0.576022  1
  O  O30  1  0.647632  0.787183  0.076022  1
  O  O31  1  0.637865  0.984110  0.172330  1
  O  O32  1  0.853213  0.018050  0.037088  1
  O  O33  1  0.714319  0.929003  0.964845  1
  O  O34  1  0.293745  0.927967  0.216408  1
  O  O35  1  0.150831  0.054805  0.382140  1
  O  O36  1  0.185172  0.653454  0.325929  1
  O  O37  1  0.609232  0.269469  0.834964  1
  O  O38  1  0.685950  0.321635  0.032439  1
  O  O39  1  0.011128  0.714395  0.116121  1
  O  O40  1  0.346676  0.727185  0.624710  1
  O  O41  1  0.072033  0.706255  0.716408  1
  O  O42  1  0.385869  0.027364  0.354890  1
  O  O43  1  0.015890  0.362135  0.672330  1
