# generated using pymatgen
data_HgI2
_symmetry_space_group_name_H-M   'P 1'
_cell_length_a   15.97453582
_cell_length_b   15.97453582
_cell_length_c   15.97453582
_cell_angle_alpha   130.95130632
_cell_angle_beta   130.95130632
_cell_angle_gamma   71.89045449
_symmetry_Int_Tables_number   1
_chemical_formula_structural   HgI2
_chemical_formula_sum   'Hg16 I32'
_cell_volume   2274.40118723
_cell_formula_units_Z   16
loop_
 _symmetry_equiv_pos_site_id
 _symmetry_equiv_pos_as_xyz
  1  'x, y, z'
loop_
 _atom_site_type_symbol
 _atom_site_label
 _atom_site_symmetry_multiplicity
 _atom_site_fract_x
 _atom_site_fract_y
 _atom_site_fract_z
 _atom_site_occupancy
  Hg  Hg0  1  0.179372  0.937011  0.993073  1
  Hg  Hg1  1  0.187011  0.929372  0.493073  1
  Hg  Hg2  1  0.813701  0.820628  0.757639  1
  Hg  Hg3  1  0.562989  0.320628  0.006927  1
  Hg  Hg4  1  0.570628  0.312989  0.506927  1
  Hg  Hg5  1  0.687011  0.193938  0.257639  1
  Hg  Hg6  1  0.806062  0.063701  0.493073  1
  Hg  Hg7  1  0.936299  0.429372  0.742361  1
  Hg  Hg8  1  0.943938  0.186299  0.006927  1
  Hg  Hg9  1  0.443938  0.437011  0.757639  1
  Hg  Hg10  1  0.436299  0.693938  0.506927  1
  Hg  Hg11  1  0.679372  0.686299  0.242361  1
  Hg  Hg12  1  0.306062  0.812989  0.742361  1
  Hg  Hg13  1  0.313701  0.556062  0.993073  1
  Hg  Hg14  1  0.070628  0.563701  0.257639  1
  Hg  Hg15  1  0.062989  0.056062  0.242361  1
  I  I16  1  0.125000  0.120062  0.495062  1
  I  I17  1  0.379938  0.375000  0.504938  1
  I  I18  1  0.003091  0.243897  0.747740  1
  I  I19  1  0.871065  0.871065  0.000000  1
  I  I20  1  0.125000  0.620062  0.995062  1
  I  I21  1  0.870062  0.875000  0.495062  1
  I  I22  1  0.996157  0.743897  0.240806  1
  I  I23  1  0.253843  0.994649  0.247740  1
  I  I24  1  0.378935  0.878935  0.500000  1
  I  I25  1  0.246909  0.494649  0.740806  1
  I  I26  1  0.256103  0.496909  0.252260  1
  I  I27  1  0.878935  0.378935  0.500000  1
  I  I28  1  0.625000  0.129938  0.004938  1
  I  I29  1  0.879938  0.375000  0.004938  1
  I  I30  1  0.496157  0.255351  0.252260  1
  I  I31  1  0.744649  0.996909  0.240806  1
  I  I32  1  0.621065  0.121065  0.500000  1
  I  I33  1  0.746909  0.006103  0.752260  1
  I  I34  1  0.625000  0.629938  0.504938  1
  I  I35  1  0.753843  0.506103  0.259194  1
  I  I36  1  0.244649  0.003843  0.747740  1
  I  I37  1  0.121065  0.621065  0.500000  1
  I  I38  1  0.993897  0.746157  0.740806  1
  I  I39  1  0.128935  0.128935  0.000000  1
  I  I40  1  0.493897  0.753091  0.247740  1
  I  I41  1  0.756103  0.503843  0.759194  1
  I  I42  1  0.371065  0.371065  0.000000  1
  I  I43  1  0.505351  0.246157  0.752260  1
  I  I44  1  0.005351  0.253091  0.259194  1
  I  I45  1  0.370062  0.875000  0.995062  1
  I  I46  1  0.628935  0.628935  0.000000  1
  I  I47  1  0.503091  0.755351  0.759194  1
