# generated using pymatgen
data_Cr(B3H8)2
_symmetry_space_group_name_H-M   'P 1'
_cell_length_a   4.47519247
_cell_length_b   5.88429475
_cell_length_c   8.98925287
_cell_angle_alpha   105.93312795
_cell_angle_beta   92.45341680
_cell_angle_gamma   111.62065480
_symmetry_Int_Tables_number   1
_chemical_formula_structural   Cr(B3H8)2
_chemical_formula_sum   'Cr1 B6 H16'
_cell_volume   208.84661149
_cell_formula_units_Z   1
loop_
 _symmetry_equiv_pos_site_id
 _symmetry_equiv_pos_as_xyz
  1  'x, y, z'
loop_
 _atom_site_type_symbol
 _atom_site_label
 _atom_site_symmetry_multiplicity
 _atom_site_fract_x
 _atom_site_fract_y
 _atom_site_fract_z
 _atom_site_occupancy
  Cr  Cr0  1  0.500000  0.000000  0.500000  1
  B  B1  1  0.007767  0.307182  0.304715  1
  B  B2  1  0.992233  0.692818  0.695285  1
  B  B3  1  0.978586  0.203331  0.132296  1
  B  B4  1  0.953090  0.995500  0.312877  1
  B  B5  1  0.021414  0.796669  0.867704  1
  B  B6  1  0.046910  0.004500  0.687123  1
  H  H7  1  0.232148  0.284612  0.023977  1
  H  H8  1  0.741621  0.566670  0.668734  1
  H  H9  1  0.176634  0.942361  0.341950  1
  H  H10  1  0.759083  0.332574  0.382866  1
  H  H11  1  0.059211  0.056369  0.814407  1
  H  H12  1  0.823366  0.057639  0.658050  1
  H  H13  1  0.240917  0.667426  0.617134  1
  H  H14  1  0.030521  0.436520  0.171382  1
  H  H15  1  0.282165  0.840723  0.897505  1
  H  H16  1  0.767852  0.715388  0.976023  1
  H  H17  1  0.717835  0.159277  0.102495  1
  H  H18  1  0.674157  0.815083  0.399200  1
  H  H19  1  0.325843  0.184917  0.600800  1
  H  H20  1  0.940789  0.943631  0.185593  1
  H  H21  1  0.969479  0.563480  0.828618  1
  H  H22  1  0.258379  0.433330  0.331266  1
