# generated using pymatgen
data_MoP2O7
_symmetry_space_group_name_H-M   'P 1'
_cell_length_a   8.39494527
_cell_length_b   8.39494527
_cell_length_c   8.39494527
_cell_angle_alpha   90.00000000
_cell_angle_beta   90.00000000
_cell_angle_gamma   90.00000000
_symmetry_Int_Tables_number   1
_chemical_formula_structural   MoP2O7
_chemical_formula_sum   'Mo4 P8 O28'
_cell_volume   591.63465849
_cell_formula_units_Z   4
loop_
 _symmetry_equiv_pos_site_id
 _symmetry_equiv_pos_as_xyz
  1  'x, y, z'
loop_
 _atom_site_type_symbol
 _atom_site_label
 _atom_site_symmetry_multiplicity
 _atom_site_fract_x
 _atom_site_fract_y
 _atom_site_fract_z
 _atom_site_occupancy
  Mo  Mo0  1  0.000000  0.000000  0.000000  1
  Mo  Mo1  1  0.500000  0.000000  0.500000  1
  Mo  Mo2  1  0.500000  0.500000  0.000000  1
  Mo  Mo3  1  0.000000  0.500000  0.500000  1
  P  P4  1  0.390787  0.390787  0.390787  1
  P  P5  1  0.109213  0.609213  0.890787  1
  P  P6  1  0.890787  0.109213  0.609213  1
  P  P7  1  0.609213  0.890787  0.109213  1
  P  P8  1  0.609213  0.609213  0.609213  1
  P  P9  1  0.890787  0.390787  0.109213  1
  P  P10  1  0.109213  0.890787  0.390787  1
  P  P11  1  0.390787  0.109213  0.890787  1
  O  O12  1  0.500000  0.500000  0.500000  1
  O  O13  1  0.000000  0.500000  0.000000  1
  O  O14  1  0.000000  0.000000  0.500000  1
  O  O15  1  0.500000  0.000000  0.000000  1
  O  O16  1  0.219608  0.086465  0.943958  1
  O  O17  1  0.943958  0.219608  0.086465  1
  O  O18  1  0.086465  0.943958  0.219608  1
  O  O19  1  0.413535  0.056042  0.719608  1
  O  O20  1  0.443958  0.280392  0.913535  1
  O  O21  1  0.913535  0.443958  0.280392  1
  O  O22  1  0.556042  0.780392  0.586465  1
  O  O23  1  0.056042  0.719608  0.413535  1
  O  O24  1  0.586465  0.556042  0.780392  1
  O  O25  1  0.719608  0.413535  0.056042  1
  O  O26  1  0.780392  0.586465  0.556042  1
  O  O27  1  0.280392  0.913535  0.443958  1
  O  O28  1  0.780392  0.913535  0.056042  1
  O  O29  1  0.056042  0.780392  0.913535  1
  O  O30  1  0.913535  0.056042  0.780392  1
  O  O31  1  0.586465  0.943958  0.280392  1
  O  O32  1  0.556042  0.719608  0.086465  1
  O  O33  1  0.086465  0.556042  0.719608  1
  O  O34  1  0.443958  0.219608  0.413535  1
  O  O35  1  0.943958  0.280392  0.586465  1
  O  O36  1  0.413535  0.443958  0.219608  1
  O  O37  1  0.280392  0.586465  0.943958  1
  O  O38  1  0.219608  0.413535  0.443958  1
  O  O39  1  0.719608  0.086465  0.556042  1
