# generated using pymatgen
data_SiO2
_symmetry_space_group_name_H-M   'P 1'
_cell_length_a   9.25887395
_cell_length_b   9.25887395
_cell_length_c   9.00605055
_cell_angle_alpha   81.26680264
_cell_angle_beta   98.73319736
_cell_angle_gamma   69.05522536
_symmetry_Int_Tables_number   1
_chemical_formula_structural   SiO2
_chemical_formula_sum   'Si12 O24'
_cell_volume   694.69394566
_cell_formula_units_Z   12
loop_
 _symmetry_equiv_pos_site_id
 _symmetry_equiv_pos_as_xyz
  1  'x, y, z'
loop_
 _atom_site_type_symbol
 _atom_site_label
 _atom_site_symmetry_multiplicity
 _atom_site_fract_x
 _atom_site_fract_y
 _atom_site_fract_z
 _atom_site_occupancy
  Si  Si0  1  0.999720  0.201308  0.692315  1
  Si  Si1  1  0.798692  0.000280  0.692315  1
  Si  Si2  1  0.296556  0.908944  0.669659  1
  Si  Si3  1  0.110717  0.404119  0.895796  1
  Si  Si4  1  0.700000  0.098804  0.329144  1
  Si  Si5  1  0.895255  0.596101  0.106921  1
  Si  Si6  1  0.994595  0.800016  0.314711  1
  Si  Si7  1  0.595881  0.889283  0.895796  1
  Si  Si8  1  0.199984  0.005405  0.314711  1
  Si  Si9  1  0.091056  0.703444  0.669659  1
  Si  Si10  1  0.403899  0.104745  0.106921  1
  Si  Si11  1  0.901196  0.300000  0.329144  1
  O  O12  1  0.990553  0.687743  0.194537  1
  O  O13  1  0.754304  0.245696  0.281979  1
  O  O14  1  0.503561  0.993317  0.006010  1
  O  O15  1  0.234549  0.765451  0.695312  1
  O  O16  1  0.176821  0.064643  0.716024  1
  O  O17  1  0.278276  0.271475  0.997068  1
  O  O18  1  0.006683  0.496439  0.006010  1
  O  O19  1  0.879586  0.120414  0.743931  1
  O  O20  1  0.060353  0.181029  0.287495  1
  O  O21  1  0.312257  0.009447  0.194537  1
  O  O22  1  0.933098  0.296831  0.512718  1
  O  O23  1  0.935357  0.823179  0.716024  1
  O  O24  1  0.818971  0.939647  0.287495  1
  O  O25  1  0.676536  0.991891  0.800593  1
  O  O26  1  0.306115  0.953497  0.490223  1
  O  O27  1  0.046503  0.693885  0.490223  1
  O  O28  1  0.521733  0.144321  0.232813  1
  O  O29  1  0.728525  0.721724  0.997068  1
  O  O30  1  0.123204  0.876796  0.284272  1
  O  O31  1  0.008109  0.323464  0.800593  1
  O  O32  1  0.855679  0.478267  0.232813  1
  O  O33  1  0.472501  0.849662  0.776560  1
  O  O34  1  0.150338  0.527499  0.776560  1
  O  O35  1  0.703169  0.066902  0.512718  1
