# generated using pymatgen
data_Ba3CaSb2O9
_symmetry_space_group_name_H-M   'P 1'
_cell_length_a   6.08641238
_cell_length_b   6.08641238
_cell_length_c   15.07466003
_cell_angle_alpha   88.96710101
_cell_angle_beta   91.03289899
_cell_angle_gamma   60.19634181
_symmetry_Int_Tables_number   1
_chemical_formula_structural   Ba3CaSb2O9
_chemical_formula_sum   'Ba6 Ca2 Sb4 O18'
_cell_volume   484.25708476
_cell_formula_units_Z   2
loop_
 _symmetry_equiv_pos_site_id
 _symmetry_equiv_pos_as_xyz
  1  'x, y, z'
loop_
 _atom_site_type_symbol
 _atom_site_label
 _atom_site_symmetry_multiplicity
 _atom_site_fract_x
 _atom_site_fract_y
 _atom_site_fract_z
 _atom_site_occupancy
  Ba  Ba0  1  0.009993  0.009993  0.250000  1
  Ba  Ba1  1  0.339424  0.323010  0.589876  1
  Ba  Ba2  1  0.323010  0.339424  0.910124  1
  Ba  Ba3  1  0.676990  0.660576  0.089876  1
  Ba  Ba4  1  0.660576  0.676990  0.410124  1
  Ba  Ba5  1  0.990007  0.990007  0.750000  1
  Ca  Ca6  1  0.000000  0.000000  0.500000  1
  Ca  Ca7  1  0.000000  0.000000  0.000000  1
  Sb  Sb8  1  0.316553  0.357536  0.345425  1
  Sb  Sb9  1  0.642464  0.683447  0.845425  1
  Sb  Sb10  1  0.357536  0.316553  0.154575  1
  Sb  Sb11  1  0.683447  0.642464  0.654575  1
  O  O12  1  0.951456  0.520826  0.763578  1
  O  O13  1  0.136973  0.219193  0.412286  1
  O  O14  1  0.780807  0.863027  0.912286  1
  O  O15  1  0.868573  0.305004  0.604944  1
  O  O16  1  0.048544  0.479174  0.236422  1
  O  O17  1  0.131427  0.694996  0.395056  1
  O  O18  1  0.479174  0.048544  0.263578  1
  O  O19  1  0.226772  0.609505  0.072199  1
  O  O20  1  0.517072  0.517072  0.750000  1
  O  O21  1  0.609505  0.226772  0.427801  1
  O  O22  1  0.694996  0.131427  0.104944  1
  O  O23  1  0.863027  0.780807  0.587714  1
  O  O24  1  0.520826  0.951456  0.736422  1
  O  O25  1  0.390495  0.773228  0.572199  1
  O  O26  1  0.773228  0.390495  0.927801  1
  O  O27  1  0.305004  0.868573  0.895056  1
  O  O28  1  0.219193  0.136973  0.087714  1
  O  O29  1  0.482928  0.482928  0.250000  1
