# generated using pymatgen
data_Cs3P7
_symmetry_space_group_name_H-M   'P 1'
_cell_length_a   9.25153431
_cell_length_b   9.25153431
_cell_length_c   16.94100139
_cell_angle_alpha   90.00000000
_cell_angle_beta   90.00000000
_cell_angle_gamma   90.00000000
_symmetry_Int_Tables_number   1
_chemical_formula_structural   Cs3P7
_chemical_formula_sum   'Cs12 P28'
_cell_volume   1449.99533715
_cell_formula_units_Z   4
loop_
 _symmetry_equiv_pos_site_id
 _symmetry_equiv_pos_as_xyz
  1  'x, y, z'
loop_
 _atom_site_type_symbol
 _atom_site_label
 _atom_site_symmetry_multiplicity
 _atom_site_fract_x
 _atom_site_fract_y
 _atom_site_fract_z
 _atom_site_occupancy
  Cs  Cs0  1  0.745983  0.380867  0.000841  1
  Cs  Cs1  1  0.619133  0.745983  0.250841  1
  Cs  Cs2  1  0.380867  0.254017  0.750841  1
  Cs  Cs3  1  0.254017  0.619133  0.500841  1
  Cs  Cs4  1  0.417710  0.735614  0.838263  1
  Cs  Cs5  1  0.264386  0.417710  0.088263  1
  Cs  Cs6  1  0.735614  0.582290  0.588263  1
  Cs  Cs7  1  0.582290  0.264386  0.338263  1
  Cs  Cs8  1  0.024004  0.837973  0.995333  1
  Cs  Cs9  1  0.162027  0.024004  0.245333  1
  Cs  Cs10  1  0.837973  0.975996  0.745333  1
  Cs  Cs11  1  0.975996  0.162027  0.495333  1
  P  P12  1  0.789853  0.598715  0.810469  1
  P  P13  1  0.401285  0.789853  0.060469  1
  P  P14  1  0.598715  0.210147  0.560469  1
  P  P15  1  0.210147  0.401285  0.310469  1
  P  P16  1  0.444787  0.093710  0.945181  1
  P  P17  1  0.906290  0.444787  0.195181  1
  P  P18  1  0.093710  0.555213  0.695181  1
  P  P19  1  0.555213  0.906290  0.445181  1
  P  P20  1  0.105576  0.476704  0.890958  1
  P  P21  1  0.523296  0.105576  0.140958  1
  P  P22  1  0.476704  0.894424  0.640958  1
  P  P23  1  0.894424  0.523296  0.390958  1
  P  P24  1  0.358256  0.023592  0.059273  1
  P  P25  1  0.976408  0.358256  0.309273  1
  P  P26  1  0.023592  0.641744  0.809273  1
  P  P27  1  0.641744  0.976408  0.559273  1
  P  P28  1  0.626286  0.796533  0.031745  1
  P  P29  1  0.203467  0.626286  0.281745  1
  P  P30  1  0.796533  0.373714  0.781745  1
  P  P31  1  0.373714  0.203467  0.531745  1
  P  P32  1  0.998465  0.344637  0.705090  1
  P  P33  1  0.655363  0.998465  0.955090  1
  P  P34  1  0.344637  0.001535  0.455090  1
  P  P35  1  0.001535  0.655363  0.205090  1
  P  P36  1  0.007745  0.290304  0.838046  1
  P  P37  1  0.709696  0.007745  0.088046  1
  P  P38  1  0.290304  0.992255  0.588046  1
  P  P39  1  0.992255  0.709696  0.338046  1
