# generated using pymatgen
data_K2Th(PSe3)3
_symmetry_space_group_name_H-M   'P 1'
_cell_length_a   10.53645246
_cell_length_b   7.97773891
_cell_length_c   22.74659212
_cell_angle_alpha   90.00000000
_cell_angle_beta   113.58959887
_cell_angle_gamma   90.00000000
_symmetry_Int_Tables_number   1
_chemical_formula_structural   K2Th(PSe3)3
_chemical_formula_sum   'K8 Th4 P12 Se36'
_cell_volume   1752.23529376
_cell_formula_units_Z   4
loop_
 _symmetry_equiv_pos_site_id
 _symmetry_equiv_pos_as_xyz
  1  'x, y, z'
loop_
 _atom_site_type_symbol
 _atom_site_label
 _atom_site_symmetry_multiplicity
 _atom_site_fract_x
 _atom_site_fract_y
 _atom_site_fract_z
 _atom_site_occupancy
  K  K0  1  0.241652  0.587506  0.000027  1
  K  K1  1  0.440604  0.101198  0.177116  1
  K  K2  1  0.758348  0.412494  0.999973  1
  K  K3  1  0.241652  0.912494  0.500027  1
  K  K4  1  0.559396  0.898802  0.822884  1
  K  K5  1  0.758348  0.087506  0.499973  1
  K  K6  1  0.440604  0.398802  0.677116  1
  K  K7  1  0.559396  0.601198  0.322884  1
  Th  Th8  1  0.895727  0.593085  0.645560  1
  Th  Th9  1  0.104273  0.406915  0.354440  1
  Th  Th10  1  0.104273  0.093085  0.854440  1
  Th  Th11  1  0.895727  0.906915  0.145560  1
  P  P12  1  0.379529  0.123190  0.341561  1
  P  P13  1  0.620471  0.876810  0.658439  1
  P  P14  1  0.930011  0.888122  0.986182  1
  P  P15  1  0.069989  0.388122  0.513818  1
  P  P16  1  0.779765  0.086944  0.693308  1
  P  P17  1  0.220235  0.913056  0.306692  1
  P  P18  1  0.620471  0.623190  0.158439  1
  P  P19  1  0.220235  0.586944  0.806692  1
  P  P20  1  0.069989  0.111878  0.013818  1
  P  P21  1  0.379529  0.376810  0.841561  1
  P  P22  1  0.779765  0.413056  0.193308  1
  P  P23  1  0.930011  0.611878  0.486182  1
  Se  Se24  1  0.205979  0.823503  0.212437  1
  Se  Se25  1  0.980488  0.955498  0.708704  1
  Se  Se26  1  0.636871  0.713580  0.068327  1
  Se  Se27  1  0.721953  0.672254  0.726103  1
  Se  Se28  1  0.426849  0.969337  0.657269  1
  Se  Se29  1  0.293537  0.781920  0.882646  1
  Se  Se30  1  0.075512  0.304587  0.606503  1
  Se  Se31  1  0.075512  0.195413  0.106503  1
  Se  Se32  1  0.794021  0.323503  0.287563  1
  Se  Se33  1  0.924488  0.695413  0.393497  1
  Se  Se34  1  0.278047  0.172254  0.773897  1
  Se  Se35  1  0.573151  0.469337  0.842731  1
  Se  Se36  1  0.980448  0.293461  0.933812  1
  Se  Se37  1  0.262077  0.477356  0.506274  1
  Se  Se38  1  0.262077  0.022644  0.006274  1
  Se  Se39  1  0.019552  0.706539  0.066188  1
  Se  Se40  1  0.205979  0.676497  0.712437  1
  Se  Se41  1  0.426849  0.530663  0.157269  1
  Se  Se42  1  0.636871  0.786420  0.568327  1
  Se  Se43  1  0.980488  0.544502  0.208704  1
  Se  Se44  1  0.737923  0.522644  0.493726  1
  Se  Se45  1  0.980448  0.206539  0.433812  1
  Se  Se46  1  0.924488  0.804587  0.893497  1
  Se  Se47  1  0.363129  0.213580  0.431673  1
  Se  Se48  1  0.721953  0.827746  0.226103  1
  Se  Se49  1  0.019512  0.455498  0.791296  1
  Se  Se50  1  0.278047  0.327746  0.273897  1
  Se  Se51  1  0.363129  0.286420  0.931673  1
  Se  Se52  1  0.019512  0.044502  0.291296  1
  Se  Se53  1  0.573151  0.030663  0.342731  1
  Se  Se54  1  0.794021  0.176497  0.787563  1
  Se  Se55  1  0.293537  0.718080  0.382646  1
  Se  Se56  1  0.019552  0.793461  0.566188  1
  Se  Se57  1  0.706463  0.218080  0.117354  1
  Se  Se58  1  0.737923  0.977356  0.993726  1
  Se  Se59  1  0.706463  0.281920  0.617354  1
