# generated using pymatgen
data_U3(Al3Ru)4
_symmetry_space_group_name_H-M   'P 1'
_cell_length_a   8.82943758
_cell_length_b   8.82943758
_cell_length_c   9.44189506
_cell_angle_alpha   90.00000000
_cell_angle_beta   90.00000000
_cell_angle_gamma   120.00000000
_symmetry_Int_Tables_number   1
_chemical_formula_structural   U3(Al3Ru)4
_chemical_formula_sum   'U6 Al24 Ru8'
_cell_volume   637.46432068
_cell_formula_units_Z   2
loop_
 _symmetry_equiv_pos_site_id
 _symmetry_equiv_pos_as_xyz
  1  'x, y, z'
loop_
 _atom_site_type_symbol
 _atom_site_label
 _atom_site_symmetry_multiplicity
 _atom_site_fract_x
 _atom_site_fract_y
 _atom_site_fract_z
 _atom_site_occupancy
  U  U0  1  0.408251  0.204126  0.750000  1
  U  U1  1  0.795874  0.204126  0.750000  1
  U  U2  1  0.204126  0.408251  0.250000  1
  U  U3  1  0.591749  0.795874  0.250000  1
  U  U4  1  0.795874  0.591749  0.750000  1
  U  U5  1  0.204126  0.795874  0.250000  1
  Al  Al6  1  0.678971  0.839486  0.919177  1
  Al  Al7  1  0.839486  0.678971  0.419177  1
  Al  Al8  1  0.160514  0.839486  0.919177  1
  Al  Al9  1  0.438182  0.876363  0.750000  1
  Al  Al10  1  0.438182  0.561818  0.750000  1
  Al  Al11  1  0.321029  0.160514  0.080823  1
  Al  Al12  1  0.666667  0.333333  0.512001  1
  Al  Al13  1  0.160514  0.321029  0.919177  1
  Al  Al14  1  0.839486  0.678971  0.080823  1
  Al  Al15  1  0.123637  0.561818  0.750000  1
  Al  Al16  1  0.839486  0.160514  0.080823  1
  Al  Al17  1  0.876363  0.438182  0.250000  1
  Al  Al18  1  0.321029  0.160514  0.419177  1
  Al  Al19  1  0.000000  0.000000  0.250000  1
  Al  Al20  1  0.000000  0.000000  0.750000  1
  Al  Al21  1  0.561818  0.123637  0.250000  1
  Al  Al22  1  0.839486  0.160514  0.419177  1
  Al  Al23  1  0.160514  0.321029  0.580823  1
  Al  Al24  1  0.666667  0.333333  0.987999  1
  Al  Al25  1  0.333333  0.666667  0.012001  1
  Al  Al26  1  0.160514  0.839486  0.580823  1
  Al  Al27  1  0.561818  0.438182  0.250000  1
  Al  Al28  1  0.333333  0.666667  0.487999  1
  Al  Al29  1  0.678971  0.839486  0.580823  1
  Ru  Ru30  1  0.000000  0.000000  0.000000  1
  Ru  Ru31  1  0.500000  0.500000  0.500000  1
  Ru  Ru32  1  0.500000  0.500000  0.000000  1
  Ru  Ru33  1  0.000000  0.000000  0.500000  1
  Ru  Ru34  1  0.000000  0.500000  0.500000  1
  Ru  Ru35  1  0.500000  0.000000  0.500000  1
  Ru  Ru36  1  0.500000  0.000000  0.000000  1
  Ru  Ru37  1  0.000000  0.500000  0.000000  1
