# generated using pymatgen
data_Co2B2O5
_symmetry_space_group_name_H-M   'P 1'
_cell_length_a   3.19160034
_cell_length_b   6.21826619
_cell_length_c   9.34156205
_cell_angle_alpha   104.32344458
_cell_angle_beta   90.63614125
_cell_angle_gamma   91.97896038
_symmetry_Int_Tables_number   1
_chemical_formula_structural   Co2B2O5
_chemical_formula_sum   'Co4 B4 O10'
_cell_volume   179.48754105
_cell_formula_units_Z   2
loop_
 _symmetry_equiv_pos_site_id
 _symmetry_equiv_pos_as_xyz
  1  'x, y, z'
loop_
 _atom_site_type_symbol
 _atom_site_label
 _atom_site_symmetry_multiplicity
 _atom_site_fract_x
 _atom_site_fract_y
 _atom_site_fract_z
 _atom_site_occupancy
  Co  Co0  1  0.271209  0.787410  0.641218  1
  Co  Co1  1  0.728791  0.212590  0.358782  1
  Co  Co2  1  0.763434  0.627380  0.898105  1
  Co  Co3  1  0.236566  0.372620  0.101895  1
  B  B4  1  0.301851  0.318364  0.644927  1
  B  B5  1  0.698149  0.681636  0.355073  1
  B  B6  1  0.666134  0.119883  0.830847  1
  B  B7  1  0.333866  0.880117  0.169153  1
  O  O8  1  0.737921  0.303395  0.945833  1
  O  O9  1  0.262079  0.696605  0.054167  1
  O  O10  1  0.782665  0.908238  0.818863  1
  O  O11  1  0.217335  0.091762  0.181137  1
  O  O12  1  0.261251  0.523594  0.741568  1
  O  O13  1  0.738749  0.476406  0.258432  1
  O  O14  1  0.440377  0.140624  0.701689  1
  O  O15  1  0.559623  0.859376  0.298311  1
  O  O16  1  0.228292  0.276192  0.497586  1
  O  O17  1  0.771708  0.723808  0.502414  1
