# generated using pymatgen
data_LiFePO4
_symmetry_space_group_name_H-M   'P 1'
_cell_length_a   8.64378372
_cell_length_b   8.64378372
_cell_length_c   8.64378372
_cell_angle_alpha   107.65274740
_cell_angle_beta   107.65274740
_cell_angle_gamma   107.65274740
_symmetry_Int_Tables_number   1
_chemical_formula_structural   LiFePO4
_chemical_formula_sum   'Li6 Fe6 P6 O24'
_cell_volume   527.97561973
_cell_formula_units_Z   6
loop_
 _symmetry_equiv_pos_site_id
 _symmetry_equiv_pos_as_xyz
  1  'x, y, z'
loop_
 _atom_site_type_symbol
 _atom_site_label
 _atom_site_symmetry_multiplicity
 _atom_site_fract_x
 _atom_site_fract_y
 _atom_site_fract_z
 _atom_site_occupancy
  Li  Li0  1  0.720803  0.891713  0.123788  1
  Li  Li1  1  0.609070  0.424333  0.210329  1
  Li  Li2  1  0.210329  0.609070  0.424333  1
  Li  Li3  1  0.891713  0.123788  0.720803  1
  Li  Li4  1  0.424333  0.210329  0.609070  1
  Li  Li5  1  0.123788  0.720803  0.891713  1
  Fe  Fe6  1  0.230309  0.457385  0.052047  1
  Fe  Fe7  1  0.943134  0.768233  0.536733  1
  Fe  Fe8  1  0.457385  0.052047  0.230309  1
  Fe  Fe9  1  0.536733  0.943134  0.768233  1
  Fe  Fe10  1  0.052047  0.230309  0.457385  1
  Fe  Fe11  1  0.768233  0.536733  0.943134  1
  P  P12  1  0.875576  0.280939  0.097036  1
  P  P13  1  0.572854  0.789791  0.385174  1
  P  P14  1  0.097036  0.875576  0.280939  1
  P  P15  1  0.789791  0.385174  0.572854  1
  P  P16  1  0.385174  0.572854  0.789791  1
  P  P17  1  0.280939  0.097036  0.875576  1
  O  O18  1  0.969030  0.968415  0.294630  1
  O  O19  1  0.771497  0.399431  0.095432  1
  O  O20  1  0.740593  0.080690  0.027185  1
  O  O21  1  0.591840  0.904103  0.277572  1
  O  O22  1  0.352025  0.289286  0.024623  1
  O  O23  1  0.027185  0.740593  0.080690  1
  O  O24  1  0.685406  0.681251  0.361764  1
  O  O25  1  0.372524  0.654847  0.309327  1
  O  O26  1  0.654847  0.309327  0.372524  1
  O  O27  1  0.646834  0.915913  0.588949  1
  O  O28  1  0.095432  0.771497  0.399431  1
  O  O29  1  0.024623  0.352025  0.289286  1
  O  O30  1  0.915913  0.588949  0.646834  1
  O  O31  1  0.904103  0.277572  0.591840  1
  O  O32  1  0.289286  0.024623  0.352025  1
  O  O33  1  0.681251  0.361764  0.685406  1
  O  O34  1  0.361764  0.685406  0.681251  1
  O  O35  1  0.309327  0.372524  0.654847  1
  O  O36  1  0.588949  0.646834  0.915913  1
  O  O37  1  0.294630  0.969030  0.968415  1
  O  O38  1  0.968415  0.294630  0.969030  1
  O  O39  1  0.399431  0.095432  0.771497  1
  O  O40  1  0.277572  0.591840  0.904103  1
  O  O41  1  0.080690  0.027185  0.740593  1
