# generated using pymatgen
data_SiO2
_symmetry_space_group_name_H-M   'P 1'
_cell_length_a   19.60776162
_cell_length_b   19.60776162
_cell_length_c   7.49645018
_cell_angle_alpha   90.00000000
_cell_angle_beta   90.00000000
_cell_angle_gamma   90.00000000
_symmetry_Int_Tables_number   1
_chemical_formula_structural   SiO2
_chemical_formula_sum   'Si48 O96'
_cell_volume   2882.11758898
_cell_formula_units_Z   48
loop_
 _symmetry_equiv_pos_site_id
 _symmetry_equiv_pos_as_xyz
  1  'x, y, z'
loop_
 _atom_site_type_symbol
 _atom_site_label
 _atom_site_symmetry_multiplicity
 _atom_site_fract_x
 _atom_site_fract_y
 _atom_site_fract_z
 _atom_site_occupancy
  Si  Si0  1  0.643268  0.744386  0.906719  1
  Si  Si1  1  0.191941  0.919075  0.539211  1
  Si  Si2  1  0.580925  0.691941  0.539211  1
  Si  Si3  1  0.744386  0.643268  0.093281  1
  Si  Si4  1  0.919075  0.191941  0.460789  1
  Si  Si5  1  0.255614  0.356732  0.093281  1
  Si  Si6  1  0.856732  0.244386  0.093281  1
  Si  Si7  1  0.192391  0.420248  0.749372  1
  Si  Si8  1  0.920248  0.307609  0.749372  1
  Si  Si9  1  0.244386  0.143268  0.906719  1
  Si  Si10  1  0.192391  0.579752  0.749372  1
  Si  Si11  1  0.079752  0.692391  0.749372  1
  Si  Si12  1  0.308059  0.580925  0.460789  1
  Si  Si13  1  0.692391  0.079752  0.250628  1
  Si  Si14  1  0.692391  0.920248  0.250628  1
  Si  Si15  1  0.143268  0.755614  0.093281  1
  Si  Si16  1  0.307609  0.079752  0.250628  1
  Si  Si17  1  0.356732  0.255614  0.906719  1
  Si  Si18  1  0.244386  0.856732  0.906719  1
  Si  Si19  1  0.691941  0.580925  0.460789  1
  Si  Si20  1  0.419075  0.308059  0.539211  1
  Si  Si21  1  0.755614  0.856732  0.906719  1
  Si  Si22  1  0.579752  0.807609  0.250628  1
  Si  Si23  1  0.307609  0.920248  0.250628  1
  Si  Si24  1  0.080925  0.808059  0.460789  1
  Si  Si25  1  0.643268  0.255614  0.906719  1
  Si  Si26  1  0.755614  0.143268  0.906719  1
  Si  Si27  1  0.808059  0.080925  0.539211  1
  Si  Si28  1  0.308059  0.419075  0.460789  1
  Si  Si29  1  0.143268  0.244386  0.093281  1
  Si  Si30  1  0.356732  0.744386  0.906719  1
  Si  Si31  1  0.808059  0.919075  0.539211  1
  Si  Si32  1  0.420248  0.807609  0.250628  1
  Si  Si33  1  0.579752  0.192391  0.250628  1
  Si  Si34  1  0.191941  0.080925  0.539211  1
  Si  Si35  1  0.919075  0.808059  0.460789  1
  Si  Si36  1  0.691941  0.419075  0.460789  1
  Si  Si37  1  0.079752  0.307609  0.749372  1
  Si  Si38  1  0.580925  0.308059  0.539211  1
  Si  Si39  1  0.255614  0.643268  0.093281  1
  Si  Si40  1  0.080925  0.191941  0.460789  1
  Si  Si41  1  0.807609  0.420248  0.749372  1
  Si  Si42  1  0.856732  0.755614  0.093281  1
  Si  Si43  1  0.920248  0.692391  0.749372  1
  Si  Si44  1  0.420248  0.192391  0.250628  1
  Si  Si45  1  0.744386  0.356732  0.093281  1
  Si  Si46  1  0.807609  0.579752  0.749372  1
  Si  Si47  1  0.419075  0.691941  0.539211  1
  O  O48  1  0.378495  0.621505  0.500000  1
  O  O49  1  0.621505  0.621505  0.500000  1
  O  O50  1  0.173362  0.500000  0.722443  1
  O  O51  1  0.748360  0.397167  0.609620  1
  O  O52  1  0.297633  0.202367  0.842460  1
  O  O53  1  0.177935  0.822065  0.000000  1
  O  O54  1  0.397167  0.251640  0.390380  1
  O  O55  1  0.897167  0.751640  0.609620  1
  O  O56  1  0.407989  0.218967  0.047328  1
  O  O57  1  0.751640  0.102833  0.390380  1
  O  O58  1  0.720663  0.401071  0.263648  1
  O  O59  1  0.875719  0.624281  0.711106  1
  O  O60  1  0.102833  0.248360  0.609620  1
  O  O61  1  0.281033  0.907989  0.047328  1
  O  O62  1  0.673362  0.000000  0.277557  1
  O  O63  1  0.897167  0.248360  0.609620  1
  O  O64  1  0.297633  0.797633  0.842460  1
  O  O65  1  0.326638  0.000000  0.277557  1
  O  O66  1  0.000000  0.176226  0.472481  1
  O  O67  1  0.176226  0.000000  0.527519  1
  O  O68  1  0.220663  0.901071  0.736352  1
  O  O69  1  0.177935  0.177935  0.000000  1
  O  O70  1  0.677935  0.322065  0.000000  1
  O  O71  1  0.281033  0.092011  0.047328  1
  O  O72  1  0.401071  0.720663  0.736352  1
  O  O73  1  0.375719  0.124281  0.288894  1
  O  O74  1  0.781033  0.592011  0.952672  1
  O  O75  1  0.251640  0.602833  0.609620  1
  O  O76  1  0.218967  0.592011  0.952672  1
  O  O77  1  0.500000  0.676226  0.527519  1
  O  O78  1  0.378495  0.378495  0.500000  1
  O  O79  1  0.718967  0.092011  0.047328  1
  O  O80  1  0.602833  0.748360  0.390380  1
  O  O81  1  0.676226  0.500000  0.472481  1
  O  O82  1  0.826638  0.500000  0.722443  1
  O  O83  1  0.401071  0.279337  0.736352  1
  O  O84  1  0.797633  0.702367  0.157540  1
  O  O85  1  0.822065  0.177935  0.000000  1
  O  O86  1  0.124281  0.375719  0.711106  1
  O  O87  1  0.592011  0.781033  0.047328  1
  O  O88  1  0.878495  0.878495  0.500000  1
  O  O89  1  0.624281  0.875719  0.288894  1
  O  O90  1  0.218967  0.407989  0.952672  1
  O  O91  1  0.248360  0.897167  0.390380  1
  O  O92  1  0.720663  0.598929  0.263648  1
  O  O93  1  0.702367  0.202367  0.842460  1
  O  O94  1  0.602833  0.251640  0.390380  1
  O  O95  1  0.624281  0.124281  0.288894  1
  O  O96  1  0.322065  0.322065  0.000000  1
  O  O97  1  0.751640  0.897167  0.390380  1
  O  O98  1  0.000000  0.326638  0.722443  1
  O  O99  1  0.202367  0.297633  0.157540  1
  O  O100  1  0.500000  0.323774  0.527519  1
  O  O101  1  0.397167  0.748360  0.390380  1
  O  O102  1  0.251640  0.397167  0.609620  1
  O  O103  1  0.822065  0.822065  0.000000  1
  O  O104  1  0.121505  0.878495  0.500000  1
  O  O105  1  0.407989  0.781033  0.047328  1
  O  O106  1  0.901071  0.220663  0.263648  1
  O  O107  1  0.000000  0.673362  0.722443  1
  O  O108  1  0.702367  0.797633  0.842460  1
  O  O109  1  0.098929  0.779337  0.263648  1
  O  O110  1  0.500000  0.173362  0.277557  1
  O  O111  1  0.121505  0.121505  0.500000  1
  O  O112  1  0.323774  0.500000  0.472481  1
  O  O113  1  0.098929  0.220663  0.263648  1
  O  O114  1  0.102833  0.751640  0.609620  1
  O  O115  1  0.092011  0.718967  0.952672  1
  O  O116  1  0.598929  0.279337  0.736352  1
  O  O117  1  0.220663  0.098929  0.736352  1
  O  O118  1  0.907989  0.718967  0.952672  1
  O  O119  1  0.823774  0.000000  0.527519  1
  O  O120  1  0.279337  0.598929  0.263648  1
  O  O121  1  0.875719  0.375719  0.711106  1
  O  O122  1  0.779337  0.098929  0.736352  1
  O  O123  1  0.279337  0.401071  0.263648  1
  O  O124  1  0.748360  0.602833  0.609620  1
  O  O125  1  0.677935  0.677935  0.000000  1
  O  O126  1  0.901071  0.779337  0.263648  1
  O  O127  1  0.598929  0.720663  0.736352  1
  O  O128  1  0.621505  0.378495  0.500000  1
  O  O129  1  0.000000  0.823774  0.472481  1
  O  O130  1  0.781033  0.407989  0.952672  1
  O  O131  1  0.878495  0.121505  0.500000  1
  O  O132  1  0.092011  0.281033  0.952672  1
  O  O133  1  0.797633  0.297633  0.157540  1
  O  O134  1  0.500000  0.826638  0.277557  1
  O  O135  1  0.375719  0.875719  0.288894  1
  O  O136  1  0.592011  0.218967  0.047328  1
  O  O137  1  0.779337  0.901071  0.736352  1
  O  O138  1  0.322065  0.677935  0.000000  1
  O  O139  1  0.718967  0.907989  0.047328  1
  O  O140  1  0.248360  0.102833  0.390380  1
  O  O141  1  0.907989  0.281033  0.952672  1
  O  O142  1  0.124281  0.624281  0.711106  1
  O  O143  1  0.202367  0.702367  0.157540  1
