# generated using pymatgen
data_BaFeF5
_symmetry_space_group_name_H-M   'P 1'
_cell_length_a   9.69269557
_cell_length_b   8.03170736
_cell_length_c   14.60315496
_cell_angle_alpha   90.00000000
_cell_angle_beta   127.74416139
_cell_angle_gamma   90.00000000
_symmetry_Int_Tables_number   1
_chemical_formula_structural   BaFeF5
_chemical_formula_sum   'Ba8 Fe8 F40'
_cell_volume   898.95803265
_cell_formula_units_Z   8
loop_
 _symmetry_equiv_pos_site_id
 _symmetry_equiv_pos_as_xyz
  1  'x, y, z'
loop_
 _atom_site_type_symbol
 _atom_site_label
 _atom_site_symmetry_multiplicity
 _atom_site_fract_x
 _atom_site_fract_y
 _atom_site_fract_z
 _atom_site_occupancy
  Ba  Ba0  1  0.668949  0.215730  0.355697  1
  Ba  Ba1  1  0.331051  0.715730  0.144303  1
  Ba  Ba2  1  0.331051  0.784270  0.644303  1
  Ba  Ba3  1  0.668949  0.284270  0.855697  1
  Ba  Ba4  1  0.226649  0.281802  0.455115  1
  Ba  Ba5  1  0.773351  0.781802  0.044885  1
  Ba  Ba6  1  0.773351  0.718198  0.544885  1
  Ba  Ba7  1  0.226649  0.218198  0.955115  1
  Fe  Fe8  1  0.788793  0.291481  0.159968  1
  Fe  Fe9  1  0.211207  0.791481  0.340032  1
  Fe  Fe10  1  0.211207  0.708519  0.840032  1
  Fe  Fe11  1  0.788793  0.208519  0.659968  1
  Fe  Fe12  1  0.191258  0.194054  0.184481  1
  Fe  Fe13  1  0.808742  0.694054  0.315519  1
  Fe  Fe14  1  0.808742  0.805946  0.815519  1
  Fe  Fe15  1  0.191258  0.305946  0.684481  1
  F  F16  1  0.655186  0.940841  0.833441  1
  F  F17  1  0.344814  0.440841  0.666559  1
  F  F18  1  0.344814  0.059159  0.166559  1
  F  F19  1  0.655186  0.559159  0.333441  1
  F  F20  1  0.871982  0.480734  0.279022  1
  F  F21  1  0.128018  0.980734  0.220978  1
  F  F22  1  0.128018  0.519266  0.720978  1
  F  F23  1  0.871982  0.019266  0.779022  1
  F  F24  1  0.730287  0.450869  0.042137  1
  F  F25  1  0.269713  0.950869  0.457863  1
  F  F26  1  0.269713  0.549131  0.957863  1
  F  F27  1  0.730287  0.049131  0.542137  1
  F  F28  1  0.283232  0.383003  0.151670  1
  F  F29  1  0.716768  0.883003  0.348330  1
  F  F30  1  0.716768  0.616997  0.848330  1
  F  F31  1  0.283232  0.116997  0.651670  1
  F  F32  1  0.038793  0.195520  0.713739  1
  F  F33  1  0.961207  0.695520  0.786261  1
  F  F34  1  0.961207  0.804480  0.286261  1
  F  F35  1  0.038793  0.304480  0.213739  1
  F  F36  1  0.377943  0.270773  0.847344  1
  F  F37  1  0.622057  0.770773  0.652656  1
  F  F38  1  0.622057  0.729227  0.152656  1
  F  F39  1  0.377943  0.229227  0.347344  1
  F  F40  1  0.888460  0.342320  0.797323  1
  F  F41  1  0.111540  0.842320  0.702677  1
  F  F42  1  0.111540  0.657680  0.202677  1
  F  F43  1  0.888460  0.157680  0.297323  1
  F  F44  1  0.731441  0.386331  0.552896  1
  F  F45  1  0.268559  0.886331  0.947104  1
  F  F46  1  0.268559  0.613669  0.447104  1
  F  F47  1  0.731441  0.113669  0.052896  1
  F  F48  1  0.568289  0.217966  0.632936  1
  F  F49  1  0.431711  0.717966  0.867064  1
  F  F50  1  0.431711  0.782034  0.367064  1
  F  F51  1  0.568289  0.282034  0.132936  1
  F  F52  1  0.993861  0.687628  0.479927  1
  F  F53  1  0.006139  0.187628  0.020073  1
  F  F54  1  0.006139  0.312372  0.520073  1
  F  F55  1  0.993861  0.812372  0.979927  1
