# generated using pymatgen
data_Ca3(BN2)2
_symmetry_space_group_name_H-M   'P 1'
_cell_length_a   7.39830271
_cell_length_b   10.28088486
_cell_length_c   10.49129443
_cell_angle_alpha   90.00000000
_cell_angle_beta   90.00000000
_cell_angle_gamma   90.00000000
_symmetry_Int_Tables_number   1
_chemical_formula_structural   Ca3(BN2)2
_chemical_formula_sum   'Ca18 B12 N24'
_cell_volume   797.97937730
_cell_formula_units_Z   6
loop_
 _symmetry_equiv_pos_site_id
 _symmetry_equiv_pos_as_xyz
  1  'x, y, z'
loop_
 _atom_site_type_symbol
 _atom_site_label
 _atom_site_symmetry_multiplicity
 _atom_site_fract_x
 _atom_site_fract_y
 _atom_site_fract_z
 _atom_site_occupancy
  Ca  Ca0  1  0.251180  0.500000  0.240945  1
  Ca  Ca1  1  0.000000  0.500000  0.500000  1
  Ca  Ca2  1  0.748820  0.500000  0.759055  1
  Ca  Ca3  1  0.996170  0.246562  0.260078  1
  Ca  Ca4  1  0.500000  0.500000  0.500000  1
  Ca  Ca5  1  0.503830  0.253438  0.760078  1
  Ca  Ca6  1  0.496170  0.253438  0.239922  1
  Ca  Ca7  1  0.000000  0.500000  0.000000  1
  Ca  Ca8  1  0.751180  0.000000  0.259055  1
  Ca  Ca9  1  0.500000  0.000000  0.500000  1
  Ca  Ca10  1  0.003830  0.246562  0.739922  1
  Ca  Ca11  1  0.248820  0.000000  0.740945  1
  Ca  Ca12  1  0.496170  0.746562  0.239922  1
  Ca  Ca13  1  0.000000  0.000000  0.000000  1
  Ca  Ca14  1  0.003830  0.753438  0.739922  1
  Ca  Ca15  1  0.996170  0.753438  0.260078  1
  Ca  Ca16  1  0.500000  0.000000  0.000000  1
  Ca  Ca17  1  0.503830  0.746562  0.760078  1
  B  B18  1  0.260941  0.255880  0.504495  1
  B  B19  1  0.744711  0.500000  0.260059  1
  B  B20  1  0.739059  0.255880  0.495505  1
  B  B21  1  0.760941  0.244120  0.995505  1
  B  B22  1  0.255289  0.500000  0.739941  1
  B  B23  1  0.239059  0.244120  0.004495  1
  B  B24  1  0.739059  0.744120  0.495505  1
  B  B25  1  0.244711  0.000000  0.239941  1
  B  B26  1  0.260941  0.744120  0.504495  1
  B  B27  1  0.239059  0.755880  0.004495  1
  B  B28  1  0.755289  0.000000  0.760059  1
  B  B29  1  0.760941  0.755880  0.995505  1
  N  N30  1  0.235037  0.340472  0.408299  1
  N  N31  1  0.926198  0.500000  0.252329  1
  N  N32  1  0.789201  0.324086  0.897115  1
  N  N33  1  0.435380  0.500000  0.727019  1
  N  N34  1  0.764963  0.340472  0.591701  1
  N  N35  1  0.710799  0.175914  0.397115  1
  N  N36  1  0.210799  0.324086  0.102885  1
  N  N37  1  0.264963  0.159528  0.908299  1
  N  N38  1  0.289201  0.175914  0.602885  1
  N  N39  1  0.426198  0.000000  0.247671  1
  N  N40  1  0.710799  0.824086  0.397115  1
  N  N41  1  0.064620  0.000000  0.227019  1
  N  N42  1  0.735037  0.159528  0.091701  1
  N  N43  1  0.264963  0.840472  0.908299  1
  N  N44  1  0.935380  0.000000  0.772981  1
  N  N45  1  0.289201  0.824086  0.602885  1
  N  N46  1  0.235037  0.659528  0.408299  1
  N  N47  1  0.573802  0.000000  0.752329  1
  N  N48  1  0.735037  0.840472  0.091701  1
  N  N49  1  0.789201  0.675914  0.897115  1
  N  N50  1  0.764963  0.659528  0.591701  1
  N  N51  1  0.564620  0.500000  0.272981  1
  N  N52  1  0.210799  0.675914  0.102885  1
  N  N53  1  0.073802  0.500000  0.747671  1
