# generated using pymatgen
data_CoH6(CO3)2
_symmetry_space_group_name_H-M   'P 1'
_cell_length_a   8.76229655
_cell_length_b   7.24396590
_cell_length_c   9.31466707
_cell_angle_alpha   90.00000000
_cell_angle_beta   97.24668093
_cell_angle_gamma   90.00000000
_symmetry_Int_Tables_number   1
_chemical_formula_structural   CoH6(CO3)2
_chemical_formula_sum   'Co4 H24 C8 O24'
_cell_volume   586.51445510
_cell_formula_units_Z   4
loop_
 _symmetry_equiv_pos_site_id
 _symmetry_equiv_pos_as_xyz
  1  'x, y, z'
loop_
 _atom_site_type_symbol
 _atom_site_label
 _atom_site_symmetry_multiplicity
 _atom_site_fract_x
 _atom_site_fract_y
 _atom_site_fract_z
 _atom_site_occupancy
  Co  Co0  1  0.000000  0.500000  0.000000  1
  Co  Co1  1  0.000000  0.000000  0.500000  1
  Co  Co2  1  0.500000  0.000000  0.000000  1
  Co  Co3  1  0.500000  0.500000  0.500000  1
  H  H4  1  0.327833  0.478798  0.891365  1
  H  H5  1  0.672167  0.978798  0.608635  1
  H  H6  1  0.672167  0.521202  0.108635  1
  H  H7  1  0.327833  0.021202  0.391365  1
  H  H8  1  0.068330  0.711815  0.273291  1
  H  H9  1  0.931670  0.211815  0.226709  1
  H  H10  1  0.931670  0.288185  0.726709  1
  H  H11  1  0.068330  0.788185  0.773291  1
  H  H12  1  0.213695  0.113337  0.012587  1
  H  H13  1  0.786305  0.613337  0.487413  1
  H  H14  1  0.786305  0.886663  0.987413  1
  H  H15  1  0.213695  0.386663  0.512587  1
  H  H16  1  0.234744  0.897578  0.049287  1
  H  H17  1  0.765256  0.397578  0.450713  1
  H  H18  1  0.765256  0.102422  0.950713  1
  H  H19  1  0.234744  0.602422  0.549287  1
  H  H20  1  0.698889  0.905891  0.235891  1
  H  H21  1  0.301111  0.405891  0.264109  1
  H  H22  1  0.301111  0.094109  0.764109  1
  H  H23  1  0.698889  0.594109  0.735891  1
  H  H24  1  0.532893  0.845462  0.277044  1
  H  H25  1  0.467107  0.345462  0.222956  1
  H  H26  1  0.467107  0.154538  0.722956  1
  H  H27  1  0.532893  0.654538  0.777044  1
  C  C28  1  0.675286  0.380208  0.063687  1
  C  C29  1  0.324714  0.880208  0.436313  1
  C  C30  1  0.324714  0.619792  0.936313  1
  C  C31  1  0.675286  0.119792  0.563687  1
  C  C32  1  0.961346  0.778120  0.223157  1
  C  C33  1  0.038654  0.278120  0.276843  1
  C  C34  1  0.038654  0.221880  0.776843  1
  C  C35  1  0.961346  0.721880  0.723157  1
  O  O36  1  0.436860  0.725618  0.919460  1
  O  O37  1  0.563140  0.225618  0.580540  1
  O  O38  1  0.563140  0.274382  0.080540  1
  O  O39  1  0.436860  0.774382  0.419460  1
  O  O40  1  0.790860  0.335678  0.000308  1
  O  O41  1  0.209140  0.835678  0.499692  1
  O  O42  1  0.209140  0.664322  0.999692  1
  O  O43  1  0.790860  0.164322  0.500308  1
  O  O44  1  0.906379  0.726907  0.096164  1
  O  O45  1  0.093621  0.226907  0.403836  1
  O  O46  1  0.093621  0.273093  0.903836  1
  O  O47  1  0.906379  0.773093  0.596164  1
  O  O48  1  0.899257  0.900048  0.294630  1
  O  O49  1  0.100743  0.400048  0.205370  1
  O  O50  1  0.100743  0.099952  0.705370  1
  O  O51  1  0.899257  0.599952  0.794630  1
  O  O52  1  0.279682  0.022483  0.071411  1
  O  O53  1  0.720318  0.522483  0.428589  1
  O  O54  1  0.720318  0.977517  0.928589  1
  O  O55  1  0.279682  0.477517  0.571411  1
  O  O56  1  0.588919  0.890661  0.197270  1
  O  O57  1  0.411081  0.390661  0.302730  1
  O  O58  1  0.411081  0.109339  0.802730  1
  O  O59  1  0.588919  0.609339  0.697270  1
