# generated using pymatgen
data_LiBiP2O7
_symmetry_space_group_name_H-M   'P 1'
_cell_length_a   6.57812623
_cell_length_b   6.67689831
_cell_length_c   6.79646799
_cell_angle_alpha   96.24007012
_cell_angle_beta   115.05900019
_cell_angle_gamma   87.99049192
_symmetry_Int_Tables_number   1
_chemical_formula_structural   LiBiP2O7
_chemical_formula_sum   'Li2 Bi2 P4 O14'
_cell_volume   268.79063058
_cell_formula_units_Z   2
loop_
 _symmetry_equiv_pos_site_id
 _symmetry_equiv_pos_as_xyz
  1  'x, y, z'
loop_
 _atom_site_type_symbol
 _atom_site_label
 _atom_site_symmetry_multiplicity
 _atom_site_fract_x
 _atom_site_fract_y
 _atom_site_fract_z
 _atom_site_occupancy
  Li  Li0  1  0.770042  0.651188  0.921512  1
  Li  Li1  1  0.229958  0.348812  0.078488  1
  Bi  Bi2  1  0.807693  0.143557  0.247655  1
  Bi  Bi3  1  0.192307  0.856443  0.752345  1
  P  P4  1  0.260647  0.853522  0.234948  1
  P  P5  1  0.739353  0.146478  0.765052  1
  P  P6  1  0.685060  0.642079  0.357814  1
  P  P7  1  0.314940  0.357921  0.642186  1
  O  O8  1  0.684664  0.970737  0.864883  1
  O  O9  1  0.139073  0.922407  0.380976  1
  O  O10  1  0.865113  0.309598  0.955314  1
  O  O11  1  0.721462  0.754984  0.192954  1
  O  O12  1  0.406517  0.573824  0.733616  1
  O  O13  1  0.485088  0.759354  0.404481  1
  O  O14  1  0.134887  0.690402  0.044686  1
  O  O15  1  0.593483  0.426176  0.266384  1
  O  O16  1  0.315336  0.029263  0.135117  1
  O  O17  1  0.278538  0.245016  0.807046  1
  O  O18  1  0.879072  0.648325  0.587309  1
  O  O19  1  0.514912  0.240646  0.595519  1
  O  O20  1  0.860927  0.077593  0.619024  1
  O  O21  1  0.120928  0.351675  0.412691  1
