# generated using pymatgen
data_Ho2Cu2O5
_symmetry_space_group_name_H-M   'P 1'
_cell_length_a   3.50962934
_cell_length_b   10.88107360
_cell_length_c   12.51726361
_cell_angle_alpha   90.00000000
_cell_angle_beta   90.00000000
_cell_angle_gamma   90.00000000
_symmetry_Int_Tables_number   1
_chemical_formula_structural   Ho2Cu2O5
_chemical_formula_sum   'Ho8 Cu8 O20'
_cell_volume   478.01596144
_cell_formula_units_Z   4
loop_
 _symmetry_equiv_pos_site_id
 _symmetry_equiv_pos_as_xyz
  1  'x, y, z'
loop_
 _atom_site_type_symbol
 _atom_site_label
 _atom_site_symmetry_multiplicity
 _atom_site_fract_x
 _atom_site_fract_y
 _atom_site_fract_z
 _atom_site_occupancy
  Ho  Ho0  1  0.277511  0.542672  0.830536  1
  Ho  Ho1  1  0.722489  0.457328  0.330536  1
  Ho  Ho2  1  0.222489  0.042672  0.830536  1
  Ho  Ho3  1  0.777511  0.957328  0.330536  1
  Ho  Ho4  1  0.278828  0.707534  0.502902  1
  Ho  Ho5  1  0.721172  0.292466  0.002902  1
  Ho  Ho6  1  0.221172  0.207534  0.502902  1
  Ho  Ho7  1  0.778828  0.792466  0.002902  1
  Cu  Cu8  1  0.843702  0.761914  0.719435  1
  Cu  Cu9  1  0.156298  0.238086  0.219435  1
  Cu  Cu10  1  0.656298  0.261914  0.719435  1
  Cu  Cu11  1  0.343702  0.738086  0.219435  1
  Cu  Cu12  1  0.839733  0.488477  0.613478  1
  Cu  Cu13  1  0.160267  0.511523  0.113478  1
  Cu  Cu14  1  0.660267  0.988477  0.613478  1
  Cu  Cu15  1  0.339733  0.011523  0.113478  1
  O  O16  1  0.272605  0.923063  0.974116  1
  O  O17  1  0.727395  0.076937  0.474116  1
  O  O18  1  0.227395  0.423063  0.974116  1
  O  O19  1  0.772605  0.576937  0.474116  1
  O  O20  1  0.724592  0.928482  0.764644  1
  O  O21  1  0.275408  0.071518  0.264644  1
  O  O22  1  0.775408  0.428482  0.764644  1
  O  O23  1  0.224592  0.571518  0.264644  1
  O  O24  1  0.155251  0.624719  0.666658  1
  O  O25  1  0.844749  0.375281  0.166658  1
  O  O26  1  0.344749  0.124719  0.666658  1
  O  O27  1  0.655251  0.875281  0.166658  1
  O  O28  1  0.780992  0.822062  0.567838  1
  O  O29  1  0.219008  0.177938  0.067838  1
  O  O30  1  0.719008  0.322062  0.567838  1
  O  O31  1  0.280992  0.677938  0.067838  1
  O  O32  1  0.275032  0.826690  0.358693  1
  O  O33  1  0.724968  0.173310  0.858693  1
  O  O34  1  0.224968  0.326690  0.358693  1
  O  O35  1  0.775032  0.673310  0.858693  1
