# generated using pymatgen
data_LiMg10AlH24
_symmetry_space_group_name_H-M   'P 1'
_cell_length_a   4.47679383
_cell_length_b   8.98010355
_cell_length_c   8.96724414
_cell_angle_alpha   90.00000000
_cell_angle_beta   90.33199130
_cell_angle_gamma   90.00000000
_symmetry_Int_Tables_number   1
_chemical_formula_structural   LiMg10AlH24
_chemical_formula_sum   'Li1 Mg10 Al1 H24'
_cell_volume   360.49574382
_cell_formula_units_Z   1
loop_
 _symmetry_equiv_pos_site_id
 _symmetry_equiv_pos_as_xyz
  1  'x, y, z'
loop_
 _atom_site_type_symbol
 _atom_site_label
 _atom_site_symmetry_multiplicity
 _atom_site_fract_x
 _atom_site_fract_y
 _atom_site_fract_z
 _atom_site_occupancy
  Li  Li0  1  0.500000  0.503179  0.000000  1
  Mg  Mg1  1  0.500000  0.498983  0.500000  1
  Mg  Mg2  1  0.994404  0.334376  0.245614  1
  Mg  Mg3  1  0.500000  0.166372  0.500000  1
  Mg  Mg4  1  0.500000  0.827521  0.000000  1
  Mg  Mg5  1  0.999043  0.662971  0.242010  1
  Mg  Mg6  1  0.500000  0.831720  0.500000  1
  Mg  Mg7  1  0.005596  0.334376  0.754386  1
  Mg  Mg8  1  0.002816  0.999318  0.748292  1
  Mg  Mg9  1  0.997184  0.999318  0.251708  1
  Mg  Mg10  1  0.000957  0.662971  0.757990  1
  Al  Al11  1  0.500000  0.167944  0.000000  1
  H  H12  1  0.301126  0.666805  0.599718  1
  H  H13  1  0.305143  0.329334  0.599127  1
  H  H14  1  0.194886  0.494287  0.851261  1
  H  H15  1  0.696716  0.671484  0.901195  1
  H  H16  1  0.698874  0.666805  0.400282  1
  H  H17  1  0.804682  0.834765  0.653953  1
  H  H18  1  0.813693  0.166294  0.655684  1
  H  H19  1  0.186307  0.166294  0.344316  1
  H  H20  1  0.307149  0.000934  0.598050  1
  H  H21  1  0.779713  0.161857  0.142410  1
  H  H22  1  0.308989  0.304479  0.093106  1
  H  H23  1  0.220287  0.161857  0.857590  1
  H  H24  1  0.198889  0.496233  0.347205  1
  H  H25  1  0.801111  0.496233  0.652795  1
  H  H26  1  0.805114  0.494287  0.148739  1
  H  H27  1  0.805407  0.841010  0.149015  1
  H  H28  1  0.694857  0.329334  0.400873  1
  H  H29  1  0.691011  0.304479  0.906894  1
  H  H30  1  0.685784  0.017994  0.908192  1
  H  H31  1  0.303284  0.671484  0.098805  1
  H  H32  1  0.195318  0.834765  0.346047  1
  H  H33  1  0.692851  0.000934  0.401950  1
  H  H34  1  0.194593  0.841010  0.850985  1
  H  H35  1  0.314216  0.017994  0.091808  1
