# generated using pymatgen
data_Np(BH4)4
_symmetry_space_group_name_H-M   'P 1'
_cell_length_a   8.74357267
_cell_length_b   8.74357267
_cell_length_c   6.28437863
_cell_angle_alpha   90.00000000
_cell_angle_beta   90.00000000
_cell_angle_gamma   90.00000000
_symmetry_Int_Tables_number   1
_chemical_formula_structural   Np(BH4)4
_chemical_formula_sum   'Np2 B8 H32'
_cell_volume   480.44114240
_cell_formula_units_Z   2
loop_
 _symmetry_equiv_pos_site_id
 _symmetry_equiv_pos_as_xyz
  1  'x, y, z'
loop_
 _atom_site_type_symbol
 _atom_site_label
 _atom_site_symmetry_multiplicity
 _atom_site_fract_x
 _atom_site_fract_y
 _atom_site_fract_z
 _atom_site_occupancy
  Np  Np0  1  0.000000  0.000000  0.000000  1
  Np  Np1  1  0.500000  0.500000  0.500000  1
  B  B2  1  0.229418  0.000000  0.226535  1
  B  B3  1  0.500000  0.270582  0.726535  1
  B  B4  1  0.500000  0.729418  0.726535  1
  B  B5  1  0.770582  0.000000  0.226535  1
  B  B6  1  0.270582  0.500000  0.273465  1
  B  B7  1  0.729418  0.500000  0.273465  1
  B  B8  1  0.000000  0.229418  0.773465  1
  B  B9  1  0.000000  0.770582  0.773465  1
  H  H10  1  0.339915  0.000000  0.338882  1
  H  H11  1  0.500000  0.160085  0.838882  1
  H  H12  1  0.500000  0.839915  0.838882  1
  H  H13  1  0.660085  0.000000  0.338882  1
  H  H14  1  0.160085  0.500000  0.161118  1
  H  H15  1  0.839915  0.500000  0.161118  1
  H  H16  1  0.000000  0.339915  0.661118  1
  H  H17  1  0.000000  0.660085  0.661118  1
  H  H18  1  0.257621  0.000000  0.030130  1
  H  H19  1  0.500000  0.242379  0.530130  1
  H  H20  1  0.500000  0.757621  0.530130  1
  H  H21  1  0.742379  0.000000  0.030130  1
  H  H22  1  0.242379  0.500000  0.469870  1
  H  H23  1  0.757621  0.500000  0.469870  1
  H  H24  1  0.000000  0.257621  0.969870  1
  H  H25  1  0.000000  0.742379  0.969870  1
  H  H26  1  0.142875  0.113619  0.251913  1
  H  H27  1  0.613619  0.357125  0.751913  1
  H  H28  1  0.386381  0.642875  0.751913  1
  H  H29  1  0.857125  0.886381  0.251913  1
  H  H30  1  0.357125  0.613619  0.248087  1
  H  H31  1  0.642875  0.386381  0.248087  1
  H  H32  1  0.113619  0.142875  0.748087  1
  H  H33  1  0.886381  0.857125  0.748087  1
  H  H34  1  0.357125  0.386381  0.248087  1
  H  H35  1  0.886381  0.142875  0.748087  1
  H  H36  1  0.113619  0.857125  0.748087  1
  H  H37  1  0.642875  0.613619  0.248087  1
  H  H38  1  0.142875  0.886381  0.251913  1
  H  H39  1  0.857125  0.113619  0.251913  1
  H  H40  1  0.386381  0.357125  0.751913  1
  H  H41  1  0.613619  0.642875  0.751913  1
