# generated using pymatgen
data_Th2Al2C3
_symmetry_space_group_name_H-M   'P 1'
_cell_length_a   3.51338814
_cell_length_b   5.43262018
_cell_length_c   11.59014172
_cell_angle_alpha   90.00000000
_cell_angle_beta   90.00000000
_cell_angle_gamma   90.00000000
_symmetry_Int_Tables_number   1
_chemical_formula_structural   Th2Al2C3
_chemical_formula_sum   'Th4 Al4 C6'
_cell_volume   221.21991435
_cell_formula_units_Z   2
loop_
 _symmetry_equiv_pos_site_id
 _symmetry_equiv_pos_as_xyz
  1  'x, y, z'
loop_
 _atom_site_type_symbol
 _atom_site_label
 _atom_site_symmetry_multiplicity
 _atom_site_fract_x
 _atom_site_fract_y
 _atom_site_fract_z
 _atom_site_occupancy
  Th  Th0  1  0.500000  0.821177  0.148873  1
  Th  Th1  1  0.000000  0.321177  0.351127  1
  Th  Th2  1  0.000000  0.678823  0.648873  1
  Th  Th3  1  0.500000  0.178823  0.851127  1
  Al  Al4  1  0.500000  0.813509  0.413734  1
  Al  Al5  1  0.000000  0.313509  0.086266  1
  Al  Al6  1  0.500000  0.186491  0.586266  1
  Al  Al7  1  0.000000  0.686491  0.913734  1
  C  C8  1  0.000000  0.171866  0.689212  1
  C  C9  1  0.500000  0.671866  0.810788  1
  C  C10  1  0.000000  0.828134  0.310788  1
  C  C11  1  0.000000  0.000000  0.000000  1
  C  C12  1  0.500000  0.328134  0.189212  1
  C  C13  1  0.500000  0.500000  0.500000  1
