# generated using pymatgen
data_BaAlF5
_symmetry_space_group_name_H-M   'P 1'
_cell_length_a   5.33685417
_cell_length_b   9.91538050
_cell_length_c   7.48836959
_cell_angle_alpha   90.00000000
_cell_angle_beta   90.92369292
_cell_angle_gamma   90.00000000
_symmetry_Int_Tables_number   1
_chemical_formula_structural   BaAlF5
_chemical_formula_sum   'Ba4 Al4 F20'
_cell_volume   396.21010926
_cell_formula_units_Z   4
loop_
 _symmetry_equiv_pos_site_id
 _symmetry_equiv_pos_as_xyz
  1  'x, y, z'
loop_
 _atom_site_type_symbol
 _atom_site_label
 _atom_site_symmetry_multiplicity
 _atom_site_fract_x
 _atom_site_fract_y
 _atom_site_fract_z
 _atom_site_occupancy
  Ba  Ba0  1  0.487629  0.650696  0.638548  1
  Ba  Ba1  1  0.512371  0.150696  0.361452  1
  Ba  Ba2  1  0.010826  0.998229  0.887525  1
  Ba  Ba3  1  0.989174  0.498229  0.112475  1
  Al  Al4  1  0.519837  0.265760  0.870086  1
  Al  Al5  1  0.480163  0.765760  0.129914  1
  Al  Al6  1  0.013435  0.369633  0.575456  1
  Al  Al7  1  0.986565  0.869633  0.424544  1
  F  F8  1  0.769536  0.965148  0.556812  1
  F  F9  1  0.752474  0.451948  0.466902  1
  F  F10  1  0.247526  0.951948  0.533098  1
  F  F11  1  0.270326  0.264476  0.030852  1
  F  F12  1  0.039839  0.485685  0.757110  1
  F  F13  1  0.506558  0.086687  0.842277  1
  F  F14  1  0.208349  0.757272  0.296983  1
  F  F15  1  0.287354  0.271123  0.677088  1
  F  F16  1  0.960161  0.985685  0.242890  1
  F  F17  1  0.009561  0.241842  0.403422  1
  F  F18  1  0.493442  0.586687  0.157723  1
  F  F19  1  0.230464  0.465148  0.443188  1
  F  F20  1  0.449566  0.943834  0.137393  1
  F  F21  1  0.253039  0.750068  0.948271  1
  F  F22  1  0.990439  0.741842  0.596578  1
  F  F23  1  0.791651  0.257272  0.703017  1
  F  F24  1  0.729674  0.764476  0.969148  1
  F  F25  1  0.746961  0.250068  0.051729  1
  F  F26  1  0.712646  0.771123  0.322912  1
  F  F27  1  0.550434  0.443834  0.862607  1
