# generated using pymatgen
data_SrLiGaN2
_symmetry_space_group_name_H-M   'P 1'
_cell_length_a   5.97786869
_cell_length_b   5.97786869
_cell_length_c   12.74500693
_cell_angle_alpha   89.29676761
_cell_angle_beta   90.70323239
_cell_angle_gamma   61.65692048
_symmetry_Int_Tables_number   1
_chemical_formula_structural   SrLiGaN2
_chemical_formula_sum   'Sr6 Li6 Ga6 N12'
_cell_volume   400.72869302
_cell_formula_units_Z   6
loop_
 _symmetry_equiv_pos_site_id
 _symmetry_equiv_pos_as_xyz
  1  'x, y, z'
loop_
 _atom_site_type_symbol
 _atom_site_label
 _atom_site_symmetry_multiplicity
 _atom_site_fract_x
 _atom_site_fract_y
 _atom_site_fract_z
 _atom_site_occupancy
  Sr  Sr0  1  0.947526  0.052474  0.743414  1
  Sr  Sr1  1  0.820787  0.820787  0.500000  1
  Sr  Sr2  1  0.179213  0.179213  0.500000  1
  Sr  Sr3  1  0.166060  0.166060  0.000000  1
  Sr  Sr4  1  0.833940  0.833940  0.000000  1
  Sr  Sr5  1  0.052474  0.947526  0.256586  1
  Li  Li6  1  0.812892  0.552897  0.681991  1
  Li  Li7  1  0.187108  0.447103  0.318009  1
  Li  Li8  1  0.447103  0.187108  0.681991  1
  Li  Li9  1  0.594956  0.405044  0.918882  1
  Li  Li10  1  0.552897  0.812892  0.318009  1
  Li  Li11  1  0.405044  0.594956  0.081118  1
  Ga  Ga12  1  0.488879  0.186178  0.187502  1
  Ga  Ga13  1  0.813822  0.511121  0.187502  1
  Ga  Ga14  1  0.511121  0.813822  0.812498  1
  Ga  Ga15  1  0.391766  0.608234  0.588648  1
  Ga  Ga16  1  0.608234  0.391766  0.411352  1
  Ga  Ga17  1  0.186178  0.488879  0.812498  1
  N  N18  1  0.455284  0.862629  0.656858  1
  N  N19  1  0.748719  0.251281  0.108749  1
  N  N20  1  0.503226  0.852586  0.149035  1
  N  N21  1  0.251281  0.748719  0.891251  1
  N  N22  1  0.137371  0.544716  0.656858  1
  N  N23  1  0.544716  0.137371  0.343142  1
  N  N24  1  0.852586  0.503226  0.850965  1
  N  N25  1  0.147414  0.496774  0.149035  1
  N  N26  1  0.719372  0.280628  0.566888  1
  N  N27  1  0.280628  0.719372  0.433112  1
  N  N28  1  0.496774  0.147414  0.850965  1
  N  N29  1  0.862629  0.455284  0.343142  1
