# generated using pymatgen
data_NbTl(PO4)2
_symmetry_space_group_name_H-M   'P 1'
_cell_length_a   5.13788562
_cell_length_b   13.06216830
_cell_length_c   12.20817293
_cell_angle_alpha   90.00000000
_cell_angle_beta   111.05380418
_cell_angle_gamma   90.00000000
_symmetry_Int_Tables_number   1
_chemical_formula_structural   NbTl(PO4)2
_chemical_formula_sum   'Nb4 Tl4 P8 O32'
_cell_volume   764.61945944
_cell_formula_units_Z   4
loop_
 _symmetry_equiv_pos_site_id
 _symmetry_equiv_pos_as_xyz
  1  'x, y, z'
loop_
 _atom_site_type_symbol
 _atom_site_label
 _atom_site_symmetry_multiplicity
 _atom_site_fract_x
 _atom_site_fract_y
 _atom_site_fract_z
 _atom_site_occupancy
  Nb  Nb0  1  0.094864  0.072313  0.797236  1
  Nb  Nb1  1  0.905136  0.572313  0.702764  1
  Nb  Nb2  1  0.905136  0.927687  0.202764  1
  Nb  Nb3  1  0.094864  0.427687  0.297236  1
  Tl  Tl4  1  0.257735  0.381970  0.976698  1
  Tl  Tl5  1  0.742265  0.881970  0.523302  1
  Tl  Tl6  1  0.742265  0.618030  0.023302  1
  Tl  Tl7  1  0.257735  0.118030  0.476698  1
  P  P8  1  0.581968  0.250227  0.290766  1
  P  P9  1  0.418032  0.750227  0.209234  1
  P  P10  1  0.418032  0.749773  0.709234  1
  P  P11  1  0.581968  0.249773  0.790766  1
  P  P12  1  0.310957  0.087359  0.113599  1
  P  P13  1  0.689043  0.587359  0.386401  1
  P  P14  1  0.689043  0.912641  0.886401  1
  P  P15  1  0.310957  0.412641  0.613599  1
  O  O16  1  0.137260  0.102200  0.985960  1
  O  O17  1  0.862740  0.602200  0.514040  1
  O  O18  1  0.862740  0.897800  0.014040  1
  O  O19  1  0.137260  0.397800  0.485960  1
  O  O20  1  0.851610  0.549525  0.309341  1
  O  O21  1  0.148390  0.049525  0.190659  1
  O  O22  1  0.148390  0.450475  0.690659  1
  O  O23  1  0.851610  0.950475  0.809341  1
  O  O24  1  0.757436  0.334373  0.261396  1
  O  O25  1  0.242564  0.834373  0.238604  1
  O  O26  1  0.242564  0.665627  0.738604  1
  O  O27  1  0.757436  0.165627  0.761396  1
  O  O28  1  0.421965  0.299482  0.660876  1
  O  O29  1  0.578035  0.799482  0.839124  1
  O  O30  1  0.578035  0.700518  0.339124  1
  O  O31  1  0.421965  0.200518  0.160876  1
  O  O32  1  0.433169  0.981357  0.866113  1
  O  O33  1  0.566831  0.481357  0.633887  1
  O  O34  1  0.566831  0.018643  0.133887  1
  O  O35  1  0.433169  0.518643  0.366113  1
  O  O36  1  0.737087  0.170227  0.376747  1
  O  O37  1  0.262913  0.670227  0.123253  1
  O  O38  1  0.262913  0.829773  0.623253  1
  O  O39  1  0.737087  0.329773  0.876747  1
  O  O40  1  0.047642  0.051721  0.648050  1
  O  O41  1  0.952358  0.551721  0.851950  1
  O  O42  1  0.952358  0.948279  0.351950  1
  O  O43  1  0.047642  0.448279  0.148050  1
  O  O44  1  0.346460  0.198540  0.823053  1
  O  O45  1  0.653540  0.698540  0.676947  1
  O  O46  1  0.653540  0.801460  0.176947  1
  O  O47  1  0.346460  0.301460  0.323053  1
