# generated using pymatgen
data_Sr2FeCuSO3
_symmetry_space_group_name_H-M   'P 1'
_cell_length_a   3.95192967
_cell_length_b   3.95192967
_cell_length_c   15.75036380
_cell_angle_alpha   90.00000000
_cell_angle_beta   90.00000000
_cell_angle_gamma   90.00000000
_symmetry_Int_Tables_number   1
_chemical_formula_structural   Sr2FeCuSO3
_chemical_formula_sum   'Sr4 Fe2 Cu2 S2 O6'
_cell_volume   245.98521457
_cell_formula_units_Z   2
loop_
 _symmetry_equiv_pos_site_id
 _symmetry_equiv_pos_as_xyz
  1  'x, y, z'
loop_
 _atom_site_type_symbol
 _atom_site_label
 _atom_site_symmetry_multiplicity
 _atom_site_fract_x
 _atom_site_fract_y
 _atom_site_fract_z
 _atom_site_occupancy
  Sr  Sr0  1  0.000000  0.500000  0.184161  1
  Sr  Sr1  1  0.500000  0.000000  0.815839  1
  Sr  Sr2  1  0.000000  0.500000  0.412330  1
  Sr  Sr3  1  0.500000  0.000000  0.587670  1
  Fe  Fe4  1  0.500000  0.000000  0.309584  1
  Fe  Fe5  1  0.000000  0.500000  0.690416  1
  Cu  Cu6  1  0.000000  0.000000  0.000000  1
  Cu  Cu7  1  0.500000  0.500000  0.000000  1
  S  S8  1  0.500000  0.000000  0.089655  1
  S  S9  1  0.000000  0.500000  0.910345  1
  O  O10  1  0.000000  0.000000  0.288332  1
  O  O11  1  0.500000  0.500000  0.288332  1
  O  O12  1  0.500000  0.500000  0.711668  1
  O  O13  1  0.000000  0.000000  0.711668  1
  O  O14  1  0.500000  0.000000  0.432144  1
  O  O15  1  0.000000  0.500000  0.567856  1
