# generated using pymatgen
data_CaAl2Si2(H2O5)2
_symmetry_space_group_name_H-M   'P 1'
_cell_length_a   5.93373861
_cell_length_b   8.85402171
_cell_length_c   13.22237950
_cell_angle_alpha   90.00000000
_cell_angle_beta   90.00000000
_cell_angle_gamma   90.00000000
_symmetry_Int_Tables_number   1
_chemical_formula_structural   CaAl2Si2(H2O5)2
_chemical_formula_sum   'Ca4 Al8 Si8 H16 O40'
_cell_volume   694.67010814
_cell_formula_units_Z   4
loop_
 _symmetry_equiv_pos_site_id
 _symmetry_equiv_pos_as_xyz
  1  'x, y, z'
loop_
 _atom_site_type_symbol
 _atom_site_label
 _atom_site_symmetry_multiplicity
 _atom_site_fract_x
 _atom_site_fract_y
 _atom_site_fract_z
 _atom_site_occupancy
  Ca  Ca0  1  0.750000  0.082449  0.251505  1
  Ca  Ca1  1  0.250000  0.917551  0.748495  1
  Ca  Ca2  1  0.250000  0.582449  0.248495  1
  Ca  Ca3  1  0.750000  0.417551  0.751505  1
  Al  Al4  1  0.000000  0.000000  0.000000  1
  Al  Al5  1  0.500000  0.000000  0.000000  1
  Al  Al6  1  0.000000  0.500000  0.500000  1
  Al  Al7  1  0.500000  0.500000  0.500000  1
  Al  Al8  1  0.000000  0.000000  0.500000  1
  Al  Al9  1  0.500000  0.000000  0.500000  1
  Al  Al10  1  0.000000  0.500000  0.000000  1
  Al  Al11  1  0.500000  0.500000  0.000000  1
  Si  Si12  1  0.750000  0.730112  0.131029  1
  Si  Si13  1  0.250000  0.269888  0.868971  1
  Si  Si14  1  0.250000  0.230112  0.368971  1
  Si  Si15  1  0.750000  0.769888  0.631029  1
  Si  Si16  1  0.750000  0.727300  0.365034  1
  Si  Si17  1  0.250000  0.272700  0.634966  1
  Si  Si18  1  0.250000  0.227300  0.134966  1
  Si  Si19  1  0.750000  0.772700  0.865034  1
  H  H20  1  0.750000  0.384098  0.172835  1
  H  H21  1  0.250000  0.615902  0.827165  1
  H  H22  1  0.250000  0.884098  0.327165  1
  H  H23  1  0.750000  0.115902  0.672835  1
  H  H24  1  0.750000  0.446814  0.287767  1
  H  H25  1  0.250000  0.553186  0.712233  1
  H  H26  1  0.250000  0.946814  0.212233  1
  H  H27  1  0.750000  0.053186  0.787767  1
  H  H28  1  0.750000  0.281701  0.031329  1
  H  H29  1  0.250000  0.718299  0.968671  1
  H  H30  1  0.250000  0.781701  0.468671  1
  H  H31  1  0.750000  0.218299  0.531329  1
  H  H32  1  0.750000  0.312903  0.403887  1
  H  H33  1  0.250000  0.687097  0.596113  1
  H  H34  1  0.250000  0.812903  0.096113  1
  H  H35  1  0.750000  0.187097  0.903887  1
  O  O36  1  0.750000  0.799500  0.248263  1
  O  O37  1  0.250000  0.200500  0.751737  1
  O  O38  1  0.250000  0.299500  0.251737  1
  O  O39  1  0.750000  0.700500  0.748263  1
  O  O40  1  0.027431  0.120009  0.121368  1
  O  O41  1  0.527431  0.879991  0.878632  1
  O  O42  1  0.972569  0.620009  0.378632  1
  O  O43  1  0.472569  0.379991  0.621368  1
  O  O44  1  0.972569  0.879991  0.878632  1
  O  O45  1  0.472569  0.120009  0.121368  1
  O  O46  1  0.027431  0.379991  0.621368  1
  O  O47  1  0.527431  0.620009  0.378632  1
  O  O48  1  0.021369  0.129887  0.384891  1
  O  O49  1  0.521369  0.870113  0.615109  1
  O  O50  1  0.978631  0.629887  0.115109  1
  O  O51  1  0.478631  0.370113  0.884891  1
  O  O52  1  0.978631  0.870113  0.615109  1
  O  O53  1  0.478631  0.129887  0.384891  1
  O  O54  1  0.021369  0.370113  0.884891  1
  O  O55  1  0.521369  0.629887  0.115109  1
  O  O56  1  0.750000  0.887204  0.062246  1
  O  O57  1  0.250000  0.112796  0.937754  1
  O  O58  1  0.250000  0.387204  0.437754  1
  O  O59  1  0.750000  0.612796  0.562246  1
  O  O60  1  0.750000  0.884729  0.433680  1
  O  O61  1  0.250000  0.115271  0.566320  1
  O  O62  1  0.250000  0.384729  0.066320  1
  O  O63  1  0.750000  0.615271  0.933680  1
  O  O64  1  0.750000  0.390184  0.051763  1
  O  O65  1  0.250000  0.609816  0.948237  1
  O  O66  1  0.250000  0.890184  0.448237  1
  O  O67  1  0.750000  0.109816  0.551763  1
  O  O68  1  0.750000  0.379538  0.462425  1
  O  O69  1  0.250000  0.620462  0.537575  1
  O  O70  1  0.250000  0.879538  0.037575  1
  O  O71  1  0.750000  0.120462  0.962425  1
  O  O72  1  0.750000  0.355064  0.246883  1
  O  O73  1  0.250000  0.644936  0.753117  1
  O  O74  1  0.250000  0.855064  0.253117  1
  O  O75  1  0.750000  0.144936  0.746883  1
