# generated using pymatgen
data_YbAu3
_symmetry_space_group_name_H-M   'P 1'
_cell_length_a   5.07578009
_cell_length_b   5.33798624
_cell_length_c   5.83008986
_cell_angle_alpha   90.00000000
_cell_angle_beta   90.00000000
_cell_angle_gamma   90.00000000
_symmetry_Int_Tables_number   1
_chemical_formula_structural   YbAu3
_chemical_formula_sum   'Yb2 Au6'
_cell_volume   157.96304485
_cell_formula_units_Z   2
loop_
 _symmetry_equiv_pos_site_id
 _symmetry_equiv_pos_as_xyz
  1  'x, y, z'
loop_
 _atom_site_type_symbol
 _atom_site_label
 _atom_site_symmetry_multiplicity
 _atom_site_fract_x
 _atom_site_fract_y
 _atom_site_fract_z
 _atom_site_occupancy
  Yb  Yb0  1  0.000000  0.343725  0.000000  1
  Yb  Yb1  1  0.500000  0.656275  0.500000  1
  Au  Au2  1  0.500000  0.163111  0.752333  1
  Au  Au3  1  0.000000  0.836889  0.252333  1
  Au  Au4  1  0.000000  0.836889  0.747667  1
  Au  Au5  1  0.500000  0.163111  0.247667  1
  Au  Au6  1  0.000000  0.329952  0.500000  1
  Au  Au7  1  0.500000  0.670048  0.000000  1
