# generated using pymatgen
data_K2CdPb
_symmetry_space_group_name_H-M   'P 1'
_cell_length_a   7.08519629
_cell_length_b   7.08519629
_cell_length_c   6.65877383
_cell_angle_alpha   90.00000000
_cell_angle_beta   90.00000000
_cell_angle_gamma   103.96515501
_symmetry_Int_Tables_number   1
_chemical_formula_structural   K2CdPb
_chemical_formula_sum   'K4 Cd2 Pb2'
_cell_volume   324.39034795
_cell_formula_units_Z   2
loop_
 _symmetry_equiv_pos_site_id
 _symmetry_equiv_pos_as_xyz
  1  'x, y, z'
loop_
 _atom_site_type_symbol
 _atom_site_label
 _atom_site_symmetry_multiplicity
 _atom_site_fract_x
 _atom_site_fract_y
 _atom_site_fract_z
 _atom_site_occupancy
  K  K0  1  0.978904  0.321219  0.750000  1
  K  K1  1  0.678780  0.021096  0.250000  1
  K  K2  1  0.322779  0.961865  0.750000  1
  K  K3  1  0.038135  0.677221  0.250000  1
  Cd  Cd4  1  0.508087  0.491913  0.000000  1
  Cd  Cd5  1  0.508087  0.491913  0.500000  1
  Pb  Pb6  1  0.776882  0.770653  0.750000  1
  Pb  Pb7  1  0.229347  0.223118  0.250000  1
