# generated using pymatgen
data_Ba(AlSi)2
_symmetry_space_group_name_H-M   'P 1'
_cell_length_a   4.26170004
_cell_length_b   10.14121458
_cell_length_c   10.94422170
_cell_angle_alpha   90.00000000
_cell_angle_beta   90.00000000
_cell_angle_gamma   90.00000000
_symmetry_Int_Tables_number   1
_chemical_formula_structural   Ba(AlSi)2
_chemical_formula_sum   'Ba4 Al8 Si8'
_cell_volume   472.99628839
_cell_formula_units_Z   4
loop_
 _symmetry_equiv_pos_site_id
 _symmetry_equiv_pos_as_xyz
  1  'x, y, z'
loop_
 _atom_site_type_symbol
 _atom_site_label
 _atom_site_symmetry_multiplicity
 _atom_site_fract_x
 _atom_site_fract_y
 _atom_site_fract_z
 _atom_site_occupancy
  Ba  Ba0  1  0.250000  0.247783  0.174768  1
  Ba  Ba1  1  0.750000  0.752217  0.825232  1
  Ba  Ba2  1  0.250000  0.747783  0.325232  1
  Ba  Ba3  1  0.750000  0.252217  0.674768  1
  Al  Al4  1  0.250000  0.600680  0.047359  1
  Al  Al5  1  0.750000  0.399320  0.952641  1
  Al  Al6  1  0.250000  0.100680  0.452641  1
  Al  Al7  1  0.750000  0.899320  0.547359  1
  Al  Al8  1  0.250000  0.541634  0.618661  1
  Al  Al9  1  0.750000  0.458366  0.381339  1
  Al  Al10  1  0.250000  0.041634  0.881339  1
  Al  Al11  1  0.750000  0.958366  0.118661  1
  Si  Si12  1  0.250000  0.976012  0.655985  1
  Si  Si13  1  0.750000  0.023988  0.344015  1
  Si  Si14  1  0.250000  0.476012  0.844015  1
  Si  Si15  1  0.750000  0.523988  0.155985  1
  Si  Si16  1  0.250000  0.354767  0.458661  1
  Si  Si17  1  0.750000  0.645233  0.541339  1
  Si  Si18  1  0.250000  0.854767  0.041339  1
  Si  Si19  1  0.750000  0.145233  0.958661  1
