# generated using pymatgen
data_P2W7O25
_symmetry_space_group_name_H-M   'P 1'
_cell_length_a   5.41614819
_cell_length_b   6.71513596
_cell_length_c   27.81457178
_cell_angle_alpha   90.00000000
_cell_angle_beta   101.22787808
_cell_angle_gamma   90.00000000
_symmetry_Int_Tables_number   1
_chemical_formula_structural   P2W7O25
_chemical_formula_sum   'P4 W14 O50'
_cell_volume   992.25886231
_cell_formula_units_Z   2
loop_
 _symmetry_equiv_pos_site_id
 _symmetry_equiv_pos_as_xyz
  1  'x, y, z'
loop_
 _atom_site_type_symbol
 _atom_site_label
 _atom_site_symmetry_multiplicity
 _atom_site_fract_x
 _atom_site_fract_y
 _atom_site_fract_z
 _atom_site_occupancy
  P  P0  1  0.799521  0.197777  0.791122  1
  P  P1  1  0.200479  0.697777  0.708878  1
  P  P2  1  0.200479  0.802223  0.208878  1
  P  P3  1  0.799521  0.302223  0.291122  1
  W  W4  1  0.442075  0.169196  0.943532  1
  W  W5  1  0.557925  0.669196  0.556468  1
  W  W6  1  0.557925  0.830804  0.056468  1
  W  W7  1  0.442075  0.330804  0.443532  1
  W  W8  1  0.330857  0.502828  0.828649  1
  W  W9  1  0.669143  0.002828  0.671351  1
  W  W10  1  0.669143  0.497172  0.171351  1
  W  W11  1  0.330857  0.997172  0.328649  1
  W  W12  1  0.111743  0.338771  0.614448  1
  W  W13  1  0.888257  0.838771  0.885552  1
  W  W14  1  0.888257  0.661229  0.385552  1
  W  W15  1  0.111743  0.161229  0.114448  1
  W  W16  1  0.000000  0.000000  0.500000  1
  W  W17  1  0.000000  0.500000  0.000000  1
  O  O18  1  0.587580  0.333119  0.801869  1
  O  O19  1  0.412420  0.833119  0.698131  1
  O  O20  1  0.412420  0.666881  0.198131  1
  O  O21  1  0.587580  0.166881  0.301869  1
  O  O22  1  0.052280  0.310054  0.797672  1
  O  O23  1  0.947720  0.810054  0.702328  1
  O  O24  1  0.947720  0.689946  0.202328  1
  O  O25  1  0.052280  0.189946  0.297672  1
  O  O26  1  0.410796  0.182164  0.647140  1
  O  O27  1  0.589204  0.682164  0.852860  1
  O  O28  1  0.589204  0.817836  0.352860  1
  O  O29  1  0.410796  0.317836  0.147140  1
  O  O30  1  0.911782  0.160668  0.650995  1
  O  O31  1  0.088218  0.660668  0.849005  1
  O  O32  1  0.088218  0.839332  0.349005  1
  O  O33  1  0.911782  0.339332  0.150995  1
  O  O34  1  0.682447  0.485512  0.413041  1
  O  O35  1  0.317553  0.514488  0.586959  1
  O  O36  1  0.500000  0.000000  0.000000  1
  O  O37  1  0.500000  0.500000  0.500000  1
  O  O38  1  0.060301  0.168906  0.561329  1
  O  O39  1  0.939699  0.668906  0.938671  1
  O  O40  1  0.939699  0.831094  0.438671  1
  O  O41  1  0.060301  0.331094  0.061329  1
  O  O42  1  0.387765  0.157734  0.383836  1
  O  O43  1  0.612235  0.657734  0.116164  1
  O  O44  1  0.612235  0.842266  0.616164  1
  O  O45  1  0.387765  0.342266  0.883836  1
  O  O46  1  0.174120  0.989429  0.176638  1
  O  O47  1  0.825880  0.489429  0.323362  1
  O  O48  1  0.825880  0.010571  0.823362  1
  O  O49  1  0.174120  0.510571  0.676638  1
  O  O50  1  0.728354  0.366061  0.236929  1
  O  O51  1  0.271646  0.866061  0.263071  1
  O  O52  1  0.271646  0.633939  0.763071  1
  O  O53  1  0.728354  0.133939  0.736929  1
  O  O54  1  0.202698  0.184079  0.467719  1
  O  O55  1  0.797302  0.684079  0.032281  1
  O  O56  1  0.797302  0.815921  0.532281  1
  O  O57  1  0.202698  0.315921  0.967719  1
  O  O58  1  0.707032  0.155902  0.473437  1
  O  O59  1  0.292968  0.655902  0.026563  1
  O  O60  1  0.292968  0.844098  0.526563  1
  O  O61  1  0.707032  0.344098  0.973437  1
  O  O62  1  0.818613  0.011801  0.091133  1
  O  O63  1  0.181387  0.511801  0.408867  1
  O  O64  1  0.181387  0.988199  0.908867  1
  O  O65  1  0.818613  0.488199  0.591133  1
  O  O66  1  0.317553  0.985512  0.086959  1
  O  O67  1  0.682447  0.014488  0.913041  1
