# generated using pymatgen
data_K2CuF4
_symmetry_space_group_name_H-M   'P 1'
_cell_length_a   13.59507806
_cell_length_b   13.59507806
_cell_length_c   13.59507806
_cell_angle_alpha   154.93307023
_cell_angle_beta   154.93307023
_cell_angle_gamma   35.74480240
_symmetry_Int_Tables_number   1
_chemical_formula_structural   K2CuF4
_chemical_formula_sum   'K8 Cu4 F16'
_cell_volume   450.48798427
_cell_formula_units_Z   4
loop_
 _symmetry_equiv_pos_site_id
 _symmetry_equiv_pos_as_xyz
  1  'x, y, z'
loop_
 _atom_site_type_symbol
 _atom_site_label
 _atom_site_symmetry_multiplicity
 _atom_site_fract_x
 _atom_site_fract_y
 _atom_site_fract_z
 _atom_site_occupancy
  K  K0  1  0.428438  0.428438  0.000000  1
  K  K1  1  0.571562  0.571562  0.000000  1
  K  K2  1  0.928438  0.928438  0.000000  1
  K  K3  1  0.071562  0.071562  0.000000  1
  K  K4  1  0.320712  0.820712  0.500000  1
  K  K5  1  0.679288  0.179288  0.500000  1
  K  K6  1  0.179288  0.679288  0.500000  1
  K  K7  1  0.820712  0.320712  0.500000  1
  Cu  Cu8  1  0.500000  0.000000  0.500000  1
  Cu  Cu9  1  0.000000  0.500000  0.500000  1
  Cu  Cu10  1  0.750000  0.750000  0.000000  1
  Cu  Cu11  1  0.250000  0.250000  0.000000  1
  F  F12  1  0.173620  0.173620  0.000000  1
  F  F13  1  0.000000  0.500000  0.000000  1
  F  F14  1  0.076916  0.576916  0.500000  1
  F  F15  1  0.500000  0.500000  0.500000  1
  F  F16  1  0.767390  0.732610  0.500000  1
  F  F17  1  0.826380  0.826380  0.000000  1
  F  F18  1  0.576916  0.076916  0.500000  1
  F  F19  1  0.923084  0.423084  0.500000  1
  F  F20  1  0.326380  0.326380  0.000000  1
  F  F21  1  0.000000  0.000000  0.500000  1
  F  F22  1  0.232610  0.267390  0.500000  1
  F  F23  1  0.423084  0.923084  0.500000  1
  F  F24  1  0.732610  0.232610  0.965221  1
  F  F25  1  0.673620  0.673620  0.000000  1
  F  F26  1  0.267390  0.767390  0.034779  1
  F  F27  1  0.500000  0.000000  1.000000  1
