# generated using pymatgen
data_Na2FeNiF7
_symmetry_space_group_name_H-M   'P 1'
_cell_length_a   7.40564806
_cell_length_b   7.40564806
_cell_length_c   7.40564806
_cell_angle_alpha   120.92558929
_cell_angle_beta   118.56861276
_cell_angle_gamma   90.45062191
_symmetry_Int_Tables_number   1
_chemical_formula_structural   Na2FeNiF7
_chemical_formula_sum   'Na4 Fe2 Ni2 F14'
_cell_volume   288.13039685
_cell_formula_units_Z   2
loop_
 _symmetry_equiv_pos_site_id
 _symmetry_equiv_pos_as_xyz
  1  'x, y, z'
loop_
 _atom_site_type_symbol
 _atom_site_label
 _atom_site_symmetry_multiplicity
 _atom_site_fract_x
 _atom_site_fract_y
 _atom_site_fract_z
 _atom_site_occupancy
  Na  Na0  1  0.989853  0.749598  0.739451  1
  Na  Na1  1  0.002842  0.253703  0.749139  1
  Na  Na2  1  0.989853  0.250402  0.240255  1
  Na  Na3  1  0.495437  0.746297  0.749139  1
  Fe  Fe4  1  0.997889  0.750135  0.247754  1
  Fe  Fe5  1  0.497619  0.249865  0.247754  1
  Ni  Ni6  1  0.498191  0.750537  0.248727  1
  Ni  Ni7  1  0.498191  0.249463  0.747654  1
  F  F8  1  0.549560  0.565107  0.383438  1
  F  F9  1  0.819556  0.342717  0.476839  1
  F  F10  1  0.600937  1.000000  0.600937  1
  F  F11  1  0.178434  0.666324  0.114143  1
  F  F12  1  0.176685  0.158720  0.017965  1
  F  F13  1  0.818331  0.833878  0.383438  1
  F  F14  1  0.178434  0.064291  0.512109  1
  F  F15  1  0.818331  0.434893  0.984454  1
  F  F16  1  0.549560  0.166122  0.984454  1
  F  F17  1  0.134121  0.657283  0.476839  1
  F  F18  1  0.859246  0.841280  0.017965  1
  F  F19  1  0.396693  0.500000  0.896693  1
  F  F20  1  0.447818  0.333676  0.512109  1
  F  F21  1  0.447818  0.935709  0.114143  1
