# generated using pymatgen
data_Sb8Br2O11
_symmetry_space_group_name_H-M   'P 1'
_cell_length_a   10.79588932
_cell_length_b   11.58663020
_cell_length_c   14.27497859
_cell_angle_alpha   78.71824374
_cell_angle_beta   76.70457786
_cell_angle_gamma   72.85117523
_symmetry_Int_Tables_number   1
_chemical_formula_structural   Sb8Br2O11
_chemical_formula_sum   'Sb32 Br8 O44'
_cell_volume   1644.74889248
_cell_formula_units_Z   4
loop_
 _symmetry_equiv_pos_site_id
 _symmetry_equiv_pos_as_xyz
  1  'x, y, z'
loop_
 _atom_site_type_symbol
 _atom_site_label
 _atom_site_symmetry_multiplicity
 _atom_site_fract_x
 _atom_site_fract_y
 _atom_site_fract_z
 _atom_site_occupancy
  Sb  Sb0  1  0.815491  0.329194  0.207865  1
  Sb  Sb1  1  0.005426  0.618935  0.188147  1
  Sb  Sb2  1  0.156302  0.420433  0.032369  1
  Sb  Sb3  1  0.017330  0.612640  0.559322  1
  Sb  Sb4  1  0.173838  0.913974  0.557287  1
  Sb  Sb5  1  0.992781  0.898118  0.931548  1
  Sb  Sb6  1  0.336092  0.142744  0.492906  1
  Sb  Sb7  1  0.725961  0.622582  0.362200  1
  Sb  Sb8  1  0.696983  0.138055  0.865337  1
  Sb  Sb9  1  0.293001  0.625712  0.391764  1
  Sb  Sb10  1  0.696811  0.870381  0.138822  1
  Sb  Sb11  1  0.303189  0.129619  0.861178  1
  Sb  Sb12  1  0.007219  0.101882  0.068452  1
  Sb  Sb13  1  0.842038  0.851777  0.682703  1
  Sb  Sb14  1  0.994574  0.381065  0.811853  1
  Sb  Sb15  1  0.303017  0.861945  0.134663  1
  Sb  Sb16  1  0.157962  0.148223  0.317297  1
  Sb  Sb17  1  0.843698  0.579567  0.967631  1
  Sb  Sb18  1  0.982670  0.387360  0.440678  1
  Sb  Sb19  1  0.029105  0.848494  0.312595  1
  Sb  Sb20  1  0.826162  0.086026  0.442713  1
  Sb  Sb21  1  0.706999  0.374288  0.608236  1
  Sb  Sb22  1  0.184509  0.670806  0.792135  1
  Sb  Sb23  1  0.362633  0.647086  0.973538  1
  Sb  Sb24  1  0.331660  0.397848  0.245943  1
  Sb  Sb25  1  0.640033  0.111385  0.270735  1
  Sb  Sb26  1  0.359967  0.888615  0.729265  1
  Sb  Sb27  1  0.668340  0.602152  0.754057  1
  Sb  Sb28  1  0.274039  0.377418  0.637800  1
  Sb  Sb29  1  0.663908  0.857256  0.507094  1
  Sb  Sb30  1  0.637367  0.352914  0.026462  1
  Sb  Sb31  1  0.970895  0.151506  0.687405  1
  Br  Br32  1  0.493616  0.635199  0.588187  1
  Br  Br33  1  0.455445  0.172446  0.092448  1
  Br  Br34  1  0.506384  0.364801  0.411813  1
  Br  Br35  1  0.544555  0.827554  0.907552  1
  Br  Br36  1  0.523063  0.102838  0.652832  1
  Br  Br37  1  0.486961  0.375737  0.830527  1
  Br  Br38  1  0.513039  0.624263  0.169473  1
  Br  Br39  1  0.476937  0.897162  0.347168  1
  O  O40  1  0.889889  0.027153  0.841708  1
  O  O41  1  0.237711  0.013422  0.809325  1
  O  O42  1  0.158507  0.145941  0.976787  1
  O  O43  1  0.744585  0.731547  0.662928  1
  O  O44  1  0.758000  0.232942  0.940995  1
  O  O45  1  0.772057  0.205196  0.728744  1
  O  O46  1  0.178757  0.450040  0.170262  1
  O  O47  1  0.904999  0.274085  0.568953  1
  O  O48  1  0.018225  0.735151  0.642916  1
  O  O49  1  0.206913  0.830992  0.701087  1
  O  O50  1  0.841493  0.854059  0.023213  1
  O  O51  1  0.973252  0.526298  0.090409  1
  O  O52  1  0.009073  0.993992  0.379719  1
  O  O53  1  0.697847  0.258870  0.150745  1
  O  O54  1  0.201602  0.282431  0.786919  1
  O  O55  1  0.302153  0.741130  0.849255  1
  O  O56  1  0.788716  0.425903  0.030884  1
  O  O57  1  0.215368  0.538626  0.531336  1
  O  O58  1  0.222554  0.530660  0.323625  1
  O  O59  1  0.793087  0.169008  0.298913  1
  O  O60  1  0.981775  0.264849  0.357084  1
  O  O61  1  0.798398  0.717569  0.213081  1
  O  O62  1  0.785466  0.729874  0.428401  1
  O  O63  1  0.762289  0.986578  0.190675  1
  O  O64  1  0.009475  0.761776  0.857380  1
  O  O65  1  0.180119  0.094720  0.458173  1
  O  O66  1  0.784632  0.461374  0.468664  1
  O  O67  1  0.110111  0.972847  0.158292  1
  O  O68  1  0.242000  0.767058  0.059005  1
  O  O69  1  0.026748  0.473702  0.909591  1
  O  O70  1  0.777446  0.469340  0.676375  1
  O  O71  1  0.214534  0.270126  0.571599  1
  O  O72  1  0.709245  0.999940  0.400784  1
  O  O73  1  0.922333  0.530734  0.312713  1
  O  O74  1  0.255415  0.268453  0.337072  1
  O  O75  1  0.211284  0.574097  0.969116  1
  O  O76  1  0.821243  0.549960  0.829738  1
  O  O77  1  0.227943  0.794804  0.271256  1
  O  O78  1  0.819881  0.905280  0.541827  1
  O  O79  1  0.095001  0.725915  0.431047  1
  O  O80  1  0.990927  0.006008  0.620281  1
  O  O81  1  0.290755  0.000060  0.599216  1
  O  O82  1  0.077667  0.469266  0.687287  1
  O  O83  1  0.990525  0.238224  0.142620  1
