# generated using pymatgen
data_CaCuO2
_symmetry_space_group_name_H-M   'P 1'
_cell_length_a   3.20286330
_cell_length_b   5.46027114
_cell_length_c   11.13506554
_cell_angle_alpha   90.00000000
_cell_angle_beta   90.00000000
_cell_angle_gamma   90.00000000
_symmetry_Int_Tables_number   1
_chemical_formula_structural   CaCuO2
_chemical_formula_sum   'Ca4 Cu4 O8'
_cell_volume   194.73561657
_cell_formula_units_Z   4
loop_
 _symmetry_equiv_pos_site_id
 _symmetry_equiv_pos_as_xyz
  1  'x, y, z'
loop_
 _atom_site_type_symbol
 _atom_site_label
 _atom_site_symmetry_multiplicity
 _atom_site_fract_x
 _atom_site_fract_y
 _atom_site_fract_z
 _atom_site_occupancy
  Ca  Ca0  1  0.504628  0.975557  0.862706  1
  Ca  Ca1  1  0.495372  0.475557  0.637294  1
  Ca  Ca2  1  0.504628  0.024443  0.137294  1
  Ca  Ca3  1  0.495372  0.524443  0.362706  1
  Cu  Cu4  1  0.007072  0.484987  0.878117  1
  Cu  Cu5  1  0.992928  0.015013  0.378117  1
  Cu  Cu6  1  0.992928  0.984987  0.621883  1
  Cu  Cu7  1  0.007072  0.515013  0.121883  1
  O  O8  1  0.999015  0.773299  0.245691  1
  O  O9  1  0.015549  0.756494  0.993897  1
  O  O10  1  0.000985  0.273299  0.254309  1
  O  O11  1  0.999015  0.226701  0.754309  1
  O  O12  1  0.000985  0.726701  0.745691  1
  O  O13  1  0.984451  0.743506  0.493897  1
  O  O14  1  0.015549  0.243506  0.006103  1
  O  O15  1  0.984451  0.256494  0.506103  1
