# generated using pymatgen
data_CoSnH12(OF)6
_symmetry_space_group_name_H-M   'P 1'
_cell_length_a   6.65086884
_cell_length_b   6.65086884
_cell_length_c   6.65086884
_cell_angle_alpha   96.64609723
_cell_angle_beta   96.64609723
_cell_angle_gamma   96.64609723
_symmetry_Int_Tables_number   1
_chemical_formula_structural   CoSnH12(OF)6
_chemical_formula_sum   'Co1 Sn1 H12 O6 F6'
_cell_volume   287.75732383
_cell_formula_units_Z   1
loop_
 _symmetry_equiv_pos_site_id
 _symmetry_equiv_pos_as_xyz
  1  'x, y, z'
loop_
 _atom_site_type_symbol
 _atom_site_label
 _atom_site_symmetry_multiplicity
 _atom_site_fract_x
 _atom_site_fract_y
 _atom_site_fract_z
 _atom_site_occupancy
  Co  Co0  1  0.500000  0.500000  0.500000  1
  Sn  Sn1  1  0.000000  0.000000  0.000000  1
  H  H2  1  0.543819  0.893842  0.697089  1
  H  H3  1  0.697089  0.543819  0.893842  1
  H  H4  1  0.893842  0.697089  0.543819  1
  H  H5  1  0.456181  0.106158  0.302911  1
  H  H6  1  0.302911  0.456181  0.106158  1
  H  H7  1  0.106158  0.302911  0.456181  1
  H  H8  1  0.308262  0.803282  0.669691  1
  H  H9  1  0.669691  0.308262  0.803282  1
  H  H10  1  0.803282  0.669691  0.308262  1
  H  H11  1  0.330309  0.691738  0.196718  1
  H  H12  1  0.196718  0.330309  0.691738  1
  H  H13  1  0.691738  0.196718  0.330309  1
  O  O14  1  0.616588  0.438870  0.790022  1
  O  O15  1  0.790022  0.616588  0.438870  1
  O  O16  1  0.561130  0.209978  0.383412  1
  O  O17  1  0.383412  0.561130  0.209978  1
  O  O18  1  0.209978  0.383412  0.561130  1
  O  O19  1  0.438870  0.790022  0.616588  1
  F  F20  1  0.744767  0.066594  0.843110  1
  F  F21  1  0.843110  0.744767  0.066594  1
  F  F22  1  0.066594  0.843110  0.744767  1
  F  F23  1  0.255233  0.933406  0.156890  1
  F  F24  1  0.933406  0.156890  0.255233  1
  F  F25  1  0.156890  0.255233  0.933406  1
