# generated using pymatgen
data_BaU(SiO4)2
_symmetry_space_group_name_H-M   'P 1'
_cell_length_a   8.87131393
_cell_length_b   8.87131393
_cell_length_c   7.70589397
_cell_angle_alpha   90.00000000
_cell_angle_beta   90.00000000
_cell_angle_gamma   142.28294642
_symmetry_Int_Tables_number   1
_chemical_formula_structural   BaU(SiO4)2
_chemical_formula_sum   'Ba2 U2 Si4 O16'
_cell_volume   371.00672869
_cell_formula_units_Z   2
loop_
 _symmetry_equiv_pos_site_id
 _symmetry_equiv_pos_as_xyz
  1  'x, y, z'
loop_
 _atom_site_type_symbol
 _atom_site_label
 _atom_site_symmetry_multiplicity
 _atom_site_fract_x
 _atom_site_fract_y
 _atom_site_fract_z
 _atom_site_occupancy
  Ba  Ba0  1  0.211001  0.788999  0.750000  1
  Ba  Ba1  1  0.788999  0.211001  0.250000  1
  U  U2  1  0.877989  0.122011  0.750000  1
  U  U3  1  0.122011  0.877989  0.250000  1
  Si  Si4  1  0.405491  0.594509  0.040375  1
  Si  Si5  1  0.594509  0.405491  0.959625  1
  Si  Si6  1  0.405491  0.594509  0.459625  1
  Si  Si7  1  0.594509  0.405491  0.540375  1
  O  O8  1  0.591847  0.870008  0.537519  1
  O  O9  1  0.012883  0.987117  0.250000  1
  O  O10  1  0.408153  0.129992  0.037519  1
  O  O11  1  0.987117  0.012883  0.750000  1
  O  O12  1  0.129992  0.408153  0.962481  1
  O  O13  1  0.591847  0.870008  0.962481  1
  O  O14  1  0.870008  0.591847  0.037519  1
  O  O15  1  0.129992  0.408153  0.537519  1
  O  O16  1  0.870008  0.591847  0.462481  1
  O  O17  1  0.767016  0.232984  0.750000  1
  O  O18  1  0.606175  0.393825  0.750000  1
  O  O19  1  0.500000  0.500000  0.500000  1
  O  O20  1  0.408153  0.129992  0.462481  1
  O  O21  1  0.232984  0.767016  0.250000  1
  O  O22  1  0.500000  0.500000  1.000000  1
  O  O23  1  0.393825  0.606175  0.250000  1
