# generated using pymatgen
data_K4U5Te2O21
_symmetry_space_group_name_H-M   'P 1'
_cell_length_a   7.11554967
_cell_length_b   7.18735206
_cell_length_c   11.55583457
_cell_angle_alpha   99.99402033
_cell_angle_beta   95.40133813
_cell_angle_gamma   99.77263531
_symmetry_Int_Tables_number   1
_chemical_formula_structural   K4U5Te2O21
_chemical_formula_sum   'K4 U5 Te2 O21'
_cell_volume   568.90518008
_cell_formula_units_Z   1
loop_
 _symmetry_equiv_pos_site_id
 _symmetry_equiv_pos_as_xyz
  1  'x, y, z'
loop_
 _atom_site_type_symbol
 _atom_site_label
 _atom_site_symmetry_multiplicity
 _atom_site_fract_x
 _atom_site_fract_y
 _atom_site_fract_z
 _atom_site_occupancy
  K  K0  1  0.562481  0.291502  0.084695  1
  K  K1  1  0.302236  0.160293  0.732739  1
  K  K2  1  0.437519  0.708498  0.915305  1
  K  K3  1  0.697764  0.839707  0.267261  1
  U  U4  1  0.777108  0.875125  0.684744  1
  U  U5  1  0.222892  0.124875  0.315256  1
  U  U6  1  0.125000  0.569510  0.180048  1
  U  U7  1  0.875000  0.430490  0.819952  1
  U  U8  1  0.000000  0.000000  0.000000  1
  Te  Te9  1  0.678529  0.314688  0.514517  1
  Te  Te10  1  0.321471  0.685312  0.485483  1
  O  O11  1  0.086056  0.876445  0.161622  1
  O  O12  1  0.754485  0.989698  0.047310  1
  O  O13  1  0.411463  0.231926  0.509728  1
  O  O14  1  0.007108  0.870858  0.623433  1
  O  O15  1  0.913944  0.123555  0.838378  1
  O  O16  1  0.115053  0.471043  0.766529  1
  O  O17  1  0.372687  0.612932  0.133924  1
  O  O18  1  0.126798  0.246020  0.152002  1
  O  O19  1  0.245515  0.010302  0.952690  1
  O  O20  1  0.884947  0.528957  0.233471  1
  O  O21  1  0.237555  0.827397  0.373306  1
  O  O22  1  0.762445  0.172603  0.626694  1
  O  O23  1  0.714321  0.529262  0.642401  1
  O  O24  1  0.534384  0.874340  0.732431  1
  O  O25  1  0.588537  0.768074  0.490272  1
  O  O26  1  0.000000  0.500000  0.000000  1
  O  O27  1  0.992892  0.129142  0.376567  1
  O  O28  1  0.873202  0.753980  0.847998  1
  O  O29  1  0.465616  0.125660  0.267569  1
  O  O30  1  0.627313  0.387068  0.866075  1
  O  O31  1  0.285679  0.470738  0.357599  1
