# generated using pymatgen
data_HfB2O5
_symmetry_space_group_name_H-M   'P 1'
_cell_length_a   4.41155923
_cell_length_b   6.94852878
_cell_length_c   9.02944926
_cell_angle_alpha   90.00000000
_cell_angle_beta   90.68269179
_cell_angle_gamma   90.00000000
_symmetry_Int_Tables_number   1
_chemical_formula_structural   HfB2O5
_chemical_formula_sum   'Hf4 B8 O20'
_cell_volume   276.76770180
_cell_formula_units_Z   4
loop_
 _symmetry_equiv_pos_site_id
 _symmetry_equiv_pos_as_xyz
  1  'x, y, z'
loop_
 _atom_site_type_symbol
 _atom_site_label
 _atom_site_symmetry_multiplicity
 _atom_site_fract_x
 _atom_site_fract_y
 _atom_site_fract_z
 _atom_site_occupancy
  Hf  Hf0  1  0.999085  0.888149  0.329595  1
  Hf  Hf1  1  0.000915  0.111851  0.670405  1
  Hf  Hf2  1  0.999085  0.611851  0.829595  1
  Hf  Hf3  1  0.000915  0.388149  0.170405  1
  B  B4  1  0.535180  0.586924  0.333382  1
  B  B5  1  0.464820  0.413076  0.666618  1
  B  B6  1  0.464820  0.086924  0.166618  1
  B  B7  1  0.472562  0.729075  0.076509  1
  B  B8  1  0.535180  0.913076  0.833382  1
  B  B9  1  0.527438  0.270925  0.923491  1
  B  B10  1  0.472562  0.770925  0.576509  1
  B  B11  1  0.527438  0.229075  0.423491  1
  O  O12  1  0.670734  0.104901  0.849141  1
  O  O13  1  0.230539  0.596980  0.031819  1
  O  O14  1  0.670734  0.395099  0.349141  1
  O  O15  1  0.304438  0.155019  0.308090  1
  O  O16  1  0.769461  0.096980  0.468181  1
  O  O17  1  0.787580  0.090118  0.179925  1
  O  O18  1  0.652756  0.722038  0.445130  1
  O  O19  1  0.329266  0.895099  0.150859  1
  O  O20  1  0.329266  0.604901  0.650859  1
  O  O21  1  0.652756  0.777962  0.945130  1
  O  O22  1  0.212420  0.909882  0.820075  1
  O  O23  1  0.212420  0.590118  0.320075  1
  O  O24  1  0.347244  0.277962  0.554870  1
  O  O25  1  0.695562  0.655019  0.191910  1
  O  O26  1  0.695562  0.844981  0.691910  1
  O  O27  1  0.304438  0.344981  0.808090  1
  O  O28  1  0.230539  0.903020  0.531819  1
  O  O29  1  0.347244  0.222038  0.054870  1
  O  O30  1  0.787580  0.409882  0.679925  1
  O  O31  1  0.769461  0.403020  0.968181  1
