# generated using pymatgen
data_Hf3Tl2(CuSe4)2
_symmetry_space_group_name_H-M   'P 1'
_cell_length_a   7.70721867
_cell_length_b   7.70721867
_cell_length_c   14.50273652
_cell_angle_alpha   66.17115012
_cell_angle_beta   113.82884988
_cell_angle_gamma   151.28869056
_symmetry_Int_Tables_number   1
_chemical_formula_structural   Hf3Tl2(CuSe4)2
_chemical_formula_sum   'Hf3 Tl2 Cu2 Se8'
_cell_volume   376.14772787
_cell_formula_units_Z   1
loop_
 _symmetry_equiv_pos_site_id
 _symmetry_equiv_pos_as_xyz
  1  'x, y, z'
loop_
 _atom_site_type_symbol
 _atom_site_label
 _atom_site_symmetry_multiplicity
 _atom_site_fract_x
 _atom_site_fract_y
 _atom_site_fract_z
 _atom_site_occupancy
  Hf  Hf0  1  0.344895  0.655105  0.119827  1
  Hf  Hf1  1  0.655105  0.344895  0.880173  1
  Hf  Hf2  1  0.500000  0.500000  0.500000  1
  Tl  Tl3  1  0.668486  0.331514  0.301627  1
  Tl  Tl4  1  0.331514  0.668486  0.698373  1
  Cu  Cu5  1  0.959261  0.040739  0.302021  1
  Cu  Cu6  1  0.040739  0.959261  0.697979  1
  Se  Se7  1  0.107283  0.892717  0.460394  1
  Se  Se8  1  0.979747  0.020253  0.144560  1
  Se  Se9  1  0.020253  0.979747  0.855440  1
  Se  Se10  1  0.295234  0.704766  0.918631  1
  Se  Se11  1  0.704766  0.295234  0.081369  1
  Se  Se12  1  0.643186  0.356814  0.690799  1
  Se  Se13  1  0.356814  0.643186  0.309201  1
  Se  Se14  1  0.892717  0.107283  0.539606  1
