# generated using pymatgen
data_SiO2
_symmetry_space_group_name_H-M   'P 1'
_cell_length_a   7.30285900
_cell_length_b   7.31771000
_cell_length_c   7.32892500
_cell_angle_alpha   90.00000000
_cell_angle_beta   90.00000000
_cell_angle_gamma   90.00000000
_symmetry_Int_Tables_number   1
_chemical_formula_structural   SiO2
_chemical_formula_sum   'Si8 O16'
_cell_volume   391.65924954
_cell_formula_units_Z   8
loop_
 _symmetry_equiv_pos_site_id
 _symmetry_equiv_pos_as_xyz
  1  'x, y, z'
loop_
 _atom_site_type_symbol
 _atom_site_label
 _atom_site_symmetry_multiplicity
 _atom_site_fract_x
 _atom_site_fract_y
 _atom_site_fract_z
 _atom_site_occupancy
  Si  Si0  1  0.998840  0.023946  0.016502  1
  Si  Si1  1  0.732725  0.755509  0.225325  1
  Si  Si2  1  0.267275  0.255509  0.274675  1
  Si  Si3  1  0.498840  0.476054  0.983498  1
  Si  Si4  1  0.001160  0.523946  0.483498  1
  Si  Si5  1  0.767275  0.244491  0.725325  1
  Si  Si6  1  0.501160  0.976054  0.516502  1
  Si  Si7  1  0.232725  0.744491  0.774675  1
  O  O8  1  0.671505  0.076035  0.617604  1
  O  O9  1  0.828495  0.923965  0.117604  1
  O  O10  1  0.132533  0.874559  0.922820  1
  O  O11  1  0.079576  0.664957  0.635451  1
  O  O12  1  0.632533  0.625441  0.077180  1
  O  O13  1  0.579576  0.835043  0.364549  1
  O  O14  1  0.613408  0.361052  0.833532  1
  O  O15  1  0.113408  0.138948  0.166468  1
  O  O16  1  0.328495  0.576035  0.882396  1
  O  O17  1  0.867467  0.374559  0.577180  1
  O  O18  1  0.420424  0.335043  0.135451  1
  O  O19  1  0.171505  0.423965  0.382396  1
  O  O20  1  0.386592  0.861052  0.666468  1
  O  O21  1  0.920424  0.164957  0.864549  1
  O  O22  1  0.886592  0.638948  0.333532  1
  O  O23  1  0.367467  0.125441  0.422820  1
