# generated using pymatgen
data_Dy2Zn17
_symmetry_space_group_name_H-M   'P 1'
_cell_length_a   8.97653542
_cell_length_b   8.97653542
_cell_length_c   8.78207163
_cell_angle_alpha   90.00000000
_cell_angle_beta   90.00000000
_cell_angle_gamma   120.00000000
_symmetry_Int_Tables_number   1
_chemical_formula_structural   Dy2Zn17
_chemical_formula_sum   'Dy4 Zn34'
_cell_volume   612.83717819
_cell_formula_units_Z   2
loop_
 _symmetry_equiv_pos_site_id
 _symmetry_equiv_pos_as_xyz
  1  'x, y, z'
loop_
 _atom_site_type_symbol
 _atom_site_label
 _atom_site_symmetry_multiplicity
 _atom_site_fract_x
 _atom_site_fract_y
 _atom_site_fract_z
 _atom_site_occupancy
  Dy  Dy0  1  0.000000  0.000000  0.250000  1
  Dy  Dy1  1  0.000000  0.000000  0.750000  1
  Dy  Dy2  1  0.666667  0.333333  0.250000  1
  Dy  Dy3  1  0.333333  0.666667  0.750000  1
  Zn  Zn4  1  0.037395  0.670886  0.250000  1
  Zn  Zn5  1  0.962605  0.633491  0.750000  1
  Zn  Zn6  1  0.500000  0.000000  0.500000  1
  Zn  Zn7  1  0.500000  0.500000  0.500000  1
  Zn  Zn8  1  0.633491  0.670886  0.250000  1
  Zn  Zn9  1  0.323234  0.161617  0.020230  1
  Zn  Zn10  1  0.161617  0.323234  0.520230  1
  Zn  Zn11  1  0.037395  0.366509  0.250000  1
  Zn  Zn12  1  0.838383  0.161617  0.020230  1
  Zn  Zn13  1  0.333333  0.666667  0.398646  1
  Zn  Zn14  1  0.670886  0.037395  0.750000  1
  Zn  Zn15  1  0.666667  0.333333  0.898646  1
  Zn  Zn16  1  0.329114  0.366509  0.250000  1
  Zn  Zn17  1  0.676766  0.838383  0.979770  1
  Zn  Zn18  1  0.366509  0.037395  0.750000  1
  Zn  Zn19  1  0.838383  0.161617  0.479770  1
  Zn  Zn20  1  0.323234  0.161617  0.479770  1
  Zn  Zn21  1  0.366509  0.329114  0.750000  1
  Zn  Zn22  1  0.962605  0.329114  0.750000  1
  Zn  Zn23  1  0.670886  0.633491  0.750000  1
  Zn  Zn24  1  0.838383  0.676766  0.479770  1
  Zn  Zn25  1  0.161617  0.323234  0.979770  1
  Zn  Zn26  1  0.838383  0.676766  0.020230  1
  Zn  Zn27  1  0.666667  0.333333  0.601354  1
  Zn  Zn28  1  0.676766  0.838383  0.520230  1
  Zn  Zn29  1  0.000000  0.500000  0.000000  1
  Zn  Zn30  1  0.333333  0.666667  0.101354  1
  Zn  Zn31  1  0.633491  0.962605  0.250000  1
  Zn  Zn32  1  0.161617  0.838383  0.979770  1
  Zn  Zn33  1  0.329114  0.962605  0.250000  1
  Zn  Zn34  1  0.500000  0.500000  0.000000  1
  Zn  Zn35  1  0.161617  0.838383  0.520230  1
  Zn  Zn36  1  0.000000  0.500000  0.500000  1
  Zn  Zn37  1  0.500000  0.000000  0.000000  1
