# generated using pymatgen
data_LaZn2
_symmetry_space_group_name_H-M   'P 1'
_cell_length_a   5.86985276
_cell_length_b   5.86985276
_cell_length_c   5.86985276
_cell_angle_alpha   132.77434392
_cell_angle_beta   99.50211882
_cell_angle_gamma   98.96338430
_symmetry_Int_Tables_number   1
_chemical_formula_structural   LaZn2
_chemical_formula_sum   'La2 Zn4'
_cell_volume   136.02417768
_cell_formula_units_Z   2
loop_
 _symmetry_equiv_pos_site_id
 _symmetry_equiv_pos_as_xyz
  1  'x, y, z'
loop_
 _atom_site_type_symbol
 _atom_site_label
 _atom_site_symmetry_multiplicity
 _atom_site_fract_x
 _atom_site_fract_y
 _atom_site_fract_z
 _atom_site_occupancy
  La  La0  1  0.207181  0.750000  0.457181  1
  La  La1  1  0.792819  0.250000  0.542819  1
  Zn  Zn2  1  0.397186  0.562083  0.835103  1
  Zn  Zn3  1  0.602814  0.437917  0.164897  1
  Zn  Zn4  1  0.226980  0.062083  0.164897  1
  Zn  Zn5  1  0.773020  0.937917  0.835103  1
