# generated using pymatgen
data_CsNb4Cl11
_symmetry_space_group_name_H-M   'P 1'
_cell_length_a   7.05454566
_cell_length_b   7.16342913
_cell_length_c   16.29615204
_cell_angle_alpha   90.00000000
_cell_angle_beta   90.00000000
_cell_angle_gamma   90.00000000
_symmetry_Int_Tables_number   1
_chemical_formula_structural   CsNb4Cl11
_chemical_formula_sum   'Cs2 Nb8 Cl22'
_cell_volume   823.52177179
_cell_formula_units_Z   2
loop_
 _symmetry_equiv_pos_site_id
 _symmetry_equiv_pos_as_xyz
  1  'x, y, z'
loop_
 _atom_site_type_symbol
 _atom_site_label
 _atom_site_symmetry_multiplicity
 _atom_site_fract_x
 _atom_site_fract_y
 _atom_site_fract_z
 _atom_site_occupancy
  Cs  Cs0  1  0.500000  0.518336  0.750000  1
  Cs  Cs1  1  0.500000  0.481664  0.250000  1
  Nb  Nb2  1  0.000000  0.882132  0.359067  1
  Nb  Nb3  1  0.786243  0.000000  0.000000  1
  Nb  Nb4  1  0.213757  0.000000  0.000000  1
  Nb  Nb5  1  0.000000  0.882132  0.140933  1
  Nb  Nb6  1  0.000000  0.117868  0.640933  1
  Nb  Nb7  1  0.213757  0.000000  0.500000  1
  Nb  Nb8  1  0.786243  0.000000  0.500000  1
  Nb  Nb9  1  0.000000  0.117868  0.859067  1
  Cl  Cl10  1  0.500000  0.129722  0.082729  1
  Cl  Cl11  1  0.249191  0.697152  0.077053  1
  Cl  Cl12  1  0.769766  0.012435  0.250000  1
  Cl  Cl13  1  0.000000  0.798660  0.914155  1
  Cl  Cl14  1  0.000000  0.201340  0.085845  1
  Cl  Cl15  1  0.500000  0.870278  0.917271  1
  Cl  Cl16  1  0.769766  0.987565  0.750000  1
  Cl  Cl17  1  0.000000  0.798660  0.585845  1
  Cl  Cl18  1  0.750809  0.697152  0.077053  1
  Cl  Cl19  1  0.000000  0.610266  0.250000  1
  Cl  Cl20  1  0.000000  0.201340  0.414155  1
  Cl  Cl21  1  0.000000  0.389734  0.750000  1
  Cl  Cl22  1  0.230234  0.987565  0.750000  1
  Cl  Cl23  1  0.750809  0.697152  0.422947  1
  Cl  Cl24  1  0.750809  0.302848  0.577053  1
  Cl  Cl25  1  0.249191  0.302848  0.922947  1
  Cl  Cl26  1  0.750809  0.302848  0.922947  1
  Cl  Cl27  1  0.249191  0.697152  0.422947  1
  Cl  Cl28  1  0.500000  0.129722  0.417271  1
  Cl  Cl29  1  0.249191  0.302848  0.577053  1
  Cl  Cl30  1  0.230234  0.012435  0.250000  1
  Cl  Cl31  1  0.500000  0.870278  0.582729  1
