# generated using pymatgen
data_CsTbZnSe3
_symmetry_space_group_name_H-M   'P 1'
_cell_length_a   8.36413497
_cell_length_b   8.36413497
_cell_length_c   11.04530555
_cell_angle_alpha   90.00000000
_cell_angle_beta   90.00000000
_cell_angle_gamma   150.98188315
_symmetry_Int_Tables_number   1
_chemical_formula_structural   CsTbZnSe3
_chemical_formula_sum   'Cs2 Tb2 Zn2 Se6'
_cell_volume   374.83373771
_cell_formula_units_Z   2
loop_
 _symmetry_equiv_pos_site_id
 _symmetry_equiv_pos_as_xyz
  1  'x, y, z'
loop_
 _atom_site_type_symbol
 _atom_site_label
 _atom_site_symmetry_multiplicity
 _atom_site_fract_x
 _atom_site_fract_y
 _atom_site_fract_z
 _atom_site_occupancy
  Cs  Cs0  1  0.742216  0.257784  0.250000  1
  Cs  Cs1  1  0.257784  0.742216  0.750000  1
  Tb  Tb2  1  0.000000  0.000000  0.500000  1
  Tb  Tb3  1  0.000000  0.000000  0.000000  1
  Zn  Zn4  1  0.460997  0.539003  0.250000  1
  Zn  Zn5  1  0.539003  0.460997  0.750000  1
  Se  Se6  1  0.616914  0.383086  0.940562  1
  Se  Se7  1  0.054711  0.945289  0.250000  1
  Se  Se8  1  0.383086  0.616914  0.059438  1
  Se  Se9  1  0.945289  0.054711  0.750000  1
  Se  Se10  1  0.616914  0.383086  0.559438  1
  Se  Se11  1  0.383086  0.616914  0.440562  1
