# generated using pymatgen
data_Ga4GeS4
_symmetry_space_group_name_H-M   'P 1'
_cell_length_a   11.63714681
_cell_length_b   11.63714681
_cell_length_c   11.63714681
_cell_angle_alpha   90.00000000
_cell_angle_beta   90.00000000
_cell_angle_gamma   90.00000000
_symmetry_Int_Tables_number   1
_chemical_formula_structural   Ga4GeS4
_chemical_formula_sum   'Ga32 Ge8 S32'
_cell_volume   1575.93949553
_cell_formula_units_Z   8
loop_
 _symmetry_equiv_pos_site_id
 _symmetry_equiv_pos_as_xyz
  1  'x, y, z'
loop_
 _atom_site_type_symbol
 _atom_site_label
 _atom_site_symmetry_multiplicity
 _atom_site_fract_x
 _atom_site_fract_y
 _atom_site_fract_z
 _atom_site_occupancy
  Ga  Ga0  1  0.222740  0.777260  0.277260  1
  Ga  Ga1  1  0.223578  0.537597  0.066262  1
  Ga  Ga2  1  0.433738  0.776422  0.037597  1
  Ga  Ga3  1  0.462403  0.566262  0.276422  1
  Ga  Ga4  1  0.537597  0.066262  0.223578  1
  Ga  Ga5  1  0.566262  0.276422  0.462403  1
  Ga  Ga6  1  0.722740  0.722740  0.722740  1
  Ga  Ga7  1  0.722740  0.777260  0.222740  1
  Ga  Ga8  1  0.723578  0.962403  0.933738  1
  Ga  Ga9  1  0.723578  0.537597  0.433738  1
  Ga  Ga10  1  0.776422  0.037597  0.433738  1
  Ga  Ga11  1  0.777260  0.277260  0.222740  1
  Ga  Ga12  1  0.933738  0.723578  0.962403  1
  Ga  Ga13  1  0.933738  0.776422  0.462403  1
  Ga  Ga14  1  0.962403  0.933738  0.723578  1
  Ga  Ga15  1  0.962403  0.566262  0.223578  1
  Ga  Ga16  1  0.037597  0.433738  0.776422  1
  Ga  Ga17  1  0.037597  0.066262  0.276422  1
  Ga  Ga18  1  0.066262  0.223578  0.537597  1
  Ga  Ga19  1  0.066262  0.276422  0.037597  1
  Ga  Ga20  1  0.222740  0.722740  0.777260  1
  Ga  Ga21  1  0.223578  0.962403  0.566262  1
  Ga  Ga22  1  0.276422  0.462403  0.566262  1
  Ga  Ga23  1  0.276422  0.037597  0.066262  1
  Ga  Ga24  1  0.277260  0.222740  0.777260  1
  Ga  Ga25  1  0.277260  0.277260  0.277260  1
  Ga  Ga26  1  0.433738  0.723578  0.537597  1
  Ga  Ga27  1  0.462403  0.933738  0.776422  1
  Ga  Ga28  1  0.537597  0.433738  0.723578  1
  Ga  Ga29  1  0.566262  0.223578  0.962403  1
  Ga  Ga30  1  0.776422  0.462403  0.933738  1
  Ga  Ga31  1  0.777260  0.222740  0.722740  1
  Ge  Ge32  1  0.099851  0.900149  0.400149  1
  Ge  Ge33  1  0.599851  0.599851  0.599851  1
  Ge  Ge34  1  0.599851  0.900149  0.099851  1
  Ge  Ge35  1  0.900149  0.400149  0.099851  1
  Ge  Ge36  1  0.099851  0.599851  0.900149  1
  Ge  Ge37  1  0.400149  0.099851  0.900149  1
  Ge  Ge38  1  0.400149  0.400149  0.400149  1
  Ge  Ge39  1  0.900149  0.099851  0.599851  1
  S  S40  1  0.419109  0.580891  0.080891  1
  S  S41  1  0.580891  0.080891  0.419109  1
  S  S42  1  0.919109  0.919109  0.919109  1
  S  S43  1  0.919109  0.580891  0.419109  1
  S  S44  1  0.080891  0.419109  0.580891  1
  S  S45  1  0.080891  0.080891  0.080891  1
  S  S46  1  0.082618  0.247186  0.836809  1
  S  S47  1  0.082618  0.252814  0.336809  1
  S  S48  1  0.163191  0.582618  0.252814  1
  S  S49  1  0.163191  0.917382  0.752814  1
  S  S50  1  0.247186  0.836809  0.082618  1
  S  S51  1  0.247186  0.663191  0.582618  1
  S  S52  1  0.252814  0.163191  0.582618  1
  S  S53  1  0.252814  0.336809  0.082618  1
  S  S54  1  0.336809  0.082618  0.252814  1
  S  S55  1  0.336809  0.417382  0.752814  1
  S  S56  1  0.417382  0.752814  0.336809  1
  S  S57  1  0.417382  0.747186  0.836809  1
  S  S58  1  0.419109  0.919109  0.580891  1
  S  S59  1  0.580891  0.419109  0.919109  1
  S  S60  1  0.582618  0.252814  0.163191  1
  S  S61  1  0.582618  0.247186  0.663191  1
  S  S62  1  0.663191  0.582618  0.247186  1
  S  S63  1  0.663191  0.917382  0.747186  1
  S  S64  1  0.747186  0.663191  0.917382  1
  S  S65  1  0.747186  0.836809  0.417382  1
  S  S66  1  0.752814  0.163191  0.917382  1
  S  S67  1  0.752814  0.336809  0.417382  1
  S  S68  1  0.836809  0.082618  0.247186  1
  S  S69  1  0.836809  0.417382  0.747186  1
  S  S70  1  0.917382  0.747186  0.663191  1
  S  S71  1  0.917382  0.752814  0.163191  1
