# generated using pymatgen
data_Sr2DySbO6
_symmetry_space_group_name_H-M   'P 1'
_cell_length_a   5.86820467
_cell_length_b   5.92359763
_cell_length_c   10.16983625
_cell_angle_alpha   90.00000000
_cell_angle_beta   125.02074521
_cell_angle_gamma   90.00000000
_symmetry_Int_Tables_number   1
_chemical_formula_structural   Sr2DySbO6
_chemical_formula_sum   'Sr4 Dy2 Sb2 O12'
_cell_volume   289.50704480
_cell_formula_units_Z   2
loop_
 _symmetry_equiv_pos_site_id
 _symmetry_equiv_pos_as_xyz
  1  'x, y, z'
loop_
 _atom_site_type_symbol
 _atom_site_label
 _atom_site_symmetry_multiplicity
 _atom_site_fract_x
 _atom_site_fract_y
 _atom_site_fract_z
 _atom_site_occupancy
  Sr  Sr0  1  0.241816  0.466974  0.749477  1
  Sr  Sr1  1  0.241816  0.033026  0.249477  1
  Sr  Sr2  1  0.758184  0.533026  0.250523  1
  Sr  Sr3  1  0.758184  0.966974  0.750523  1
  Dy  Dy4  1  0.500000  0.500000  0.500000  1
  Dy  Dy5  1  0.500000  0.000000  0.000000  1
  Sb  Sb6  1  0.000000  0.000000  0.500000  1
  Sb  Sb7  1  0.000000  0.500000  0.000000  1
  O  O8  1  0.312337  0.479039  0.235684  1
  O  O9  1  0.155666  0.226292  0.958270  1
  O  O10  1  0.767097  0.299525  0.039510  1
  O  O11  1  0.844334  0.726292  0.541730  1
  O  O12  1  0.232903  0.700475  0.960490  1
  O  O13  1  0.687663  0.520961  0.764316  1
  O  O14  1  0.767097  0.200475  0.539510  1
  O  O15  1  0.155666  0.273708  0.458270  1
  O  O16  1  0.844334  0.773708  0.041730  1
  O  O17  1  0.687663  0.979039  0.264316  1
  O  O18  1  0.312337  0.020961  0.735684  1
  O  O19  1  0.232903  0.799525  0.460490  1
