# generated using pymatgen
data_KBiF4
_symmetry_space_group_name_H-M   'P 1'
_cell_length_a   8.37574502
_cell_length_b   8.37574502
_cell_length_c   8.37574502
_cell_angle_alpha   60.00000000
_cell_angle_beta   60.00000000
_cell_angle_gamma   60.00000000
_symmetry_Int_Tables_number   1
_chemical_formula_structural   KBiF4
_chemical_formula_sum   'K4 Bi4 F16'
_cell_volume   415.48499605
_cell_formula_units_Z   4
loop_
 _symmetry_equiv_pos_site_id
 _symmetry_equiv_pos_as_xyz
  1  'x, y, z'
loop_
 _atom_site_type_symbol
 _atom_site_label
 _atom_site_symmetry_multiplicity
 _atom_site_fract_x
 _atom_site_fract_y
 _atom_site_fract_z
 _atom_site_occupancy
  K  K0  1  0.625000  0.125000  0.625000  1
  K  K1  1  0.625000  0.625000  0.125000  1
  K  K2  1  0.625000  0.625000  0.625000  1
  K  K3  1  0.125000  0.625000  0.625000  1
  Bi  Bi4  1  0.125000  0.625000  0.125000  1
  Bi  Bi5  1  0.125000  0.125000  0.125000  1
  Bi  Bi6  1  0.125000  0.125000  0.625000  1
  Bi  Bi7  1  0.625000  0.125000  0.125000  1
  F  F8  1  0.750000  0.750000  0.750000  1
  F  F9  1  0.031797  0.468203  0.031797  1
  F  F10  1  0.781797  0.218203  0.218203  1
  F  F11  1  0.218203  0.781797  0.218203  1
  F  F12  1  0.218203  0.218203  0.781797  1
  F  F13  1  1.000000  0.000000  1.000000  1
  F  F14  1  0.468203  0.031797  0.031797  1
  F  F15  1  0.500000  0.500000  0.500000  1
  F  F16  1  0.468203  0.468203  0.031797  1
  F  F17  1  0.781797  0.218203  0.781797  1
  F  F18  1  0.031797  0.468203  0.468203  1
  F  F19  1  0.031797  0.031797  0.468203  1
  F  F20  1  0.218203  0.781797  0.781797  1
  F  F21  1  0.250000  0.250000  0.250000  1
  F  F22  1  0.468203  0.031797  0.468203  1
  F  F23  1  0.781797  0.781797  0.218203  1
