# generated using pymatgen
data_La3CI5
_symmetry_space_group_name_H-M   'P 1'
_cell_length_a   8.10431734
_cell_length_b   9.84199261
_cell_length_c   9.93477641
_cell_angle_alpha   107.52487442
_cell_angle_beta   97.36418141
_cell_angle_gamma   105.22936145
_symmetry_Int_Tables_number   1
_chemical_formula_structural   La3CI5
_chemical_formula_sum   'La6 C2 I10'
_cell_volume   710.36636081
_cell_formula_units_Z   2
loop_
 _symmetry_equiv_pos_site_id
 _symmetry_equiv_pos_as_xyz
  1  'x, y, z'
loop_
 _atom_site_type_symbol
 _atom_site_label
 _atom_site_symmetry_multiplicity
 _atom_site_fract_x
 _atom_site_fract_y
 _atom_site_fract_z
 _atom_site_occupancy
  La  La0  1  0.621946  0.861133  0.815791  1
  La  La1  1  0.027512  0.729337  0.921711  1
  La  La2  1  0.106183  0.039277  0.773976  1
  La  La3  1  0.972488  0.270663  0.078289  1
  La  La4  1  0.893817  0.960723  0.226024  1
  La  La5  1  0.378054  0.138867  0.184209  1
  C  C6  1  0.087066  0.030820  0.041555  1
  C  C7  1  0.912934  0.969180  0.958445  1
  I  I8  1  0.181754  0.727779  0.639147  1
  I  I9  1  0.909992  0.628561  0.181984  1
  I  I10  1  0.090008  0.371439  0.818016  1
  I  I11  1  0.740488  0.913411  0.533712  1
  I  I12  1  0.259512  0.086589  0.466288  1
  I  I13  1  0.646871  0.534006  0.723200  1
  I  I14  1  0.455013  0.809671  0.092149  1
  I  I15  1  0.818246  0.272221  0.360853  1
  I  I16  1  0.353129  0.465994  0.276800  1
  I  I17  1  0.544987  0.190329  0.907851  1
