# generated using pymatgen
data_Sc(PO3)3
_symmetry_space_group_name_H-M   'P 1'
_cell_length_a   12.61994046
_cell_length_b   12.61994046
_cell_length_c   12.61994046
_cell_angle_alpha   109.47122063
_cell_angle_beta   109.47122063
_cell_angle_gamma   109.47122063
_symmetry_Int_Tables_number   1
_chemical_formula_structural   Sc(PO3)3
_chemical_formula_sum   'Sc8 P24 O72'
_cell_volume   1547.21271853
_cell_formula_units_Z   8
loop_
 _symmetry_equiv_pos_site_id
 _symmetry_equiv_pos_as_xyz
  1  'x, y, z'
loop_
 _atom_site_type_symbol
 _atom_site_label
 _atom_site_symmetry_multiplicity
 _atom_site_fract_x
 _atom_site_fract_y
 _atom_site_fract_z
 _atom_site_occupancy
  Sc  Sc0  1  0.707824  0.707824  0.707824  1
  Sc  Sc1  1  0.292176  0.500000  1.000000  1
  Sc  Sc2  1  0.500000  1.000000  0.292176  1
  Sc  Sc3  1  0.000000  0.292176  0.500000  1
  Sc  Sc4  1  0.500000  0.000000  0.792176  1
  Sc  Sc5  1  0.000000  0.792176  0.500000  1
  Sc  Sc6  1  0.792176  0.500000  0.000000  1
  Sc  Sc7  1  0.207824  0.207824  0.207824  1
  P  P8  1  0.957832  0.669448  0.878294  1
  P  P9  1  0.830552  0.788384  0.208846  1
  P  P10  1  0.621706  0.291154  0.079538  1
  P  P11  1  0.542168  0.420462  0.711616  1
  P  P12  1  0.420462  0.711616  0.542168  1
  P  P13  1  0.711616  0.542168  0.420462  1
  P  P14  1  0.457832  0.378294  0.169448  1
  P  P15  1  0.708846  0.288384  0.330552  1
  P  P16  1  0.791154  0.121706  0.579538  1
  P  P17  1  0.211616  0.920462  0.042168  1
  P  P18  1  0.920462  0.042168  0.211616  1
  P  P19  1  0.169448  0.457832  0.378294  1
  P  P20  1  0.288384  0.330552  0.708846  1
  P  P21  1  0.579538  0.791154  0.121706  1
  P  P22  1  0.378294  0.169448  0.457832  1
  P  P23  1  0.330552  0.708846  0.288384  1
  P  P24  1  0.121706  0.579538  0.791154  1
  P  P25  1  0.208846  0.830552  0.788384  1
  P  P26  1  0.291154  0.079538  0.621706  1
  P  P27  1  0.079538  0.621706  0.291154  1
  P  P28  1  0.669448  0.878294  0.957832  1
  P  P29  1  0.878294  0.957832  0.669448  1
  P  P30  1  0.788384  0.208846  0.830552  1
  P  P31  1  0.042168  0.211616  0.920462  1
  O  O32  1  0.892334  0.583966  0.920923  1
  O  O33  1  0.916034  0.808368  0.336957  1
  O  O34  1  0.579077  0.163043  0.971411  1
  O  O35  1  0.607666  0.528589  0.691632  1
  O  O36  1  0.528589  0.691632  0.607666  1
  O  O37  1  0.691632  0.607666  0.528589  1
  O  O38  1  0.392334  0.420923  0.083966  1
  O  O39  1  0.836957  0.308368  0.416034  1
  O  O40  1  0.663043  0.079077  0.471411  1
  O  O41  1  0.191632  0.028589  0.107666  1
  O  O42  1  0.028589  0.107666  0.191632  1
  O  O43  1  0.083966  0.392334  0.420923  1
  O  O44  1  0.308368  0.416034  0.836957  1
  O  O45  1  0.471411  0.663043  0.079077  1
  O  O46  1  0.420923  0.083966  0.392334  1
  O  O47  1  0.416034  0.836957  0.308368  1
  O  O48  1  0.079077  0.471411  0.663043  1
  O  O49  1  0.336957  0.916034  0.808368  1
  O  O50  1  0.163043  0.971411  0.579077  1
  O  O51  1  0.971411  0.579077  0.163043  1
  O  O52  1  0.583966  0.920923  0.892334  1
  O  O53  1  0.920923  0.892334  0.583966  1
  O  O54  1  0.808368  0.336957  0.916034  1
  O  O55  1  0.107666  0.191632  0.028589  1
  O  O56  1  0.886217  0.721383  0.809884  1
  O  O57  1  0.911499  0.190116  0.576333  1
  O  O58  1  0.778617  0.664834  0.088501  1
  O  O59  1  0.613783  0.423667  0.835166  1
  O  O60  1  0.423667  0.835166  0.613783  1
  O  O61  1  0.835166  0.613783  0.423667  1
  O  O62  1  0.386217  0.309884  0.221383  1
  O  O63  1  0.588501  0.164834  0.278617  1
  O  O64  1  0.003465  0.095209  0.784982  1
  O  O65  1  0.904791  0.189773  0.908256  1
  O  O66  1  0.781516  0.996535  0.591744  1
  O  O67  1  0.591744  0.781516  0.996535  1
  O  O68  1  0.215018  0.718484  0.310227  1
  O  O69  1  0.310227  0.215018  0.718484  1
  O  O70  1  0.189773  0.908256  0.904791  1
  O  O71  1  0.218484  0.715018  0.810227  1
  O  O72  1  0.408256  0.689773  0.404791  1
  O  O73  1  0.281516  0.091744  0.496535  1
  O  O74  1  0.715018  0.810227  0.218484  1
  O  O75  1  0.404791  0.408256  0.689773  1
  O  O76  1  0.091744  0.496535  0.281516  1
  O  O77  1  0.784982  0.003465  0.095209  1
  O  O78  1  0.095209  0.784982  0.003465  1
  O  O79  1  0.810227  0.218484  0.715018  1
  O  O80  1  0.689773  0.404791  0.408256  1
  O  O81  1  0.496535  0.281516  0.091744  1
  O  O82  1  0.595209  0.503465  0.284982  1
  O  O83  1  0.284982  0.595209  0.503465  1
  O  O84  1  0.503465  0.284982  0.595209  1
  O  O85  1  0.718484  0.310227  0.215018  1
  O  O86  1  0.908256  0.904791  0.189773  1
  O  O87  1  0.996535  0.591744  0.781516  1
  O  O88  1  0.113783  0.335166  0.923667  1
  O  O89  1  0.664834  0.088501  0.778617  1
  O  O90  1  0.809884  0.886217  0.721383  1
  O  O91  1  0.721383  0.809884  0.886217  1
  O  O92  1  0.076333  0.690116  0.411499  1
  O  O93  1  0.411499  0.076333  0.690116  1
  O  O94  1  0.088501  0.778617  0.664834  1
  O  O95  1  0.190116  0.576333  0.911499  1
  O  O96  1  0.278617  0.588501  0.164834  1
  O  O97  1  0.309884  0.221383  0.386217  1
  O  O98  1  0.576333  0.911499  0.190116  1
  O  O99  1  0.164834  0.278617  0.588501  1
  O  O100  1  0.221383  0.386217  0.309884  1
  O  O101  1  0.923667  0.113783  0.335166  1
  O  O102  1  0.335166  0.923667  0.113783  1
  O  O103  1  0.690116  0.411499  0.076333  1
