# generated using pymatgen
data_Sc2V3Si4
_symmetry_space_group_name_H-M   'P 1'
_cell_length_a   6.63056319
_cell_length_b   6.63056319
_cell_length_c   12.27286268
_cell_angle_alpha   90.00000000
_cell_angle_beta   90.00000000
_cell_angle_gamma   90.00000000
_symmetry_Int_Tables_number   1
_chemical_formula_structural   Sc2V3Si4
_chemical_formula_sum   'Sc8 V12 Si16'
_cell_volume   539.56865394
_cell_formula_units_Z   4
loop_
 _symmetry_equiv_pos_site_id
 _symmetry_equiv_pos_as_xyz
  1  'x, y, z'
loop_
 _atom_site_type_symbol
 _atom_site_label
 _atom_site_symmetry_multiplicity
 _atom_site_fract_x
 _atom_site_fract_y
 _atom_site_fract_z
 _atom_site_occupancy
  Sc  Sc0  1  0.001705  0.662276  0.030346  1
  Sc  Sc1  1  0.837724  0.501705  0.280346  1
  Sc  Sc2  1  0.162276  0.498295  0.780346  1
  Sc  Sc3  1  0.501705  0.837724  0.719654  1
  Sc  Sc4  1  0.498295  0.162276  0.219654  1
  Sc  Sc5  1  0.998295  0.337724  0.530346  1
  Sc  Sc6  1  0.662276  0.001705  0.969654  1
  Sc  Sc7  1  0.337724  0.998295  0.469654  1
  V  V8  1  0.331628  0.331628  0.000000  1
  V  V9  1  0.168372  0.831628  0.250000  1
  V  V10  1  0.831628  0.168372  0.750000  1
  V  V11  1  0.668372  0.668372  0.500000  1
  V  V12  1  0.007583  0.156473  0.126850  1
  V  V13  1  0.343527  0.507583  0.376850  1
  V  V14  1  0.656473  0.492417  0.876850  1
  V  V15  1  0.507583  0.343527  0.623150  1
  V  V16  1  0.492417  0.656473  0.123150  1
  V  V17  1  0.992417  0.843527  0.626850  1
  V  V18  1  0.156473  0.007583  0.873150  1
  V  V19  1  0.843527  0.992417  0.373150  1
  Si  Si20  1  0.294196  0.959847  0.064354  1
  Si  Si21  1  0.540153  0.794196  0.314354  1
  Si  Si22  1  0.459847  0.205804  0.814354  1
  Si  Si23  1  0.794196  0.540153  0.685646  1
  Si  Si24  1  0.205804  0.459847  0.185646  1
  Si  Si25  1  0.705804  0.040153  0.564354  1
  Si  Si26  1  0.959847  0.294196  0.935646  1
  Si  Si27  1  0.040153  0.705804  0.435646  1
  Si  Si28  1  0.703576  0.369377  0.070084  1
  Si  Si29  1  0.130623  0.203576  0.320084  1
  Si  Si30  1  0.869377  0.796424  0.820084  1
  Si  Si31  1  0.203576  0.130623  0.679916  1
  Si  Si32  1  0.796424  0.869377  0.179916  1
  Si  Si33  1  0.296424  0.630623  0.570084  1
  Si  Si34  1  0.369377  0.703576  0.929916  1
  Si  Si35  1  0.630623  0.296424  0.429916  1
