# generated using pymatgen
data_Li2Co3(P2O7)2
_symmetry_space_group_name_H-M   'P 1'
_cell_length_a   5.52478115
_cell_length_b   6.91033814
_cell_length_c   7.40275992
_cell_angle_alpha   74.46120678
_cell_angle_beta   82.36781375
_cell_angle_gamma   67.42060124
_symmetry_Int_Tables_number   1
_chemical_formula_structural   Li2Co3(P2O7)2
_chemical_formula_sum   'Li2 Co3 P4 O14'
_cell_volume   251.27898005
_cell_formula_units_Z   1
loop_
 _symmetry_equiv_pos_site_id
 _symmetry_equiv_pos_as_xyz
  1  'x, y, z'
loop_
 _atom_site_type_symbol
 _atom_site_label
 _atom_site_symmetry_multiplicity
 _atom_site_fract_x
 _atom_site_fract_y
 _atom_site_fract_z
 _atom_site_occupancy
  Li  Li0  1  0.641406  0.026411  0.688742  1
  Li  Li1  1  0.358594  0.973589  0.311258  1
  Co  Co2  1  0.808667  0.484466  0.683638  1
  Co  Co3  1  0.191333  0.515534  0.316362  1
  Co  Co4  1  0.000000  0.000000  0.000000  1
  P  P5  1  0.799826  0.268619  0.342571  1
  P  P6  1  0.651285  0.689619  0.063005  1
  P  P7  1  0.200174  0.731381  0.657429  1
  P  P8  1  0.348715  0.310381  0.936995  1
  O  O9  1  0.634912  0.222842  0.858021  1
  O  O10  1  0.742450  0.434452  0.137607  1
  O  O11  1  0.838610  0.763975  0.142392  1
  O  O12  1  0.257550  0.565548  0.862393  1
  O  O13  1  0.968218  0.059925  0.286497  1
  O  O14  1  0.161390  0.236025  0.857608  1
  O  O15  1  0.540004  0.271989  0.447063  1
  O  O16  1  0.671600  0.726699  0.851216  1
  O  O17  1  0.057618  0.643725  0.550271  1
  O  O18  1  0.459996  0.728011  0.552937  1
  O  O19  1  0.365088  0.777158  0.141979  1
  O  O20  1  0.328400  0.273301  0.148784  1
  O  O21  1  0.031782  0.940075  0.713503  1
  O  O22  1  0.942382  0.356275  0.449729  1
