# generated using pymatgen
data_CsFeS2
_symmetry_space_group_name_H-M   'P 1'
_cell_length_a   7.48089636
_cell_length_b   7.48089636
_cell_length_c   7.48089636
_cell_angle_alpha   137.49370531
_cell_angle_beta   123.26932430
_cell_angle_gamma   73.39461920
_symmetry_Int_Tables_number   1
_chemical_formula_structural   CsFeS2
_chemical_formula_sum   'Cs2 Fe2 S4'
_cell_volume   231.23936092
_cell_formula_units_Z   2
loop_
 _symmetry_equiv_pos_site_id
 _symmetry_equiv_pos_as_xyz
  1  'x, y, z'
loop_
 _atom_site_type_symbol
 _atom_site_label
 _atom_site_symmetry_multiplicity
 _atom_site_fract_x
 _atom_site_fract_y
 _atom_site_fract_z
 _atom_site_occupancy
  Cs  Cs0  1  0.327834  0.827834  0.500000  1
  Cs  Cs1  1  0.672166  0.172166  0.500000  1
  Fe  Fe2  1  0.000000  0.746648  0.746648  1
  Fe  Fe3  1  0.000000  0.253352  0.253352  1
  S  S4  1  0.242872  0.500000  0.742872  1
  S  S5  1  0.757128  0.500000  0.257128  1
  S  S6  1  0.141994  0.141994  0.000000  1
  S  S7  1  0.858006  0.858005  0.000000  1
