# generated using pymatgen
data_Ca3(AlN2)2
_symmetry_space_group_name_H-M   'P 1'
_cell_length_a   6.74038479
_cell_length_b   6.74038479
_cell_length_c   5.53712327
_cell_angle_alpha   88.39479656
_cell_angle_beta   91.60520344
_cell_angle_gamma   104.10876246
_symmetry_Int_Tables_number   1
_chemical_formula_structural   Ca3(AlN2)2
_chemical_formula_sum   'Ca6 Al4 N8'
_cell_volume   243.82438684
_cell_formula_units_Z   2
loop_
 _symmetry_equiv_pos_site_id
 _symmetry_equiv_pos_as_xyz
  1  'x, y, z'
loop_
 _atom_site_type_symbol
 _atom_site_label
 _atom_site_symmetry_multiplicity
 _atom_site_fract_x
 _atom_site_fract_y
 _atom_site_fract_z
 _atom_site_occupancy
  Ca  Ca0  1  0.978376  0.746410  0.544782  1
  Ca  Ca1  1  0.021624  0.253590  0.455218  1
  Ca  Ca2  1  0.399337  0.399337  0.750000  1
  Ca  Ca3  1  0.600663  0.600663  0.250000  1
  Ca  Ca4  1  0.253590  0.021624  0.044782  1
  Ca  Ca5  1  0.746410  0.978376  0.955218  1
  Al  Al6  1  0.823285  0.414500  0.912198  1
  Al  Al7  1  0.176715  0.585500  0.087802  1
  Al  Al8  1  0.414500  0.823285  0.587802  1
  Al  Al9  1  0.585500  0.176715  0.412198  1
  N  N10  1  0.941573  0.697377  0.020788  1
  N  N11  1  0.588856  0.263689  0.081796  1
  N  N12  1  0.697377  0.941573  0.479212  1
  N  N13  1  0.736311  0.411144  0.581796  1
  N  N14  1  0.302623  0.058427  0.520788  1
  N  N15  1  0.263689  0.588856  0.418204  1
  N  N16  1  0.058427  0.302623  0.979212  1
  N  N17  1  0.411144  0.736311  0.918204  1
