# generated using pymatgen
data_Na3V(SO)2
_symmetry_space_group_name_H-M   'P 1'
_cell_length_a   5.99795114
_cell_length_b   11.74576796
_cell_length_c   17.89753019
_cell_angle_alpha   90.00000000
_cell_angle_beta   90.00000000
_cell_angle_gamma   90.00000000
_symmetry_Int_Tables_number   1
_chemical_formula_structural   Na3V(SO)2
_chemical_formula_sum   'Na24 V8 S16 O16'
_cell_volume   1260.89070818
_cell_formula_units_Z   8
loop_
 _symmetry_equiv_pos_site_id
 _symmetry_equiv_pos_as_xyz
  1  'x, y, z'
loop_
 _atom_site_type_symbol
 _atom_site_label
 _atom_site_symmetry_multiplicity
 _atom_site_fract_x
 _atom_site_fract_y
 _atom_site_fract_z
 _atom_site_occupancy
  Na  Na0  1  0.710862  0.622133  0.261997  1
  Na  Na1  1  0.289138  0.877867  0.761997  1
  Na  Na2  1  0.855956  0.169919  0.046939  1
  Na  Na3  1  0.289138  0.377867  0.738003  1
  Na  Na4  1  0.761006  0.372233  0.900057  1
  Na  Na5  1  0.738994  0.372233  0.400057  1
  Na  Na6  1  0.644044  0.669919  0.953061  1
  Na  Na7  1  0.210862  0.377867  0.238003  1
  Na  Na8  1  0.789138  0.622133  0.761997  1
  Na  Na9  1  0.644044  0.169919  0.546939  1
  Na  Na10  1  0.238994  0.127767  0.400057  1
  Na  Na11  1  0.761006  0.872233  0.599943  1
  Na  Na12  1  0.210862  0.877867  0.261997  1
  Na  Na13  1  0.855956  0.669919  0.453061  1
  Na  Na14  1  0.738994  0.872233  0.099943  1
  Na  Na15  1  0.355956  0.330081  0.046939  1
  Na  Na16  1  0.261006  0.627767  0.599943  1
  Na  Na17  1  0.144044  0.330081  0.546939  1
  Na  Na18  1  0.789138  0.122133  0.738003  1
  Na  Na19  1  0.261006  0.127767  0.900057  1
  Na  Na20  1  0.238994  0.627767  0.099943  1
  Na  Na21  1  0.710862  0.122133  0.238003  1
  Na  Na22  1  0.355956  0.830081  0.453061  1
  Na  Na23  1  0.144044  0.830081  0.953061  1
  V  V24  1  0.167586  0.558234  0.887743  1
  V  V25  1  0.667586  0.441766  0.612257  1
  V  V26  1  0.832414  0.941766  0.387743  1
  V  V27  1  0.667586  0.941766  0.887743  1
  V  V28  1  0.167586  0.058234  0.612257  1
  V  V29  1  0.332414  0.058234  0.112257  1
  V  V30  1  0.332414  0.558234  0.387743  1
  V  V31  1  0.832414  0.441766  0.112257  1
  S  S32  1  0.203371  0.628536  0.281921  1
  S  S33  1  0.296629  0.128536  0.718079  1
  S  S34  1  0.772314  0.623695  0.603272  1
  S  S35  1  0.272314  0.876305  0.603272  1
  S  S36  1  0.727686  0.123695  0.396728  1
  S  S37  1  0.796629  0.871464  0.781921  1
  S  S38  1  0.296629  0.628536  0.781921  1
  S  S39  1  0.272314  0.376305  0.896728  1
  S  S40  1  0.796629  0.371464  0.718079  1
  S  S41  1  0.727686  0.623695  0.103272  1
  S  S42  1  0.227686  0.376305  0.396728  1
  S  S43  1  0.772314  0.123695  0.896728  1
  S  S44  1  0.703371  0.871464  0.281921  1
  S  S45  1  0.227686  0.876305  0.103272  1
  S  S46  1  0.703371  0.371464  0.218079  1
  S  S47  1  0.203371  0.128536  0.218079  1
  O  O48  1  0.737912  0.361576  0.038632  1
  O  O49  1  0.882640  0.062246  0.615860  1
  O  O50  1  0.382640  0.937754  0.884140  1
  O  O51  1  0.617360  0.562246  0.384140  1
  O  O52  1  0.117360  0.937754  0.384140  1
  O  O53  1  0.762088  0.361576  0.538632  1
  O  O54  1  0.737912  0.861576  0.461368  1
  O  O55  1  0.262088  0.638424  0.961368  1
  O  O56  1  0.237912  0.138424  0.038632  1
  O  O57  1  0.117360  0.437754  0.115860  1
  O  O58  1  0.237912  0.638424  0.461368  1
  O  O59  1  0.617360  0.062246  0.115860  1
  O  O60  1  0.762088  0.861576  0.961368  1
  O  O61  1  0.382640  0.437754  0.615860  1
  O  O62  1  0.882640  0.562246  0.884140  1
  O  O63  1  0.262088  0.138424  0.538632  1
