# generated using pymatgen
data_Cu4As2O9
_symmetry_space_group_name_H-M   'P 1'
_cell_length_a   6.46449876
_cell_length_b   7.83313349
_cell_length_c   8.36564373
_cell_angle_alpha   98.66976676
_cell_angle_beta   112.22846326
_cell_angle_gamma   97.82812280
_symmetry_Int_Tables_number   1
_chemical_formula_structural   Cu4As2O9
_chemical_formula_sum   'Cu8 As4 O18'
_cell_volume   378.91071486
_cell_formula_units_Z   2
loop_
 _symmetry_equiv_pos_site_id
 _symmetry_equiv_pos_as_xyz
  1  'x, y, z'
loop_
 _atom_site_type_symbol
 _atom_site_label
 _atom_site_symmetry_multiplicity
 _atom_site_fract_x
 _atom_site_fract_y
 _atom_site_fract_z
 _atom_site_occupancy
  Cu  Cu0  1  0.621420  0.390250  0.745631  1
  Cu  Cu1  1  0.142250  0.877282  0.084397  1
  Cu  Cu2  1  0.343673  0.831408  0.548953  1
  Cu  Cu3  1  0.096864  0.357486  0.732852  1
  Cu  Cu4  1  0.857750  0.122718  0.915603  1
  Cu  Cu5  1  0.378580  0.609750  0.254369  1
  Cu  Cu6  1  0.903136  0.642514  0.267148  1
  Cu  Cu7  1  0.656327  0.168592  0.451047  1
  As  As8  1  0.132953  0.231706  0.351517  1
  As  As9  1  0.501184  0.288084  0.086063  1
  As  As10  1  0.867047  0.768294  0.648483  1
  As  As11  1  0.498816  0.711916  0.913937  1
  O  O12  1  0.497128  0.881998  0.805924  1
  O  O13  1  0.379218  0.176084  0.491449  1
  O  O14  1  0.225823  0.305297  0.968606  1
  O  O15  1  0.774177  0.694703  0.031394  1
  O  O16  1  0.623527  0.489866  0.248037  1
  O  O17  1  0.660562  0.279126  0.960073  1
  O  O18  1  0.006470  0.931440  0.843618  1
  O  O19  1  0.376473  0.510134  0.751963  1
  O  O20  1  0.806032  0.225808  0.709618  1
  O  O21  1  0.993530  0.068560  0.156382  1
  O  O22  1  0.030217  0.770657  0.524185  1
  O  O23  1  0.193968  0.774192  0.290382  1
  O  O24  1  0.339438  0.720874  0.039927  1
  O  O25  1  0.502872  0.118002  0.194076  1
  O  O26  1  0.170186  0.440804  0.315615  1
  O  O27  1  0.829814  0.559196  0.684385  1
  O  O28  1  0.969783  0.229343  0.475815  1
  O  O29  1  0.620782  0.823916  0.508551  1
