# generated using pymatgen
data_CoF3
_symmetry_space_group_name_H-M   'P 1'
_cell_length_a   5.28097649
_cell_length_b   5.28097649
_cell_length_c   5.28097649
_cell_angle_alpha   59.12442276
_cell_angle_beta   59.12442276
_cell_angle_gamma   59.12442276
_symmetry_Int_Tables_number   1
_chemical_formula_structural   CoF3
_chemical_formula_sum   'Co2 F6'
_cell_volume   102.06398015
_cell_formula_units_Z   2
loop_
 _symmetry_equiv_pos_site_id
 _symmetry_equiv_pos_as_xyz
  1  'x, y, z'
loop_
 _atom_site_type_symbol
 _atom_site_label
 _atom_site_symmetry_multiplicity
 _atom_site_fract_x
 _atom_site_fract_y
 _atom_site_fract_z
 _atom_site_occupancy
  Co  Co0  1  0.500000  0.500000  0.500000  1
  Co  Co1  1  0.000000  0.000000  0.000000  1
  F  F2  1  0.750000  0.144410  0.355590  1
  F  F3  1  0.144410  0.355590  0.750000  1
  F  F4  1  0.355590  0.750000  0.144410  1
  F  F5  1  0.250000  0.855590  0.644410  1
  F  F6  1  0.855590  0.644410  0.250000  1
  F  F7  1  0.644410  0.250000  0.855590  1
