# generated using pymatgen
data_Y4TiSi2(O3F2)3
_symmetry_space_group_name_H-M   'P 1'
_cell_length_a   9.22893392
_cell_length_b   9.22893392
_cell_length_c   7.12522534
_cell_angle_alpha   90.00000000
_cell_angle_beta   90.00000000
_cell_angle_gamma   109.11066085
_symmetry_Int_Tables_number   1
_chemical_formula_structural   Y4TiSi2(O3F2)3
_chemical_formula_sum   'Y8 Ti2 Si4 O18 F12'
_cell_volume   573.43211902
_cell_formula_units_Z   2
loop_
 _symmetry_equiv_pos_site_id
 _symmetry_equiv_pos_as_xyz
  1  'x, y, z'
loop_
 _atom_site_type_symbol
 _atom_site_label
 _atom_site_symmetry_multiplicity
 _atom_site_fract_x
 _atom_site_fract_y
 _atom_site_fract_z
 _atom_site_occupancy
  Y  Y0  1  0.582444  0.289408  0.250000  1
  Y  Y1  1  0.075617  0.336747  0.750000  1
  Y  Y2  1  0.289408  0.582444  0.250000  1
  Y  Y3  1  0.417556  0.710592  0.750000  1
  Y  Y4  1  0.336747  0.075617  0.750000  1
  Y  Y5  1  0.663253  0.924383  0.250000  1
  Y  Y6  1  0.710592  0.417556  0.750000  1
  Y  Y7  1  0.924383  0.663253  0.250000  1
  Ti  Ti8  1  0.000000  0.000000  0.500000  1
  Ti  Ti9  1  0.000000  0.000000  0.000000  1
  Si  Si10  1  0.277301  0.963555  0.250000  1
  Si  Si11  1  0.722699  0.036445  0.750000  1
  Si  Si12  1  0.963555  0.277301  0.250000  1
  Si  Si13  1  0.036445  0.722699  0.750000  1
  O  O14  1  0.220953  0.032274  0.442973  1
  O  O15  1  0.028722  0.465632  0.250000  1
  O  O16  1  0.061649  0.061649  0.750000  1
  O  O17  1  0.971278  0.534368  0.750000  1
  O  O18  1  0.805637  0.223016  0.750000  1
  O  O19  1  0.779047  0.967726  0.942973  1
  O  O20  1  0.223016  0.805637  0.750000  1
  O  O21  1  0.220953  0.032274  0.057027  1
  O  O22  1  0.032274  0.220953  0.442973  1
  O  O23  1  0.967726  0.779047  0.557027  1
  O  O24  1  0.032274  0.220953  0.057027  1
  O  O25  1  0.534368  0.971278  0.750000  1
  O  O26  1  0.967726  0.779047  0.942973  1
  O  O27  1  0.465632  0.028722  0.250000  1
  O  O28  1  0.194363  0.776984  0.250000  1
  O  O29  1  0.779047  0.967726  0.557027  1
  O  O30  1  0.776984  0.194363  0.250000  1
  O  O31  1  0.938351  0.938351  0.250000  1
  F  F32  1  0.245244  0.528855  0.938611  1
  F  F33  1  0.754756  0.471145  0.438611  1
  F  F34  1  0.699136  0.699136  0.250000  1
  F  F35  1  0.584132  0.584132  0.750000  1
  F  F36  1  0.300864  0.300864  0.750000  1
  F  F37  1  0.754756  0.471145  0.061389  1
  F  F38  1  0.415868  0.415868  0.250000  1
  F  F39  1  0.528855  0.245244  0.938611  1
  F  F40  1  0.471145  0.754756  0.061389  1
  F  F41  1  0.245244  0.528855  0.561389  1
  F  F42  1  0.471145  0.754756  0.438611  1
  F  F43  1  0.528855  0.245244  0.561389  1
