# generated using pymatgen
data_Mg16Si8HO32
_symmetry_space_group_name_H-M   'P 1'
_cell_length_a   9.66887628
_cell_length_b   6.07389822
_cell_length_c   10.47233921
_cell_angle_alpha   90.00000000
_cell_angle_beta   90.88079470
_cell_angle_gamma   90.00000000
_symmetry_Int_Tables_number   1
_chemical_formula_structural   Mg16Si8HO32
_chemical_formula_sum   'Mg16 Si8 H1 O32'
_cell_volume   614.94446306
_cell_formula_units_Z   1
loop_
 _symmetry_equiv_pos_site_id
 _symmetry_equiv_pos_as_xyz
  1  'x, y, z'
loop_
 _atom_site_type_symbol
 _atom_site_label
 _atom_site_symmetry_multiplicity
 _atom_site_fract_x
 _atom_site_fract_y
 _atom_site_fract_z
 _atom_site_occupancy
  Mg  Mg0  1  0.994997  0.257311  0.006466  1
  Mg  Mg1  1  0.756180  0.258167  0.497490  1
  Mg  Mg2  1  0.994997  0.742689  0.006466  1
  Mg  Mg3  1  0.756180  0.741833  0.497490  1
  Mg  Mg4  1  0.499715  0.500000  0.720853  1
  Mg  Mg5  1  0.755090  0.000000  0.780605  1
  Mg  Mg6  1  0.991995  0.000000  0.278726  1
  Mg  Mg7  1  0.742187  0.500000  0.221241  1
  Mg  Mg8  1  0.497963  0.254750  0.998927  1
  Mg  Mg9  1  0.244599  0.261428  0.489802  1
  Mg  Mg10  1  0.497963  0.745250  0.998927  1
  Mg  Mg11  1  0.244599  0.738572  0.489802  1
  Mg  Mg12  1  0.004359  0.500000  0.723839  1
  Mg  Mg13  1  0.232563  0.000000  0.803529  1
  Mg  Mg14  1  0.496845  0.000000  0.274815  1
  Mg  Mg15  1  0.249161  0.500000  0.219624  1
  Si  Si16  1  0.784336  0.500000  0.905557  1
  Si  Si17  1  0.552958  0.000000  0.583702  1
  Si  Si18  1  0.710710  0.000000  0.093929  1
  Si  Si19  1  0.962857  0.500000  0.403117  1
  Si  Si20  1  0.283596  0.500000  0.908766  1
  Si  Si21  1  0.038082  0.000000  0.594713  1
  Si  Si22  1  0.210089  0.000000  0.101826  1
  Si  Si23  1  0.464212  0.500000  0.404826  1
  H  H24  1  0.347774  0.000000  0.649702  1
  O  O25  1  0.614694  0.500000  0.905158  1
  O  O26  1  0.868606  0.000000  0.592863  1
  O  O27  1  0.879825  0.000000  0.095454  1
  O  O28  1  0.633680  0.500000  0.407831  1
  O  O29  1  0.894129  0.500000  0.549544  1
  O  O30  1  0.637605  0.000000  0.947561  1
  O  O31  1  0.623519  0.000000  0.440924  1
  O  O32  1  0.856590  0.500000  0.052925  1
  O  O33  1  0.859714  0.288738  0.839146  1
  O  O34  1  0.612998  0.224229  0.657398  1
  O  O35  1  0.636431  0.788738  0.161103  1
  O  O36  1  0.887454  0.721376  0.335765  1
  O  O37  1  0.636431  0.211262  0.161103  1
  O  O38  1  0.887454  0.278624  0.335765  1
  O  O39  1  0.859714  0.711262  0.839146  1
  O  O40  1  0.612998  0.775771  0.657398  1
  O  O41  1  0.113993  0.500000  0.912849  1
  O  O42  1  0.379232  0.000000  0.555225  1
  O  O43  1  0.378822  0.000000  0.092296  1
  O  O44  1  0.131707  0.500000  0.403001  1
  O  O45  1  0.387536  0.500000  0.548466  1
  O  O46  1  0.127518  0.000000  0.959127  1
  O  O47  1  0.108062  0.000000  0.448491  1
  O  O48  1  0.360930  0.500000  0.053349  1
  O  O49  1  0.355624  0.287415  0.839998  1
  O  O50  1  0.113346  0.221835  0.662980  1
  O  O51  1  0.137478  0.787654  0.168471  1
  O  O52  1  0.389827  0.720749  0.334399  1
  O  O53  1  0.137478  0.212346  0.168471  1
  O  O54  1  0.389827  0.279251  0.334399  1
  O  O55  1  0.355624  0.712585  0.839998  1
  O  O56  1  0.113346  0.778165  0.662980  1
