# generated using pymatgen
data_NaNiF3
_symmetry_space_group_name_H-M   'P 1'
_cell_length_a   5.40053544
_cell_length_b   5.60652462
_cell_length_c   7.76219541
_cell_angle_alpha   90.00000000
_cell_angle_beta   90.00000000
_cell_angle_gamma   90.00000000
_symmetry_Int_Tables_number   1
_chemical_formula_structural   NaNiF3
_chemical_formula_sum   'Na4 Ni4 F12'
_cell_volume   235.02557601
_cell_formula_units_Z   4
loop_
 _symmetry_equiv_pos_site_id
 _symmetry_equiv_pos_as_xyz
  1  'x, y, z'
loop_
 _atom_site_type_symbol
 _atom_site_label
 _atom_site_symmetry_multiplicity
 _atom_site_fract_x
 _atom_site_fract_y
 _atom_site_fract_z
 _atom_site_occupancy
  Na  Na0  1  0.016424  0.940452  0.750000  1
  Na  Na1  1  0.516424  0.559548  0.250000  1
  Na  Na2  1  0.483577  0.440452  0.750000  1
  Na  Na3  1  0.983576  0.059548  0.250000  1
  Ni  Ni4  1  0.500000  0.000000  0.500000  1
  Ni  Ni5  1  0.000000  0.500000  0.500000  1
  Ni  Ni6  1  0.000000  0.500000  0.000000  1
  Ni  Ni7  1  0.500000  0.000000  0.000000  1
  F  F8  1  0.696004  0.299992  0.445511  1
  F  F9  1  0.196004  0.200008  0.554489  1
  F  F10  1  0.803996  0.799992  0.054489  1
  F  F11  1  0.303996  0.700008  0.945511  1
  F  F12  1  0.303996  0.700008  0.554489  1
  F  F13  1  0.803996  0.799992  0.445511  1
  F  F14  1  0.196004  0.200008  0.945511  1
  F  F15  1  0.696004  0.299992  0.054489  1
  F  F16  1  0.104938  0.463490  0.250000  1
  F  F17  1  0.604938  0.036510  0.750000  1
  F  F18  1  0.395062  0.963490  0.250000  1
  F  F19  1  0.895062  0.536510  0.750000  1
