# generated using pymatgen
data_Rb2CeCu3Te5
_symmetry_space_group_name_H-M   'P 1'
_cell_length_a   9.87993795
_cell_length_b   9.87993795
_cell_length_c   12.51915796
_cell_angle_alpha   68.63014953
_cell_angle_beta   111.36985047
_cell_angle_gamma   143.12205826
_symmetry_Int_Tables_number   1
_chemical_formula_structural   Rb2CeCu3Te5
_chemical_formula_sum   'Rb4 Ce2 Cu6 Te10'
_cell_volume   677.10133847
_cell_formula_units_Z   2
loop_
 _symmetry_equiv_pos_site_id
 _symmetry_equiv_pos_as_xyz
  1  'x, y, z'
loop_
 _atom_site_type_symbol
 _atom_site_label
 _atom_site_symmetry_multiplicity
 _atom_site_fract_x
 _atom_site_fract_y
 _atom_site_fract_z
 _atom_site_occupancy
  Rb  Rb0  1  0.995228  0.004772  0.319276  1
  Rb  Rb1  1  0.671651  0.328349  0.327944  1
  Rb  Rb2  1  0.328349  0.671651  0.672056  1
  Rb  Rb3  1  0.004772  0.995228  0.680724  1
  Ce  Ce4  1  0.701862  0.298138  0.813737  1
  Ce  Ce5  1  0.298138  0.701862  0.186263  1
  Cu  Cu6  1  0.890130  0.602431  0.001497  1
  Cu  Cu7  1  0.397569  0.109870  0.001497  1
  Cu  Cu8  1  0.752293  0.752293  0.000000  1
  Cu  Cu9  1  0.602431  0.890130  0.998503  1
  Cu  Cu10  1  0.109870  0.397569  0.998503  1
  Cu  Cu11  1  0.247707  0.247707  0.000000  1
  Te  Te12  1  0.112788  0.395220  0.419779  1
  Te  Te13  1  0.395220  0.112788  0.580221  1
  Te  Te14  1  0.223138  0.776862  0.897946  1
  Te  Te15  1  0.116386  0.883614  0.145866  1
  Te  Te16  1  0.776862  0.223138  0.102054  1
  Te  Te17  1  0.883614  0.116386  0.854134  1
  Te  Te18  1  0.887212  0.604780  0.580221  1
  Te  Te19  1  0.459405  0.540595  0.145240  1
  Te  Te20  1  0.540595  0.459405  0.854760  1
  Te  Te21  1  0.604780  0.887212  0.419779  1
