# generated using pymatgen
data_CoCu2O3
_symmetry_space_group_name_H-M   'P 1'
_cell_length_a   3.34675940
_cell_length_b   3.94128855
_cell_length_c   9.63143083
_cell_angle_alpha   90.00000000
_cell_angle_beta   90.00000000
_cell_angle_gamma   90.00000000
_symmetry_Int_Tables_number   1
_chemical_formula_structural   CoCu2O3
_chemical_formula_sum   'Co2 Cu4 O6'
_cell_volume   127.04381699
_cell_formula_units_Z   2
loop_
 _symmetry_equiv_pos_site_id
 _symmetry_equiv_pos_as_xyz
  1  'x, y, z'
loop_
 _atom_site_type_symbol
 _atom_site_label
 _atom_site_symmetry_multiplicity
 _atom_site_fract_x
 _atom_site_fract_y
 _atom_site_fract_z
 _atom_site_occupancy
  Co  Co0  1  0.194219  0.500000  0.500000  1
  Co  Co1  1  0.805781  0.000000  0.000000  1
  Cu  Cu2  1  0.686599  0.000000  0.664336  1
  Cu  Cu3  1  0.686599  0.000000  0.335664  1
  Cu  Cu4  1  0.313401  0.500000  0.835664  1
  Cu  Cu5  1  0.313401  0.500000  0.164336  1
  O  O6  1  0.390311  0.000000  0.160244  1
  O  O7  1  0.390311  0.000000  0.839756  1
  O  O8  1  0.609689  0.500000  0.339756  1
  O  O9  1  0.609689  0.500000  0.660244  1
  O  O10  1  0.989890  0.500000  0.000000  1
  O  O11  1  0.010110  0.000000  0.500000  1
