# generated using pymatgen
data_Ba9(NbN6)2
_symmetry_space_group_name_H-M   'P 1'
_cell_length_a   8.16340569
_cell_length_b   9.83447730
_cell_length_c   12.88653175
_cell_angle_alpha   76.61447429
_cell_angle_beta   85.78826703
_cell_angle_gamma   88.06481658
_symmetry_Int_Tables_number   1
_chemical_formula_structural   Ba9(NbN6)2
_chemical_formula_sum   'Ba18 Nb4 N24'
_cell_volume   1003.59467170
_cell_formula_units_Z   2
loop_
 _symmetry_equiv_pos_site_id
 _symmetry_equiv_pos_as_xyz
  1  'x, y, z'
loop_
 _atom_site_type_symbol
 _atom_site_label
 _atom_site_symmetry_multiplicity
 _atom_site_fract_x
 _atom_site_fract_y
 _atom_site_fract_z
 _atom_site_occupancy
  Ba  Ba0  1  0.494226  0.337338  0.415562  1
  Ba  Ba1  1  0.505774  0.662662  0.584438  1
  Ba  Ba2  1  0.466913  0.620965  0.126316  1
  Ba  Ba3  1  0.533087  0.379035  0.873684  1
  Ba  Ba4  1  0.032827  0.252030  0.373166  1
  Ba  Ba5  1  0.967173  0.747970  0.626834  1
  Ba  Ba6  1  0.258518  0.018866  0.002674  1
  Ba  Ba7  1  0.741482  0.981134  0.997326  1
  Ba  Ba8  1  0.170131  0.587766  0.380253  1
  Ba  Ba9  1  0.829869  0.412234  0.619747  1
  Ba  Ba10  1  0.458768  0.921839  0.265398  1
  Ba  Ba11  1  0.541232  0.078161  0.734602  1
  Ba  Ba12  1  0.013486  0.065768  0.734336  1
  Ba  Ba13  1  0.986514  0.934232  0.265664  1
  Ba  Ba14  1  0.011887  0.380492  0.891411  1
  Ba  Ba15  1  0.988113  0.619508  0.108589  1
  Ba  Ba16  1  0.266560  0.701078  0.849475  1
  Ba  Ba17  1  0.733440  0.298922  0.150525  1
  Nb  Nb18  1  0.267300  0.301281  0.121630  1
  Nb  Nb19  1  0.732700  0.698719  0.878370  1
  Nb  Nb20  1  0.269111  0.362494  0.660736  1
  Nb  Nb21  1  0.730889  0.637506  0.339264  1
  N  N22  1  0.198146  0.544516  0.696309  1
  N  N23  1  0.801854  0.455484  0.303691  1
  N  N24  1  0.283121  0.373931  0.253447  1
  N  N25  1  0.716879  0.626069  0.746553  1
  N  N26  1  0.059072  0.199733  0.125236  1
  N  N27  1  0.940928  0.800267  0.874764  1
  N  N28  1  0.217008  0.806014  0.178073  1
  N  N29  1  0.782992  0.193986  0.821927  1
  N  N30  1  0.144222  0.322798  0.544397  1
  N  N31  1  0.855778  0.677202  0.455603  1
  N  N32  1  0.246952  0.207021  0.790561  1
  N  N33  1  0.753048  0.792979  0.209439  1
  N  N34  1  0.495781  0.631735  0.382178  1
  N  N35  1  0.504219  0.368265  0.617822  1
  N  N36  1  0.263912  0.469444  0.003242  1
  N  N37  1  0.736088  0.530556  0.996758  1
  N  N38  1  0.455716  0.174398  0.089447  1
  N  N39  1  0.544284  0.825602  0.910553  1
  N  N40  1  0.212754  0.958416  0.443383  1
  N  N41  1  0.787246  0.041584  0.556617  1
  N  N42  1  0.314323  0.922388  0.616445  1
  N  N43  1  0.685677  0.077612  0.383555  1
  N  N44  1  0.265778  0.942170  0.529228  1
  N  N45  1  0.734222  0.057830  0.470772  1
