# generated using pymatgen
data_CsGa3
_symmetry_space_group_name_H-M   'P 1'
_cell_length_a   9.01643040
_cell_length_b   9.01643040
_cell_length_c   9.01643040
_cell_angle_alpha   137.98347398
_cell_angle_beta   137.98347398
_cell_angle_gamma   60.92830987
_symmetry_Int_Tables_number   1
_chemical_formula_structural   CsGa3
_chemical_formula_sum   'Cs3 Ga9'
_cell_volume   324.80955267
_cell_formula_units_Z   3
loop_
 _symmetry_equiv_pos_site_id
 _symmetry_equiv_pos_as_xyz
  1  'x, y, z'
loop_
 _atom_site_type_symbol
 _atom_site_label
 _atom_site_symmetry_multiplicity
 _atom_site_fract_x
 _atom_site_fract_y
 _atom_site_fract_z
 _atom_site_occupancy
  Cs  Cs0  1  0.000000  0.000000  0.000000  1
  Cs  Cs1  1  0.129822  0.629822  0.500000  1
  Cs  Cs2  1  0.370178  0.870178  0.500000  1
  Ga  Ga3  1  0.776000  0.989550  0.213550  1
  Ga  Ga4  1  0.085477  0.394246  0.691231  1
  Ga  Ga5  1  0.703015  0.394246  0.308769  1
  Ga  Ga6  1  0.776000  0.562450  0.786450  1
  Ga  Ga7  1  0.010450  0.224000  0.786450  1
  Ga  Ga8  1  0.437550  0.224000  0.213550  1
  Ga  Ga9  1  0.605754  0.914523  0.308769  1
  Ga  Ga10  1  0.605754  0.296985  0.691231  1
  Ga  Ga11  1  0.500000  0.500000  0.000000  1
