# generated using pymatgen
data_RbMgAs(H6O5)2
_symmetry_space_group_name_H-M   'P 1'
_cell_length_a   6.25825105
_cell_length_b   7.08025888
_cell_length_c   11.52188444
_cell_angle_alpha   90.00000000
_cell_angle_beta   90.00000000
_cell_angle_gamma   90.00000000
_symmetry_Int_Tables_number   1
_chemical_formula_structural   RbMgAs(H6O5)2
_chemical_formula_sum   'Rb2 Mg2 As2 H24 O20'
_cell_volume   510.53513241
_cell_formula_units_Z   2
loop_
 _symmetry_equiv_pos_site_id
 _symmetry_equiv_pos_as_xyz
  1  'x, y, z'
loop_
 _atom_site_type_symbol
 _atom_site_label
 _atom_site_symmetry_multiplicity
 _atom_site_fract_x
 _atom_site_fract_y
 _atom_site_fract_z
 _atom_site_occupancy
  Rb  Rb0  1  0.143547  0.000000  0.738070  1
  Rb  Rb1  1  0.856453  0.500000  0.238070  1
  Mg  Mg2  1  0.112972  0.000000  0.387693  1
  Mg  Mg3  1  0.887028  0.500000  0.887693  1
  As  As4  1  0.477286  0.500000  0.518653  1
  As  As5  1  0.522714  0.000000  0.018653  1
  H  H6  1  0.145154  0.258940  0.019200  1
  H  H7  1  0.309313  0.319588  0.315716  1
  H  H8  1  0.220110  0.500000  0.724263  1
  H  H9  1  0.907300  0.820230  0.033229  1
  H  H10  1  0.690687  0.819588  0.815716  1
  H  H11  1  0.854846  0.241060  0.519200  1
  H  H12  1  0.333346  0.500000  0.851395  1
  H  H13  1  0.145154  0.741060  0.019200  1
  H  H14  1  0.907300  0.179770  0.033229  1
  H  H15  1  0.489375  0.114355  0.506644  1
  H  H16  1  0.712635  0.699895  0.698916  1
  H  H17  1  0.690687  0.180412  0.815716  1
  H  H18  1  0.712635  0.300105  0.698916  1
  H  H19  1  0.092700  0.679770  0.533229  1
  H  H20  1  0.309313  0.680412  0.315716  1
  H  H21  1  0.510625  0.385645  0.006644  1
  H  H22  1  0.489375  0.885645  0.506644  1
  H  H23  1  0.854846  0.758940  0.519200  1
  H  H24  1  0.779890  0.000000  0.224263  1
  H  H25  1  0.287365  0.800105  0.198916  1
  H  H26  1  0.666654  0.000000  0.351395  1
  H  H27  1  0.092700  0.320230  0.533229  1
  H  H28  1  0.510625  0.614355  0.006644  1
  H  H29  1  0.287365  0.199895  0.198916  1
  O  O30  1  0.449521  0.500000  0.370296  1
  O  O31  1  0.226824  0.500000  0.583209  1
  O  O32  1  0.991644  0.292233  0.004802  1
  O  O33  1  0.773176  0.000000  0.083209  1
  O  O34  1  0.008356  0.792233  0.504802  1
  O  O35  1  0.780390  0.280829  0.777034  1
  O  O36  1  0.390820  0.798900  0.063959  1
  O  O37  1  0.390820  0.201100  0.063959  1
  O  O38  1  0.609180  0.298900  0.563959  1
  O  O39  1  0.550479  0.000000  0.870296  1
  O  O40  1  0.780390  0.719171  0.777034  1
  O  O41  1  0.426811  0.000000  0.466471  1
  O  O42  1  0.194762  0.500000  0.811029  1
  O  O43  1  0.991644  0.707767  0.004802  1
  O  O44  1  0.573189  0.500000  0.966471  1
  O  O45  1  0.609180  0.701100  0.563959  1
  O  O46  1  0.219610  0.219171  0.277034  1
  O  O47  1  0.008356  0.207767  0.504802  1
  O  O48  1  0.805238  0.000000  0.311029  1
  O  O49  1  0.219610  0.780829  0.277034  1
