# generated using pymatgen
data_Ba6Nb4S13O3
_symmetry_space_group_name_H-M   'P 1'
_cell_length_a   7.95007026
_cell_length_b   14.52291390
_cell_length_c   24.58028322
_cell_angle_alpha   90.00000000
_cell_angle_beta   90.00000000
_cell_angle_gamma   90.00000000
_symmetry_Int_Tables_number   1
_chemical_formula_structural   Ba6Nb4S13O3
_chemical_formula_sum   'Ba24 Nb16 S52 O12'
_cell_volume   2837.99490912
_cell_formula_units_Z   4
loop_
 _symmetry_equiv_pos_site_id
 _symmetry_equiv_pos_as_xyz
  1  'x, y, z'
loop_
 _atom_site_type_symbol
 _atom_site_label
 _atom_site_symmetry_multiplicity
 _atom_site_fract_x
 _atom_site_fract_y
 _atom_site_fract_z
 _atom_site_occupancy
  Ba  Ba0  1  0.607004  0.250000  0.449559  1
  Ba  Ba1  1  0.761734  0.750000  0.843538  1
  Ba  Ba2  1  0.403159  0.917604  0.725273  1
  Ba  Ba3  1  0.903159  0.417604  0.774727  1
  Ba  Ba4  1  0.596841  0.082396  0.274727  1
  Ba  Ba5  1  0.767178  0.984109  0.582727  1
  Ba  Ba6  1  0.767178  0.515891  0.582727  1
  Ba  Ba7  1  0.261734  0.250000  0.656462  1
  Ba  Ba8  1  0.392996  0.750000  0.550441  1
  Ba  Ba9  1  0.738266  0.750000  0.343538  1
  Ba  Ba10  1  0.232822  0.015891  0.417273  1
  Ba  Ba11  1  0.096841  0.582396  0.225273  1
  Ba  Ba12  1  0.732822  0.984109  0.082727  1
  Ba  Ba13  1  0.107004  0.750000  0.050441  1
  Ba  Ba14  1  0.267178  0.484109  0.917273  1
  Ba  Ba15  1  0.238266  0.250000  0.156462  1
  Ba  Ba16  1  0.096841  0.917604  0.225273  1
  Ba  Ba17  1  0.903159  0.082396  0.774727  1
  Ba  Ba18  1  0.403159  0.582396  0.725273  1
  Ba  Ba19  1  0.232822  0.484109  0.417273  1
  Ba  Ba20  1  0.892996  0.250000  0.949559  1
  Ba  Ba21  1  0.267178  0.015891  0.917273  1
  Ba  Ba22  1  0.732822  0.515891  0.082727  1
  Ba  Ba23  1  0.596841  0.417604  0.274727  1
  Nb  Nb24  1  0.784258  0.496130  0.916215  1
  Nb  Nb25  1  0.102970  0.250000  0.329920  1
  Nb  Nb26  1  0.721321  0.250000  0.164010  1
  Nb  Nb27  1  0.215742  0.996130  0.083785  1
  Nb  Nb28  1  0.602970  0.750000  0.170080  1
  Nb  Nb29  1  0.897030  0.750000  0.670080  1
  Nb  Nb30  1  0.397030  0.250000  0.829920  1
  Nb  Nb31  1  0.221321  0.750000  0.335990  1
  Nb  Nb32  1  0.284258  0.996130  0.583785  1
  Nb  Nb33  1  0.215742  0.503870  0.083785  1
  Nb  Nb34  1  0.784258  0.003870  0.916215  1
  Nb  Nb35  1  0.715742  0.496130  0.416215  1
  Nb  Nb36  1  0.715742  0.003870  0.416215  1
  Nb  Nb37  1  0.778679  0.250000  0.664010  1
  Nb  Nb38  1  0.278679  0.750000  0.835990  1
  Nb  Nb39  1  0.284258  0.503870  0.583785  1
  S  S40  1  0.121246  0.041259  0.657186  1
  S  S41  1  0.102402  0.750000  0.419278  1
  S  S42  1  0.380502  0.617898  0.320982  1
  S  S43  1  0.621246  0.958741  0.842814  1
  S  S44  1  0.705960  0.750000  0.083791  1
  S  S45  1  0.377713  0.591068  0.027167  1
  S  S46  1  0.094375  0.383772  0.037903  1
  S  S47  1  0.377713  0.908932  0.027167  1
  S  S48  1  0.594375  0.616228  0.462097  1
  S  S49  1  0.880502  0.382102  0.179018  1
  S  S50  1  0.380502  0.882102  0.320982  1
  S  S51  1  0.405625  0.116228  0.537903  1
  S  S52  1  0.812457  0.250000  0.331608  1
  S  S53  1  0.294040  0.250000  0.916209  1
  S  S54  1  0.877713  0.408932  0.472833  1
  S  S55  1  0.297428  0.120312  0.787556  1
  S  S56  1  0.121246  0.458741  0.657186  1
  S  S57  1  0.202572  0.120312  0.287556  1
  S  S58  1  0.119498  0.882102  0.820982  1
  S  S59  1  0.622287  0.408932  0.972833  1
  S  S60  1  0.619498  0.382102  0.679018  1
  S  S61  1  0.205960  0.250000  0.416209  1
  S  S62  1  0.187543  0.750000  0.668392  1
  S  S63  1  0.119498  0.617898  0.820982  1
  S  S64  1  0.397598  0.750000  0.919278  1
  S  S65  1  0.905625  0.616228  0.962097  1
  S  S66  1  0.897598  0.250000  0.580722  1
  S  S67  1  0.702572  0.620312  0.212444  1
  S  S68  1  0.122287  0.591068  0.527167  1
  S  S69  1  0.122287  0.908932  0.527167  1
  S  S70  1  0.378754  0.458741  0.157186  1
  S  S71  1  0.877713  0.091068  0.472833  1
  S  S72  1  0.880502  0.117898  0.179018  1
  S  S73  1  0.794040  0.750000  0.583791  1
  S  S74  1  0.905625  0.883772  0.962097  1
  S  S75  1  0.594375  0.883772  0.462097  1
  S  S76  1  0.687543  0.250000  0.831608  1
  S  S77  1  0.094375  0.116228  0.037903  1
  S  S78  1  0.202572  0.379688  0.287556  1
  S  S79  1  0.405625  0.383772  0.537903  1
  S  S80  1  0.378754  0.041259  0.157186  1
  S  S81  1  0.797428  0.620312  0.712444  1
  S  S82  1  0.619498  0.117898  0.679018  1
  S  S83  1  0.602402  0.250000  0.080722  1
  S  S84  1  0.622287  0.091068  0.972833  1
  S  S85  1  0.878754  0.541259  0.342814  1
  S  S86  1  0.702572  0.879688  0.212444  1
  S  S87  1  0.312457  0.750000  0.168392  1
  S  S88  1  0.297428  0.379688  0.787556  1
  S  S89  1  0.878754  0.958741  0.342814  1
  S  S90  1  0.621246  0.541259  0.842814  1
  S  S91  1  0.797428  0.879688  0.712444  1
  O  O92  1  0.547237  0.250000  0.214148  1
  O  O93  1  0.451963  0.581288  0.609298  1
  O  O94  1  0.452763  0.750000  0.785852  1
  O  O95  1  0.451963  0.918712  0.609298  1
  O  O96  1  0.548037  0.418712  0.390702  1
  O  O97  1  0.048037  0.581288  0.109298  1
  O  O98  1  0.951963  0.081288  0.890702  1
  O  O99  1  0.047237  0.750000  0.285852  1
  O  O100  1  0.951963  0.418712  0.890702  1
  O  O101  1  0.048037  0.918712  0.109298  1
  O  O102  1  0.952763  0.250000  0.714148  1
  O  O103  1  0.548037  0.081288  0.390702  1
