# generated using pymatgen
data_LaPb6BrO7
_symmetry_space_group_name_H-M   'P 1'
_cell_length_a   9.70373971
_cell_length_b   9.70373971
_cell_length_c   8.27108200
_cell_angle_alpha   90.00000000
_cell_angle_beta   90.00000000
_cell_angle_gamma   118.81560852
_symmetry_Int_Tables_number   1
_chemical_formula_structural   LaPb6BrO7
_chemical_formula_sum   'La2 Pb12 Br2 O14'
_cell_volume   682.38844326
_cell_formula_units_Z   2
loop_
 _symmetry_equiv_pos_site_id
 _symmetry_equiv_pos_as_xyz
  1  'x, y, z'
loop_
 _atom_site_type_symbol
 _atom_site_label
 _atom_site_symmetry_multiplicity
 _atom_site_fract_x
 _atom_site_fract_y
 _atom_site_fract_z
 _atom_site_occupancy
  La  La0  1  0.000000  0.000000  0.500000  1
  La  La1  1  0.000000  0.000000  0.000000  1
  Pb  Pb2  1  0.614344  0.812673  0.750000  1
  Pb  Pb3  1  0.812673  0.614344  0.250000  1
  Pb  Pb4  1  0.385656  0.187327  0.250000  1
  Pb  Pb5  1  0.187327  0.385656  0.750000  1
  Pb  Pb6  1  0.366274  0.104628  0.750000  1
  Pb  Pb7  1  0.227670  0.772330  0.014263  1
  Pb  Pb8  1  0.227670  0.772330  0.485737  1
  Pb  Pb9  1  0.895372  0.633726  0.750000  1
  Pb  Pb10  1  0.772330  0.227670  0.514263  1
  Pb  Pb11  1  0.633726  0.895372  0.250000  1
  Pb  Pb12  1  0.772330  0.227670  0.985737  1
  Pb  Pb13  1  0.104628  0.366274  0.250000  1
  Br  Br14  1  0.500000  0.500000  0.500000  1
  Br  Br15  1  0.500000  0.500000  0.000000  1
  O  O16  1  0.860430  0.842044  0.750000  1
  O  O17  1  0.020735  0.279079  0.528817  1
  O  O18  1  0.020735  0.279079  0.971183  1
  O  O19  1  0.139570  0.157956  0.250000  1
  O  O20  1  0.720921  0.979265  0.528817  1
  O  O21  1  0.192935  0.807065  0.750000  1
  O  O22  1  0.979265  0.720921  0.471183  1
  O  O23  1  0.842044  0.860430  0.250000  1
  O  O24  1  0.157956  0.139570  0.750000  1
  O  O25  1  0.720921  0.979265  0.971183  1
  O  O26  1  0.979265  0.720921  0.028817  1
  O  O27  1  0.279079  0.020735  0.028817  1
  O  O28  1  0.807065  0.192935  0.250000  1
  O  O29  1  0.279079  0.020735  0.471183  1
