# generated using pymatgen
data_SrFe2(P2O7)2
_symmetry_space_group_name_H-M   'P 1'
_cell_length_a   4.86991506
_cell_length_b   7.20110187
_cell_length_c   7.97912039
_cell_angle_alpha   89.64430785
_cell_angle_beta   92.59449676
_cell_angle_gamma   107.04988361
_symmetry_Int_Tables_number   1
_chemical_formula_structural   SrFe2(P2O7)2
_chemical_formula_sum   'Sr1 Fe2 P4 O14'
_cell_volume   267.23823755
_cell_formula_units_Z   1
loop_
 _symmetry_equiv_pos_site_id
 _symmetry_equiv_pos_as_xyz
  1  'x, y, z'
loop_
 _atom_site_type_symbol
 _atom_site_label
 _atom_site_symmetry_multiplicity
 _atom_site_fract_x
 _atom_site_fract_y
 _atom_site_fract_z
 _atom_site_occupancy
  Sr  Sr0  1  0.500000  0.000000  0.000000  1
  Fe  Fe1  1  0.500000  0.000000  0.500000  1
  Fe  Fe2  1  0.000000  0.500000  0.000000  1
  P  P3  1  0.116440  0.229302  0.703047  1
  P  P4  1  0.468581  0.380002  0.244634  1
  P  P5  1  0.883560  0.770698  0.296953  1
  P  P6  1  0.531419  0.619998  0.755366  1
  O  O7  1  0.008385  0.239739  0.882709  1
  O  O8  1  0.682765  0.901528  0.291274  1
  O  O9  1  0.414077  0.196166  0.347319  1
  O  O10  1  0.193223  0.433283  0.204926  1
  O  O11  1  0.991615  0.760261  0.117291  1
  O  O12  1  0.382626  0.649646  0.917089  1
  O  O13  1  0.879117  0.178731  0.567889  1
  O  O14  1  0.617374  0.350354  0.082911  1
  O  O15  1  0.317235  0.098472  0.708726  1
  O  O16  1  0.692791  0.554164  0.347656  1
  O  O17  1  0.585923  0.803834  0.652681  1
  O  O18  1  0.307209  0.445836  0.652344  1
  O  O19  1  0.120883  0.821269  0.432111  1
  O  O20  1  0.806777  0.566717  0.795074  1
