# generated using pymatgen
data_NaBe2BO3F2
_symmetry_space_group_name_H-M   'P 1'
_cell_length_a   7.78453703
_cell_length_b   7.78453703
_cell_length_c   7.64204388
_cell_angle_alpha   70.89166027
_cell_angle_beta   109.10833973
_cell_angle_gamma   111.46532409
_symmetry_Int_Tables_number   1
_chemical_formula_structural   NaBe2BO3F2
_chemical_formula_sum   'Na4 Be8 B4 O12 F8'
_cell_volume   395.72599866
_cell_formula_units_Z   4
loop_
 _symmetry_equiv_pos_site_id
 _symmetry_equiv_pos_as_xyz
  1  'x, y, z'
loop_
 _atom_site_type_symbol
 _atom_site_label
 _atom_site_symmetry_multiplicity
 _atom_site_fract_x
 _atom_site_fract_y
 _atom_site_fract_z
 _atom_site_occupancy
  Na  Na0  1  0.815300  0.815300  0.000000  1
  Na  Na1  1  0.661521  0.661521  0.500000  1
  Na  Na2  1  0.403046  0.403046  0.000000  1
  Na  Na3  1  0.259987  0.259987  0.500000  1
  Be  Be4  1  0.648190  0.204602  0.804438  1
  Be  Be5  1  0.088787  0.707415  0.801397  1
  Be  Be6  1  0.357954  0.992179  0.299597  1
  Be  Be7  1  0.431858  0.862761  0.696037  1
  Be  Be8  1  0.707415  0.088787  0.198603  1
  Be  Be9  1  0.862761  0.431858  0.303963  1
  Be  Be10  1  0.204602  0.648190  0.195562  1
  Be  Be11  1  0.992179  0.357954  0.700403  1
  B  B12  1  0.694212  0.124263  0.522288  1
  B  B13  1  0.393598  0.938197  0.985809  1
  B  B14  1  0.938197  0.393598  0.014192  1
  B  B15  1  0.124263  0.694212  0.477712  1
  O  O16  1  0.024673  0.469891  0.863163  1
  O  O17  1  0.518853  0.987973  0.508514  1
  O  O18  1  0.469891  0.024673  0.136837  1
  O  O19  1  0.004035  0.480278  0.164432  1
  O  O20  1  0.199317  0.777921  0.630632  1
  O  O21  1  0.987973  0.518853  0.491486  1
  O  O22  1  0.777921  0.199317  0.369368  1
  O  O23  1  0.192532  0.783461  0.315223  1
  O  O24  1  0.782126  0.236279  0.012408  1
  O  O25  1  0.480278  0.004035  0.835568  1
  O  O26  1  0.783461  0.192532  0.684777  1
  O  O27  1  0.236279  0.782126  0.987592  1
  F  F28  1  0.699739  0.521630  0.194304  1
  F  F29  1  0.521630  0.699739  0.805696  1
  F  F30  1  0.774070  0.909926  0.254231  1
  F  F31  1  0.557435  0.366143  0.690242  1
  F  F32  1  0.158658  0.275291  0.746391  1
  F  F33  1  0.275291  0.158658  0.253609  1
  F  F34  1  0.366143  0.557435  0.309758  1
  F  F35  1  0.909926  0.774070  0.745769  1
