# generated using pymatgen
data_Na2NiH8(SO6)2
_symmetry_space_group_name_H-M   'P 1'
_cell_length_a   5.56722169
_cell_length_b   8.25921428
_cell_length_c   11.12545074
_cell_angle_alpha   90.00000000
_cell_angle_beta   99.95645228
_cell_angle_gamma   90.00000000
_symmetry_Int_Tables_number   1
_chemical_formula_structural   Na2NiH8(SO6)2
_chemical_formula_sum   'Na4 Ni2 H16 S4 O24'
_cell_volume   503.85363611
_cell_formula_units_Z   2
loop_
 _symmetry_equiv_pos_site_id
 _symmetry_equiv_pos_as_xyz
  1  'x, y, z'
loop_
 _atom_site_type_symbol
 _atom_site_label
 _atom_site_symmetry_multiplicity
 _atom_site_fract_x
 _atom_site_fract_y
 _atom_site_fract_z
 _atom_site_occupancy
  Na  Na0  1  0.123258  0.071083  0.360650  1
  Na  Na1  1  0.876742  0.571083  0.139350  1
  Na  Na2  1  0.876742  0.928917  0.639350  1
  Na  Na3  1  0.123258  0.428917  0.860650  1
  Ni  Ni4  1  0.000000  0.000000  0.000000  1
  Ni  Ni5  1  0.000000  0.500000  0.500000  1
  H  H6  1  0.765550  0.944278  0.178882  1
  H  H7  1  0.234450  0.444278  0.321118  1
  H  H8  1  0.234450  0.055722  0.821118  1
  H  H9  1  0.765550  0.555722  0.678882  1
  H  H10  1  0.772968  0.136220  0.152787  1
  H  H11  1  0.227032  0.636220  0.347213  1
  H  H12  1  0.227032  0.863780  0.847213  1
  H  H13  1  0.772968  0.363780  0.652787  1
  H  H14  1  0.678342  0.306828  0.360038  1
  H  H15  1  0.321658  0.806828  0.139962  1
  H  H16  1  0.321658  0.693172  0.639962  1
  H  H17  1  0.678342  0.193172  0.860038  1
  H  H18  1  0.764196  0.224536  0.485096  1
  H  H19  1  0.235804  0.724536  0.014904  1
  H  H20  1  0.235804  0.775464  0.514904  1
  H  H21  1  0.764196  0.275464  0.985096  1
  S  S22  1  0.376344  0.285565  0.136410  1
  S  S23  1  0.623656  0.785565  0.363590  1
  S  S24  1  0.623656  0.714435  0.863590  1
  S  S25  1  0.376344  0.214435  0.636410  1
  O  O26  1  0.362745  0.275217  0.270246  1
  O  O27  1  0.637255  0.775217  0.229754  1
  O  O28  1  0.637255  0.724783  0.729754  1
  O  O29  1  0.362745  0.224783  0.770246  1
  O  O30  1  0.213147  0.413905  0.077562  1
  O  O31  1  0.786853  0.913905  0.422438  1
  O  O32  1  0.786853  0.586095  0.922438  1
  O  O33  1  0.213147  0.086095  0.577562  1
  O  O34  1  0.315253  0.125528  0.076617  1
  O  O35  1  0.684747  0.625528  0.423383  1
  O  O36  1  0.684747  0.874472  0.923383  1
  O  O37  1  0.315253  0.374472  0.576617  1
  O  O38  1  0.637577  0.321539  0.126182  1
  O  O39  1  0.362423  0.821539  0.373818  1
  O  O40  1  0.362423  0.678461  0.873818  1
  O  O41  1  0.637577  0.178461  0.626182  1
  O  O42  1  0.873348  0.035224  0.161465  1
  O  O43  1  0.126652  0.535224  0.338535  1
  O  O44  1  0.126652  0.964776  0.838535  1
  O  O45  1  0.873348  0.464776  0.661465  1
  O  O46  1  0.827350  0.287203  0.421326  1
  O  O47  1  0.172650  0.787203  0.078674  1
  O  O48  1  0.172650  0.712797  0.578674  1
  O  O49  1  0.827350  0.212797  0.921326  1
