# generated using pymatgen
data_NbI3O
_symmetry_space_group_name_H-M   'P 1'
_cell_length_a   8.05382493
_cell_length_b   8.05382493
_cell_length_c   13.21197121
_cell_angle_alpha   59.24890905
_cell_angle_beta   120.75109095
_cell_angle_gamma   151.18164661
_symmetry_Int_Tables_number   1
_chemical_formula_structural   NbI3O
_chemical_formula_sum   'Nb2 I6 O2'
_cell_volume   350.84022532
_cell_formula_units_Z   2
loop_
 _symmetry_equiv_pos_site_id
 _symmetry_equiv_pos_as_xyz
  1  'x, y, z'
loop_
 _atom_site_type_symbol
 _atom_site_label
 _atom_site_symmetry_multiplicity
 _atom_site_fract_x
 _atom_site_fract_y
 _atom_site_fract_z
 _atom_site_occupancy
  Nb  Nb0  1  0.178813  0.930468  0.195880  1
  Nb  Nb1  1  0.930468  0.178813  0.804120  1
  I  I2  1  0.326808  0.679725  0.286079  1
  I  I3  1  0.093169  0.901585  0.957439  1
  I  I4  1  0.895468  0.112051  0.612355  1
  I  I5  1  0.901585  0.093169  0.042561  1
  I  I6  1  0.679725  0.326808  0.713921  1
  I  I7  1  0.112051  0.895468  0.387645  1
  O  O8  1  0.391095  0.629768  0.811627  1
  O  O9  1  0.629768  0.391095  0.188373  1
