# generated using pymatgen
data_K2Sb2S(O2F3)2
_symmetry_space_group_name_H-M   'P 1'
_cell_length_a   9.41348968
_cell_length_b   5.72118726
_cell_length_c   19.79859946
_cell_angle_alpha   90.00000000
_cell_angle_beta   103.74461239
_cell_angle_gamma   90.00000000
_symmetry_Int_Tables_number   1
_chemical_formula_structural   K2Sb2S(O2F3)2
_chemical_formula_sum   'K8 Sb8 S4 O16 F24'
_cell_volume   1035.74649681
_cell_formula_units_Z   4
loop_
 _symmetry_equiv_pos_site_id
 _symmetry_equiv_pos_as_xyz
  1  'x, y, z'
loop_
 _atom_site_type_symbol
 _atom_site_label
 _atom_site_symmetry_multiplicity
 _atom_site_fract_x
 _atom_site_fract_y
 _atom_site_fract_z
 _atom_site_occupancy
  K  K0  1  0.861286  0.745993  0.173312  1
  K  K1  1  0.138714  0.245993  0.326688  1
  K  K2  1  0.861286  0.754007  0.673312  1
  K  K3  1  0.518879  0.750116  0.424593  1
  K  K4  1  0.138714  0.254007  0.826688  1
  K  K5  1  0.518879  0.749884  0.924593  1
  K  K6  1  0.481121  0.249884  0.575407  1
  K  K7  1  0.481121  0.250116  0.075407  1
  Sb  Sb8  1  0.186087  0.777149  0.498747  1
  Sb  Sb9  1  0.186087  0.722851  0.998747  1
  Sb  Sb10  1  0.813913  0.222851  0.501253  1
  Sb  Sb11  1  0.677127  0.259627  0.278256  1
  Sb  Sb12  1  0.813913  0.277149  0.001253  1
  Sb  Sb13  1  0.322873  0.740373  0.721744  1
  Sb  Sb14  1  0.677127  0.240373  0.778256  1
  Sb  Sb15  1  0.322873  0.759627  0.221744  1
  S  S16  1  0.869748  0.738246  0.379013  1
  S  S17  1  0.869748  0.761754  0.879013  1
  S  S18  1  0.130252  0.238246  0.120987  1
  S  S19  1  0.130252  0.261754  0.620987  1
  O  O20  1  0.992596  0.117439  0.607328  1
  O  O21  1  0.007404  0.882561  0.392672  1
  O  O22  1  0.259908  0.395779  0.142115  1
  O  O23  1  0.873169  0.934467  0.822753  1
  O  O24  1  0.862647  0.882265  0.944925  1
  O  O25  1  0.992596  0.382561  0.107328  1
  O  O26  1  0.137353  0.382265  0.555075  1
  O  O27  1  0.137353  0.117735  0.055075  1
  O  O28  1  0.740092  0.604221  0.857885  1
  O  O29  1  0.126831  0.434467  0.677247  1
  O  O30  1  0.873169  0.565533  0.322753  1
  O  O31  1  0.126831  0.065533  0.177247  1
  O  O32  1  0.862647  0.617735  0.444925  1
  O  O33  1  0.007404  0.617439  0.892672  1
  O  O34  1  0.740092  0.895779  0.357885  1
  O  O35  1  0.259908  0.104221  0.642115  1
  F  F36  1  0.760998  0.051418  0.066092  1
  F  F37  1  0.566717  0.026230  0.208890  1
  F  F38  1  0.566717  0.473770  0.708890  1
  F  F39  1  0.239002  0.948582  0.933908  1
  F  F40  1  0.852778  0.150523  0.249130  1
  F  F41  1  0.433283  0.973770  0.791110  1
  F  F42  1  0.433283  0.526230  0.291110  1
  F  F43  1  0.239002  0.551418  0.433908  1
  F  F44  1  0.608901  0.210977  0.944257  1
  F  F45  1  0.360950  0.972774  0.304037  1
  F  F46  1  0.391099  0.789023  0.055743  1
  F  F47  1  0.707195  0.521921  0.042166  1
  F  F48  1  0.707195  0.978079  0.542166  1
  F  F49  1  0.760998  0.448582  0.566092  1
  F  F50  1  0.292805  0.021921  0.457834  1
  F  F51  1  0.608901  0.289023  0.444257  1
  F  F52  1  0.391099  0.710977  0.555743  1
  F  F53  1  0.639050  0.472774  0.195963  1
  F  F54  1  0.639050  0.027226  0.695963  1
  F  F55  1  0.147222  0.650523  0.250870  1
  F  F56  1  0.292805  0.478079  0.957834  1
  F  F57  1  0.147222  0.849477  0.750870  1
  F  F58  1  0.852778  0.349477  0.749130  1
  F  F59  1  0.360950  0.527226  0.804037  1
