# generated using pymatgen
data_Dy5In3
_symmetry_space_group_name_H-M   'P 1'
_cell_length_a   9.19579619
_cell_length_b   9.19579619
_cell_length_c   9.19579619
_cell_angle_alpha   96.09567634
_cell_angle_beta   96.09567634
_cell_angle_gamma   141.96382899
_symmetry_Int_Tables_number   1
_chemical_formula_structural   Dy5In3
_chemical_formula_sum   'Dy10 In6'
_cell_volume   452.98469114
_cell_formula_units_Z   2
loop_
 _symmetry_equiv_pos_site_id
 _symmetry_equiv_pos_as_xyz
  1  'x, y, z'
loop_
 _atom_site_type_symbol
 _atom_site_label
 _atom_site_symmetry_multiplicity
 _atom_site_fract_x
 _atom_site_fract_y
 _atom_site_fract_z
 _atom_site_occupancy
  Dy  Dy0  1  0.719465  0.583252  0.302716  1
  Dy  Dy1  1  0.280535  0.416748  0.697284  1
  Dy  Dy2  1  0.583252  0.280535  0.863787  1
  Dy  Dy3  1  0.219465  0.916748  0.136213  1
  Dy  Dy4  1  0.916748  0.780535  0.697284  1
  Dy  Dy5  1  0.250000  0.750000  0.500000  1
  Dy  Dy6  1  0.750000  0.250000  0.500000  1
  Dy  Dy7  1  0.780535  0.083252  0.863787  1
  Dy  Dy8  1  0.416748  0.719465  0.136213  1
  Dy  Dy9  1  0.083252  0.219465  0.302716  1
  In  In10  1  0.838640  0.338640  0.177280  1
  In  In11  1  0.338640  0.161360  0.500000  1
  In  In12  1  0.250000  0.250000  0.000000  1
  In  In13  1  0.661360  0.838640  0.500000  1
  In  In14  1  0.161360  0.661360  0.822720  1
  In  In15  1  0.750000  0.750000  0.000000  1
