# generated using pymatgen
data_Ba6Ru3(ClO6)2
_symmetry_space_group_name_H-M   'P 1'
_cell_length_a   5.91841938
_cell_length_b   5.91841938
_cell_length_c   15.04776149
_cell_angle_alpha   90.00000000
_cell_angle_beta   90.00000000
_cell_angle_gamma   120.00000000
_symmetry_Int_Tables_number   1
_chemical_formula_structural   Ba6Ru3(ClO6)2
_chemical_formula_sum   'Ba6 Ru3 Cl2 O12'
_cell_volume   456.47185271
_cell_formula_units_Z   1
loop_
 _symmetry_equiv_pos_site_id
 _symmetry_equiv_pos_as_xyz
  1  'x, y, z'
loop_
 _atom_site_type_symbol
 _atom_site_label
 _atom_site_symmetry_multiplicity
 _atom_site_fract_x
 _atom_site_fract_y
 _atom_site_fract_z
 _atom_site_occupancy
  Ba  Ba0  1  0.666667  0.333333  0.636704  1
  Ba  Ba1  1  0.333333  0.666667  0.363296  1
  Ba  Ba2  1  0.333333  0.666667  0.786040  1
  Ba  Ba3  1  0.666667  0.333333  0.919404  1
  Ba  Ba4  1  0.333333  0.666667  0.080596  1
  Ba  Ba5  1  0.666667  0.333333  0.213960  1
  Ru  Ru6  1  0.000000  0.000000  0.174948  1
  Ru  Ru7  1  0.000000  0.000000  0.000000  1
  Ru  Ru8  1  0.000000  0.000000  0.825052  1
  Cl  Cl9  1  0.333333  0.666667  0.576964  1
  Cl  Cl10  1  0.666667  0.333333  0.423036  1
  O  O11  1  0.840782  0.159218  0.759529  1
  O  O12  1  0.154692  0.309385  0.917032  1
  O  O13  1  0.845308  0.154692  0.082968  1
  O  O14  1  0.154692  0.845308  0.917032  1
  O  O15  1  0.845308  0.690615  0.082968  1
  O  O16  1  0.690615  0.845308  0.917032  1
  O  O17  1  0.318436  0.159218  0.759529  1
  O  O18  1  0.309385  0.154692  0.082968  1
  O  O19  1  0.681564  0.840782  0.240471  1
  O  O20  1  0.159218  0.840782  0.240471  1
  O  O21  1  0.159218  0.318436  0.240471  1
  O  O22  1  0.840782  0.681564  0.759529  1
