# generated using pymatgen
data_Nb3Se4
_symmetry_space_group_name_H-M   'P 1'
_cell_length_a   10.17381037
_cell_length_b   10.17381037
_cell_length_c   3.48323874
_cell_angle_alpha   90.00000000
_cell_angle_beta   90.00000000
_cell_angle_gamma   120.00000000
_symmetry_Int_Tables_number   1
_chemical_formula_structural   Nb3Se4
_chemical_formula_sum   'Nb6 Se8'
_cell_volume   312.23468871
_cell_formula_units_Z   2
loop_
 _symmetry_equiv_pos_site_id
 _symmetry_equiv_pos_as_xyz
  1  'x, y, z'
loop_
 _atom_site_type_symbol
 _atom_site_label
 _atom_site_symmetry_multiplicity
 _atom_site_fract_x
 _atom_site_fract_y
 _atom_site_fract_z
 _atom_site_occupancy
  Nb  Nb0  1  0.512656  0.892349  0.750000  1
  Nb  Nb1  1  0.620307  0.512656  0.250000  1
  Nb  Nb2  1  0.892349  0.379693  0.250000  1
  Nb  Nb3  1  0.107651  0.620307  0.750000  1
  Nb  Nb4  1  0.379693  0.487344  0.750000  1
  Nb  Nb5  1  0.487344  0.107651  0.250000  1
  Se  Se6  1  0.657847  0.719383  0.750000  1
  Se  Se7  1  0.938465  0.657847  0.250000  1
  Se  Se8  1  0.719383  0.061535  0.250000  1
  Se  Se9  1  0.280617  0.938465  0.750000  1
  Se  Se10  1  0.061535  0.342153  0.750000  1
  Se  Se11  1  0.342153  0.280617  0.250000  1
  Se  Se12  1  0.666667  0.333333  0.750000  1
  Se  Se13  1  0.333333  0.666667  0.250000  1
