# generated using pymatgen
data_MnH10S2(NO2)4
_symmetry_space_group_name_H-M   'P 1'
_cell_length_a   5.48241070
_cell_length_b   5.92536714
_cell_length_c   7.52687549
_cell_angle_alpha   92.24098814
_cell_angle_beta   104.47521188
_cell_angle_gamma   99.52513944
_symmetry_Int_Tables_number   1
_chemical_formula_structural   MnH10S2(NO2)4
_chemical_formula_sum   'Mn1 H10 S2 N4 O8'
_cell_volume   232.65642413
_cell_formula_units_Z   1
loop_
 _symmetry_equiv_pos_site_id
 _symmetry_equiv_pos_as_xyz
  1  'x, y, z'
loop_
 _atom_site_type_symbol
 _atom_site_label
 _atom_site_symmetry_multiplicity
 _atom_site_fract_x
 _atom_site_fract_y
 _atom_site_fract_z
 _atom_site_occupancy
  Mn  Mn0  1  0.000000  0.000000  0.000000  1
  H  H1  1  0.784421  0.452874  0.817493  1
  H  H2  1  0.566848  0.217627  0.710470  1
  H  H3  1  0.215579  0.547126  0.182507  1
  H  H4  1  0.901936  0.708766  0.277211  1
  H  H5  1  0.876352  0.071291  0.619222  1
  H  H6  1  0.098064  0.291234  0.722789  1
  H  H7  1  0.716696  0.399794  0.583355  1
  H  H8  1  0.283304  0.600206  0.416645  1
  H  H9  1  0.433152  0.782373  0.289530  1
  H  H10  1  0.123648  0.928709  0.380778  1
  S  S11  1  0.362112  0.753433  0.776834  1
  S  S12  1  0.637888  0.246567  0.223166  1
  N  N13  1  0.066114  0.815127  0.264996  1
  N  N14  1  0.261764  0.673526  0.289692  1
  N  N15  1  0.933886  0.184873  0.735004  1
  N  N16  1  0.738236  0.326474  0.710308  1
  O  O17  1  0.830347  0.268580  0.110759  1
  O  O18  1  0.375117  0.230300  0.099184  1
  O  O19  1  0.656420  0.040701  0.329862  1
  O  O20  1  0.343580  0.959299  0.670138  1
  O  O21  1  0.624883  0.769700  0.900816  1
  O  O22  1  0.169653  0.731420  0.889241  1
  O  O23  1  0.696731  0.457671  0.352998  1
  O  O24  1  0.303269  0.542329  0.647002  1
