# generated using pymatgen
data_Tl4V5CdClO15
_symmetry_space_group_name_H-M   'P 1'
_cell_length_a   9.27444189
_cell_length_b   9.27444189
_cell_length_c   5.71441908
_cell_angle_alpha   90.00000000
_cell_angle_beta   90.00000000
_cell_angle_gamma   90.00000000
_symmetry_Int_Tables_number   1
_chemical_formula_structural   Tl4V5CdClO15
_chemical_formula_sum   'Tl4 V5 Cd1 Cl1 O15'
_cell_volume   491.52731361
_cell_formula_units_Z   1
loop_
 _symmetry_equiv_pos_site_id
 _symmetry_equiv_pos_as_xyz
  1  'x, y, z'
loop_
 _atom_site_type_symbol
 _atom_site_label
 _atom_site_symmetry_multiplicity
 _atom_site_fract_x
 _atom_site_fract_y
 _atom_site_fract_z
 _atom_site_occupancy
  Tl  Tl0  1  0.834187  0.313219  0.920122  1
  Tl  Tl1  1  0.165813  0.686781  0.920122  1
  Tl  Tl2  1  0.686781  0.834187  0.920122  1
  Tl  Tl3  1  0.313219  0.165813  0.920122  1
  V  V4  1  0.856517  0.619430  0.446984  1
  V  V5  1  0.380570  0.856517  0.446984  1
  V  V6  1  0.619430  0.143483  0.446984  1
  V  V7  1  0.500000  0.500000  0.471749  1
  V  V8  1  0.143483  0.380570  0.446984  1
  Cd  Cd9  1  0.000000  0.000000  0.489173  1
  Cl  Cl10  1  0.000000  0.000000  0.034166  1
  O  O11  1  0.145312  0.375636  0.154807  1
  O  O12  1  0.000000  0.500000  0.550634  1
  O  O13  1  0.375636  0.854688  0.154807  1
  O  O14  1  0.854688  0.624364  0.154807  1
  O  O15  1  0.116400  0.211289  0.560539  1
  O  O16  1  0.788711  0.116400  0.560539  1
  O  O17  1  0.447884  0.690551  0.559581  1
  O  O18  1  0.883600  0.788711  0.560539  1
  O  O19  1  0.552116  0.309449  0.559581  1
  O  O20  1  0.309449  0.447884  0.559581  1
  O  O21  1  0.624364  0.145312  0.154807  1
  O  O22  1  0.500000  0.000000  0.550634  1
  O  O23  1  0.690551  0.552116  0.559581  1
  O  O24  1  0.211289  0.883600  0.560539  1
  O  O25  1  0.500000  0.500000  0.188551  1
