# generated using pymatgen
data_K3NdSi7O17
_symmetry_space_group_name_H-M   'P 1'
_cell_length_a   16.36775292
_cell_length_b   16.36775292
_cell_length_c   7.27978000
_cell_angle_alpha   90.00000000
_cell_angle_beta   90.00000000
_cell_angle_gamma   120.00000000
_symmetry_Int_Tables_number   1
_chemical_formula_structural   K3NdSi7O17
_chemical_formula_sum   'K12 Nd4 Si28 O68'
_cell_volume   1688.98972459
_cell_formula_units_Z   4
loop_
 _symmetry_equiv_pos_site_id
 _symmetry_equiv_pos_as_xyz
  1  'x, y, z'
loop_
 _atom_site_type_symbol
 _atom_site_label
 _atom_site_symmetry_multiplicity
 _atom_site_fract_x
 _atom_site_fract_y
 _atom_site_fract_z
 _atom_site_occupancy
  K  K0  1  0.366113  0.904727  0.467751  1
  K  K1  1  0.242974  0.003964  0.122201  1
  K  K2  1  0.757026  0.996036  0.877799  1
  K  K3  1  0.904727  0.538614  0.532249  1
  K  K4  1  0.239010  0.242974  0.877799  1
  K  K5  1  0.760990  0.757026  0.122201  1
  K  K6  1  0.996036  0.239010  0.122201  1
  K  K7  1  0.095273  0.461386  0.467751  1
  K  K8  1  0.633887  0.095273  0.532249  1
  K  K9  1  0.538614  0.633887  0.467751  1
  K  K10  1  0.461386  0.366113  0.532249  1
  K  K11  1  0.003964  0.760990  0.877799  1
  Nd  Nd12  1  0.000000  0.000000  0.000000  1
  Nd  Nd13  1  0.000000  0.500000  0.000000  1
  Nd  Nd14  1  0.500000  0.000000  0.000000  1
  Nd  Nd15  1  0.500000  0.500000  0.000000  1
  Si  Si16  1  0.619610  0.906400  0.301694  1
  Si  Si17  1  0.748261  0.208727  0.978929  1
  Si  Si18  1  0.208727  0.460466  0.021071  1
  Si  Si19  1  0.093600  0.713210  0.301694  1
  Si  Si20  1  0.713210  0.619610  0.698306  1
  Si  Si21  1  0.539534  0.748261  0.021071  1
  Si  Si22  1  0.692925  0.525681  0.325765  1
  Si  Si23  1  0.307075  0.474319  0.674235  1
  Si  Si24  1  0.991910  0.156054  0.621821  1
  Si  Si25  1  0.791273  0.539534  0.978929  1
  Si  Si26  1  0.333333  0.666667  0.133430  1
  Si  Si27  1  0.525681  0.832756  0.674235  1
  Si  Si28  1  0.286790  0.380390  0.301694  1
  Si  Si29  1  0.666667  0.333333  0.423836  1
  Si  Si30  1  0.843946  0.835856  0.621821  1
  Si  Si31  1  0.835856  0.991910  0.378179  1
  Si  Si32  1  0.167244  0.692925  0.674235  1
  Si  Si33  1  0.156054  0.164144  0.378179  1
  Si  Si34  1  0.460466  0.251739  0.978929  1
  Si  Si35  1  0.333333  0.666667  0.576164  1
  Si  Si36  1  0.832756  0.307075  0.325765  1
  Si  Si37  1  0.474319  0.167244  0.325765  1
  Si  Si38  1  0.251739  0.791273  0.021071  1
  Si  Si39  1  0.906400  0.286790  0.698306  1
  Si  Si40  1  0.666667  0.333333  0.866570  1
  Si  Si41  1  0.380390  0.093600  0.698306  1
  Si  Si42  1  0.164144  0.008090  0.621821  1
  Si  Si43  1  0.008090  0.843946  0.378179  1
  O  O44  1  0.590763  0.228036  0.352873  1
  O  O45  1  0.374940  0.156253  0.873381  1
  O  O46  1  0.362727  0.590763  0.647127  1
  O  O47  1  0.070399  0.181421  0.456256  1
  O  O48  1  0.251318  0.270157  0.362053  1
  O  O49  1  0.744683  0.306164  0.935663  1
  O  O50  1  0.343752  0.885126  0.081846  1
  O  O51  1  0.571055  0.830645  0.472713  1
  O  O52  1  0.018839  0.748682  0.362053  1
  O  O53  1  0.818579  0.888978  0.456256  1
  O  O54  1  0.114874  0.458626  0.081846  1
  O  O55  1  0.255317  0.693836  0.064337  1
  O  O56  1  0.843747  0.218687  0.873381  1
  O  O57  1  0.110734  0.980482  0.816386  1
  O  O58  1  0.933147  0.378693  0.240753  1
  O  O59  1  0.561481  0.255317  0.935663  1
  O  O60  1  0.559249  0.770630  0.799674  1
  O  O61  1  0.440751  0.229370  0.200326  1
  O  O62  1  0.929601  0.818579  0.543744  1
  O  O63  1  0.869748  0.889266  0.816386  1
  O  O64  1  0.211381  0.440751  0.799674  1
  O  O65  1  0.039392  0.603170  0.255503  1
  O  O66  1  0.270157  0.018839  0.637947  1
  O  O67  1  0.111022  0.929601  0.456256  1
  O  O68  1  0.445546  0.066853  0.240753  1
  O  O69  1  0.788619  0.559249  0.200326  1
  O  O70  1  0.656248  0.114874  0.918154  1
  O  O71  1  0.771964  0.362727  0.352873  1
  O  O72  1  0.889266  0.019518  0.183614  1
  O  O73  1  0.740410  0.571055  0.527287  1
  O  O74  1  0.436222  0.039392  0.744497  1
  O  O75  1  0.306164  0.561481  0.064337  1
  O  O76  1  0.458626  0.343752  0.918154  1
  O  O77  1  0.428945  0.169355  0.527287  1
  O  O78  1  0.228036  0.637273  0.647127  1
  O  O79  1  0.830645  0.259590  0.527287  1
  O  O80  1  0.066853  0.621307  0.759247  1
  O  O81  1  0.960608  0.396830  0.744497  1
  O  O82  1  0.229370  0.788619  0.799674  1
  O  O83  1  0.554454  0.933147  0.759247  1
  O  O84  1  0.218687  0.374940  0.126619  1
  O  O85  1  0.181421  0.111022  0.543744  1
  O  O86  1  0.169355  0.740410  0.472713  1
  O  O87  1  0.637273  0.409237  0.352873  1
  O  O88  1  0.980482  0.869748  0.183614  1
  O  O89  1  0.541374  0.656248  0.081846  1
  O  O90  1  0.259590  0.428945  0.472713  1
  O  O91  1  0.396830  0.436222  0.255503  1
  O  O92  1  0.019518  0.130252  0.816386  1
  O  O93  1  0.885126  0.541374  0.918154  1
  O  O94  1  0.729843  0.981161  0.362053  1
  O  O95  1  0.770630  0.211381  0.200326  1
  O  O96  1  0.378693  0.445546  0.759247  1
  O  O97  1  0.438519  0.744683  0.064337  1
  O  O98  1  0.333333  0.666667  0.355231  1
  O  O99  1  0.409237  0.771964  0.647127  1
  O  O100  1  0.156253  0.781313  0.126619  1
  O  O101  1  0.781313  0.625060  0.873381  1
  O  O102  1  0.130252  0.110734  0.183614  1
  O  O103  1  0.563778  0.960608  0.255503  1
  O  O104  1  0.666667  0.333333  0.644769  1
  O  O105  1  0.621307  0.554454  0.240753  1
  O  O106  1  0.625060  0.843747  0.126619  1
  O  O107  1  0.693836  0.438519  0.935663  1
  O  O108  1  0.981161  0.251318  0.637947  1
  O  O109  1  0.888978  0.070399  0.543744  1
  O  O110  1  0.603170  0.563778  0.744497  1
  O  O111  1  0.748682  0.729843  0.637947  1
