# generated using pymatgen
data_Sm3CuSnS7
_symmetry_space_group_name_H-M   'P 1'
_cell_length_a   10.01613228
_cell_length_b   10.01613228
_cell_length_c   6.16163370
_cell_angle_alpha   90.00000000
_cell_angle_beta   90.00000000
_cell_angle_gamma   120.00000000
_symmetry_Int_Tables_number   1
_chemical_formula_structural   Sm3CuSnS7
_chemical_formula_sum   'Sm6 Cu2 Sn2 S14'
_cell_volume   535.33619898
_cell_formula_units_Z   2
loop_
 _symmetry_equiv_pos_site_id
 _symmetry_equiv_pos_as_xyz
  1  'x, y, z'
loop_
 _atom_site_type_symbol
 _atom_site_label
 _atom_site_symmetry_multiplicity
 _atom_site_fract_x
 _atom_site_fract_y
 _atom_site_fract_z
 _atom_site_occupancy
  Sm  Sm0  1  0.141623  0.783627  0.764526  1
  Sm  Sm1  1  0.216373  0.357996  0.764526  1
  Sm  Sm2  1  0.858377  0.216373  0.264526  1
  Sm  Sm3  1  0.357996  0.141623  0.264526  1
  Sm  Sm4  1  0.642004  0.858377  0.764526  1
  Sm  Sm5  1  0.783627  0.642004  0.264526  1
  Cu  Cu6  1  0.000000  0.000000  0.193571  1
  Cu  Cu7  1  0.000000  0.000000  0.693571  1
  Sn  Sn8  1  0.666667  0.333333  0.834094  1
  Sn  Sn9  1  0.333333  0.666667  0.334094  1
  S  S10  1  0.914447  0.483363  0.010220  1
  S  S11  1  0.105465  0.848080  0.209160  1
  S  S12  1  0.431084  0.914447  0.510220  1
  S  S13  1  0.848080  0.742615  0.709160  1
  S  S14  1  0.151920  0.257385  0.209160  1
  S  S15  1  0.568916  0.085553  0.010220  1
  S  S16  1  0.516637  0.431084  0.010220  1
  S  S17  1  0.483363  0.568916  0.510220  1
  S  S18  1  0.666667  0.333333  0.446916  1
  S  S19  1  0.894535  0.151920  0.709160  1
  S  S20  1  0.333333  0.666667  0.946916  1
  S  S21  1  0.742615  0.894535  0.209160  1
  S  S22  1  0.257385  0.105465  0.709160  1
  S  S23  1  0.085553  0.516637  0.510220  1
