# generated using pymatgen
data_RbCoF3
_symmetry_space_group_name_H-M   'P 1'
_cell_length_a   6.01300939
_cell_length_b   6.01300939
_cell_length_c   14.72267101
_cell_angle_alpha   90.00000000
_cell_angle_beta   90.00000000
_cell_angle_gamma   120.00000000
_symmetry_Int_Tables_number   1
_chemical_formula_structural   RbCoF3
_chemical_formula_sum   'Rb6 Co6 F18'
_cell_volume   461.00008237
_cell_formula_units_Z   6
loop_
 _symmetry_equiv_pos_site_id
 _symmetry_equiv_pos_as_xyz
  1  'x, y, z'
loop_
 _atom_site_type_symbol
 _atom_site_label
 _atom_site_symmetry_multiplicity
 _atom_site_fract_x
 _atom_site_fract_y
 _atom_site_fract_z
 _atom_site_occupancy
  Rb  Rb0  1  0.000000  0.000000  0.750000  1
  Rb  Rb1  1  0.666667  0.333333  0.904744  1
  Rb  Rb2  1  0.333333  0.666667  0.404744  1
  Rb  Rb3  1  0.666667  0.333333  0.595256  1
  Rb  Rb4  1  0.333333  0.666667  0.095256  1
  Rb  Rb5  1  0.000000  0.000000  0.250000  1
  Co  Co6  1  0.333333  0.666667  0.653699  1
  Co  Co7  1  0.666667  0.333333  0.153699  1
  Co  Co8  1  0.666667  0.333333  0.346301  1
  Co  Co9  1  0.000000  0.000000  0.000000  1
  Co  Co10  1  0.000000  0.000000  0.500000  1
  Co  Co11  1  0.333333  0.666667  0.846301  1
  F  F12  1  0.036235  0.518118  0.750000  1
  F  F13  1  0.518118  0.481882  0.250000  1
  F  F14  1  0.330973  0.165486  0.420003  1
  F  F15  1  0.669027  0.834514  0.920003  1
  F  F16  1  0.165486  0.330973  0.579997  1
  F  F17  1  0.834514  0.669027  0.420003  1
  F  F18  1  0.834514  0.669027  0.079997  1
  F  F19  1  0.330973  0.165486  0.079997  1
  F  F20  1  0.165486  0.834514  0.920003  1
  F  F21  1  0.963765  0.481882  0.250000  1
  F  F22  1  0.165486  0.834514  0.579997  1
  F  F23  1  0.834514  0.165486  0.420003  1
  F  F24  1  0.481882  0.963765  0.750000  1
  F  F25  1  0.518118  0.036235  0.250000  1
  F  F26  1  0.165486  0.330973  0.920003  1
  F  F27  1  0.481882  0.518118  0.750000  1
  F  F28  1  0.669027  0.834514  0.579997  1
  F  F29  1  0.834514  0.165486  0.079997  1
