# generated using pymatgen
data_Sr2LiInGe2
_symmetry_space_group_name_H-M   'P 1'
_cell_length_a   4.66124857
_cell_length_b   7.55123169
_cell_length_c   17.57837618
_cell_angle_alpha   90.00000000
_cell_angle_beta   90.00000000
_cell_angle_gamma   90.00000000
_symmetry_Int_Tables_number   1
_chemical_formula_structural   Sr2LiInGe2
_chemical_formula_sum   'Sr8 Li4 In4 Ge8'
_cell_volume   618.72663649
_cell_formula_units_Z   4
loop_
 _symmetry_equiv_pos_site_id
 _symmetry_equiv_pos_as_xyz
  1  'x, y, z'
loop_
 _atom_site_type_symbol
 _atom_site_label
 _atom_site_symmetry_multiplicity
 _atom_site_fract_x
 _atom_site_fract_y
 _atom_site_fract_z
 _atom_site_occupancy
  Sr  Sr0  1  0.250000  0.843730  0.560721  1
  Sr  Sr1  1  0.250000  0.343730  0.939279  1
  Sr  Sr2  1  0.750000  0.656270  0.060721  1
  Sr  Sr3  1  0.750000  0.999549  0.221908  1
  Sr  Sr4  1  0.750000  0.499549  0.278092  1
  Sr  Sr5  1  0.750000  0.156270  0.439279  1
  Sr  Sr6  1  0.250000  0.000451  0.778092  1
  Sr  Sr7  1  0.250000  0.500451  0.721908  1
  Li  Li8  1  0.250000  0.484905  0.433046  1
  Li  Li9  1  0.750000  0.015095  0.933046  1
  Li  Li10  1  0.750000  0.515095  0.566954  1
  Li  Li11  1  0.250000  0.984905  0.066954  1
  In  In12  1  0.750000  0.668448  0.846296  1
  In  In13  1  0.250000  0.331552  0.153704  1
  In  In14  1  0.750000  0.168448  0.653704  1
  In  In15  1  0.250000  0.831552  0.346296  1
  Ge  Ge16  1  0.750000  0.721818  0.434569  1
  Ge  Ge17  1  0.750000  0.287089  0.814224  1
  Ge  Ge18  1  0.250000  0.712911  0.185776  1
  Ge  Ge19  1  0.250000  0.212911  0.314224  1
  Ge  Ge20  1  0.250000  0.778182  0.934569  1
  Ge  Ge21  1  0.750000  0.787089  0.685776  1
  Ge  Ge22  1  0.250000  0.278182  0.565431  1
  Ge  Ge23  1  0.750000  0.221818  0.065431  1
