# generated using pymatgen
data_CrP2O7
_symmetry_space_group_name_H-M   'P 1'
_cell_length_a   8.66884716
_cell_length_b   5.15878931
_cell_length_c   13.23497126
_cell_angle_alpha   90.00000000
_cell_angle_beta   115.96876888
_cell_angle_gamma   90.00000000
_symmetry_Int_Tables_number   1
_chemical_formula_structural   CrP2O7
_chemical_formula_sum   'Cr4 P8 O28'
_cell_volume   532.11770178
_cell_formula_units_Z   4
loop_
 _symmetry_equiv_pos_site_id
 _symmetry_equiv_pos_as_xyz
  1  'x, y, z'
loop_
 _atom_site_type_symbol
 _atom_site_label
 _atom_site_symmetry_multiplicity
 _atom_site_fract_x
 _atom_site_fract_y
 _atom_site_fract_z
 _atom_site_occupancy
  Cr  Cr0  1  0.272834  0.743409  0.534456  1
  Cr  Cr1  1  0.272834  0.756591  0.034456  1
  Cr  Cr2  1  0.727166  0.256591  0.465544  1
  Cr  Cr3  1  0.727166  0.243409  0.965544  1
  P  P4  1  0.312237  0.230732  0.386117  1
  P  P5  1  0.312237  0.269268  0.886117  1
  P  P6  1  0.687763  0.769268  0.613883  1
  P  P7  1  0.687763  0.730732  0.113883  1
  P  P8  1  0.161132  0.240630  0.139819  1
  P  P9  1  0.161132  0.259370  0.639819  1
  P  P10  1  0.838868  0.759370  0.860181  1
  P  P11  1  0.838868  0.740630  0.360181  1
  O  O12  1  0.024386  0.736690  0.946487  1
  O  O13  1  0.235583  0.967741  0.144851  1
  O  O14  1  0.838279  0.776441  0.238915  1
  O  O15  1  0.024386  0.763310  0.446487  1
  O  O16  1  0.270597  0.044930  0.625410  1
  O  O17  1  0.273631  0.080033  0.959123  1
  O  O18  1  0.701105  0.050986  0.581635  1
  O  O19  1  0.235583  0.532259  0.644851  1
  O  O20  1  0.764417  0.467741  0.355149  1
  O  O21  1  0.161721  0.223559  0.761085  1
  O  O22  1  0.519576  0.777723  0.122574  1
  O  O23  1  0.480424  0.222277  0.877426  1
  O  O24  1  0.726369  0.919967  0.040877  1
  O  O25  1  0.519576  0.722277  0.622574  1
  O  O26  1  0.764417  0.032259  0.855149  1
  O  O27  1  0.298895  0.550986  0.918365  1
  O  O28  1  0.298895  0.949014  0.418365  1
  O  O29  1  0.480424  0.277723  0.377426  1
  O  O30  1  0.729403  0.955070  0.374590  1
  O  O31  1  0.729403  0.544930  0.874590  1
  O  O32  1  0.838279  0.723559  0.738915  1
  O  O33  1  0.273631  0.419967  0.459123  1
  O  O34  1  0.975614  0.263310  0.053513  1
  O  O35  1  0.726369  0.580033  0.540877  1
  O  O36  1  0.701105  0.449014  0.081635  1
  O  O37  1  0.270597  0.455070  0.125410  1
  O  O38  1  0.975614  0.236690  0.553513  1
  O  O39  1  0.161721  0.276441  0.261085  1
