# generated using pymatgen
data_K2PrZr(PO4)3
_symmetry_space_group_name_H-M   'P 1'
_cell_length_a   10.63325072
_cell_length_b   10.63325072
_cell_length_c   10.63325072
_cell_angle_alpha   90.00000000
_cell_angle_beta   90.00000000
_cell_angle_gamma   90.00000000
_symmetry_Int_Tables_number   1
_chemical_formula_structural   K2PrZr(PO4)3
_chemical_formula_sum   'K8 Pr4 Zr4 P12 O48'
_cell_volume   1202.25934787
_cell_formula_units_Z   4
loop_
 _symmetry_equiv_pos_site_id
 _symmetry_equiv_pos_as_xyz
  1  'x, y, z'
loop_
 _atom_site_type_symbol
 _atom_site_label
 _atom_site_symmetry_multiplicity
 _atom_site_fract_x
 _atom_site_fract_y
 _atom_site_fract_z
 _atom_site_occupancy
  K  K0  1  0.071423  0.071423  0.071423  1
  K  K1  1  0.928577  0.571423  0.428577  1
  K  K2  1  0.428577  0.928577  0.571423  1
  K  K3  1  0.202654  0.702654  0.797346  1
  K  K4  1  0.797346  0.202654  0.702654  1
  K  K5  1  0.571423  0.428577  0.928577  1
  K  K6  1  0.702654  0.797346  0.202654  1
  K  K7  1  0.297346  0.297346  0.297346  1
  Pr  Pr8  1  0.924058  0.424058  0.075942  1
  Pr  Pr9  1  0.075942  0.924058  0.424058  1
  Pr  Pr10  1  0.424058  0.075942  0.924058  1
  Pr  Pr11  1  0.575942  0.575942  0.575942  1
  Zr  Zr12  1  0.853418  0.853418  0.853418  1
  Zr  Zr13  1  0.146582  0.353418  0.646582  1
  Zr  Zr14  1  0.353418  0.646582  0.146582  1
  Zr  Zr15  1  0.646582  0.146582  0.353418  1
  P  P16  1  0.541502  0.751221  0.880707  1
  P  P17  1  0.751221  0.880707  0.541502  1
  P  P18  1  0.380707  0.958498  0.248779  1
  P  P19  1  0.958498  0.248779  0.380707  1
  P  P20  1  0.251221  0.619293  0.458498  1
  P  P21  1  0.119293  0.041502  0.748779  1
  P  P22  1  0.458498  0.251221  0.619293  1
  P  P23  1  0.748779  0.119293  0.041502  1
  P  P24  1  0.248779  0.380707  0.958498  1
  P  P25  1  0.041502  0.748779  0.119293  1
  P  P26  1  0.880707  0.541502  0.751221  1
  P  P27  1  0.619293  0.458498  0.251221  1
  O  O28  1  0.123793  0.338459  0.017785  1
  O  O29  1  0.838459  0.482215  0.876207  1
  O  O30  1  0.851468  0.219604  0.025356  1
  O  O31  1  0.586119  0.316118  0.267725  1
  O  O32  1  0.267725  0.586119  0.316118  1
  O  O33  1  0.003050  0.474194  0.705971  1
  O  O34  1  0.280396  0.974644  0.351468  1
  O  O35  1  0.623793  0.161541  0.982215  1
  O  O36  1  0.525356  0.648532  0.780396  1
  O  O37  1  0.161541  0.982215  0.623793  1
  O  O38  1  0.482215  0.876207  0.838459  1
  O  O39  1  0.474644  0.148532  0.719604  1
  O  O40  1  0.413881  0.816118  0.232275  1
  O  O41  1  0.496950  0.525806  0.205971  1
  O  O42  1  0.205971  0.496950  0.525806  1
  O  O43  1  0.996950  0.974194  0.794029  1
  O  O44  1  0.974644  0.351468  0.280396  1
  O  O45  1  0.661541  0.517785  0.376207  1
  O  O46  1  0.780396  0.525356  0.648532  1
  O  O47  1  0.732275  0.086119  0.183882  1
  O  O48  1  0.913881  0.683882  0.767725  1
  O  O49  1  0.517785  0.376207  0.661541  1
  O  O50  1  0.719604  0.474644  0.148532  1
  O  O51  1  0.767725  0.913881  0.683882  1
  O  O52  1  0.474194  0.705971  0.003050  1
  O  O53  1  0.982215  0.623793  0.161541  1
  O  O54  1  0.683882  0.767725  0.913881  1
  O  O55  1  0.017785  0.123793  0.338459  1
  O  O56  1  0.025806  0.294029  0.503050  1
  O  O57  1  0.183882  0.732275  0.086119  1
  O  O58  1  0.503050  0.025806  0.294029  1
  O  O59  1  0.294029  0.503050  0.025806  1
  O  O60  1  0.376207  0.661541  0.517785  1
  O  O61  1  0.974194  0.794029  0.996950  1
  O  O62  1  0.025356  0.851468  0.219604  1
  O  O63  1  0.525806  0.205971  0.496950  1
  O  O64  1  0.794029  0.996950  0.974194  1
  O  O65  1  0.816118  0.232275  0.413881  1
  O  O66  1  0.086119  0.183882  0.732275  1
  O  O67  1  0.648532  0.780396  0.525356  1
  O  O68  1  0.316118  0.267725  0.586119  1
  O  O69  1  0.148532  0.719604  0.474644  1
  O  O70  1  0.705971  0.003050  0.474194  1
  O  O71  1  0.232275  0.413881  0.816118  1
  O  O72  1  0.219604  0.025356  0.851468  1
  O  O73  1  0.876207  0.838459  0.482215  1
  O  O74  1  0.351468  0.280396  0.974644  1
  O  O75  1  0.338459  0.017785  0.123793  1
