# generated using pymatgen
data_EuCd(BO2)5
_symmetry_space_group_name_H-M   'P 1'
_cell_length_a   8.75818523
_cell_length_b   7.98597519
_cell_length_c   12.92630884
_cell_angle_alpha   90.00000000
_cell_angle_beta   131.28535597
_cell_angle_gamma   90.00000000
_symmetry_Int_Tables_number   1
_chemical_formula_structural   EuCd(BO2)5
_chemical_formula_sum   'Eu4 Cd4 B20 O40'
_cell_volume   679.37061226
_cell_formula_units_Z   4
loop_
 _symmetry_equiv_pos_site_id
 _symmetry_equiv_pos_as_xyz
  1  'x, y, z'
loop_
 _atom_site_type_symbol
 _atom_site_label
 _atom_site_symmetry_multiplicity
 _atom_site_fract_x
 _atom_site_fract_y
 _atom_site_fract_z
 _atom_site_occupancy
  Eu  Eu0  1  0.958561  0.176181  0.762353  1
  Eu  Eu1  1  0.041439  0.676181  0.737647  1
  Eu  Eu2  1  0.041439  0.823819  0.237647  1
  Eu  Eu3  1  0.958561  0.323819  0.262353  1
  Cd  Cd4  1  0.471399  0.404035  0.872683  1
  Cd  Cd5  1  0.528601  0.904035  0.627317  1
  Cd  Cd6  1  0.528601  0.595965  0.127317  1
  Cd  Cd7  1  0.471399  0.095965  0.372683  1
  B  B8  1  0.667435  0.573037  0.754425  1
  B  B9  1  0.332565  0.073037  0.745575  1
  B  B10  1  0.332565  0.426963  0.245575  1
  B  B11  1  0.667435  0.926963  0.254425  1
  B  B12  1  0.077446  0.322048  0.593313  1
  B  B13  1  0.922554  0.822048  0.906687  1
  B  B14  1  0.922554  0.677952  0.406687  1
  B  B15  1  0.077446  0.177952  0.093313  1
  B  B16  1  0.280407  0.530275  0.560095  1
  B  B17  1  0.719593  0.030275  0.939905  1
  B  B18  1  0.719593  0.469725  0.439905  1
  B  B19  1  0.280407  0.969725  0.060095  1
  B  B20  1  0.852618  0.607361  0.010366  1
  B  B21  1  0.147382  0.107361  0.489634  1
  B  B22  1  0.147382  0.392639  0.989634  1
  B  B23  1  0.852618  0.892639  0.510366  1
  B  B24  1  0.531487  0.326472  0.596916  1
  B  B25  1  0.468513  0.826472  0.903084  1
  B  B26  1  0.468513  0.673528  0.403084  1
  B  B27  1  0.531487  0.173528  0.096916  1
  O  O28  1  0.814184  0.705007  0.784705  1
  O  O29  1  0.185816  0.205007  0.715295  1
  O  O30  1  0.185816  0.294993  0.215295  1
  O  O31  1  0.814184  0.794993  0.284705  1
  O  O32  1  0.709887  0.532464  0.884064  1
  O  O33  1  0.290113  0.032464  0.615936  1
  O  O34  1  0.290113  0.467536  0.115936  1
  O  O35  1  0.709887  0.967536  0.384064  1
  O  O36  1  0.693267  0.419318  0.705380  1
  O  O37  1  0.306733  0.919318  0.794620  1
  O  O38  1  0.306733  0.580682  0.294620  1
  O  O39  1  0.693267  0.080682  0.205380  1
  O  O40  1  0.458778  0.638564  0.651693  1
  O  O41  1  0.541222  0.138564  0.848307  1
  O  O42  1  0.541222  0.361436  0.348307  1
  O  O43  1  0.458778  0.861436  0.151693  1
  O  O44  1  0.220193  0.463953  0.637748  1
  O  O45  1  0.779807  0.963953  0.862252  1
  O  O46  1  0.779807  0.536047  0.362252  1
  O  O47  1  0.220193  0.036047  0.137748  1
  O  O48  1  0.897244  0.385158  0.569406  1
  O  O49  1  0.102756  0.885158  0.930594  1
  O  O50  1  0.102756  0.614842  0.430594  1
  O  O51  1  0.897244  0.114842  0.069406  1
  O  O52  1  0.023429  0.233285  0.473619  1
  O  O53  1  0.976571  0.733285  0.026381  1
  O  O54  1  0.976571  0.766715  0.526381  1
  O  O55  1  0.023429  0.266715  0.973619  1
  O  O56  1  0.334517  0.384722  0.514659  1
  O  O57  1  0.665483  0.884722  0.985341  1
  O  O58  1  0.665483  0.615278  0.485341  1
  O  O59  1  0.334517  0.115278  0.014659  1
  O  O60  1  0.414114  0.672664  0.919930  1
  O  O61  1  0.585886  0.172664  0.580070  1
  O  O62  1  0.585886  0.327336  0.080070  1
  O  O63  1  0.414114  0.827336  0.419930  1
  O  O64  1  0.126252  0.435883  0.878613  1
  O  O65  1  0.873748  0.935883  0.621387  1
  O  O66  1  0.873748  0.564117  0.121387  1
  O  O67  1  0.126252  0.064117  0.378613  1
