# generated using pymatgen
data_UAgIO6
_symmetry_space_group_name_H-M   'P 1'
_cell_length_a   15.36807675
_cell_length_b   8.11303629
_cell_length_c   21.90937412
_cell_angle_alpha   90.00000000
_cell_angle_beta   122.94517176
_cell_angle_gamma   90.00000000
_symmetry_Int_Tables_number   1
_chemical_formula_structural   UAgIO6
_chemical_formula_sum   'U16 Ag16 I16 O96'
_cell_volume   2292.41857256
_cell_formula_units_Z   16
loop_
 _symmetry_equiv_pos_site_id
 _symmetry_equiv_pos_as_xyz
  1  'x, y, z'
loop_
 _atom_site_type_symbol
 _atom_site_label
 _atom_site_symmetry_multiplicity
 _atom_site_fract_x
 _atom_site_fract_y
 _atom_site_fract_z
 _atom_site_occupancy
  U  U0  1  0.467963  0.263449  0.878045  1
  U  U1  1  0.223104  0.466510  0.218658  1
  U  U2  1  0.963462  0.236426  0.090342  1
  U  U3  1  0.774664  0.995234  0.781076  1
  U  U4  1  0.774664  0.504766  0.281076  1
  U  U5  1  0.225336  0.495234  0.718924  1
  U  U6  1  0.776896  0.966510  0.281342  1
  U  U7  1  0.963462  0.263574  0.590342  1
  U  U8  1  0.532037  0.736551  0.121955  1
  U  U9  1  0.467963  0.236551  0.378045  1
  U  U10  1  0.532037  0.763449  0.621955  1
  U  U11  1  0.776896  0.533490  0.781342  1
  U  U12  1  0.036538  0.736426  0.409658  1
  U  U13  1  0.223104  0.033490  0.718658  1
  U  U14  1  0.225336  0.004766  0.218924  1
  U  U15  1  0.036538  0.763574  0.909658  1
  Ag  Ag16  1  0.000948  0.518182  0.744939  1
  Ag  Ag17  1  0.738868  0.237171  0.410431  1
  Ag  Ag18  1  0.280824  0.271320  0.596783  1
  Ag  Ag19  1  0.999052  0.018182  0.755061  1
  Ag  Ag20  1  0.494362  0.018100  0.743131  1
  Ag  Ag21  1  0.999052  0.481818  0.255061  1
  Ag  Ag22  1  0.000948  0.981818  0.244939  1
  Ag  Ag23  1  0.261132  0.737171  0.089569  1
  Ag  Ag24  1  0.738868  0.262829  0.910431  1
  Ag  Ag25  1  0.261132  0.762829  0.589569  1
  Ag  Ag26  1  0.719176  0.728680  0.403217  1
  Ag  Ag27  1  0.505638  0.981900  0.256869  1
  Ag  Ag28  1  0.719176  0.771320  0.903217  1
  Ag  Ag29  1  0.505638  0.518100  0.756869  1
  Ag  Ag30  1  0.494362  0.481900  0.243131  1
  Ag  Ag31  1  0.280824  0.228680  0.096783  1
  I  I32  1  0.721377  0.528540  0.043092  1
  I  I33  1  0.562195  0.265883  0.644512  1
  I  I34  1  0.996411  0.767506  0.603511  1
  I  I35  1  0.706412  0.461514  0.557760  1
  I  I36  1  0.003589  0.232494  0.396489  1
  I  I37  1  0.437805  0.765883  0.855488  1
  I  I38  1  0.562195  0.234117  0.144512  1
  I  I39  1  0.278623  0.028540  0.456908  1
  I  I40  1  0.706412  0.038486  0.057760  1
  I  I41  1  0.721377  0.971460  0.543092  1
  I  I42  1  0.437805  0.734117  0.355488  1
  I  I43  1  0.278623  0.471460  0.956908  1
  I  I44  1  0.003589  0.267506  0.896489  1
  I  I45  1  0.996411  0.732494  0.103511  1
  I  I46  1  0.293588  0.538486  0.442240  1
  I  I47  1  0.293588  0.961514  0.942240  1
  O  O48  1  0.035620  0.494407  0.113850  1
  O  O49  1  0.185878  0.008142  0.284720  1
  O  O50  1  0.414050  0.945913  0.032212  1
  O  O51  1  0.600507  0.997144  0.156245  1
  O  O52  1  0.951924  0.252014  0.170219  1
  O  O53  1  0.964380  0.505593  0.886150  1
  O  O54  1  0.585950  0.054087  0.967788  1
  O  O55  1  0.402536  0.291255  0.927965  1
  O  O56  1  0.799871  0.079192  0.031145  1
  O  O57  1  0.826407  0.534509  0.720803  1
  O  O58  1  0.052258  0.215067  0.337025  1
  O  O59  1  0.951924  0.247986  0.670219  1
  O  O60  1  0.977315  0.473690  0.376692  1
  O  O61  1  0.813796  0.432959  0.023961  1
  O  O62  1  0.319871  0.237092  0.271035  1
  O  O63  1  0.523840  0.787964  0.821313  1
  O  O64  1  0.602116  0.047815  0.462012  1
  O  O65  1  0.417276  0.526115  0.829088  1
  O  O66  1  0.319871  0.262908  0.771035  1
  O  O67  1  0.397884  0.547815  0.037988  1
  O  O68  1  0.035620  0.005593  0.613850  1
  O  O69  1  0.399493  0.002856  0.843755  1
  O  O70  1  0.141961  0.761815  0.668046  1
  O  O71  1  0.720824  0.522357  0.839975  1
  O  O72  1  0.953866  0.278289  0.502285  1
  O  O73  1  0.862573  0.732778  0.337364  1
  O  O74  1  0.814122  0.508142  0.215280  1
  O  O75  1  0.731768  0.007227  0.847434  1
  O  O76  1  0.279176  0.022357  0.660025  1
  O  O77  1  0.200129  0.920808  0.968855  1
  O  O78  1  0.022685  0.973690  0.123308  1
  O  O79  1  0.200129  0.579192  0.468855  1
  O  O80  1  0.173593  0.034509  0.779197  1
  O  O81  1  0.858039  0.261815  0.831954  1
  O  O82  1  0.141961  0.738185  0.168046  1
  O  O83  1  0.546077  0.262584  0.335907  1
  O  O84  1  0.275497  0.265898  0.991614  1
  O  O85  1  0.977315  0.026310  0.876692  1
  O  O86  1  0.680129  0.762908  0.728965  1
  O  O87  1  0.582724  0.473885  0.170912  1
  O  O88  1  0.702284  0.260448  0.593974  1
  O  O89  1  0.862573  0.767222  0.837364  1
  O  O90  1  0.602116  0.452185  0.962012  1
  O  O91  1  0.308929  0.734751  0.267217  1
  O  O92  1  0.826407  0.965491  0.220803  1
  O  O93  1  0.137427  0.232778  0.162636  1
  O  O94  1  0.052258  0.284933  0.837025  1
  O  O95  1  0.476160  0.287964  0.678687  1
  O  O96  1  0.585950  0.445913  0.467788  1
  O  O97  1  0.691071  0.265249  0.732783  1
  O  O98  1  0.048076  0.752014  0.329781  1
  O  O99  1  0.724503  0.734102  0.008386  1
  O  O100  1  0.297716  0.739552  0.406026  1
  O  O101  1  0.297716  0.760448  0.906026  1
  O  O102  1  0.308929  0.765249  0.767217  1
  O  O103  1  0.813796  0.067041  0.523961  1
  O  O104  1  0.597464  0.791255  0.572035  1
  O  O105  1  0.453923  0.762584  0.164093  1
  O  O106  1  0.947742  0.784933  0.662975  1
  O  O107  1  0.022685  0.526310  0.623308  1
  O  O108  1  0.402536  0.208745  0.427965  1
  O  O109  1  0.858039  0.238185  0.331954  1
  O  O110  1  0.476160  0.212036  0.178687  1
  O  O111  1  0.964380  0.994407  0.386150  1
  O  O112  1  0.597464  0.708745  0.072035  1
  O  O113  1  0.453923  0.737416  0.664093  1
  O  O114  1  0.046134  0.721711  0.497715  1
  O  O115  1  0.399493  0.497144  0.343755  1
  O  O116  1  0.268232  0.992773  0.152566  1
  O  O117  1  0.185878  0.491858  0.784720  1
  O  O118  1  0.523840  0.712036  0.321313  1
  O  O119  1  0.799871  0.420808  0.531145  1
  O  O120  1  0.417276  0.973885  0.329088  1
  O  O121  1  0.173593  0.465491  0.279197  1
  O  O122  1  0.702284  0.239552  0.093974  1
  O  O123  1  0.268232  0.507227  0.652566  1
  O  O124  1  0.279176  0.477643  0.160025  1
  O  O125  1  0.582724  0.026115  0.670912  1
  O  O126  1  0.546077  0.237416  0.835907  1
  O  O127  1  0.691071  0.234751  0.232783  1
  O  O128  1  0.600507  0.502856  0.656245  1
  O  O129  1  0.186204  0.932959  0.476039  1
  O  O130  1  0.046134  0.778289  0.997715  1
  O  O131  1  0.137427  0.267222  0.662636  1
  O  O132  1  0.275497  0.234102  0.491614  1
  O  O133  1  0.414050  0.554087  0.532212  1
  O  O134  1  0.731768  0.492773  0.347434  1
  O  O135  1  0.720824  0.977643  0.339975  1
  O  O136  1  0.724503  0.765898  0.508386  1
  O  O137  1  0.186204  0.567041  0.976039  1
  O  O138  1  0.947742  0.715067  0.162975  1
  O  O139  1  0.953866  0.221711  0.002285  1
  O  O140  1  0.048076  0.747986  0.829781  1
  O  O141  1  0.680129  0.737092  0.228965  1
  O  O142  1  0.397884  0.952185  0.537988  1
  O  O143  1  0.814122  0.991858  0.715280  1
