# generated using pymatgen
data_KTh(SbSe3)2
_symmetry_space_group_name_H-M   'P 1'
_cell_length_a   4.30029061
_cell_length_b   15.31653242
_cell_length_c   17.29398700
_cell_angle_alpha   90.00000000
_cell_angle_beta   92.59786912
_cell_angle_gamma   90.00000000
_symmetry_Int_Tables_number   1
_chemical_formula_structural   KTh(SbSe3)2
_chemical_formula_sum   'K4 Th4 Sb8 Se24'
_cell_volume   1137.90712125
_cell_formula_units_Z   4
loop_
 _symmetry_equiv_pos_site_id
 _symmetry_equiv_pos_as_xyz
  1  'x, y, z'
loop_
 _atom_site_type_symbol
 _atom_site_label
 _atom_site_symmetry_multiplicity
 _atom_site_fract_x
 _atom_site_fract_y
 _atom_site_fract_z
 _atom_site_occupancy
  K  K0  1  0.735478  0.286730  0.327133  1
  K  K1  1  0.735478  0.213270  0.827133  1
  K  K2  1  0.264522  0.713270  0.672867  1
  K  K3  1  0.264522  0.786730  0.172867  1
  Th  Th4  1  0.299823  0.870950  0.908954  1
  Th  Th5  1  0.700177  0.129050  0.091046  1
  Th  Th6  1  0.299823  0.629050  0.408954  1
  Th  Th7  1  0.700177  0.370950  0.591046  1
  Sb  Sb8  1  0.730702  0.873669  0.474227  1
  Sb  Sb9  1  0.730702  0.626331  0.974227  1
  Sb  Sb10  1  0.269298  0.373669  0.025773  1
  Sb  Sb11  1  0.753592  0.974264  0.703457  1
  Sb  Sb12  1  0.246408  0.474264  0.796543  1
  Sb  Sb13  1  0.246408  0.025736  0.296543  1
  Sb  Sb14  1  0.269298  0.126331  0.525773  1
  Sb  Sb15  1  0.753592  0.525736  0.203457  1
  Se  Se16  1  0.663860  0.529420  0.697426  1
  Se  Se17  1  0.336140  0.029420  0.802574  1
  Se  Se18  1  0.663860  0.970580  0.197426  1
  Se  Se19  1  0.730755  0.170756  0.626657  1
  Se  Se20  1  0.269245  0.829244  0.373343  1
  Se  Se21  1  0.319944  0.918715  0.591685  1
  Se  Se22  1  0.680056  0.081285  0.408315  1
  Se  Se23  1  0.790800  0.794570  0.015103  1
  Se  Se24  1  0.730755  0.329244  0.126657  1
  Se  Se25  1  0.790800  0.705430  0.515103  1
  Se  Se26  1  0.269245  0.670756  0.873343  1
  Se  Se27  1  0.680056  0.418715  0.908315  1
  Se  Se28  1  0.819651  0.013343  0.941040  1
  Se  Se29  1  0.211608  0.172510  0.210533  1
  Se  Se30  1  0.336140  0.470580  0.302574  1
  Se  Se31  1  0.211608  0.327490  0.710533  1
  Se  Se32  1  0.319944  0.581285  0.091685  1
  Se  Se33  1  0.788392  0.827490  0.789467  1
  Se  Se34  1  0.788392  0.672510  0.289467  1
  Se  Se35  1  0.209200  0.205430  0.984897  1
  Se  Se36  1  0.180349  0.986657  0.058960  1
  Se  Se37  1  0.819651  0.486657  0.441040  1
  Se  Se38  1  0.180349  0.513343  0.558960  1
  Se  Se39  1  0.209200  0.294570  0.484897  1
