# generated using pymatgen
data_Li2Nd2Si3
_symmetry_space_group_name_H-M   'P 1'
_cell_length_a   9.51475699
_cell_length_b   9.51475699
_cell_length_c   6.82810323
_cell_angle_alpha   90.00000000
_cell_angle_beta   90.00000000
_cell_angle_gamma   153.22247298
_symmetry_Int_Tables_number   1
_chemical_formula_structural   Li2Nd2Si3
_chemical_formula_sum   'Li4 Nd4 Si6'
_cell_volume   278.49454812
_cell_formula_units_Z   2
loop_
 _symmetry_equiv_pos_site_id
 _symmetry_equiv_pos_as_xyz
  1  'x, y, z'
loop_
 _atom_site_type_symbol
 _atom_site_label
 _atom_site_symmetry_multiplicity
 _atom_site_fract_x
 _atom_site_fract_y
 _atom_site_fract_z
 _atom_site_occupancy
  Li  Li0  1  0.811547  0.188453  0.939321  1
  Li  Li1  1  0.811547  0.188453  0.560679  1
  Li  Li2  1  0.188453  0.811547  0.060679  1
  Li  Li3  1  0.188453  0.811547  0.439321  1
  Nd  Nd4  1  0.658003  0.341997  0.750000  1
  Nd  Nd5  1  0.341997  0.658003  0.250000  1
  Nd  Nd6  1  0.447452  0.552548  0.750000  1
  Nd  Nd7  1  0.552548  0.447452  0.250000  1
  Si  Si8  1  0.280324  0.719676  0.750000  1
  Si  Si9  1  0.719676  0.280324  0.250000  1
  Si  Si10  1  0.941905  0.058095  0.074579  1
  Si  Si11  1  0.058095  0.941905  0.925421  1
  Si  Si12  1  0.058095  0.941905  0.574579  1
  Si  Si13  1  0.941905  0.058095  0.425421  1
