# generated using pymatgen
data_NdSeClO3
_symmetry_space_group_name_H-M   'P 1'
_cell_length_a   5.42704450
_cell_length_b   11.29983859
_cell_length_c   13.66577996
_cell_angle_alpha   90.00000000
_cell_angle_beta   90.00000000
_cell_angle_gamma   90.00000000
_symmetry_Int_Tables_number   1
_chemical_formula_structural   NdSeClO3
_chemical_formula_sum   'Nd8 Se8 Cl8 O24'
_cell_volume   838.05022352
_cell_formula_units_Z   8
loop_
 _symmetry_equiv_pos_site_id
 _symmetry_equiv_pos_as_xyz
  1  'x, y, z'
loop_
 _atom_site_type_symbol
 _atom_site_label
 _atom_site_symmetry_multiplicity
 _atom_site_fract_x
 _atom_site_fract_y
 _atom_site_fract_z
 _atom_site_occupancy
  Nd  Nd0  1  0.250000  0.927932  0.644565  1
  Nd  Nd1  1  0.750000  0.429146  0.399855  1
  Nd  Nd2  1  0.250000  0.570854  0.600145  1
  Nd  Nd3  1  0.250000  0.427932  0.855435  1
  Nd  Nd4  1  0.250000  0.070854  0.899855  1
  Nd  Nd5  1  0.750000  0.929146  0.100145  1
  Nd  Nd6  1  0.750000  0.572068  0.144565  1
  Nd  Nd7  1  0.750000  0.072068  0.355435  1
  Se  Se8  1  0.750000  0.740713  0.529764  1
  Se  Se9  1  0.250000  0.759287  0.029764  1
  Se  Se10  1  0.750000  0.240713  0.970236  1
  Se  Se11  1  0.250000  0.652048  0.316285  1
  Se  Se12  1  0.750000  0.347952  0.683715  1
  Se  Se13  1  0.250000  0.259287  0.470236  1
  Se  Se14  1  0.750000  0.847952  0.816285  1
  Se  Se15  1  0.250000  0.152048  0.183715  1
  Cl  Cl16  1  0.250000  0.666723  0.799642  1
  Cl  Cl17  1  0.750000  0.833277  0.299642  1
  Cl  Cl18  1  0.750000  0.333277  0.200358  1
  Cl  Cl19  1  0.250000  0.982225  0.432232  1
  Cl  Cl20  1  0.750000  0.517775  0.932232  1
  Cl  Cl21  1  0.250000  0.482225  0.067768  1
  Cl  Cl22  1  0.750000  0.017775  0.567768  1
  Cl  Cl23  1  0.250000  0.166723  0.700358  1
  O  O24  1  0.250000  0.157523  0.059849  1
  O  O25  1  0.750000  0.085621  0.973855  1
  O  O26  1  0.001330  0.556601  0.292040  1
  O  O27  1  0.250000  0.657523  0.440151  1
  O  O28  1  0.498670  0.556601  0.292040  1
  O  O29  1  0.250000  0.914379  0.026145  1
  O  O30  1  0.750000  0.585621  0.526145  1
  O  O31  1  0.003742  0.243369  0.389917  1
  O  O32  1  0.996258  0.756631  0.610083  1
  O  O33  1  0.998670  0.943399  0.792040  1
  O  O34  1  0.501330  0.943399  0.792040  1
  O  O35  1  0.503742  0.756631  0.610083  1
  O  O36  1  0.750000  0.342477  0.559849  1
  O  O37  1  0.250000  0.414379  0.473855  1
  O  O38  1  0.503742  0.256631  0.889917  1
  O  O39  1  0.996258  0.256631  0.889917  1
  O  O40  1  0.498670  0.056601  0.207960  1
  O  O41  1  0.998670  0.443399  0.707960  1
  O  O42  1  0.496258  0.743369  0.110083  1
  O  O43  1  0.001330  0.056601  0.207960  1
  O  O44  1  0.750000  0.842477  0.940151  1
  O  O45  1  0.003742  0.743369  0.110083  1
  O  O46  1  0.501330  0.443399  0.707960  1
  O  O47  1  0.496258  0.243369  0.389917  1
