# generated using pymatgen
data_Ag3AsS3
_symmetry_space_group_name_H-M   'P 1'
_cell_length_a   7.32518310
_cell_length_b   7.32518310
_cell_length_c   7.32518310
_cell_angle_alpha   105.37246247
_cell_angle_beta   105.37246247
_cell_angle_gamma   105.37246247
_symmetry_Int_Tables_number   1
_chemical_formula_structural   Ag3AsS3
_chemical_formula_sum   'Ag6 As2 S6'
_cell_volume   340.83253604
_cell_formula_units_Z   2
loop_
 _symmetry_equiv_pos_site_id
 _symmetry_equiv_pos_as_xyz
  1  'x, y, z'
loop_
 _atom_site_type_symbol
 _atom_site_label
 _atom_site_symmetry_multiplicity
 _atom_site_fract_x
 _atom_site_fract_y
 _atom_site_fract_z
 _atom_site_occupancy
  Ag  Ag0  1  0.031949  0.123721  0.543201  1
  Ag  Ag1  1  0.623721  0.531949  0.043201  1
  Ag  Ag2  1  0.123721  0.543201  0.031949  1
  Ag  Ag3  1  0.531949  0.043201  0.623721  1
  Ag  Ag4  1  0.543201  0.031949  0.123721  1
  Ag  Ag5  1  0.043201  0.623721  0.531949  1
  As  As6  1  0.586928  0.586928  0.586928  1
  As  As7  1  0.086928  0.086928  0.086928  1
  S  S8  1  0.337986  0.681050  0.413365  1
  S  S9  1  0.181050  0.837986  0.913365  1
  S  S10  1  0.681050  0.413365  0.337986  1
  S  S11  1  0.837986  0.913365  0.181050  1
  S  S12  1  0.413365  0.337986  0.681050  1
  S  S13  1  0.913365  0.181050  0.837986  1
