# generated using pymatgen
data_ThB4Mo
_symmetry_space_group_name_H-M   'P 1'
_cell_length_a   6.10494805
_cell_length_b   6.10494805
_cell_length_c   3.78482587
_cell_angle_alpha   90.00000000
_cell_angle_beta   90.00000000
_cell_angle_gamma   104.06830818
_symmetry_Int_Tables_number   1
_chemical_formula_structural   ThB4Mo
_chemical_formula_sum   'Th2 B8 Mo2'
_cell_volume   136.83101426
_cell_formula_units_Z   2
loop_
 _symmetry_equiv_pos_site_id
 _symmetry_equiv_pos_as_xyz
  1  'x, y, z'
loop_
 _atom_site_type_symbol
 _atom_site_label
 _atom_site_symmetry_multiplicity
 _atom_site_fract_x
 _atom_site_fract_y
 _atom_site_fract_z
 _atom_site_occupancy
  Th  Th0  1  0.301923  0.698077  0.000000  1
  Th  Th1  1  0.698077  0.301923  0.000000  1
  B  B2  1  0.090129  0.909871  0.500000  1
  B  B3  1  0.909871  0.090129  0.500000  1
  B  B4  1  0.629179  0.629179  0.500000  1
  B  B5  1  0.370821  0.370821  0.500000  1
  B  B6  1  0.064923  0.376860  0.500000  1
  B  B7  1  0.935077  0.623140  0.500000  1
  B  B8  1  0.376860  0.064923  0.500000  1
  B  B9  1  0.623140  0.935077  0.500000  1
  Mo  Mo10  1  0.827483  0.827483  0.000000  1
  Mo  Mo11  1  0.172517  0.172517  0.000000  1
