# generated using pymatgen
data_Bi(PO3)4
_symmetry_space_group_name_H-M   'P 1'
_cell_length_a   8.96436707
_cell_length_b   8.96436707
_cell_length_c   9.60030253
_cell_angle_alpha   57.93498843
_cell_angle_beta   122.06501157
_cell_angle_gamma   132.74300578
_symmetry_Int_Tables_number   1
_chemical_formula_structural   Bi(PO3)4
_chemical_formula_sum   'Bi2 P8 O24'
_cell_volume   461.76132006
_cell_formula_units_Z   2
loop_
 _symmetry_equiv_pos_site_id
 _symmetry_equiv_pos_as_xyz
  1  'x, y, z'
loop_
 _atom_site_type_symbol
 _atom_site_label
 _atom_site_symmetry_multiplicity
 _atom_site_fract_x
 _atom_site_fract_y
 _atom_site_fract_z
 _atom_site_occupancy
  Bi  Bi0  1  0.793452  0.793452  0.250000  1
  Bi  Bi1  1  0.206548  0.206548  0.750000  1
  P  P2  1  0.008605  0.715965  0.694470  1
  P  P3  1  0.605853  0.328495  0.619264  1
  P  P4  1  0.715965  0.008605  0.805530  1
  P  P5  1  0.671505  0.394147  0.119264  1
  P  P6  1  0.328495  0.605853  0.880736  1
  P  P7  1  0.284035  0.991395  0.194470  1
  P  P8  1  0.394147  0.671505  0.380736  1
  P  P9  1  0.991395  0.284035  0.305530  1
  O  O10  1  0.800587  0.484695  0.738893  1
  O  O11  1  0.684234  0.191800  0.652393  1
  O  O12  1  0.866074  0.003376  0.784466  1
  O  O13  1  0.003376  0.866074  0.715534  1
  O  O14  1  0.757679  0.024359  0.973664  1
  O  O15  1  0.418658  0.181085  0.690912  1
  O  O16  1  0.818915  0.581342  0.190912  1
  O  O17  1  0.484695  0.800587  0.761107  1
  O  O18  1  0.975641  0.242321  0.473664  1
  O  O19  1  0.808200  0.315766  0.152393  1
  O  O20  1  0.422160  0.554180  0.566971  1
  O  O21  1  0.554180  0.422160  0.933029  1
  O  O22  1  0.445820  0.577840  0.066971  1
  O  O23  1  0.577840  0.445820  0.433029  1
  O  O24  1  0.191800  0.684234  0.847607  1
  O  O25  1  0.024359  0.757679  0.526336  1
  O  O26  1  0.515305  0.199413  0.238893  1
  O  O27  1  0.181085  0.418658  0.809088  1
  O  O28  1  0.581342  0.818915  0.309088  1
  O  O29  1  0.242321  0.975641  0.026336  1
  O  O30  1  0.996624  0.133926  0.284466  1
  O  O31  1  0.133926  0.996624  0.215534  1
  O  O32  1  0.315766  0.808200  0.347607  1
  O  O33  1  0.199413  0.515305  0.261107  1
