# generated using pymatgen
data_Ce4In8Ni7
_symmetry_space_group_name_H-M   'P 1'
_cell_length_a   13.99196183
_cell_length_b   13.99196183
_cell_length_c   4.40930522
_cell_angle_alpha   90.00000000
_cell_angle_beta   90.00000000
_cell_angle_gamma   117.57478996
_symmetry_Int_Tables_number   1
_chemical_formula_structural   Ce4In8Ni7
_chemical_formula_sum   'Ce8 In16 Ni14'
_cell_volume   765.17492695
_cell_formula_units_Z   2
loop_
 _symmetry_equiv_pos_site_id
 _symmetry_equiv_pos_as_xyz
  1  'x, y, z'
loop_
 _atom_site_type_symbol
 _atom_site_label
 _atom_site_symmetry_multiplicity
 _atom_site_fract_x
 _atom_site_fract_y
 _atom_site_fract_z
 _atom_site_occupancy
  Ce  Ce0  1  0.347367  0.997171  0.000000  1
  Ce  Ce1  1  0.603637  0.396363  0.500000  1
  Ce  Ce2  1  0.002829  0.652633  0.000000  1
  Ce  Ce3  1  0.809493  0.809493  0.000000  1
  Ce  Ce4  1  0.652633  0.002829  1.000000  1
  Ce  Ce5  1  0.396363  0.603637  0.500000  1
  Ce  Ce6  1  0.997171  0.347367  1.000000  1
  Ce  Ce7  1  0.190507  0.190507  0.000000  1
  In  In8  1  0.370185  0.181016  0.500000  1
  In  In9  1  0.441533  0.877630  0.500000  1
  In  In10  1  0.279028  0.720972  0.000000  1
  In  In11  1  0.084777  0.915223  0.000000  1
  In  In12  1  0.877630  0.441533  0.500000  1
  In  In13  1  0.181016  0.370185  0.500000  1
  In  In14  1  0.818984  0.629815  0.500000  1
  In  In15  1  0.190918  0.809082  0.500000  1
  In  In16  1  0.558467  0.122370  0.500000  1
  In  In17  1  0.629815  0.818984  0.500000  1
  In  In18  1  0.720972  0.279028  0.000000  1
  In  In19  1  0.915223  0.084777  1.000000  1
  In  In20  1  0.000000  0.000000  0.500000  1
  In  In21  1  0.809082  0.190918  0.500000  1
  In  In22  1  0.122370  0.558467  0.500000  1
  In  In23  1  0.500000  0.500000  0.000000  1
  Ni  Ni24  1  0.296396  0.403478  0.000000  1
  Ni  Ni25  1  0.617065  0.617065  0.500000  1
  Ni  Ni26  1  0.403478  0.296396  1.000000  1
  Ni  Ni27  1  0.201008  0.510066  1.000000  1
  Ni  Ni28  1  0.798992  0.489934  0.000000  1
  Ni  Ni29  1  0.001155  0.193717  0.500000  1
  Ni  Ni30  1  0.382935  0.382935  0.500000  1
  Ni  Ni31  1  0.806283  0.998845  0.500000  1
  Ni  Ni32  1  0.998845  0.806283  0.500000  1
  Ni  Ni33  1  0.193717  0.001155  0.500000  1
  Ni  Ni34  1  0.489934  0.798992  0.000000  1
  Ni  Ni35  1  0.510066  0.201008  0.000000  1
  Ni  Ni36  1  0.596522  0.703604  0.000000  1
  Ni  Ni37  1  0.703604  0.596522  0.000000  1
