# generated using pymatgen
data_TaIr
_symmetry_space_group_name_H-M   'P 1'
_cell_length_a   2.88052442
_cell_length_b   4.86443399
_cell_length_c   13.85160659
_cell_angle_alpha   90.00000000
_cell_angle_beta   90.00000000
_cell_angle_gamma   90.00000000
_symmetry_Int_Tables_number   1
_chemical_formula_structural   TaIr
_chemical_formula_sum   'Ta6 Ir6'
_cell_volume   194.09038617
_cell_formula_units_Z   6
loop_
 _symmetry_equiv_pos_site_id
 _symmetry_equiv_pos_as_xyz
  1  'x, y, z'
loop_
 _atom_site_type_symbol
 _atom_site_label
 _atom_site_symmetry_multiplicity
 _atom_site_fract_x
 _atom_site_fract_y
 _atom_site_fract_z
 _atom_site_occupancy
  Ta  Ta0  1  0.000000  0.948795  0.750000  1
  Ta  Ta1  1  0.000000  0.325439  0.914472  1
  Ta  Ta2  1  0.000000  0.674561  0.414472  1
  Ta  Ta3  1  0.000000  0.674561  0.085528  1
  Ta  Ta4  1  0.000000  0.051205  0.250000  1
  Ta  Ta5  1  0.000000  0.325439  0.585528  1
  Ir  Ir6  1  0.500000  0.458628  0.750000  1
  Ir  Ir7  1  0.500000  0.541372  0.250000  1
  Ir  Ir8  1  0.500000  0.823329  0.918037  1
  Ir  Ir9  1  0.500000  0.823329  0.581963  1
  Ir  Ir10  1  0.500000  0.176671  0.081963  1
  Ir  Ir11  1  0.500000  0.176671  0.418037  1
