# generated using pymatgen
data_Zr2(Co7B2)3
_symmetry_space_group_name_H-M   'P 1'
_cell_length_a   7.49271042
_cell_length_b   7.49271042
_cell_length_c   7.49271042
_cell_angle_alpha   60.00000000
_cell_angle_beta   60.00000000
_cell_angle_gamma   60.00000000
_symmetry_Int_Tables_number   1
_chemical_formula_structural   Zr2(Co7B2)3
_chemical_formula_sum   'Zr2 Co21 B6'
_cell_volume   297.44169508
_cell_formula_units_Z   1
loop_
 _symmetry_equiv_pos_site_id
 _symmetry_equiv_pos_as_xyz
  1  'x, y, z'
loop_
 _atom_site_type_symbol
 _atom_site_label
 _atom_site_symmetry_multiplicity
 _atom_site_fract_x
 _atom_site_fract_y
 _atom_site_fract_z
 _atom_site_occupancy
  Zr  Zr0  1  0.750000  0.750000  0.750000  1
  Zr  Zr1  1  0.250000  0.250000  0.250000  1
  Co  Co2  1  0.000000  0.000000  0.000000  1
  Co  Co3  1  0.614095  0.614095  0.157716  1
  Co  Co4  1  0.157716  0.614095  0.614095  1
  Co  Co5  1  0.614095  0.614095  0.614095  1
  Co  Co6  1  0.614095  0.157716  0.614095  1
  Co  Co7  1  0.385905  0.385905  0.842284  1
  Co  Co8  1  0.842284  0.385905  0.385905  1
  Co  Co9  1  0.385905  0.385905  0.385905  1
  Co  Co10  1  0.385905  0.842284  0.385905  1
  Co  Co11  1  0.000000  0.663373  0.336627  1
  Co  Co12  1  0.000000  1.000000  0.336627  1
  Co  Co13  1  0.663373  1.000000  0.336627  1
  Co  Co14  1  0.336627  1.000000  0.000000  1
  Co  Co15  1  0.336627  0.663373  1.000000  1
  Co  Co16  1  0.336627  1.000000  0.663373  1
  Co  Co17  1  0.663373  1.000000  0.000000  1
  Co  Co18  1  0.000000  1.000000  0.663373  1
  Co  Co19  1  0.000000  0.663373  0.000000  1
  Co  Co20  1  1.000000  0.336627  0.663373  1
  Co  Co21  1  0.663373  0.336627  1.000000  1
  Co  Co22  1  0.000000  0.336627  1.000000  1
  B  B23  1  0.726382  0.273618  0.273618  1
  B  B24  1  0.726382  0.726382  0.273618  1
  B  B25  1  0.273618  0.726382  0.273618  1
  B  B26  1  0.273618  0.726382  0.726382  1
  B  B27  1  0.273618  0.273618  0.726382  1
  B  B28  1  0.726382  0.273618  0.726382  1
