# generated using pymatgen
data_GdP2H9O11
_symmetry_space_group_name_H-M   'P 1'
_cell_length_a   6.72878343
_cell_length_b   11.48396017
_cell_length_c   13.52537268
_cell_angle_alpha   90.00000000
_cell_angle_beta   117.47059843
_cell_angle_gamma   90.00000000
_symmetry_Int_Tables_number   1
_chemical_formula_structural   GdP2H9O11
_chemical_formula_sum   'Gd4 P8 H36 O44'
_cell_volume   927.30442733
_cell_formula_units_Z   4
loop_
 _symmetry_equiv_pos_site_id
 _symmetry_equiv_pos_as_xyz
  1  'x, y, z'
loop_
 _atom_site_type_symbol
 _atom_site_label
 _atom_site_symmetry_multiplicity
 _atom_site_fract_x
 _atom_site_fract_y
 _atom_site_fract_z
 _atom_site_occupancy
  Gd  Gd0  1  0.411505  0.583148  0.159318  1
  Gd  Gd1  1  0.588495  0.416852  0.840682  1
  Gd  Gd2  1  0.411505  0.916852  0.659318  1
  Gd  Gd3  1  0.588495  0.083148  0.340682  1
  P  P4  1  0.103237  0.549358  0.857185  1
  P  P5  1  0.684721  0.632406  0.662840  1
  P  P6  1  0.684721  0.867594  0.162840  1
  P  P7  1  0.315279  0.132406  0.837160  1
  P  P8  1  0.896763  0.049358  0.642815  1
  P  P9  1  0.103237  0.950642  0.357185  1
  P  P10  1  0.896763  0.450642  0.142815  1
  P  P11  1  0.315279  0.367594  0.337160  1
  H  H12  1  0.655786  0.600403  0.408301  1
  H  H13  1  0.041507  0.653940  0.331043  1
  H  H14  1  0.767804  0.010713  0.076952  1
  H  H15  1  0.778059  0.211601  0.058092  1
  H  H16  1  0.344214  0.399597  0.591699  1
  H  H17  1  0.205447  0.119716  0.487610  1
  H  H18  1  0.794553  0.880284  0.512390  1
  H  H19  1  0.958493  0.153940  0.168957  1
  H  H20  1  0.302127  0.659890  0.691342  1
  H  H21  1  0.958493  0.346060  0.668957  1
  H  H22  1  0.097370  0.731365  0.686254  1
  H  H23  1  0.244656  0.214795  0.114639  1
  H  H24  1  0.655786  0.899597  0.908301  1
  H  H25  1  0.697873  0.159890  0.808658  1
  H  H26  1  0.445082  0.334670  0.073777  1
  H  H27  1  0.902630  0.231365  0.813746  1
  H  H28  1  0.244656  0.285205  0.614639  1
  H  H29  1  0.554918  0.834670  0.426223  1
  H  H30  1  0.205447  0.380284  0.987610  1
  H  H31  1  0.302127  0.840110  0.191342  1
  H  H32  1  0.221941  0.788399  0.941908  1
  H  H33  1  0.755344  0.714795  0.385361  1
  H  H34  1  0.778059  0.288399  0.558092  1
  H  H35  1  0.755344  0.785205  0.885361  1
  H  H36  1  0.902630  0.268635  0.313746  1
  H  H37  1  0.445082  0.165330  0.573777  1
  H  H38  1  0.041507  0.846060  0.831043  1
  H  H39  1  0.794553  0.619716  0.012390  1
  H  H40  1  0.232196  0.510713  0.423048  1
  H  H41  1  0.344214  0.100403  0.091699  1
  H  H42  1  0.232196  0.989287  0.923048  1
  H  H43  1  0.097370  0.768635  0.186254  1
  H  H44  1  0.767804  0.489287  0.576952  1
  H  H45  1  0.221941  0.711601  0.441908  1
  H  H46  1  0.697873  0.340110  0.308658  1
  H  H47  1  0.554918  0.665330  0.926223  1
  O  O48  1  0.347353  0.349697  0.651067  1
  O  O49  1  0.066774  0.352716  0.231075  1
  O  O50  1  0.729909  0.922916  0.067997  1
  O  O51  1  0.544741  0.554209  0.696349  1
  O  O52  1  0.270091  0.077084  0.932003  1
  O  O53  1  0.229760  0.763347  0.174256  1
  O  O54  1  0.770240  0.263347  0.325744  1
  O  O55  1  0.601395  0.744929  0.128529  1
  O  O56  1  0.315267  0.121008  0.567333  1
  O  O57  1  0.270091  0.422916  0.432003  1
  O  O58  1  0.347353  0.150303  0.151067  1
  O  O59  1  0.455259  0.054209  0.803651  1
  O  O60  1  0.828361  0.137132  0.098382  1
  O  O61  1  0.684733  0.621008  0.932667  1
  O  O62  1  0.957161  0.046486  0.368843  1
  O  O63  1  0.933226  0.852716  0.268925  1
  O  O64  1  0.234835  0.879436  0.463694  1
  O  O65  1  0.544741  0.945791  0.196349  1
  O  O66  1  0.751027  0.495862  0.193426  1
  O  O67  1  0.828361  0.362868  0.598382  1
  O  O68  1  0.455259  0.445791  0.303651  1
  O  O69  1  0.770240  0.236653  0.825744  1
  O  O70  1  0.042839  0.953514  0.631157  1
  O  O71  1  0.957161  0.453514  0.868843  1
  O  O72  1  0.765165  0.379436  0.036306  1
  O  O73  1  0.751027  0.004138  0.693426  1
  O  O74  1  0.398605  0.255071  0.871471  1
  O  O75  1  0.066774  0.147284  0.731075  1
  O  O76  1  0.042839  0.546486  0.131157  1
  O  O77  1  0.729909  0.577084  0.567997  1
  O  O78  1  0.652647  0.849697  0.848933  1
  O  O79  1  0.248973  0.995862  0.306574  1
  O  O80  1  0.315267  0.378992  0.067333  1
  O  O81  1  0.171639  0.862868  0.901618  1
  O  O82  1  0.248973  0.504138  0.806574  1
  O  O83  1  0.601395  0.755071  0.628529  1
  O  O84  1  0.234835  0.620564  0.963694  1
  O  O85  1  0.398605  0.244929  0.371471  1
  O  O86  1  0.652647  0.650303  0.348933  1
  O  O87  1  0.933226  0.647284  0.768925  1
  O  O88  1  0.765165  0.120564  0.536306  1
  O  O89  1  0.171639  0.637132  0.401618  1
  O  O90  1  0.229760  0.736653  0.674256  1
  O  O91  1  0.684733  0.878992  0.432667  1
