# generated using pymatgen
data_CsLiH4S2(NO3)2
_symmetry_space_group_name_H-M   'P 1'
_cell_length_a   5.59573570
_cell_length_b   8.05261033
_cell_length_c   9.98764361
_cell_angle_alpha   105.42786977
_cell_angle_beta   103.51682397
_cell_angle_gamma   86.66019495
_symmetry_Int_Tables_number   1
_chemical_formula_structural   CsLiH4S2(NO3)2
_chemical_formula_sum   'Cs2 Li2 H8 S4 N4 O12'
_cell_volume   421.80892515
_cell_formula_units_Z   2
loop_
 _symmetry_equiv_pos_site_id
 _symmetry_equiv_pos_as_xyz
  1  'x, y, z'
loop_
 _atom_site_type_symbol
 _atom_site_label
 _atom_site_symmetry_multiplicity
 _atom_site_fract_x
 _atom_site_fract_y
 _atom_site_fract_z
 _atom_site_occupancy
  Cs  Cs0  1  0.802875  0.242026  0.085028  1
  Cs  Cs1  1  0.197125  0.757974  0.914972  1
  Li  Li2  1  0.645508  0.387326  0.708751  1
  Li  Li3  1  0.354492  0.612674  0.291249  1
  H  H4  1  0.098471  0.270418  0.504546  1
  H  H5  1  0.901529  0.729582  0.495454  1
  H  H6  1  0.200622  0.464638  0.512449  1
  H  H7  1  0.799378  0.535362  0.487551  1
  H  H8  1  0.286230  0.031232  0.645528  1
  H  H9  1  0.713770  0.968768  0.354472  1
  H  H10  1  0.981686  0.046953  0.640412  1
  H  H11  1  0.018314  0.953047  0.359588  1
  S  S12  1  0.392217  0.256179  0.383704  1
  S  S13  1  0.607783  0.743821  0.616296  1
  S  S14  1  0.198252  0.251618  0.814847  1
  S  S15  1  0.801748  0.748382  0.185153  1
  N  N16  1  0.149282  0.344831  0.445564  1
  N  N17  1  0.850718  0.655169  0.554436  1
  N  N18  1  0.140127  0.114073  0.653262  1
  N  N19  1  0.859873  0.885927  0.346738  1
  O  O20  1  0.316545  0.080775  0.299989  1
  O  O21  1  0.683455  0.919225  0.700011  1
  O  O22  1  0.437811  0.368092  0.296706  1
  O  O23  1  0.562189  0.631908  0.703294  1
  O  O24  1  0.604764  0.257515  0.504496  1
  O  O25  1  0.395236  0.742485  0.495504  1
  O  O26  1  0.416670  0.348126  0.819418  1
  O  O27  1  0.583330  0.651874  0.180582  1
  O  O28  1  0.243213  0.157260  0.925520  1
  O  O29  1  0.756787  0.842740  0.074480  1
  O  O30  1  0.977445  0.359947  0.816655  1
  O  O31  1  0.022555  0.640053  0.183345  1
