# generated using pymatgen
data_Al(HO)3
_symmetry_space_group_name_H-M   'P 1'
_cell_length_a   5.17253634
_cell_length_b   6.32275274
_cell_length_c   6.75343153
_cell_angle_alpha   83.64662867
_cell_angle_beta   85.03964458
_cell_angle_gamma   81.29758370
_symmetry_Int_Tables_number   1
_chemical_formula_structural   Al(HO)3
_chemical_formula_sum   'Al4 H12 O12'
_cell_volume   216.43794004
_cell_formula_units_Z   4
loop_
 _symmetry_equiv_pos_site_id
 _symmetry_equiv_pos_as_xyz
  1  'x, y, z'
loop_
 _atom_site_type_symbol
 _atom_site_label
 _atom_site_symmetry_multiplicity
 _atom_site_fract_x
 _atom_site_fract_y
 _atom_site_fract_z
 _atom_site_occupancy
  Al  Al0  1  0.539239  0.165236  0.833232  1
  Al  Al1  1  0.491643  0.830835  0.172708  1
  Al  Al2  1  0.022643  0.327966  0.668786  1
  Al  Al3  1  0.008031  0.669239  0.337427  1
  H  H4  1  0.192139  0.951043  0.812667  1
  H  H5  1  0.833581  0.048791  0.195264  1
  H  H6  1  0.650176  0.466266  0.326768  1
  H  H7  1  0.383052  0.531595  0.682980  1
  H  H8  1  0.276147  0.288838  0.319643  1
  H  H9  1  0.773339  0.710243  0.692439  1
  H  H10  1  0.864990  0.833499  0.939843  1
  H  H11  1  0.171013  0.171047  0.078295  1
  H  H12  1  0.756298  0.091961  0.494170  1
  H  H13  1  0.275685  0.902776  0.512530  1
  H  H14  1  0.245920  0.598774  0.988072  1
  H  H15  1  0.781871  0.399076  0.015801  1
  O  O16  1  0.257621  0.060536  0.715908  1
  O  O17  1  0.772722  0.935994  0.290807  1
  O  O18  1  0.720908  0.563773  0.220272  1
  O  O19  1  0.309339  0.432904  0.787041  1
  O  O20  1  0.172973  0.387897  0.408550  1
  O  O21  1  0.856016  0.608858  0.597628  1
  O  O22  1  0.679477  0.868724  0.912674  1
  O  O23  1  0.358200  0.127462  0.094301  1
  O  O24  1  0.745918  0.193785  0.596656  1
  O  O25  1  0.283697  0.803298  0.408403  1
  O  O26  1  0.203542  0.715414  0.078630  1
  O  O27  1  0.826286  0.282152  0.926149  1
