# generated using pymatgen
data_MgH12(ClO3)2
_symmetry_space_group_name_H-M   'P 1'
_cell_length_a   6.11794209
_cell_length_b   6.11794209
_cell_length_c   6.10979793
_cell_angle_alpha   86.83414579
_cell_angle_beta   93.16585421
_cell_angle_gamma   108.58950569
_symmetry_Int_Tables_number   1
_chemical_formula_structural   MgH12(ClO3)2
_chemical_formula_sum   'Mg1 H12 Cl2 O6'
_cell_volume   216.25185260
_cell_formula_units_Z   1
loop_
 _symmetry_equiv_pos_site_id
 _symmetry_equiv_pos_as_xyz
  1  'x, y, z'
loop_
 _atom_site_type_symbol
 _atom_site_label
 _atom_site_symmetry_multiplicity
 _atom_site_fract_x
 _atom_site_fract_y
 _atom_site_fract_z
 _atom_site_occupancy
  Mg  Mg0  1  0.000000  0.000000  0.000000  1
  H  H1  1  0.761257  0.238743  0.738939  1
  H  H2  1  0.238743  0.761257  0.261061  1
  H  H3  1  0.728568  0.271432  0.993282  1
  H  H4  1  0.271432  0.728568  0.006718  1
  H  H5  1  0.676411  0.720729  0.720343  1
  H  H6  1  0.279271  0.323589  0.720343  1
  H  H7  1  0.323589  0.279271  0.279657  1
  H  H8  1  0.720729  0.676411  0.279657  1
  H  H9  1  0.919449  0.684070  0.682721  1
  H  H10  1  0.315930  0.080551  0.682721  1
  H  H11  1  0.080551  0.315930  0.317279  1
  H  H12  1  0.684070  0.919449  0.317279  1
  Cl  Cl13  1  0.682391  0.317609  0.387596  1
  Cl  Cl14  1  0.317609  0.682391  0.612404  1
  O  O15  1  0.800475  0.199525  0.890761  1
  O  O16  1  0.199525  0.800475  0.109239  1
  O  O17  1  0.836001  0.750931  0.778657  1
  O  O18  1  0.249069  0.163999  0.778657  1
  O  O19  1  0.163999  0.249069  0.221343  1
  O  O20  1  0.750931  0.836001  0.221343  1
