# generated using pymatgen
data_Ba2Pr(CuO2)4
_symmetry_space_group_name_H-M   'P 1'
_cell_length_a   13.95458464
_cell_length_b   13.95458464
_cell_length_c   3.94970793
_cell_angle_alpha   90.00000000
_cell_angle_beta   90.00000000
_cell_angle_gamma   163.81379368
_symmetry_Int_Tables_number   1
_chemical_formula_structural   Ba2Pr(CuO2)4
_chemical_formula_sum   'Ba2 Pr1 Cu4 O8'
_cell_volume   214.40214645
_cell_formula_units_Z   1
loop_
 _symmetry_equiv_pos_site_id
 _symmetry_equiv_pos_as_xyz
  1  'x, y, z'
loop_
 _atom_site_type_symbol
 _atom_site_label
 _atom_site_symmetry_multiplicity
 _atom_site_fract_x
 _atom_site_fract_y
 _atom_site_fract_z
 _atom_site_occupancy
  Ba  Ba0  1  0.862981  0.137019  0.500000  1
  Ba  Ba1  1  0.137019  0.862981  0.500000  1
  Pr  Pr2  1  0.000000  0.000000  0.500000  1
  Cu  Cu3  1  0.434939  0.565061  0.000000  1
  Cu  Cu4  1  0.565061  0.434939  0.000000  1
  Cu  Cu5  1  0.286998  0.713002  0.000000  1
  Cu  Cu6  1  0.713002  0.286998  0.000000  1
  O  O7  1  0.781421  0.218579  0.000000  1
  O  O8  1  0.218579  0.781421  0.000000  1
  O  O9  1  0.944214  0.055786  0.000000  1
  O  O10  1  0.055786  0.944214  0.000000  1
  O  O11  1  0.443655  0.556345  0.500000  1
  O  O12  1  0.556345  0.443655  0.500000  1
  O  O13  1  0.353704  0.646296  1.000000  1
  O  O14  1  0.646296  0.353704  0.000000  1
