# generated using pymatgen
data_Cs2MnV2(ClO3)2
_symmetry_space_group_name_H-M   'P 1'
_cell_length_a   9.43422986
_cell_length_b   9.43422986
_cell_length_c   5.81639072
_cell_angle_alpha   90.00000000
_cell_angle_beta   90.00000000
_cell_angle_gamma   145.01108450
_symmetry_Int_Tables_number   1
_chemical_formula_structural   Cs2MnV2(ClO3)2
_chemical_formula_sum   'Cs2 Mn1 V2 Cl2 O6'
_cell_volume   296.85048603
_cell_formula_units_Z   1
loop_
 _symmetry_equiv_pos_site_id
 _symmetry_equiv_pos_as_xyz
  1  'x, y, z'
loop_
 _atom_site_type_symbol
 _atom_site_label
 _atom_site_symmetry_multiplicity
 _atom_site_fract_x
 _atom_site_fract_y
 _atom_site_fract_z
 _atom_site_occupancy
  Cs  Cs0  1  0.627484  0.372516  0.147493  1
  Cs  Cs1  1  0.372516  0.627484  0.147493  1
  Mn  Mn2  1  0.000000  0.000000  0.640569  1
  V  V3  1  0.801511  0.198489  0.638789  1
  V  V4  1  0.198489  0.801511  0.638789  1
  Cl  Cl5  1  0.000000  0.000000  0.057560  1
  Cl  Cl6  1  0.500000  0.500000  0.621334  1
  O  O7  1  0.799489  0.200511  0.922635  1
  O  O8  1  0.500000  0.000000  0.525717  1
  O  O9  1  0.109242  0.890758  0.539184  1
  O  O10  1  0.000000  0.500000  0.525717  1
  O  O11  1  0.200511  0.799489  0.922635  1
  O  O12  1  0.890758  0.109242  0.539184  1
