# generated using pymatgen
data_BaMg2H8Ru
_symmetry_space_group_name_H-M   'P 1'
_cell_length_a   4.96961606
_cell_length_b   4.96961606
_cell_length_c   10.81218154
_cell_angle_alpha   90.00000000
_cell_angle_beta   90.00000000
_cell_angle_gamma   90.00000000
_symmetry_Int_Tables_number   1
_chemical_formula_structural   BaMg2H8Ru
_chemical_formula_sum   'Ba2 Mg4 H16 Ru2'
_cell_volume   267.02935338
_cell_formula_units_Z   2
loop_
 _symmetry_equiv_pos_site_id
 _symmetry_equiv_pos_as_xyz
  1  'x, y, z'
loop_
 _atom_site_type_symbol
 _atom_site_label
 _atom_site_symmetry_multiplicity
 _atom_site_fract_x
 _atom_site_fract_y
 _atom_site_fract_z
 _atom_site_occupancy
  Ba  Ba0  1  0.500000  0.000000  0.000000  1
  Ba  Ba1  1  0.000000  0.500000  0.500000  1
  Mg  Mg2  1  0.500000  0.000000  0.640271  1
  Mg  Mg3  1  0.000000  0.500000  0.140271  1
  Mg  Mg4  1  0.500000  0.000000  0.359729  1
  Mg  Mg5  1  0.000000  0.500000  0.859729  1
  H  H6  1  0.243562  0.243562  0.750000  1
  H  H7  1  0.756438  0.756438  0.750000  1
  H  H8  1  0.756438  0.243562  0.250000  1
  H  H9  1  0.243562  0.756438  0.250000  1
  H  H10  1  0.756438  0.756438  0.250000  1
  H  H11  1  0.243562  0.243562  0.250000  1
  H  H12  1  0.243562  0.756438  0.750000  1
  H  H13  1  0.756438  0.243562  0.750000  1
  H  H14  1  0.500000  0.251860  0.500000  1
  H  H15  1  0.500000  0.748140  0.500000  1
  H  H16  1  0.748140  0.500000  0.000000  1
  H  H17  1  0.251860  0.500000  0.000000  1
  H  H18  1  0.000000  0.000000  0.593750  1
  H  H19  1  0.000000  0.000000  0.093750  1
  H  H20  1  0.000000  0.000000  0.406250  1
  H  H21  1  0.000000  0.000000  0.906250  1
  Ru  Ru22  1  0.000000  0.000000  0.750000  1
  Ru  Ru23  1  0.000000  0.000000  0.250000  1
