# generated using pymatgen
data_CaLaMnRuO6
_symmetry_space_group_name_H-M   'P 1'
_cell_length_a   5.55904645
_cell_length_b   5.71624763
_cell_length_c   9.66349442
_cell_angle_alpha   90.00000000
_cell_angle_beta   124.94259938
_cell_angle_gamma   90.00000000
_symmetry_Int_Tables_number   1
_chemical_formula_structural   CaLaMnRuO6
_chemical_formula_sum   'Ca2 La2 Mn2 Ru2 O12'
_cell_volume   251.71806530
_cell_formula_units_Z   2
loop_
 _symmetry_equiv_pos_site_id
 _symmetry_equiv_pos_as_xyz
  1  'x, y, z'
loop_
 _atom_site_type_symbol
 _atom_site_label
 _atom_site_symmetry_multiplicity
 _atom_site_fract_x
 _atom_site_fract_y
 _atom_site_fract_z
 _atom_site_occupancy
  Ca  Ca0  1  0.765722  0.805665  0.250358  1
  Ca  Ca1  1  0.765722  0.194335  0.750358  1
  La  La2  1  0.239294  0.296832  0.250735  1
  La  La3  1  0.239294  0.703168  0.750735  1
  Mn  Mn4  1  0.499117  0.751610  0.499487  1
  Mn  Mn5  1  0.499117  0.248390  0.999487  1
  Ru  Ru6  1  0.000640  0.750753  0.000804  1
  Ru  Ru7  1  0.000640  0.249247  0.500804  1
  O  O8  1  0.665773  0.783439  0.759612  1
  O  O9  1  0.856590  0.035322  0.052854  1
  O  O10  1  0.233258  0.048612  0.449822  1
  O  O11  1  0.762012  0.555935  0.050888  1
  O  O12  1  0.136322  0.536828  0.445884  1
  O  O13  1  0.341271  0.280477  0.739555  1
  O  O14  1  0.665773  0.216561  0.259612  1
  O  O15  1  0.856590  0.964678  0.552854  1
  O  O16  1  0.233258  0.951388  0.949822  1
  O  O17  1  0.762012  0.444065  0.550888  1
  O  O18  1  0.136322  0.463172  0.945884  1
  O  O19  1  0.341271  0.719523  0.239555  1
