# generated using pymatgen
data_BaTm2ZnO5
_symmetry_space_group_name_H-M   'P 1'
_cell_length_a   5.70234756
_cell_length_b   7.06470566
_cell_length_c   12.30351913
_cell_angle_alpha   90.00000000
_cell_angle_beta   90.00000000
_cell_angle_gamma   90.00000000
_symmetry_Int_Tables_number   1
_chemical_formula_structural   BaTm2ZnO5
_chemical_formula_sum   'Ba4 Tm8 Zn4 O20'
_cell_volume   495.65227670
_cell_formula_units_Z   4
loop_
 _symmetry_equiv_pos_site_id
 _symmetry_equiv_pos_as_xyz
  1  'x, y, z'
loop_
 _atom_site_type_symbol
 _atom_site_label
 _atom_site_symmetry_multiplicity
 _atom_site_fract_x
 _atom_site_fract_y
 _atom_site_fract_z
 _atom_site_occupancy
  Ba  Ba0  1  0.750000  0.078181  0.101897  1
  Ba  Ba1  1  0.750000  0.421819  0.601897  1
  Ba  Ba2  1  0.250000  0.578181  0.398103  1
  Ba  Ba3  1  0.250000  0.921819  0.898103  1
  Tm  Tm4  1  0.250000  0.400542  0.074326  1
  Tm  Tm5  1  0.750000  0.619439  0.208187  1
  Tm  Tm6  1  0.750000  0.880561  0.708187  1
  Tm  Tm7  1  0.250000  0.119439  0.291813  1
  Tm  Tm8  1  0.750000  0.599458  0.925674  1
  Tm  Tm9  1  0.750000  0.900542  0.425674  1
  Tm  Tm10  1  0.250000  0.099458  0.574326  1
  Tm  Tm11  1  0.250000  0.380561  0.791813  1
  Zn  Zn12  1  0.250000  0.808521  0.150257  1
  Zn  Zn13  1  0.750000  0.191479  0.849743  1
  Zn  Zn14  1  0.750000  0.308521  0.349743  1
  Zn  Zn15  1  0.250000  0.691479  0.650257  1
  O  O16  1  0.250000  0.420762  0.601682  1
  O  O17  1  0.750000  0.579238  0.398318  1
  O  O18  1  0.750000  0.920762  0.898318  1
  O  O19  1  0.250000  0.079238  0.101682  1
  O  O20  1  0.998781  0.861176  0.275474  1
  O  O21  1  0.498781  0.138824  0.724526  1
  O  O22  1  0.001219  0.361176  0.224526  1
  O  O23  1  0.501219  0.638824  0.775474  1
  O  O24  1  0.001219  0.138824  0.724526  1
  O  O25  1  0.501219  0.861176  0.275474  1
  O  O26  1  0.998781  0.638824  0.775474  1
  O  O27  1  0.498781  0.361176  0.224526  1
  O  O28  1  0.500444  0.661323  0.066251  1
  O  O29  1  0.000444  0.338677  0.933749  1
  O  O30  1  0.499556  0.161323  0.433749  1
  O  O31  1  0.999556  0.838677  0.566251  1
  O  O32  1  0.000444  0.161323  0.433749  1
  O  O33  1  0.500444  0.838677  0.566251  1
  O  O34  1  0.999556  0.661323  0.066251  1
  O  O35  1  0.499556  0.338677  0.933749  1
