# generated using pymatgen
data_Fe5SnO8
_symmetry_space_group_name_H-M   'P 1'
_cell_length_a   6.22444865
_cell_length_b   6.22444865
_cell_length_c   6.22444865
_cell_angle_alpha   58.82610757
_cell_angle_beta   58.82610757
_cell_angle_gamma   58.82610757
_symmetry_Int_Tables_number   1
_chemical_formula_structural   Fe5SnO8
_chemical_formula_sum   'Fe5 Sn1 O8'
_cell_volume   165.95408982
_cell_formula_units_Z   1
loop_
 _symmetry_equiv_pos_site_id
 _symmetry_equiv_pos_as_xyz
  1  'x, y, z'
loop_
 _atom_site_type_symbol
 _atom_site_label
 _atom_site_symmetry_multiplicity
 _atom_site_fract_x
 _atom_site_fract_y
 _atom_site_fract_z
 _atom_site_occupancy
  Fe  Fe0  1  0.870557  0.870557  0.870557  1
  Fe  Fe1  1  0.129443  0.129443  0.129443  1
  Fe  Fe2  1  0.000000  0.500000  0.500000  1
  Fe  Fe3  1  0.500000  0.000000  0.500000  1
  Fe  Fe4  1  0.500000  0.500000  0.000000  1
  Sn  Sn5  1  0.500000  0.500000  0.500000  1
  O  O6  1  0.258703  0.258703  0.739080  1
  O  O7  1  0.258703  0.739080  0.258703  1
  O  O8  1  0.739080  0.258703  0.258703  1
  O  O9  1  0.253428  0.253428  0.253428  1
  O  O10  1  0.746572  0.746572  0.746572  1
  O  O11  1  0.260920  0.741297  0.741297  1
  O  O12  1  0.741297  0.260920  0.741297  1
  O  O13  1  0.741297  0.741297  0.260920  1
