# generated using pymatgen
data_Ba11(Nb3S14)2
_symmetry_space_group_name_H-M   'P 1'
_cell_length_a   7.02025317
_cell_length_b   12.03567382
_cell_length_c   14.62810648
_cell_angle_alpha   98.11874560
_cell_angle_beta   103.63682975
_cell_angle_gamma   90.33056880
_symmetry_Int_Tables_number   1
_chemical_formula_structural   Ba11(Nb3S14)2
_chemical_formula_sum   'Ba11 Nb6 S28'
_cell_volume   1188.11777939
_cell_formula_units_Z   1
loop_
 _symmetry_equiv_pos_site_id
 _symmetry_equiv_pos_as_xyz
  1  'x, y, z'
loop_
 _atom_site_type_symbol
 _atom_site_label
 _atom_site_symmetry_multiplicity
 _atom_site_fract_x
 _atom_site_fract_y
 _atom_site_fract_z
 _atom_site_occupancy
  Ba  Ba0  1  0.102496  0.033420  0.215395  1
  Ba  Ba1  1  0.305042  0.105489  0.605514  1
  Ba  Ba2  1  0.609362  0.533751  0.211286  1
  Ba  Ba3  1  0.801899  0.593983  0.603531  1
  Ba  Ba4  1  0.965587  0.657984  0.995771  1
  Ba  Ba5  1  0.988100  0.280850  0.001346  1
  Ba  Ba6  1  0.197585  0.399689  0.397419  1
  Ba  Ba7  1  0.393532  0.460954  0.787942  1
  Ba  Ba8  1  0.497752  0.854669  0.007147  1
  Ba  Ba9  1  0.697516  0.899819  0.396149  1
  Ba  Ba10  1  0.889090  0.965342  0.785321  1
  Nb  Nb11  1  0.625400  0.216405  0.266768  1
  Nb  Nb12  1  0.760238  0.243444  0.500136  1
  Nb  Nb13  1  0.864863  0.292103  0.735262  1
  Nb  Nb14  1  0.135680  0.701419  0.264167  1
  Nb  Nb15  1  0.253808  0.755711  0.499680  1
  Nb  Nb16  1  0.354441  0.787559  0.732438  1
  S  S17  1  0.861936  0.283855  0.199276  1
  S  S18  1  0.601019  0.028164  0.204872  1
  S  S19  1  0.342477  0.283284  0.184921  1
  S  S20  1  0.950979  0.151296  0.400424  1
  S  S21  1  0.696189  0.395038  0.397034  1
  S  S22  1  0.452455  0.155139  0.398482  1
  S  S23  1  0.045011  0.353134  0.606627  1
  S  S24  1  0.798612  0.100772  0.603110  1
  S  S25  1  0.567703  0.352045  0.609334  1
  S  S26  1  0.155114  0.213287  0.806939  1
  S  S27  1  0.921233  0.468192  0.825635  1
  S  S28  1  0.648766  0.215100  0.808299  1
  S  S29  1  0.615822  0.448050  0.000232  1
  S  S30  1  0.334153  0.786251  0.184556  1
  S  S31  1  0.839517  0.778787  0.189692  1
  S  S32  1  0.102101  0.525739  0.173451  1
  S  S33  1  0.435477  0.648494  0.390160  1
  S  S34  1  0.197076  0.896950  0.395819  1
  S  S35  1  0.956460  0.646554  0.390483  1
  S  S36  1  0.548325  0.846753  0.600668  1
  S  S37  1  0.296750  0.604309  0.602847  1
  S  S38  1  0.053206  0.845504  0.601959  1
  S  S39  1  0.652734  0.717869  0.809274  1
  S  S40  1  0.401222  0.971233  0.802744  1
  S  S41  1  0.150782  0.722786  0.818172  1
  S  S42  1  0.846725  0.008442  0.999722  1
  S  S43  1  0.454237  0.594064  0.998039  1
  S  S44  1  0.144401  0.008147  0.000310  1
