# generated using pymatgen
data_RbTaPS6
_symmetry_space_group_name_H-M   'P 1'
_cell_length_a   14.45882685
_cell_length_b   18.03059628
_cell_length_c   18.32488463
_cell_angle_alpha   90.00000000
_cell_angle_beta   122.40255900
_cell_angle_gamma   90.00000000
_symmetry_Int_Tables_number   1
_chemical_formula_structural   RbTaPS6
_chemical_formula_sum   'Rb16 Ta16 P16 S96'
_cell_volume   4033.51093252
_cell_formula_units_Z   16
loop_
 _symmetry_equiv_pos_site_id
 _symmetry_equiv_pos_as_xyz
  1  'x, y, z'
loop_
 _atom_site_type_symbol
 _atom_site_label
 _atom_site_symmetry_multiplicity
 _atom_site_fract_x
 _atom_site_fract_y
 _atom_site_fract_z
 _atom_site_occupancy
  Rb  Rb0  1  0.957976  0.374190  0.511097  1
  Rb  Rb1  1  0.042024  0.625810  0.488903  1
  Rb  Rb2  1  0.192707  0.932401  0.544577  1
  Rb  Rb3  1  0.807293  0.432401  0.955423  1
  Rb  Rb4  1  0.639782  0.484582  0.628788  1
  Rb  Rb5  1  0.332914  0.327576  0.977218  1
  Rb  Rb6  1  0.667086  0.672424  0.022782  1
  Rb  Rb7  1  0.360218  0.984582  0.871212  1
  Rb  Rb8  1  0.639782  0.015418  0.128788  1
  Rb  Rb9  1  0.667086  0.827576  0.522782  1
  Rb  Rb10  1  0.042024  0.874190  0.988903  1
  Rb  Rb11  1  0.192707  0.567599  0.044577  1
  Rb  Rb12  1  0.807293  0.067599  0.455423  1
  Rb  Rb13  1  0.360218  0.515418  0.371212  1
  Rb  Rb14  1  0.332914  0.172424  0.477218  1
  Rb  Rb15  1  0.957976  0.125810  0.011097  1
  Ta  Ta16  1  0.994405  0.387859  0.246234  1
  Ta  Ta17  1  0.005595  0.887859  0.253766  1
  Ta  Ta18  1  0.476805  0.287027  0.269368  1
  Ta  Ta19  1  0.663236  0.877846  0.835535  1
  Ta  Ta20  1  0.336764  0.122154  0.164465  1
  Ta  Ta21  1  0.005595  0.612141  0.753766  1
  Ta  Ta22  1  0.168025  0.723107  0.305191  1
  Ta  Ta23  1  0.168025  0.776893  0.805191  1
  Ta  Ta24  1  0.523195  0.712973  0.730632  1
  Ta  Ta25  1  0.831975  0.276893  0.694809  1
  Ta  Ta26  1  0.336764  0.377846  0.664465  1
  Ta  Ta27  1  0.523195  0.787027  0.230632  1
  Ta  Ta28  1  0.994405  0.112141  0.746234  1
  Ta  Ta29  1  0.663236  0.622154  0.335535  1
  Ta  Ta30  1  0.831975  0.223107  0.194809  1
  Ta  Ta31  1  0.476805  0.212973  0.769368  1
  P  P32  1  0.975138  0.558662  0.167687  1
  P  P33  1  0.975138  0.941338  0.667687  1
  P  P34  1  0.644595  0.212421  0.984648  1
  P  P35  1  0.024862  0.441338  0.832313  1
  P  P36  1  0.024862  0.058662  0.332313  1
  P  P37  1  0.797419  0.610370  0.548617  1
  P  P38  1  0.644595  0.287579  0.484648  1
  P  P39  1  0.202581  0.110370  0.951383  1
  P  P40  1  0.202581  0.389630  0.451383  1
  P  P41  1  0.355405  0.712421  0.515352  1
  P  P42  1  0.516121  0.955175  0.302177  1
  P  P43  1  0.483879  0.455175  0.197823  1
  P  P44  1  0.483879  0.044825  0.697823  1
  P  P45  1  0.355405  0.787579  0.015352  1
  P  P46  1  0.797419  0.889630  0.048617  1
  P  P47  1  0.516121  0.544825  0.802177  1
  S  S48  1  0.955518  0.200034  0.644106  1
  S  S49  1  0.970530  0.286205  0.333222  1
  S  S50  1  0.774267  0.957444  0.828983  1
  S  S51  1  0.481095  0.550629  0.261337  1
  S  S52  1  0.663431  0.211337  0.575064  1
  S  S53  1  0.199488  0.346578  0.346119  1
  S  S54  1  0.345402  0.440986  0.541816  1
  S  S55  1  0.995417  0.136278  0.237502  1
  S  S56  1  0.288710  0.265053  0.725547  1
  S  S57  1  0.800512  0.653422  0.653881  1
  S  S58  1  0.668294  0.256470  0.891989  1
  S  S59  1  0.490991  0.332457  0.415037  1
  S  S60  1  0.097917  0.478391  0.211455  1
  S  S61  1  0.515430  0.716461  0.329823  1
  S  S62  1  0.647402  0.891522  0.316232  1
  S  S63  1  0.225733  0.457444  0.671017  1
  S  S64  1  0.288710  0.234947  0.225547  1
  S  S65  1  0.933325  0.543027  0.604918  1
  S  S66  1  0.955518  0.299966  0.144106  1
  S  S67  1  0.769416  0.360336  0.564707  1
  S  S68  1  0.066675  0.043027  0.895082  1
  S  S69  1  0.769416  0.139664  0.064707  1
  S  S70  1  0.029470  0.713795  0.666778  1
  S  S71  1  0.197341  0.307940  0.529300  1
  S  S72  1  0.518905  0.449371  0.738663  1
  S  S73  1  0.345402  0.059014  0.041816  1
  S  S74  1  0.071532  0.101926  0.446588  1
  S  S75  1  0.774267  0.542556  0.328983  1
  S  S76  1  0.140602  0.989178  0.331161  1
  S  S77  1  0.606948  0.116504  0.783668  1
  S  S78  1  0.766486  0.161385  0.261552  1
  S  S79  1  0.066675  0.456973  0.395082  1
  S  S80  1  0.526574  0.979162  0.411538  1
  S  S81  1  0.197341  0.192060  0.029300  1
  S  S82  1  0.970530  0.213795  0.833222  1
  S  S83  1  0.352598  0.108478  0.683768  1
  S  S84  1  0.097917  0.021609  0.711455  1
  S  S85  1  0.711290  0.765053  0.774453  1
  S  S86  1  0.336569  0.711337  0.924936  1
  S  S87  1  0.044482  0.799966  0.355894  1
  S  S88  1  0.802659  0.807940  0.970700  1
  S  S89  1  0.233514  0.661385  0.238448  1
  S  S90  1  0.509009  0.667543  0.584963  1
  S  S91  1  0.928468  0.601926  0.053412  1
  S  S92  1  0.800512  0.846578  0.153881  1
  S  S93  1  0.484570  0.216461  0.170177  1
  S  S94  1  0.663431  0.288663  0.075064  1
  S  S95  1  0.004583  0.863722  0.762498  1
  S  S96  1  0.199488  0.153422  0.846119  1
  S  S97  1  0.230584  0.860336  0.935293  1
  S  S98  1  0.859398  0.489178  0.168839  1
  S  S99  1  0.071532  0.398074  0.946588  1
  S  S100  1  0.140602  0.510822  0.831161  1
  S  S101  1  0.933325  0.956973  0.104918  1
  S  S102  1  0.654598  0.559014  0.458184  1
  S  S103  1  0.802659  0.692060  0.470700  1
  S  S104  1  0.473426  0.020838  0.588462  1
  S  S105  1  0.044482  0.700034  0.855894  1
  S  S106  1  0.654598  0.940986  0.958184  1
  S  S107  1  0.490991  0.167543  0.915037  1
  S  S108  1  0.029470  0.786205  0.166778  1
  S  S109  1  0.166411  0.850143  0.240955  1
  S  S110  1  0.928468  0.898074  0.553412  1
  S  S111  1  0.233514  0.838615  0.738448  1
  S  S112  1  0.331706  0.756470  0.608011  1
  S  S113  1  0.606948  0.383496  0.283668  1
  S  S114  1  0.859398  0.010822  0.668839  1
  S  S115  1  0.584217  0.830088  0.684652  1
  S  S116  1  0.902083  0.521609  0.788545  1
  S  S117  1  0.833589  0.350143  0.259045  1
  S  S118  1  0.711290  0.734947  0.274453  1
  S  S119  1  0.647402  0.608478  0.816232  1
  S  S120  1  0.584217  0.669912  0.184652  1
  S  S121  1  0.393052  0.616504  0.716332  1
  S  S122  1  0.166411  0.649857  0.740955  1
  S  S123  1  0.415783  0.330088  0.815348  1
  S  S124  1  0.481095  0.949371  0.761337  1
  S  S125  1  0.518905  0.050629  0.238663  1
  S  S126  1  0.766486  0.338615  0.761552  1
  S  S127  1  0.484570  0.283539  0.670177  1
  S  S128  1  0.336569  0.788663  0.424936  1
  S  S129  1  0.415783  0.169912  0.315348  1
  S  S130  1  0.995417  0.363722  0.737502  1
  S  S131  1  0.230584  0.639664  0.435293  1
  S  S132  1  0.902083  0.978391  0.288545  1
  S  S133  1  0.833589  0.149857  0.759045  1
  S  S134  1  0.473426  0.479162  0.088462  1
  S  S135  1  0.393052  0.883496  0.216332  1
  S  S136  1  0.509009  0.832457  0.084963  1
  S  S137  1  0.526574  0.520838  0.911538  1
  S  S138  1  0.668294  0.243530  0.391989  1
  S  S139  1  0.331706  0.743530  0.108011  1
  S  S140  1  0.352598  0.391522  0.183768  1
  S  S141  1  0.515430  0.783539  0.829823  1
  S  S142  1  0.004583  0.636278  0.262498  1
  S  S143  1  0.225733  0.042556  0.171017  1
