# generated using pymatgen
data_FeP3(HO2)6
_symmetry_space_group_name_H-M   'P 1'
_cell_length_a   9.89922325
_cell_length_b   9.89922325
_cell_length_c   9.89922325
_cell_angle_alpha   51.67742266
_cell_angle_beta   51.67742266
_cell_angle_gamma   51.67742266
_symmetry_Int_Tables_number   1
_chemical_formula_structural   FeP3(HO2)6
_chemical_formula_sum   'Fe2 P6 H12 O24'
_cell_volume   551.60376859
_cell_formula_units_Z   2
loop_
 _symmetry_equiv_pos_site_id
 _symmetry_equiv_pos_as_xyz
  1  'x, y, z'
loop_
 _atom_site_type_symbol
 _atom_site_label
 _atom_site_symmetry_multiplicity
 _atom_site_fract_x
 _atom_site_fract_y
 _atom_site_fract_z
 _atom_site_occupancy
  Fe  Fe0  1  0.000000  0.000000  0.000000  1
  Fe  Fe1  1  0.500000  0.500000  0.500000  1
  P  P2  1  0.656654  0.250000  0.843346  1
  P  P3  1  0.250000  0.843346  0.656654  1
  P  P4  1  0.343346  0.750000  0.156654  1
  P  P5  1  0.843346  0.656654  0.250000  1
  P  P6  1  0.750000  0.156654  0.343346  1
  P  P7  1  0.156654  0.343346  0.750000  1
  H  H8  1  0.847993  0.436186  0.516903  1
  H  H9  1  0.563814  0.483097  0.152007  1
  H  H10  1  0.436186  0.516903  0.847993  1
  H  H11  1  0.516903  0.847993  0.436186  1
  H  H12  1  0.936186  0.347993  0.016903  1
  H  H13  1  0.016903  0.936186  0.347993  1
  H  H14  1  0.152007  0.563814  0.483097  1
  H  H15  1  0.483097  0.152007  0.563814  1
  H  H16  1  0.652007  0.983097  0.063814  1
  H  H17  1  0.347993  0.016903  0.936186  1
  H  H18  1  0.063814  0.652007  0.983097  1
  H  H19  1  0.983097  0.063814  0.652007  1
  O  O20  1  0.516445  0.410844  0.919013  1
  O  O21  1  0.483555  0.589156  0.080987  1
  O  O22  1  0.983555  0.580987  0.089156  1
  O  O23  1  0.148168  0.826040  0.166775  1
  O  O24  1  0.351832  0.333225  0.673960  1
  O  O25  1  0.851832  0.173960  0.833225  1
  O  O26  1  0.580987  0.089156  0.983555  1
  O  O27  1  0.016445  0.419013  0.910844  1
  O  O28  1  0.089156  0.983555  0.580987  1
  O  O29  1  0.333225  0.673960  0.351832  1
  O  O30  1  0.410844  0.919013  0.516445  1
  O  O31  1  0.673960  0.351832  0.333225  1
  O  O32  1  0.326040  0.648168  0.666775  1
  O  O33  1  0.166775  0.148168  0.826040  1
  O  O34  1  0.080987  0.483555  0.589156  1
  O  O35  1  0.419013  0.910844  0.016445  1
  O  O36  1  0.833225  0.851832  0.173960  1
  O  O37  1  0.648168  0.666775  0.326040  1
  O  O38  1  0.589156  0.080987  0.483555  1
  O  O39  1  0.666775  0.326040  0.648168  1
  O  O40  1  0.173960  0.833225  0.851832  1
  O  O41  1  0.826040  0.166775  0.148168  1
  O  O42  1  0.919013  0.516445  0.410844  1
  O  O43  1  0.910844  0.016445  0.419013  1
