# generated using pymatgen
data_Tb8O13
_symmetry_space_group_name_H-M   'P 1'
_cell_length_a   9.36972528
_cell_length_b   9.39560130
_cell_length_c   9.44104634
_cell_angle_alpha   108.66311721
_cell_angle_beta   111.40925629
_cell_angle_gamma   108.08350641
_symmetry_Int_Tables_number   1
_chemical_formula_structural   Tb8O13
_chemical_formula_sum   'Tb16 O26'
_cell_volume   641.36862277
_cell_formula_units_Z   2
loop_
 _symmetry_equiv_pos_site_id
 _symmetry_equiv_pos_as_xyz
  1  'x, y, z'
loop_
 _atom_site_type_symbol
 _atom_site_label
 _atom_site_symmetry_multiplicity
 _atom_site_fract_x
 _atom_site_fract_y
 _atom_site_fract_z
 _atom_site_occupancy
  Tb  Tb0  1  0.274587  0.527024  0.744535  1
  Tb  Tb1  1  0.192603  0.725918  0.478887  1
  Tb  Tb2  1  0.010668  0.492619  0.021345  1
  Tb  Tb3  1  0.999453  0.773528  0.740327  1
  Tb  Tb4  1  0.473365  0.729417  0.220418  1
  Tb  Tb5  1  0.240869  0.969993  0.264088  1
  Tb  Tb6  1  0.755654  0.768084  0.974002  1
  Tb  Tb7  1  0.490765  0.995238  0.008753  1
  Tb  Tb8  1  0.525794  0.500032  0.512201  1
  Tb  Tb9  1  0.267157  0.267910  0.007793  1
  Tb  Tb10  1  0.812413  0.039182  0.773834  1
  Tb  Tb11  1  0.524637  0.264335  0.746126  1
  Tb  Tb12  1  0.984339  0.247049  0.259712  1
  Tb  Tb13  1  0.998701  0.003737  0.491982  1
  Tb  Tb14  1  0.729309  0.219727  0.483045  1
  Tb  Tb15  1  0.732468  0.468063  0.249014  1
  O  O16  1  0.023729  0.269207  0.539066  1
  O  O17  1  0.267607  0.503395  0.480032  1
  O  O18  1  0.990886  0.993213  0.239241  1
  O  O19  1  0.041732  0.254535  0.043235  1
  O  O20  1  0.228191  0.482245  0.953853  1
  O  O21  1  0.502403  0.492270  0.752077  1
  O  O22  1  0.241520  0.755373  0.746870  1
  O  O23  1  0.267895  0.011074  0.542482  1
  O  O24  1  0.531374  0.757900  0.018428  1
  O  O25  1  0.262029  0.736239  0.274618  1
  O  O26  1  0.248941  0.024052  0.040965  1
  O  O27  1  0.713303  0.008660  0.955228  1
  O  O28  1  0.483895  0.234509  0.962770  1
  O  O29  1  0.479466  0.983057  0.237720  1
  O  O30  1  0.727650  0.956450  0.472001  1
  O  O31  1  0.474651  0.238929  0.471467  1
  O  O32  1  0.739092  0.232091  0.249950  1
  O  O33  1  0.502717  0.507840  0.265792  1
  O  O34  1  0.757896  0.535934  0.025857  1
  O  O35  1  0.974749  0.484453  0.239934  1
  O  O36  1  0.001099  0.722495  0.972798  1
  O  O37  1  0.763813  0.256963  0.756386  1
  O  O38  1  0.042442  0.035967  0.754093  1
  O  O39  1  0.787913  0.494759  0.537632  1
  O  O40  1  0.742331  0.767280  0.727560  1
  O  O41  1  0.950694  0.740551  0.460185  1
