# generated using pymatgen
data_K2NaVOF5
_symmetry_space_group_name_H-M   'P 1'
_cell_length_a   5.95471672
_cell_length_b   5.95471672
_cell_length_c   5.95471672
_cell_angle_alpha   119.48426289
_cell_angle_beta   119.48426289
_cell_angle_gamma   90.89562843
_symmetry_Int_Tables_number   1
_chemical_formula_structural   K2NaVOF5
_chemical_formula_sum   'K2 Na1 V1 O1 F5'
_cell_volume   150.44689855
_cell_formula_units_Z   1
loop_
 _symmetry_equiv_pos_site_id
 _symmetry_equiv_pos_as_xyz
  1  'x, y, z'
loop_
 _atom_site_type_symbol
 _atom_site_label
 _atom_site_symmetry_multiplicity
 _atom_site_fract_x
 _atom_site_fract_y
 _atom_site_fract_z
 _atom_site_occupancy
  K  K0  1  0.748645  0.248645  0.500000  1
  K  K1  1  0.248645  0.748645  0.500000  1
  Na  Na2  1  0.498300  0.498300  0.000000  1
  V  V3  1  0.981197  0.981197  0.000000  1
  O  O4  1  0.779955  0.779955  0.000000  1
  F  F5  1  0.235475  0.235475  0.461886  1
  F  F6  1  0.773589  0.235475  0.000000  1
  F  F7  1  0.235475  0.773589  0.000000  1
  F  F8  1  0.773589  0.773589  0.538114  1
  F  F9  1  0.225130  0.225130  0.000000  1
