# generated using pymatgen
data_Cs2Te(MoO4)3
_symmetry_space_group_name_H-M   'P 1'
_cell_length_a   7.50964261
_cell_length_b   7.50964261
_cell_length_c   12.64107040
_cell_angle_alpha   90.00000000
_cell_angle_beta   90.00000000
_cell_angle_gamma   120.00000000
_symmetry_Int_Tables_number   1
_chemical_formula_structural   Cs2Te(MoO4)3
_chemical_formula_sum   'Cs4 Te2 Mo6 O24'
_cell_volume   617.38065800
_cell_formula_units_Z   2
loop_
 _symmetry_equiv_pos_site_id
 _symmetry_equiv_pos_as_xyz
  1  'x, y, z'
loop_
 _atom_site_type_symbol
 _atom_site_label
 _atom_site_symmetry_multiplicity
 _atom_site_fract_x
 _atom_site_fract_y
 _atom_site_fract_z
 _atom_site_occupancy
  Cs  Cs0  1  0.666667  0.333333  0.229005  1
  Cs  Cs1  1  0.666667  0.333333  0.596940  1
  Cs  Cs2  1  0.333333  0.666667  0.729005  1
  Cs  Cs3  1  0.333333  0.666667  0.096940  1
  Te  Te4  1  0.000000  0.000000  0.162198  1
  Te  Te5  1  0.000000  0.000000  0.662198  1
  Mo  Mo6  1  0.859687  0.661878  0.895458  1
  Mo  Mo7  1  0.338122  0.197809  0.895458  1
  Mo  Mo8  1  0.661878  0.802191  0.395458  1
  Mo  Mo9  1  0.802191  0.140313  0.895458  1
  Mo  Mo10  1  0.140313  0.338122  0.395458  1
  Mo  Mo11  1  0.197809  0.859687  0.395458  1
  O  O12  1  0.910933  0.454885  0.858360  1
  O  O13  1  0.123858  0.874427  0.905765  1
  O  O14  1  0.259903  0.117076  0.732118  1
  O  O15  1  0.798759  0.612789  0.030684  1
  O  O16  1  0.089067  0.545115  0.358360  1
  O  O17  1  0.456047  0.910933  0.358360  1
  O  O18  1  0.857173  0.740097  0.732118  1
  O  O19  1  0.612789  0.814031  0.530684  1
  O  O20  1  0.249431  0.123858  0.405765  1
  O  O21  1  0.125573  0.249431  0.905765  1
  O  O22  1  0.876142  0.125573  0.405765  1
  O  O23  1  0.185969  0.798759  0.530684  1
  O  O24  1  0.142827  0.259903  0.232118  1
  O  O25  1  0.874427  0.750569  0.405765  1
  O  O26  1  0.117076  0.857173  0.232118  1
  O  O27  1  0.740097  0.882924  0.232118  1
  O  O28  1  0.545115  0.456047  0.858360  1
  O  O29  1  0.454885  0.543953  0.358360  1
  O  O30  1  0.543953  0.089067  0.858360  1
  O  O31  1  0.201241  0.387211  0.530684  1
  O  O32  1  0.882924  0.142827  0.732118  1
  O  O33  1  0.387211  0.185969  0.030684  1
  O  O34  1  0.814031  0.201241  0.030684  1
  O  O35  1  0.750569  0.876142  0.905765  1
