# generated using pymatgen
data_Ba11In6O3
_symmetry_space_group_name_H-M   'P 1'
_cell_length_a   12.41960732
_cell_length_b   12.41960732
_cell_length_c   12.41960732
_cell_angle_alpha   101.87081274
_cell_angle_beta   101.87081274
_cell_angle_gamma   126.05691585
_symmetry_Int_Tables_number   1
_chemical_formula_structural   Ba11In6O3
_chemical_formula_sum   'Ba22 In12 O6'
_cell_volume   1380.25139493
_cell_formula_units_Z   2
loop_
 _symmetry_equiv_pos_site_id
 _symmetry_equiv_pos_as_xyz
  1  'x, y, z'
loop_
 _atom_site_type_symbol
 _atom_site_label
 _atom_site_symmetry_multiplicity
 _atom_site_fract_x
 _atom_site_fract_y
 _atom_site_fract_z
 _atom_site_occupancy
  Ba  Ba0  1  0.922902  0.173163  0.500000  1
  Ba  Ba1  1  0.673163  0.422902  0.500000  1
  Ba  Ba2  1  0.729879  0.770121  0.500000  1
  Ba  Ba3  1  0.270121  0.229879  0.500000  1
  Ba  Ba4  1  0.376409  0.123591  0.000000  1
  Ba  Ba5  1  0.376409  0.376409  0.252819  1
  Ba  Ba6  1  0.623591  0.623591  0.747181  1
  Ba  Ba7  1  0.826837  0.326837  0.749739  1
  Ba  Ba8  1  0.229879  0.729879  0.959757  1
  Ba  Ba9  1  0.623591  0.876409  0.000000  1
  Ba  Ba10  1  0.770121  0.270121  0.040243  1
  Ba  Ba11  1  0.173163  0.673163  0.250261  1
  Ba  Ba12  1  0.123591  0.123591  0.747181  1
  Ba  Ba13  1  0.876409  0.623591  0.000000  1
  Ba  Ba14  1  0.077098  0.826837  0.500000  1
  Ba  Ba15  1  0.500000  0.500000  0.000000  1
  Ba  Ba16  1  0.123591  0.376409  0.000000  1
  Ba  Ba17  1  0.422902  0.922902  0.749739  1
  Ba  Ba18  1  0.326837  0.577098  0.500000  1
  Ba  Ba19  1  0.000000  0.000000  0.000000  1
  Ba  Ba20  1  0.876409  0.876409  0.252819  1
  Ba  Ba21  1  0.577098  0.077098  0.250261  1
  In  In22  1  0.998984  0.242699  0.241683  1
  In  In23  1  0.257301  0.501016  0.758317  1
  In  In24  1  0.065708  0.565708  0.631416  1
  In  In25  1  0.565708  0.934292  0.500000  1
  In  In26  1  0.501016  0.742699  0.243715  1
  In  In27  1  0.498984  0.257301  0.756285  1
  In  In28  1  0.934292  0.434292  0.368584  1
  In  In29  1  0.757301  0.998984  0.756285  1
  In  In30  1  0.242699  0.001016  0.243715  1
  In  In31  1  0.001016  0.757301  0.758317  1
  In  In32  1  0.742699  0.498984  0.241683  1
  In  In33  1  0.434292  0.065708  0.500000  1
  O  O34  1  0.500000  0.500000  0.500000  1
  O  O35  1  0.250000  0.250000  0.000000  1
  O  O36  1  0.500000  0.000000  0.000000  1
  O  O37  1  0.750000  0.750000  0.000000  1
  O  O38  1  0.000000  0.000000  0.500000  1
  O  O39  1  1.000000  0.500000  0.000000  1
