# generated using pymatgen
data_Y2Th8O19
_symmetry_space_group_name_H-M   'P 1'
_cell_length_a   3.95681867
_cell_length_b   3.95681867
_cell_length_c   27.94028507
_cell_angle_alpha   89.95876784
_cell_angle_beta   90.04123216
_cell_angle_gamma   89.99988847
_symmetry_Int_Tables_number   1
_chemical_formula_structural   Y2Th8O19
_chemical_formula_sum   'Y2 Th8 O19'
_cell_volume   437.44444286
_cell_formula_units_Z   1
loop_
 _symmetry_equiv_pos_site_id
 _symmetry_equiv_pos_as_xyz
  1  'x, y, z'
loop_
 _atom_site_type_symbol
 _atom_site_label
 _atom_site_symmetry_multiplicity
 _atom_site_fract_x
 _atom_site_fract_y
 _atom_site_fract_z
 _atom_site_occupancy
  Y  Y0  1  0.999596  0.507386  0.055779  1
  Y  Y1  1  0.507386  0.999596  0.944221  1
  Th  Th2  1  0.001184  0.501019  0.852044  1
  Th  Th3  1  0.498422  0.001297  0.750863  1
  Th  Th4  1  0.997759  0.499404  0.650428  1
  Th  Th5  1  0.497170  0.998723  0.550207  1
  Th  Th6  1  0.998723  0.497170  0.449793  1
  Th  Th7  1  0.499404  0.997759  0.349572  1
  Th  Th8  1  0.001297  0.498422  0.249137  1
  Th  Th9  1  0.501019  0.001184  0.147956  1
  O  O10  1  0.499829  0.501646  0.803503  1
  O  O11  1  0.998132  0.000140  0.700135  1
  O  O12  1  0.497936  0.498433  0.600292  1
  O  O13  1  0.997753  0.997753  0.500000  1
  O  O14  1  0.498433  0.497936  0.399708  1
  O  O15  1  0.000140  0.998132  0.299865  1
  O  O16  1  0.501646  0.499829  0.196497  1
  O  O17  1  0.000042  0.003329  0.102841  1
  O  O18  1  0.000783  0.998027  0.200952  1
  O  O19  1  0.499813  0.503701  0.091060  1
  O  O20  1  0.995854  0.995854  0.000000  1
  O  O21  1  0.003329  0.000042  0.897159  1
  O  O22  1  0.503701  0.499813  0.908940  1
  O  O23  1  0.998027  0.000783  0.799048  1
  O  O24  1  0.498182  0.500776  0.701286  1
  O  O25  1  0.997652  0.998851  0.600266  1
  O  O26  1  0.497788  0.497788  0.500000  1
  O  O27  1  0.998851  0.997652  0.399734  1
  O  O28  1  0.500776  0.498182  0.298714  1
