# generated using pymatgen
data_Na3Sr4Nd3Ti10O30
_symmetry_space_group_name_H-M   'P 1'
_cell_length_a   5.51325291
_cell_length_b   5.51670730
_cell_length_c   19.89413130
_cell_angle_alpha   97.91678847
_cell_angle_beta   97.87624789
_cell_angle_gamma   89.52653745
_symmetry_Int_Tables_number   1
_chemical_formula_structural   Na3Sr4Nd3Ti10O30
_chemical_formula_sum   'Na3 Sr4 Nd3 Ti10 O30'
_cell_volume   593.62469848
_cell_formula_units_Z   1
loop_
 _symmetry_equiv_pos_site_id
 _symmetry_equiv_pos_as_xyz
  1  'x, y, z'
loop_
 _atom_site_type_symbol
 _atom_site_label
 _atom_site_symmetry_multiplicity
 _atom_site_fract_x
 _atom_site_fract_y
 _atom_site_fract_z
 _atom_site_occupancy
  Na  Na0  1  0.858373  0.350516  0.699538  1
  Na  Na1  1  0.251536  0.756632  0.500621  1
  Na  Na2  1  0.644207  0.148733  0.302887  1
  Sr  Sr3  1  0.451679  0.954462  0.899703  1
  Sr  Sr4  1  0.952345  0.451760  0.897472  1
  Sr  Sr5  1  0.049822  0.548274  0.100275  1
  Sr  Sr6  1  0.549344  0.050944  0.100847  1
  Nd  Nd7  1  0.343615  0.842246  0.697199  1
  Nd  Nd8  1  0.737701  0.241725  0.497728  1
  Nd  Nd9  1  0.138839  0.638341  0.300082  1
  Ti  Ti10  1  0.501737  0.503666  0.999754  1
  Ti  Ti11  1  0.399975  0.403185  0.796615  1
  Ti  Ti12  1  0.300287  0.294973  0.598922  1
  Ti  Ti13  1  0.797664  0.796204  0.598042  1
  Ti  Ti14  1  0.694120  0.693143  0.400640  1
  Ti  Ti15  1  0.901037  0.899619  0.795514  1
  Ti  Ti16  1  0.189581  0.195428  0.400673  1
  Ti  Ti17  1  0.097666  0.095984  0.202295  1
  Ti  Ti18  1  0.597106  0.598033  0.202694  1
  Ti  Ti19  1  0.000852  0.002975  0.998934  1
  O  O20  1  0.230871  0.729760  0.992210  1
  O  O21  1  0.471729  0.426431  0.899010  1
  O  O22  1  0.608540  0.107657  0.784777  1
  O  O23  1  0.929492  0.970898  0.899295  1
  O  O24  1  0.891323  0.808191  0.698112  1
  O  O25  1  0.735310  0.766663  0.001035  1
  O  O26  1  0.998949  0.500960  0.581567  1
  O  O27  1  0.667089  0.626340  0.797589  1
  O  O28  1  0.308007  0.394772  0.698281  1
  O  O29  1  0.296225  0.211760  0.500362  1
  O  O30  1  0.127578  0.165191  0.797110  1
  O  O31  1  0.400044  0.902314  0.384662  1
  O  O32  1  0.093365  0.009325  0.602803  1
  O  O33  1  0.714961  0.802933  0.500395  1
  O  O34  1  0.696181  0.622866  0.302665  1
  O  O35  1  0.509785  0.591554  0.600914  1
  O  O36  1  0.179282  0.679202  0.808722  1
  O  O37  1  0.822138  0.322511  0.191988  1
  O  O38  1  0.492692  0.414619  0.403732  1
  O  O39  1  0.122368  0.198405  0.302619  1
  O  O40  1  0.908986  0.996217  0.402604  1
  O  O41  1  0.591627  0.093243  0.613889  1
  O  O42  1  0.891223  0.817542  0.205048  1
  O  O43  1  0.533668  0.575468  0.102275  1
  O  O44  1  0.318434  0.390225  0.204604  1
  O  O45  1  0.992446  0.494735  0.415006  1
  O  O46  1  0.268163  0.235153  0.001784  1
  O  O47  1  0.075258  0.031415  0.102455  1
  O  O48  1  0.382729  0.882624  0.215103  1
  O  O49  1  0.770120  0.269108  0.008297  1
