# generated using pymatgen
data_V6H4O13
_symmetry_space_group_name_H-M   'P 1'
_cell_length_a   6.57448665
_cell_length_b   6.57448665
_cell_length_c   10.11767314
_cell_angle_alpha   79.43011626
_cell_angle_beta   100.56988374
_cell_angle_gamma   143.81089663
_symmetry_Int_Tables_number   1
_chemical_formula_structural   V6H4O13
_chemical_formula_sum   'V6 H4 O13'
_cell_volume   253.36577487
_cell_formula_units_Z   1
loop_
 _symmetry_equiv_pos_site_id
 _symmetry_equiv_pos_as_xyz
  1  'x, y, z'
loop_
 _atom_site_type_symbol
 _atom_site_label
 _atom_site_symmetry_multiplicity
 _atom_site_fract_x
 _atom_site_fract_y
 _atom_site_fract_z
 _atom_site_occupancy
  V  V0  1  0.643302  0.356698  0.998135  1
  V  V1  1  0.356698  0.643302  0.001865  1
  V  V2  1  0.594657  0.405343  0.626883  1
  V  V3  1  0.405343  0.594657  0.373117  1
  V  V4  1  0.288937  0.711063  0.625609  1
  V  V5  1  0.711063  0.288937  0.374391  1
  H  H6  1  0.805854  0.194146  0.878532  1
  H  H7  1  0.194146  0.805854  0.121468  1
  H  H8  1  0.094401  0.905599  0.499643  1
  H  H9  1  0.905599  0.094401  0.500358  1
  O  O10  1  0.816837  0.183163  0.977263  1
  O  O11  1  0.183163  0.816837  0.022737  1
  O  O12  1  0.114380  0.885620  0.598716  1
  O  O13  1  0.885620  0.114380  0.401284  1
  O  O14  1  0.754489  0.245511  0.591730  1
  O  O15  1  0.245511  0.754489  0.408270  1
  O  O16  1  0.500000  0.500000  0.000000  1
  O  O17  1  0.618967  0.381033  0.798835  1
  O  O18  1  0.381033  0.618967  0.201165  1
  O  O19  1  0.314706  0.685294  0.796987  1
  O  O20  1  0.685294  0.314706  0.203013  1
  O  O21  1  0.432329  0.567671  0.578393  1
  O  O22  1  0.567671  0.432329  0.421607  1
