# generated using pymatgen
data_Li5TiP3
_symmetry_space_group_name_H-M   'P 1'
_cell_length_a   7.16224021
_cell_length_b   7.16224021
_cell_length_c   8.23731187
_cell_angle_alpha   73.31453779
_cell_angle_beta   106.68546221
_cell_angle_gamma   131.51977466
_symmetry_Int_Tables_number   1
_chemical_formula_structural   Li5TiP3
_chemical_formula_sum   'Li10 Ti2 P6'
_cell_volume   300.28471062
_cell_formula_units_Z   2
loop_
 _symmetry_equiv_pos_site_id
 _symmetry_equiv_pos_as_xyz
  1  'x, y, z'
loop_
 _atom_site_type_symbol
 _atom_site_label
 _atom_site_symmetry_multiplicity
 _atom_site_fract_x
 _atom_site_fract_y
 _atom_site_fract_z
 _atom_site_occupancy
  Li  Li0  1  0.428541  0.085095  0.096169  1
  Li  Li1  1  0.085095  0.428541  0.403831  1
  Li  Li2  1  0.417198  0.073911  0.575385  1
  Li  Li3  1  0.914905  0.571459  0.596169  1
  Li  Li4  1  0.733594  0.733594  0.750000  1
  Li  Li5  1  0.073911  0.417198  0.924615  1
  Li  Li6  1  0.571459  0.914905  0.903831  1
  Li  Li7  1  0.926089  0.582802  0.075385  1
  Li  Li8  1  0.266406  0.266406  0.250000  1
  Li  Li9  1  0.582802  0.926089  0.424615  1
  Ti  Ti10  1  0.766717  0.766717  0.250000  1
  Ti  Ti11  1  0.233283  0.233283  0.750000  1
  P  P12  1  0.000000  0.000000  0.000000  1
  P  P13  1  0.000000  1.000000  0.500000  1
  P  P14  1  0.624486  0.316737  0.826475  1
  P  P15  1  0.375514  0.683263  0.173525  1
  P  P16  1  0.683263  0.375514  0.326475  1
  P  P17  1  0.316737  0.624486  0.673525  1
