# generated using pymatgen
data_Cu2AsClO4
_symmetry_space_group_name_H-M   'P 1'
_cell_length_a   4.91838313
_cell_length_b   6.66016380
_cell_length_c   6.93260528
_cell_angle_alpha   90.00000000
_cell_angle_beta   91.82924795
_cell_angle_gamma   90.00000000
_symmetry_Int_Tables_number   1
_chemical_formula_structural   Cu2AsClO4
_chemical_formula_sum   'Cu4 As2 Cl2 O8'
_cell_volume   226.97726867
_cell_formula_units_Z   2
loop_
 _symmetry_equiv_pos_site_id
 _symmetry_equiv_pos_as_xyz
  1  'x, y, z'
loop_
 _atom_site_type_symbol
 _atom_site_label
 _atom_site_symmetry_multiplicity
 _atom_site_fract_x
 _atom_site_fract_y
 _atom_site_fract_z
 _atom_site_occupancy
  Cu  Cu0  1  0.641253  0.750000  0.733240  1
  Cu  Cu1  1  0.358747  0.250000  0.266760  1
  Cu  Cu2  1  0.000000  0.000000  0.000000  1
  Cu  Cu3  1  0.000000  0.500000  0.000000  1
  As  As4  1  0.491835  0.250000  0.760294  1
  As  As5  1  0.508165  0.750000  0.239706  1
  Cl  Cl6  1  0.167604  0.750000  0.755437  1
  Cl  Cl7  1  0.832396  0.250000  0.244563  1
  O  O8  1  0.700797  0.457970  0.800107  1
  O  O9  1  0.299203  0.957970  0.199893  1
  O  O10  1  0.237566  0.250000  0.936667  1
  O  O11  1  0.700797  0.042030  0.800107  1
  O  O12  1  0.677952  0.750000  0.453526  1
  O  O13  1  0.322048  0.250000  0.546474  1
  O  O14  1  0.299203  0.542030  0.199893  1
  O  O15  1  0.762434  0.750000  0.063333  1
