# generated using pymatgen
data_K2CoH4(SeO5)2
_symmetry_space_group_name_H-M   'P 1'
_cell_length_a   5.59943060
_cell_length_b   6.67313561
_cell_length_c   7.67493355
_cell_angle_alpha   111.85790205
_cell_angle_beta   96.26478744
_cell_angle_gamma   105.29306532
_symmetry_Int_Tables_number   1
_chemical_formula_structural   K2CoH4(SeO5)2
_chemical_formula_sum   'K2 Co1 H4 Se2 O10'
_cell_volume   249.75888756
_cell_formula_units_Z   1
loop_
 _symmetry_equiv_pos_site_id
 _symmetry_equiv_pos_as_xyz
  1  'x, y, z'
loop_
 _atom_site_type_symbol
 _atom_site_label
 _atom_site_symmetry_multiplicity
 _atom_site_fract_x
 _atom_site_fract_y
 _atom_site_fract_z
 _atom_site_occupancy
  K  K0  1  0.282800  0.678970  0.257452  1
  K  K1  1  0.717200  0.321030  0.742548  1
  Co  Co2  1  0.000000  0.000000  0.000000  1
  H  H3  1  0.839230  0.868185  0.625274  1
  H  H4  1  0.160770  0.131815  0.374726  1
  H  H5  1  0.134954  0.982543  0.689778  1
  H  H6  1  0.865046  0.017457  0.310222  1
  Se  Se7  1  0.360628  0.693145  0.772078  1
  Se  Se8  1  0.639372  0.306855  0.227922  1
  O  O9  1  0.143592  0.728927  0.909467  1
  O  O10  1  0.856408  0.271073  0.090533  1
  O  O11  1  0.637558  0.747257  0.921592  1
  O  O12  1  0.362442  0.252743  0.078408  1
  O  O13  1  0.393490  0.870831  0.661969  1
  O  O14  1  0.606510  0.129169  0.338031  1
  O  O15  1  0.262391  0.420641  0.616448  1
  O  O16  1  0.737609  0.579359  0.383552  1
  O  O17  1  0.974386  0.006723  0.722008  1
  O  O18  1  0.025614  0.993277  0.277992  1
