# generated using pymatgen
data_Nb4Co2PdSe12
_symmetry_space_group_name_H-M   'P 1'
_cell_length_a   6.91668109
_cell_length_b   6.91668109
_cell_length_c   19.37395116
_cell_angle_alpha   72.43083908
_cell_angle_beta   107.56916092
_cell_angle_gamma   151.23452265
_symmetry_Int_Tables_number   1
_chemical_formula_structural   Nb4Co2PdSe12
_chemical_formula_sum   'Nb4 Co2 Pd1 Se12'
_cell_volume   423.81858186
_cell_formula_units_Z   1
loop_
 _symmetry_equiv_pos_site_id
 _symmetry_equiv_pos_as_xyz
  1  'x, y, z'
loop_
 _atom_site_type_symbol
 _atom_site_label
 _atom_site_symmetry_multiplicity
 _atom_site_fract_x
 _atom_site_fract_y
 _atom_site_fract_z
 _atom_site_occupancy
  Nb  Nb0  1  0.256589  0.743411  0.595283  1
  Nb  Nb1  1  0.743411  0.256589  0.404717  1
  Nb  Nb2  1  0.379569  0.620431  0.851074  1
  Nb  Nb3  1  0.620431  0.379569  0.148926  1
  Co  Co4  1  0.227638  0.772362  0.283074  1
  Co  Co5  1  0.772362  0.227638  0.716926  1
  Pd  Pd6  1  0.000000  0.000000  0.000000  1
  Se  Se7  1  0.130334  0.869666  0.454170  1
  Se  Se8  1  0.965213  0.034787  0.118355  1
  Se  Se9  1  0.190521  0.809479  0.766796  1
  Se  Se10  1  0.599839  0.400161  0.281071  1
  Se  Se11  1  0.809758  0.190242  0.927494  1
  Se  Se12  1  0.400161  0.599839  0.718929  1
  Se  Se13  1  0.869666  0.130334  0.545830  1
  Se  Se14  1  0.190242  0.809758  0.072506  1
  Se  Se15  1  0.623202  0.376798  0.612557  1
  Se  Se16  1  0.034787  0.965213  0.881645  1
  Se  Se17  1  0.809479  0.190521  0.233204  1
  Se  Se18  1  0.376798  0.623202  0.387443  1
