# generated using pymatgen
data_P6(Pb2O5)5
_symmetry_space_group_name_H-M   'P 1'
_cell_length_a   10.00366667
_cell_length_b   7.47371054
_cell_length_c   17.33359434
_cell_angle_alpha   90.00000000
_cell_angle_beta   90.08138165
_cell_angle_gamma   90.00000000
_symmetry_Int_Tables_number   1
_chemical_formula_structural   P6(Pb2O5)5
_chemical_formula_sum   'P12 Pb20 O50'
_cell_volume   1295.93636384
_cell_formula_units_Z   2
loop_
 _symmetry_equiv_pos_site_id
 _symmetry_equiv_pos_as_xyz
  1  'x, y, z'
loop_
 _atom_site_type_symbol
 _atom_site_label
 _atom_site_symmetry_multiplicity
 _atom_site_fract_x
 _atom_site_fract_y
 _atom_site_fract_z
 _atom_site_occupancy
  P  P0  1  0.138908  0.249969  0.734983  1
  P  P1  1  0.082371  0.249745  0.448654  1
  P  P2  1  0.034442  0.249481  0.066299  1
  P  P3  1  0.965558  0.749481  0.933701  1
  P  P4  1  0.917629  0.749745  0.551346  1
  P  P5  1  0.861092  0.749969  0.265017  1
  P  P6  1  0.635403  0.251022  0.236026  1
  P  P7  1  0.573755  0.250864  0.952157  1
  P  P8  1  0.535629  0.251460  0.561553  1
  P  P9  1  0.464371  0.751460  0.438447  1
  P  P10  1  0.426245  0.750864  0.047843  1
  P  P11  1  0.364597  0.751022  0.763974  1
  Pb  Pb12  1  0.244380  0.494842  0.916473  1
  Pb  Pb13  1  0.243799  0.005213  0.918515  1
  Pb  Pb14  1  0.243894  0.500636  0.584748  1
  Pb  Pb15  1  0.244707  0.999204  0.582637  1
  Pb  Pb16  1  0.136528  0.731270  0.362814  1
  Pb  Pb17  1  0.137577  0.730753  0.136867  1
  Pb  Pb18  1  0.994272  0.251200  0.247696  1
  Pb  Pb19  1  0.005728  0.751200  0.752304  1
  Pb  Pb20  1  0.862423  0.230753  0.863133  1
  Pb  Pb21  1  0.863472  0.231270  0.637186  1
  Pb  Pb22  1  0.755293  0.499204  0.417363  1
  Pb  Pb23  1  0.756106  0.000636  0.415252  1
  Pb  Pb24  1  0.756201  0.505213  0.081485  1
  Pb  Pb25  1  0.755620  0.994842  0.083527  1
  Pb  Pb26  1  0.615101  0.751855  0.876308  1
  Pb  Pb27  1  0.626335  0.752094  0.619968  1
  Pb  Pb28  1  0.521188  0.231718  0.748593  1
  Pb  Pb29  1  0.478812  0.731718  0.251407  1
  Pb  Pb30  1  0.373665  0.252094  0.380032  1
  Pb  Pb31  1  0.384899  0.251855  0.123692  1
  O  O32  1  0.251301  0.669509  0.249552  1
  O  O33  1  0.222754  0.750999  0.804518  1
  O  O34  1  0.163949  0.246922  0.823327  1
  O  O35  1  0.162784  0.419583  0.422004  1
  O  O36  1  0.165297  0.085792  0.419893  1
  O  O37  1  0.156820  0.250858  0.011050  1
  O  O38  1  0.099255  0.747173  0.980014  1
  O  O39  1  0.079124  0.248012  0.538704  1
  O  O40  1  0.061338  0.750560  0.585392  1
  O  O41  1  0.059046  0.079111  0.708959  1
  O  O42  1  0.054883  0.417831  0.711368  1
  O  O43  1  0.036801  0.085345  0.122141  1
  O  O44  1  0.034312  0.419562  0.119762  1
  O  O45  1  0.965688  0.919562  0.880238  1
  O  O46  1  0.963199  0.585345  0.877859  1
  O  O47  1  0.940954  0.579111  0.291041  1
  O  O48  1  0.945117  0.917831  0.288632  1
  O  O49  1  0.938662  0.250560  0.414608  1
  O  O50  1  0.920876  0.748012  0.461296  1
  O  O51  1  0.900745  0.247173  0.019986  1
  O  O52  1  0.843180  0.750858  0.988950  1
  O  O53  1  0.837216  0.919583  0.577996  1
  O  O54  1  0.834703  0.585792  0.580107  1
  O  O55  1  0.836051  0.746922  0.176673  1
  O  O56  1  0.777246  0.250999  0.195482  1
  O  O57  1  0.748699  0.169509  0.750448  1
  O  O58  1  0.727278  0.752052  0.311421  1
  O  O59  1  0.654960  0.250900  0.324465  1
  O  O60  1  0.654893  0.080229  0.929003  1
  O  O61  1  0.652965  0.418454  0.924728  1
  O  O62  1  0.655935  0.247257  0.506059  1
  O  O63  1  0.599181  0.755171  0.486787  1
  O  O64  1  0.569648  0.254707  0.043596  1
  O  O65  1  0.570146  0.746885  0.079805  1
  O  O66  1  0.555238  0.086751  0.206023  1
  O  O67  1  0.557636  0.419963  0.207055  1
  O  O68  1  0.536853  0.418462  0.615064  1
  O  O69  1  0.529829  0.080969  0.613795  1
  O  O70  1  0.463147  0.918462  0.384936  1
  O  O71  1  0.470171  0.580969  0.386205  1
  O  O72  1  0.444762  0.586751  0.793977  1
  O  O73  1  0.442364  0.919963  0.792945  1
  O  O74  1  0.429854  0.246885  0.920195  1
  O  O75  1  0.430352  0.754707  0.956404  1
  O  O76  1  0.400819  0.255171  0.513213  1
  O  O77  1  0.344065  0.747257  0.493941  1
  O  O78  1  0.347035  0.918454  0.075272  1
  O  O79  1  0.345107  0.580229  0.070997  1
  O  O80  1  0.345040  0.750900  0.675535  1
  O  O81  1  0.272722  0.252052  0.688579  1
