# generated using pymatgen
data_NaYbTiNbO6F
_symmetry_space_group_name_H-M   'P 1'
_cell_length_a   7.32945544
_cell_length_b   7.32945544
_cell_length_c   10.39108376
_cell_angle_alpha   90.00000000
_cell_angle_beta   90.00000000
_cell_angle_gamma   90.00000000
_symmetry_Int_Tables_number   1
_chemical_formula_structural   NaYbTiNbO6F
_chemical_formula_sum   'Na4 Yb4 Ti4 Nb4 O24 F4'
_cell_volume   558.21854866
_cell_formula_units_Z   4
loop_
 _symmetry_equiv_pos_site_id
 _symmetry_equiv_pos_as_xyz
  1  'x, y, z'
loop_
 _atom_site_type_symbol
 _atom_site_label
 _atom_site_symmetry_multiplicity
 _atom_site_fract_x
 _atom_site_fract_y
 _atom_site_fract_z
 _atom_site_occupancy
  Na  Na0  1  0.500000  0.747328  0.000000  1
  Na  Na1  1  0.500000  0.252672  0.500000  1
  Na  Na2  1  0.747328  0.500000  0.750000  1
  Na  Na3  1  0.252672  0.500000  0.250000  1
  Yb  Yb4  1  0.000000  0.744239  0.000000  1
  Yb  Yb5  1  0.000000  0.255761  0.500000  1
  Yb  Yb6  1  0.255761  0.000000  0.250000  1
  Yb  Yb7  1  0.744239  0.000000  0.750000  1
  Ti  Ti8  1  0.000000  0.758423  0.500000  1
  Ti  Ti9  1  0.241577  0.000000  0.750000  1
  Ti  Ti10  1  0.758423  0.000000  0.250000  1
  Ti  Ti11  1  0.000000  0.241577  0.000000  1
  Nb  Nb12  1  0.500000  0.241506  0.000000  1
  Nb  Nb13  1  0.500000  0.758494  0.500000  1
  Nb  Nb14  1  0.758494  0.500000  0.250000  1
  Nb  Nb15  1  0.241506  0.500000  0.750000  1
  O  O16  1  0.554626  0.946685  0.368736  1
  O  O17  1  0.765746  0.753410  0.178490  1
  O  O18  1  0.950583  0.950583  0.375000  1
  O  O19  1  0.053315  0.445374  0.881264  1
  O  O20  1  0.049417  0.049417  0.875000  1
  O  O21  1  0.049417  0.950583  0.625000  1
  O  O22  1  0.246590  0.234254  0.071510  1
  O  O23  1  0.246590  0.765746  0.428490  1
  O  O24  1  0.234254  0.246590  0.678490  1
  O  O25  1  0.445374  0.946685  0.631264  1
  O  O26  1  0.445374  0.053315  0.868736  1
  O  O27  1  0.441604  0.441604  0.875000  1
  O  O28  1  0.558396  0.558396  0.375000  1
  O  O29  1  0.554626  0.053315  0.131264  1
  O  O30  1  0.558396  0.441604  0.125000  1
  O  O31  1  0.753410  0.765746  0.571510  1
  O  O32  1  0.765746  0.246590  0.321510  1
  O  O33  1  0.753410  0.234254  0.928490  1
  O  O34  1  0.950583  0.049417  0.125000  1
  O  O35  1  0.946685  0.445374  0.118736  1
  O  O36  1  0.946685  0.554626  0.381264  1
  O  O37  1  0.053315  0.554626  0.618736  1
  O  O38  1  0.234254  0.753410  0.821510  1
  O  O39  1  0.441604  0.558396  0.625000  1
  F  F40  1  0.242809  0.757191  0.125000  1
  F  F41  1  0.757191  0.242809  0.625000  1
  F  F42  1  0.757191  0.757191  0.875000  1
  F  F43  1  0.242809  0.242809  0.375000  1
