# generated using pymatgen
data_Lu3NbO7
_symmetry_space_group_name_H-M   'P 1'
_cell_length_a   7.39402225
_cell_length_b   5.25385602
_cell_length_c   8.02509188
_cell_angle_alpha   90.00000000
_cell_angle_beta   117.31414537
_cell_angle_gamma   90.00000000
_symmetry_Int_Tables_number   1
_chemical_formula_structural   Lu3NbO7
_chemical_formula_sum   'Lu6 Nb2 O14'
_cell_volume   276.99268982
_cell_formula_units_Z   2
loop_
 _symmetry_equiv_pos_site_id
 _symmetry_equiv_pos_as_xyz
  1  'x, y, z'
loop_
 _atom_site_type_symbol
 _atom_site_label
 _atom_site_symmetry_multiplicity
 _atom_site_fract_x
 _atom_site_fract_y
 _atom_site_fract_z
 _atom_site_occupancy
  Lu  Lu0  1  0.999678  0.499982  0.001175  1
  Lu  Lu1  1  0.499678  0.500018  0.001175  1
  Lu  Lu2  1  0.621672  0.973218  0.744702  1
  Lu  Lu3  1  0.121672  0.026782  0.744702  1
  Lu  Lu4  1  0.879705  0.970182  0.256294  1
  Lu  Lu5  1  0.379705  0.029818  0.256294  1
  Nb  Nb6  1  0.770901  0.494341  0.502194  1
  Nb  Nb7  1  0.270901  0.505659  0.502194  1
  O  O8  1  0.749218  0.739252  0.000071  1
  O  O9  1  0.838126  0.260976  0.747333  1
  O  O10  1  0.249218  0.260748  0.000071  1
  O  O11  1  0.989677  0.716648  0.474493  1
  O  O12  1  0.338126  0.739024  0.747333  1
  O  O13  1  0.408993  0.258657  0.748231  1
  O  O14  1  0.095155  0.262256  0.258002  1
  O  O15  1  0.503984  0.721912  0.526102  1
  O  O16  1  0.489677  0.283352  0.474493  1
  O  O17  1  0.908993  0.741343  0.748231  1
  O  O18  1  0.658891  0.251728  0.244378  1
  O  O19  1  0.595155  0.737744  0.258002  1
  O  O20  1  0.003984  0.278088  0.526102  1
  O  O21  1  0.158891  0.748272  0.244378  1
