# generated using pymatgen
data_Na5YbH4(C2O7)2
_symmetry_space_group_name_H-M   'P 1'
_cell_length_a   7.78099268
_cell_length_b   7.78099268
_cell_length_c   11.58244592
_cell_angle_alpha   90.00000000
_cell_angle_beta   90.00000000
_cell_angle_gamma   90.00000000
_symmetry_Int_Tables_number   1
_chemical_formula_structural   Na5YbH4(C2O7)2
_chemical_formula_sum   'Na10 Yb2 H8 C8 O28'
_cell_volume   701.24583466
_cell_formula_units_Z   2
loop_
 _symmetry_equiv_pos_site_id
 _symmetry_equiv_pos_as_xyz
  1  'x, y, z'
loop_
 _atom_site_type_symbol
 _atom_site_label
 _atom_site_symmetry_multiplicity
 _atom_site_fract_x
 _atom_site_fract_y
 _atom_site_fract_z
 _atom_site_occupancy
  Na  Na0  1  0.000000  0.000000  0.000000  1
  Na  Na1  1  0.500000  0.500000  0.500000  1
  Na  Na2  1  0.177355  0.679896  0.206975  1
  Na  Na3  1  0.322645  0.179896  0.293025  1
  Na  Na4  1  0.822645  0.320104  0.206975  1
  Na  Na5  1  0.677355  0.820104  0.293025  1
  Na  Na6  1  0.679896  0.822645  0.793025  1
  Na  Na7  1  0.179896  0.677355  0.706975  1
  Na  Na8  1  0.320104  0.177355  0.793025  1
  Na  Na9  1  0.820104  0.322645  0.706975  1
  Yb  Yb10  1  0.500000  0.500000  0.000000  1
  Yb  Yb11  1  0.000000  0.000000  0.500000  1
  H  H12  1  0.433966  0.922533  0.114892  1
  H  H13  1  0.066034  0.422533  0.385108  1
  H  H14  1  0.566034  0.077467  0.114892  1
  H  H15  1  0.933966  0.577467  0.385108  1
  H  H16  1  0.922533  0.566034  0.885108  1
  H  H17  1  0.422533  0.933966  0.614892  1
  H  H18  1  0.077467  0.433966  0.885108  1
  H  H19  1  0.577467  0.066034  0.614892  1
  C  C20  1  0.317182  0.788487  0.920733  1
  C  C21  1  0.182818  0.288487  0.579267  1
  C  C22  1  0.682818  0.211513  0.920733  1
  C  C23  1  0.817182  0.711513  0.579267  1
  C  C24  1  0.788487  0.682818  0.079267  1
  C  C25  1  0.288487  0.817182  0.420733  1
  C  C26  1  0.211513  0.317182  0.079267  1
  C  C27  1  0.711513  0.182818  0.420733  1
  O  O28  1  0.402659  0.687281  0.852011  1
  O  O29  1  0.097341  0.187281  0.647989  1
  O  O30  1  0.597341  0.312719  0.852011  1
  O  O31  1  0.902659  0.812719  0.647989  1
  O  O32  1  0.687281  0.597341  0.147989  1
  O  O33  1  0.187281  0.902659  0.352011  1
  O  O34  1  0.312719  0.402659  0.147989  1
  O  O35  1  0.812719  0.097341  0.352011  1
  O  O36  1  0.329020  0.759833  0.031721  1
  O  O37  1  0.170980  0.259833  0.468279  1
  O  O38  1  0.670980  0.240167  0.031721  1
  O  O39  1  0.829020  0.740167  0.468279  1
  O  O40  1  0.759833  0.670980  0.968279  1
  O  O41  1  0.259833  0.829020  0.531721  1
  O  O42  1  0.240167  0.329020  0.968279  1
  O  O43  1  0.740167  0.170980  0.531721  1
  O  O44  1  0.224145  0.909849  0.879773  1
  O  O45  1  0.275855  0.409849  0.620227  1
  O  O46  1  0.775855  0.090151  0.879773  1
  O  O47  1  0.724145  0.590151  0.620227  1
  O  O48  1  0.909849  0.775855  0.120227  1
  O  O49  1  0.409849  0.724145  0.379773  1
  O  O50  1  0.090151  0.224145  0.120227  1
  O  O51  1  0.590151  0.275855  0.379773  1
  O  O52  1  0.500000  0.000000  0.166525  1
  O  O53  1  0.000000  0.500000  0.333475  1
  O  O54  1  0.000000  0.500000  0.833475  1
  O  O55  1  0.500000  0.000000  0.666525  1
