# generated using pymatgen
data_Cs2K2Cd3O5
_symmetry_space_group_name_H-M   'P 1'
_cell_length_a   6.71165098
_cell_length_b   9.43887725
_cell_length_c   9.60841510
_cell_angle_alpha   65.64947146
_cell_angle_beta   73.90567788
_cell_angle_gamma   71.57346038
_symmetry_Int_Tables_number   1
_chemical_formula_structural   Cs2K2Cd3O5
_chemical_formula_sum   'Cs4 K4 Cd6 O10'
_cell_volume   518.46256941
_cell_formula_units_Z   2
loop_
 _symmetry_equiv_pos_site_id
 _symmetry_equiv_pos_as_xyz
  1  'x, y, z'
loop_
 _atom_site_type_symbol
 _atom_site_label
 _atom_site_symmetry_multiplicity
 _atom_site_fract_x
 _atom_site_fract_y
 _atom_site_fract_z
 _atom_site_occupancy
  Cs  Cs0  1  0.049146  0.575109  0.649034  1
  Cs  Cs1  1  0.610651  0.288049  0.754489  1
  Cs  Cs2  1  0.389349  0.711951  0.245511  1
  Cs  Cs3  1  0.950854  0.424891  0.350966  1
  K  K4  1  0.056804  0.951831  0.694404  1
  K  K5  1  0.241321  0.571423  0.977069  1
  K  K6  1  0.758679  0.428577  0.022931  1
  K  K7  1  0.943196  0.048169  0.305596  1
  Cd  Cd8  1  0.598847  0.818884  0.503102  1
  Cd  Cd9  1  0.126250  0.140415  0.908404  1
  Cd  Cd10  1  0.432470  0.170203  0.170815  1
  Cd  Cd11  1  0.873750  0.859585  0.091596  1
  Cd  Cd12  1  0.401153  0.181116  0.496898  1
  Cd  Cd13  1  0.567530  0.829797  0.829185  1
  O  O14  1  0.817564  0.717711  0.980608  1
  O  O15  1  0.435653  0.364250  0.258348  1
  O  O16  1  0.182436  0.282289  0.019392  1
  O  O17  1  0.319805  0.998547  0.404893  1
  O  O18  1  0.680195  0.001453  0.595107  1
  O  O19  1  0.110329  0.252878  0.654375  1
  O  O20  1  0.564347  0.635750  0.741652  1
  O  O21  1  0.889671  0.747122  0.345625  1
  O  O22  1  0.767646  0.121859  0.039589  1
  O  O23  1  0.232354  0.878141  0.960411  1
