# generated using pymatgen
data_Nb2Ni4O9
_symmetry_space_group_name_H-M   'P 1'
_cell_length_a   5.12253278
_cell_length_b   8.81251517
_cell_length_c   14.49088224
_cell_angle_alpha   90.00000000
_cell_angle_beta   90.00000000
_cell_angle_gamma   90.00000000
_symmetry_Int_Tables_number   1
_chemical_formula_structural   Nb2Ni4O9
_chemical_formula_sum   'Nb8 Ni16 O36'
_cell_volume   654.15317102
_cell_formula_units_Z   4
loop_
 _symmetry_equiv_pos_site_id
 _symmetry_equiv_pos_as_xyz
  1  'x, y, z'
loop_
 _atom_site_type_symbol
 _atom_site_label
 _atom_site_symmetry_multiplicity
 _atom_site_fract_x
 _atom_site_fract_y
 _atom_site_fract_z
 _atom_site_occupancy
  Nb  Nb0  1  0.001690  0.030849  0.644685  1
  Nb  Nb1  1  0.501690  0.469151  0.644685  1
  Nb  Nb2  1  0.498310  0.469151  0.144685  1
  Nb  Nb3  1  0.998310  0.030849  0.144685  1
  Nb  Nb4  1  0.001690  0.969151  0.855315  1
  Nb  Nb5  1  0.501690  0.530849  0.855315  1
  Nb  Nb6  1  0.998310  0.969151  0.355315  1
  Nb  Nb7  1  0.498310  0.530849  0.355315  1
  Ni  Ni8  1  0.505470  0.164717  0.997067  1
  Ni  Ni9  1  0.998972  0.337243  0.813252  1
  Ni  Ni10  1  0.994530  0.664717  0.002933  1
  Ni  Ni11  1  0.501028  0.837243  0.186748  1
  Ni  Ni12  1  0.005470  0.335283  0.997067  1
  Ni  Ni13  1  0.001028  0.662757  0.186748  1
  Ni  Ni14  1  0.994530  0.335283  0.497067  1
  Ni  Ni15  1  0.998972  0.662757  0.686748  1
  Ni  Ni16  1  0.498972  0.837243  0.686748  1
  Ni  Ni17  1  0.498972  0.162757  0.813252  1
  Ni  Ni18  1  0.005470  0.664717  0.502933  1
  Ni  Ni19  1  0.494530  0.835283  0.002933  1
  Ni  Ni20  1  0.505470  0.835283  0.502933  1
  Ni  Ni21  1  0.501028  0.162757  0.313252  1
  Ni  Ni22  1  0.001028  0.337243  0.313252  1
  Ni  Ni23  1  0.494530  0.164717  0.497067  1
  O  O24  1  0.853000  0.850454  0.250822  1
  O  O25  1  0.672688  0.335005  0.402942  1
  O  O26  1  0.827312  0.835005  0.597058  1
  O  O27  1  0.172688  0.164995  0.402942  1
  O  O28  1  0.290305  0.000000  0.250000  1
  O  O29  1  0.329547  0.670971  0.928948  1
  O  O30  1  0.170453  0.829029  0.428948  1
  O  O31  1  0.665534  0.003803  0.414822  1
  O  O32  1  0.670453  0.670971  0.428948  1
  O  O33  1  0.829547  0.829029  0.928948  1
  O  O34  1  0.172688  0.835005  0.097058  1
  O  O35  1  0.327312  0.664995  0.597058  1
  O  O36  1  0.834466  0.496197  0.914822  1
  O  O37  1  0.147000  0.850454  0.750822  1
  O  O38  1  0.165534  0.496197  0.414822  1
  O  O39  1  0.353000  0.350454  0.249178  1
  O  O40  1  0.827312  0.164995  0.902942  1
  O  O41  1  0.334466  0.996197  0.585178  1
  O  O42  1  0.170453  0.170971  0.071052  1
  O  O43  1  0.709695  0.000000  0.750000  1
  O  O44  1  0.647000  0.649546  0.750822  1
  O  O45  1  0.647000  0.350454  0.749178  1
  O  O46  1  0.853000  0.149546  0.249178  1
  O  O47  1  0.665534  0.996197  0.085178  1
  O  O48  1  0.209695  0.500000  0.750000  1
  O  O49  1  0.334466  0.003803  0.914822  1
  O  O50  1  0.327312  0.335005  0.902942  1
  O  O51  1  0.834466  0.503803  0.585178  1
  O  O52  1  0.790305  0.500000  0.250000  1
  O  O53  1  0.329547  0.329029  0.571052  1
  O  O54  1  0.829547  0.170971  0.571052  1
  O  O55  1  0.165534  0.503803  0.085178  1
  O  O56  1  0.353000  0.649546  0.250822  1
  O  O57  1  0.670453  0.329029  0.071052  1
  O  O58  1  0.147000  0.149546  0.749178  1
  O  O59  1  0.672688  0.664995  0.097058  1
