# generated using pymatgen
data_Ca3(InAs2)2
_symmetry_space_group_name_H-M   'P 1'
_cell_length_a   4.46104598
_cell_length_b   6.87577369
_cell_length_c   16.77995727
_cell_angle_alpha   90.00000000
_cell_angle_beta   90.00000000
_cell_angle_gamma   90.00000000
_symmetry_Int_Tables_number   1
_chemical_formula_structural   Ca3(InAs2)2
_chemical_formula_sum   'Ca6 In4 As8'
_cell_volume   514.69402181
_cell_formula_units_Z   2
loop_
 _symmetry_equiv_pos_site_id
 _symmetry_equiv_pos_as_xyz
  1  'x, y, z'
loop_
 _atom_site_type_symbol
 _atom_site_label
 _atom_site_symmetry_multiplicity
 _atom_site_fract_x
 _atom_site_fract_y
 _atom_site_fract_z
 _atom_site_occupancy
  Ca  Ca0  1  0.000000  0.275674  0.803630  1
  Ca  Ca1  1  0.500000  0.775674  0.696370  1
  Ca  Ca2  1  0.000000  0.724326  0.196370  1
  Ca  Ca3  1  0.500000  0.224326  0.303630  1
  Ca  Ca4  1  0.000000  0.000000  0.000000  1
  Ca  Ca5  1  0.500000  0.500000  0.500000  1
  In  In6  1  0.000000  0.859935  0.411708  1
  In  In7  1  0.500000  0.359935  0.088292  1
  In  In8  1  0.000000  0.140065  0.588292  1
  In  In9  1  0.500000  0.640065  0.911708  1
  As  As10  1  0.500000  0.240221  0.928906  1
  As  As11  1  0.500000  0.759779  0.071094  1
  As  As12  1  0.000000  0.228491  0.172658  1
  As  As13  1  0.000000  0.259779  0.428906  1
  As  As14  1  0.500000  0.728491  0.327342  1
  As  As15  1  0.000000  0.771509  0.827342  1
  As  As16  1  0.000000  0.740221  0.571094  1
  As  As17  1  0.500000  0.271509  0.672658  1
