# generated using pymatgen
data_Pr4In21Pd10
_symmetry_space_group_name_H-M   'P 1'
_cell_length_a   11.98043043
_cell_length_b   11.98043043
_cell_length_c   17.52906596
_cell_angle_alpha   56.23828586
_cell_angle_beta   123.76171414
_cell_angle_gamma   158.07303656
_symmetry_Int_Tables_number   1
_chemical_formula_structural   Pr4In21Pd10
_chemical_formula_sum   'Pr4 In21 Pd10'
_cell_volume   774.49934433
_cell_formula_units_Z   1
loop_
 _symmetry_equiv_pos_site_id
 _symmetry_equiv_pos_as_xyz
  1  'x, y, z'
loop_
 _atom_site_type_symbol
 _atom_site_label
 _atom_site_symmetry_multiplicity
 _atom_site_fract_x
 _atom_site_fract_y
 _atom_site_fract_z
 _atom_site_occupancy
  Pr  Pr0  1  0.771007  0.228993  0.675335  1
  Pr  Pr1  1  0.877869  0.122131  0.167027  1
  Pr  Pr2  1  0.122131  0.877869  0.832973  1
  Pr  Pr3  1  0.228993  0.771007  0.324665  1
  In  In4  1  0.009527  0.990473  0.592455  1
  In  In5  1  0.615558  0.384442  0.203915  1
  In  In6  1  0.799469  0.200531  0.496454  1
  In  In7  1  0.542603  0.457397  0.868436  1
  In  In8  1  0.601402  0.398598  0.496686  1
  In  In9  1  0.299575  0.700425  0.999510  1
  In  In10  1  0.935740  0.064260  0.702520  1
  In  In11  1  0.252662  0.747338  0.796259  1
  In  In12  1  0.200531  0.799469  0.503546  1
  In  In13  1  0.886008  0.113992  0.951073  1
  In  In14  1  0.064260  0.935740  0.297480  1
  In  In15  1  0.113992  0.886008  0.048927  1
  In  In16  1  0.630758  0.369242  0.699289  1
  In  In17  1  0.369242  0.630758  0.300711  1
  In  In18  1  0.500000  0.500000  0.000000  1
  In  In19  1  0.747338  0.252662  0.203741  1
  In  In20  1  0.384442  0.615558  0.796085  1
  In  In21  1  0.990473  0.009527  0.407545  1
  In  In22  1  0.700425  0.299575  0.000490  1
  In  In23  1  0.457397  0.542603  0.131564  1
  In  In24  1  0.398598  0.601402  0.503314  1
  Pd  Pd25  1  0.249861  0.750139  0.114807  1
  Pd  Pd26  1  0.653857  0.346143  0.386716  1
  Pd  Pd27  1  0.137264  0.862736  0.607593  1
  Pd  Pd28  1  0.750139  0.249861  0.885193  1
  Pd  Pd29  1  0.346143  0.653857  0.613284  1
  Pd  Pd30  1  0.862736  0.137264  0.392407  1
  Pd  Pd31  1  0.494654  0.505346  0.311570  1
  Pd  Pd32  1  0.974363  0.025637  0.887467  1
  Pd  Pd33  1  0.505346  0.494654  0.688430  1
  Pd  Pd34  1  0.025637  0.974363  0.112533  1
