# generated using pymatgen
data_NaFe3H6(SO7)2
_symmetry_space_group_name_H-M   'P 1'
_cell_length_a   7.03275484
_cell_length_b   7.03275484
_cell_length_c   7.03275484
_cell_angle_alpha   63.59791887
_cell_angle_beta   63.59791887
_cell_angle_gamma   63.59791887
_symmetry_Int_Tables_number   1
_chemical_formula_structural   NaFe3H6(SO7)2
_chemical_formula_sum   'Na1 Fe3 H6 S2 O14'
_cell_volume   265.51184061
_cell_formula_units_Z   1
loop_
 _symmetry_equiv_pos_site_id
 _symmetry_equiv_pos_as_xyz
  1  'x, y, z'
loop_
 _atom_site_type_symbol
 _atom_site_label
 _atom_site_symmetry_multiplicity
 _atom_site_fract_x
 _atom_site_fract_y
 _atom_site_fract_z
 _atom_site_occupancy
  Na  Na0  1  0.000000  0.000000  0.000000  1
  Fe  Fe1  1  0.500000  0.000000  0.000000  1
  Fe  Fe2  1  1.000000  0.000000  0.500000  1
  Fe  Fe3  1  0.000000  0.500000  0.000000  1
  H  H4  1  0.694112  0.694112  0.282897  1
  H  H5  1  0.305888  0.305888  0.717103  1
  H  H6  1  0.305888  0.717103  0.305888  1
  H  H7  1  0.282897  0.694112  0.694112  1
  H  H8  1  0.717103  0.305888  0.305888  1
  H  H9  1  0.694112  0.282897  0.694112  1
  S  S10  1  0.312848  0.312848  0.312848  1
  S  S11  1  0.687152  0.687152  0.687152  1
  O  O12  1  0.742937  0.118457  0.742937  1
  O  O13  1  0.497332  0.826735  0.826735  1
  O  O14  1  0.742937  0.742937  0.118457  1
  O  O15  1  0.173265  0.502668  0.173265  1
  O  O16  1  0.257063  0.881543  0.257063  1
  O  O17  1  0.257063  0.257063  0.881543  1
  O  O18  1  0.598866  0.598866  0.598866  1
  O  O19  1  0.173265  0.173265  0.502668  1
  O  O20  1  0.881543  0.257063  0.257063  1
  O  O21  1  0.118457  0.742937  0.742937  1
  O  O22  1  0.401134  0.401134  0.401134  1
  O  O23  1  0.502668  0.173265  0.173265  1
  O  O24  1  0.826735  0.826735  0.497332  1
  O  O25  1  0.826735  0.497332  0.826735  1
