# generated using pymatgen
data_RbMnH2OF4
_symmetry_space_group_name_H-M   'P 1'
_cell_length_a   7.74934185
_cell_length_b   7.74934185
_cell_length_c   10.87382712
_cell_angle_alpha   77.17653998
_cell_angle_beta   102.82346002
_cell_angle_gamma   128.91657563
_symmetry_Int_Tables_number   1
_chemical_formula_structural   RbMnH2OF4
_chemical_formula_sum   'Rb4 Mn4 H8 O4 F16'
_cell_volume   492.46123305
_cell_formula_units_Z   4
loop_
 _symmetry_equiv_pos_site_id
 _symmetry_equiv_pos_as_xyz
  1  'x, y, z'
loop_
 _atom_site_type_symbol
 _atom_site_label
 _atom_site_symmetry_multiplicity
 _atom_site_fract_x
 _atom_site_fract_y
 _atom_site_fract_z
 _atom_site_occupancy
  Rb  Rb0  1  0.176863  0.335298  0.559746  1
  Rb  Rb1  1  0.335298  0.176863  0.940254  1
  Rb  Rb2  1  0.823137  0.664702  0.440254  1
  Rb  Rb3  1  0.664702  0.823137  0.059746  1
  Mn  Mn4  1  0.500000  1.000000  0.500000  1
  Mn  Mn5  1  0.000000  0.500000  0.000000  1
  Mn  Mn6  1  0.756951  0.756951  0.750000  1
  Mn  Mn7  1  0.243049  0.243049  0.250000  1
  H  H8  1  0.264057  0.904068  0.698337  1
  H  H9  1  0.904068  0.264057  0.801663  1
  H  H10  1  0.735943  0.095932  0.301663  1
  H  H11  1  0.095932  0.735943  0.198337  1
  H  H12  1  0.405948  0.815880  0.747771  1
  H  H13  1  0.815880  0.405948  0.752229  1
  H  H14  1  0.594052  0.184120  0.252229  1
  H  H15  1  0.184120  0.594052  0.247771  1
  O  O16  1  0.409227  0.938709  0.694666  1
  O  O17  1  0.938709  0.409227  0.805334  1
  O  O18  1  0.590773  0.061291  0.305334  1
  O  O19  1  0.061291  0.590773  0.194666  1
  F  F20  1  0.644225  0.855458  0.564708  1
  F  F21  1  0.855458  0.644225  0.935292  1
  F  F22  1  0.355775  0.144542  0.435292  1
  F  F23  1  0.144542  0.355775  0.064708  1
  F  F24  1  0.769088  0.271910  0.535963  1
  F  F25  1  0.271910  0.769088  0.964037  1
  F  F26  1  0.230912  0.728090  0.464037  1
  F  F27  1  0.728090  0.230912  0.035963  1
  F  F28  1  0.890377  0.028448  0.814491  1
  F  F29  1  0.028448  0.890377  0.685509  1
  F  F30  1  0.109623  0.971552  0.185509  1
  F  F31  1  0.971552  0.109623  0.314491  1
  F  F32  1  0.484134  0.629089  0.809241  1
  F  F33  1  0.629089  0.484134  0.690759  1
  F  F34  1  0.515866  0.370911  0.190759  1
  F  F35  1  0.370911  0.515866  0.309241  1
