# generated using pymatgen
data_V2Cu3Pb(ClO4)2
_symmetry_space_group_name_H-M   'P 1'
_cell_length_a   8.83687660
_cell_length_b   8.83687660
_cell_length_c   8.83687660
_cell_angle_alpha   113.35014585
_cell_angle_beta   109.71169216
_cell_angle_gamma   105.44798444
_symmetry_Int_Tables_number   1
_chemical_formula_structural   V2Cu3Pb(ClO4)2
_chemical_formula_sum   'V4 Cu6 Pb2 Cl4 O16'
_cell_volume   528.69763727
_cell_formula_units_Z   2
loop_
 _symmetry_equiv_pos_site_id
 _symmetry_equiv_pos_as_xyz
  1  'x, y, z'
loop_
 _atom_site_type_symbol
 _atom_site_label
 _atom_site_symmetry_multiplicity
 _atom_site_fract_x
 _atom_site_fract_y
 _atom_site_fract_z
 _atom_site_occupancy
  V  V0  1  0.312432  0.062432  0.750000  1
  V  V1  1  0.312432  0.562432  0.250000  1
  V  V2  1  0.687568  0.937568  0.250000  1
  V  V3  1  0.687568  0.437568  0.750000  1
  Cu  Cu4  1  0.500000  0.000000  0.500000  1
  Cu  Cu5  1  0.943729  0.743350  0.200379  1
  Cu  Cu6  1  0.056271  0.256650  0.799621  1
  Cu  Cu7  1  0.457029  0.756650  0.700379  1
  Cu  Cu8  1  0.500000  0.500000  0.000000  1
  Cu  Cu9  1  0.542971  0.243350  0.299621  1
  Pb  Pb10  1  0.000000  0.750000  0.750000  1
  Pb  Pb11  1  0.000000  0.250000  0.250000  1
  Cl  Cl12  1  0.242940  0.081689  0.161251  1
  Cl  Cl13  1  0.920438  0.581689  0.338749  1
  Cl  Cl14  1  0.757060  0.918311  0.838749  1
  Cl  Cl15  1  0.079562  0.418311  0.661251  1
  O  O16  1  0.895961  0.624520  0.944984  1
  O  O17  1  0.318091  0.037869  0.545711  1
  O  O18  1  0.318091  0.772379  0.280221  1
  O  O19  1  0.104039  0.375480  0.055016  1
  O  O20  1  0.679536  0.450977  0.555016  1
  O  O21  1  0.681909  0.962131  0.454289  1
  O  O22  1  0.104039  0.049023  0.728559  1
  O  O23  1  0.492158  0.537869  0.219779  1
  O  O24  1  0.679536  0.124520  0.228559  1
  O  O25  1  0.507842  0.727621  0.045711  1
  O  O26  1  0.320464  0.549023  0.444984  1
  O  O27  1  0.320464  0.875480  0.771441  1
  O  O28  1  0.492158  0.272379  0.954289  1
  O  O29  1  0.895961  0.950977  0.271441  1
  O  O30  1  0.681909  0.227621  0.719779  1
  O  O31  1  0.507842  0.462131  0.780221  1
