# generated using pymatgen
data_Sr5(InSb3)2
_symmetry_space_group_name_H-M   'P 1'
_cell_length_a   4.73505364
_cell_length_b   12.85669264
_cell_length_c   14.99102602
_cell_angle_alpha   90.00000000
_cell_angle_beta   90.00000000
_cell_angle_gamma   90.00000000
_symmetry_Int_Tables_number   1
_chemical_formula_structural   Sr5(InSb3)2
_chemical_formula_sum   'Sr10 In4 Sb12'
_cell_volume   912.61062911
_cell_formula_units_Z   2
loop_
 _symmetry_equiv_pos_site_id
 _symmetry_equiv_pos_as_xyz
  1  'x, y, z'
loop_
 _atom_site_type_symbol
 _atom_site_label
 _atom_site_symmetry_multiplicity
 _atom_site_fract_x
 _atom_site_fract_y
 _atom_site_fract_z
 _atom_site_occupancy
  Sr  Sr0  1  0.500000  0.088420  0.750135  1
  Sr  Sr1  1  0.500000  0.174131  0.017367  1
  Sr  Sr2  1  0.500000  0.411580  0.250135  1
  Sr  Sr3  1  0.500000  0.825869  0.982633  1
  Sr  Sr4  1  0.500000  0.325869  0.517367  1
  Sr  Sr5  1  0.500000  0.000000  0.500000  1
  Sr  Sr6  1  0.500000  0.588420  0.749865  1
  Sr  Sr7  1  0.500000  0.911580  0.249865  1
  Sr  Sr8  1  0.500000  0.500000  0.000000  1
  Sr  Sr9  1  0.500000  0.674131  0.482633  1
  In  In10  1  0.000000  0.329671  0.713522  1
  In  In11  1  0.000000  0.170329  0.213522  1
  In  In12  1  0.000000  0.670329  0.286478  1
  In  In13  1  0.000000  0.829671  0.786478  1
  Sb  Sb14  1  0.000000  0.653155  0.905290  1
  Sb  Sb15  1  0.500000  0.662864  0.175375  1
  Sb  Sb16  1  0.000000  0.023738  0.905250  1
  Sb  Sb17  1  0.000000  0.476262  0.405250  1
  Sb  Sb18  1  0.500000  0.337136  0.824625  1
  Sb  Sb19  1  0.500000  0.162864  0.324625  1
  Sb  Sb20  1  0.000000  0.346845  0.094710  1
  Sb  Sb21  1  0.000000  0.153155  0.594710  1
  Sb  Sb22  1  0.000000  0.976262  0.094750  1
  Sb  Sb23  1  0.500000  0.837136  0.675375  1
  Sb  Sb24  1  0.000000  0.523738  0.594750  1
  Sb  Sb25  1  0.000000  0.846845  0.405290  1
