# generated using pymatgen
data_RbTi2(PO4)3
_symmetry_space_group_name_H-M   'P 1'
_cell_length_a   9.31094351
_cell_length_b   9.31094351
_cell_length_c   9.31094351
_cell_angle_alpha   53.89555902
_cell_angle_beta   53.89555902
_cell_angle_gamma   53.89555902
_symmetry_Int_Tables_number   1
_chemical_formula_structural   RbTi2(PO4)3
_chemical_formula_sum   'Rb2 Ti4 P6 O24'
_cell_volume   489.36141502
_cell_formula_units_Z   2
loop_
 _symmetry_equiv_pos_site_id
 _symmetry_equiv_pos_as_xyz
  1  'x, y, z'
loop_
 _atom_site_type_symbol
 _atom_site_label
 _atom_site_symmetry_multiplicity
 _atom_site_fract_x
 _atom_site_fract_y
 _atom_site_fract_z
 _atom_site_occupancy
  Rb  Rb0  1  0.500000  0.500000  0.500000  1
  Rb  Rb1  1  0.000000  0.000000  0.000000  1
  Ti  Ti2  1  0.349157  0.349157  0.349157  1
  Ti  Ti3  1  0.150843  0.150843  0.150843  1
  Ti  Ti4  1  0.650843  0.650843  0.650843  1
  Ti  Ti5  1  0.849157  0.849157  0.849157  1
  P  P6  1  0.250000  0.970153  0.529847  1
  P  P7  1  0.970153  0.529847  0.250000  1
  P  P8  1  0.529847  0.250000  0.970153  1
  P  P9  1  0.750000  0.029847  0.470153  1
  P  P10  1  0.029847  0.470153  0.750000  1
  P  P11  1  0.470153  0.750000  0.029847  1
  O  O12  1  0.511826  0.238560  0.152284  1
  O  O13  1  0.238560  0.152284  0.511826  1
  O  O14  1  0.152284  0.511826  0.238560  1
  O  O15  1  0.988174  0.347716  0.261440  1
  O  O16  1  0.347716  0.261440  0.988174  1
  O  O17  1  0.261440  0.988174  0.347716  1
  O  O18  1  0.488174  0.761440  0.847716  1
  O  O19  1  0.761440  0.847716  0.488174  1
  O  O20  1  0.847716  0.488174  0.761440  1
  O  O21  1  0.011826  0.652284  0.738560  1
  O  O22  1  0.652284  0.738560  0.011826  1
  O  O23  1  0.738560  0.011826  0.652284  1
  O  O24  1  0.568315  0.197708  0.429644  1
  O  O25  1  0.429644  0.568315  0.197708  1
  O  O26  1  0.197708  0.429644  0.568315  1
  O  O27  1  0.070356  0.302292  0.931685  1
  O  O28  1  0.931685  0.070356  0.302292  1
  O  O29  1  0.302292  0.931685  0.070356  1
  O  O30  1  0.431685  0.802292  0.570356  1
  O  O31  1  0.570356  0.431685  0.802292  1
  O  O32  1  0.802292  0.570356  0.431685  1
  O  O33  1  0.929644  0.697708  0.068315  1
  O  O34  1  0.068315  0.929644  0.697708  1
  O  O35  1  0.697708  0.068315  0.929644  1
