# generated using pymatgen
data_LiSn2P3O10
_symmetry_space_group_name_H-M   'P 1'
_cell_length_a   5.07929578
_cell_length_b   9.21871725
_cell_length_c   10.05103732
_cell_angle_alpha   90.00000000
_cell_angle_beta   94.63393568
_cell_angle_gamma   90.00000000
_symmetry_Int_Tables_number   1
_chemical_formula_structural   LiSn2P3O10
_chemical_formula_sum   'Li2 Sn4 P6 O20'
_cell_volume   469.09730511
_cell_formula_units_Z   2
loop_
 _symmetry_equiv_pos_site_id
 _symmetry_equiv_pos_as_xyz
  1  'x, y, z'
loop_
 _atom_site_type_symbol
 _atom_site_label
 _atom_site_symmetry_multiplicity
 _atom_site_fract_x
 _atom_site_fract_y
 _atom_site_fract_z
 _atom_site_occupancy
  Li  Li0  1  0.000000  0.000000  0.000000  1
  Li  Li1  1  0.000000  0.500000  0.000000  1
  Sn  Sn2  1  0.027384  0.442139  0.326383  1
  Sn  Sn3  1  0.972616  0.557861  0.673617  1
  Sn  Sn4  1  0.972616  0.942139  0.673617  1
  Sn  Sn5  1  0.027384  0.057861  0.326383  1
  P  P6  1  0.708062  0.750000  0.163043  1
  P  P7  1  0.440705  0.750000  0.432207  1
  P  P8  1  0.559295  0.250000  0.567793  1
  P  P9  1  0.582385  0.750000  0.876313  1
  P  P10  1  0.291938  0.250000  0.836957  1
  P  P11  1  0.417615  0.250000  0.123687  1
  O  O12  1  0.721366  0.111050  0.555863  1
  O  O13  1  0.249847  0.110913  0.137900  1
  O  O14  1  0.721366  0.388950  0.555863  1
  O  O15  1  0.495359  0.250000  0.967378  1
  O  O16  1  0.504641  0.750000  0.032622  1
  O  O17  1  0.278634  0.611050  0.444137  1
  O  O18  1  0.278634  0.888950  0.444137  1
  O  O19  1  0.319250  0.750000  0.795960  1
  O  O20  1  0.130201  0.389127  0.836256  1
  O  O21  1  0.494934  0.250000  0.727565  1
  O  O22  1  0.249847  0.389087  0.137900  1
  O  O23  1  0.869799  0.889127  0.163744  1
  O  O24  1  0.701538  0.750000  0.517597  1
  O  O25  1  0.298462  0.250000  0.482403  1
  O  O26  1  0.750153  0.610913  0.862100  1
  O  O27  1  0.680750  0.250000  0.204040  1
  O  O28  1  0.869799  0.610873  0.163744  1
  O  O29  1  0.130201  0.110873  0.836256  1
  O  O30  1  0.505066  0.750000  0.272435  1
  O  O31  1  0.750153  0.889087  0.862100  1
