# generated using pymatgen
data_U2(Al3Co)3
_symmetry_space_group_name_H-M   'P 1'
_cell_length_a   7.43769952
_cell_length_b   7.43769952
_cell_length_c   9.19891927
_cell_angle_alpha   90.00000000
_cell_angle_beta   90.00000000
_cell_angle_gamma   119.24764903
_symmetry_Int_Tables_number   1
_chemical_formula_structural   U2(Al3Co)3
_chemical_formula_sum   'U4 Al18 Co6'
_cell_volume   444.00462404
_cell_formula_units_Z   2
loop_
 _symmetry_equiv_pos_site_id
 _symmetry_equiv_pos_as_xyz
  1  'x, y, z'
loop_
 _atom_site_type_symbol
 _atom_site_label
 _atom_site_symmetry_multiplicity
 _atom_site_fract_x
 _atom_site_fract_y
 _atom_site_fract_z
 _atom_site_occupancy
  U  U0  1  0.674113  0.994869  0.250000  1
  U  U1  1  0.325887  0.005131  0.750000  1
  U  U2  1  0.994869  0.674113  0.250000  1
  U  U3  1  0.005131  0.325887  0.750000  1
  Al  Al4  1  0.333233  0.333233  0.952428  1
  Al  Al5  1  0.336355  0.999591  0.427199  1
  Al  Al6  1  0.000409  0.663645  0.927199  1
  Al  Al7  1  0.443242  0.659045  0.750000  1
  Al  Al8  1  0.663645  0.000409  0.572801  1
  Al  Al9  1  0.556758  0.340955  0.250000  1
  Al  Al10  1  0.666767  0.666767  0.047572  1
  Al  Al11  1  0.336355  0.999591  0.072801  1
  Al  Al12  1  0.999591  0.336355  0.427199  1
  Al  Al13  1  0.000409  0.663645  0.572801  1
  Al  Al14  1  0.663645  0.000409  0.927199  1
  Al  Al15  1  0.126301  0.126301  0.250000  1
  Al  Al16  1  0.340955  0.556758  0.250000  1
  Al  Al17  1  0.999591  0.336355  0.072801  1
  Al  Al18  1  0.333233  0.333233  0.547572  1
  Al  Al19  1  0.666767  0.666767  0.452428  1
  Al  Al20  1  0.659045  0.443242  0.750000  1
  Al  Al21  1  0.873699  0.873699  0.750000  1
  Co  Co22  1  0.326685  0.673315  0.500000  1
  Co  Co23  1  0.326685  0.673315  0.000000  1
  Co  Co24  1  0.000000  0.000000  0.000000  1
  Co  Co25  1  0.673315  0.326685  0.000000  1
  Co  Co26  1  0.673315  0.326685  0.500000  1
  Co  Co27  1  0.000000  0.000000  0.500000  1
