# generated using pymatgen
data_Hf3Al3C5
_symmetry_space_group_name_H-M   'P 1'
_cell_length_a   3.32810448
_cell_length_b   3.32810448
_cell_length_c   27.50273142
_cell_angle_alpha   90.00000000
_cell_angle_beta   90.00000000
_cell_angle_gamma   120.00000000
_symmetry_Int_Tables_number   1
_chemical_formula_structural   Hf3Al3C5
_chemical_formula_sum   'Hf6 Al6 C10'
_cell_volume   263.81553314
_cell_formula_units_Z   2
loop_
 _symmetry_equiv_pos_site_id
 _symmetry_equiv_pos_as_xyz
  1  'x, y, z'
loop_
 _atom_site_type_symbol
 _atom_site_label
 _atom_site_symmetry_multiplicity
 _atom_site_fract_x
 _atom_site_fract_y
 _atom_site_fract_z
 _atom_site_occupancy
  Hf  Hf0  1  0.333333  0.666667  0.594202  1
  Hf  Hf1  1  0.333333  0.666667  0.905798  1
  Hf  Hf2  1  0.666667  0.333333  0.094202  1
  Hf  Hf3  1  0.666667  0.333333  0.405798  1
  Hf  Hf4  1  0.000000  0.000000  0.000000  1
  Hf  Hf5  1  0.000000  0.000000  0.500000  1
  Al  Al6  1  0.666667  0.333333  0.823862  1
  Al  Al7  1  0.333333  0.666667  0.323862  1
  Al  Al8  1  0.000000  0.000000  0.750000  1
  Al  Al9  1  0.333333  0.666667  0.176138  1
  Al  Al10  1  0.666667  0.333333  0.676138  1
  Al  Al11  1  0.000000  0.000000  0.250000  1
  C  C12  1  0.333333  0.666667  0.049506  1
  C  C13  1  0.000000  0.000000  0.849486  1
  C  C14  1  0.000000  0.000000  0.349486  1
  C  C15  1  0.666667  0.333333  0.950494  1
  C  C16  1  0.666667  0.333333  0.549506  1
  C  C17  1  0.333333  0.666667  0.450494  1
  C  C18  1  0.000000  0.000000  0.650514  1
  C  C19  1  0.000000  0.000000  0.150514  1
  C  C20  1  0.666667  0.333333  0.750000  1
  C  C21  1  0.333333  0.666667  0.250000  1
