# generated using pymatgen
data_Ag3SI
_symmetry_space_group_name_H-M   'P 1'
_cell_length_a   5.02028655
_cell_length_b   4.87609773
_cell_length_c   5.05990261
_cell_angle_alpha   90.00000000
_cell_angle_beta   92.38051709
_cell_angle_gamma   90.00000000
_symmetry_Int_Tables_number   1
_chemical_formula_structural   Ag3SI
_chemical_formula_sum   'Ag3 S1 I1'
_cell_volume   123.75652704
_cell_formula_units_Z   1
loop_
 _symmetry_equiv_pos_site_id
 _symmetry_equiv_pos_as_xyz
  1  'x, y, z'
loop_
 _atom_site_type_symbol
 _atom_site_label
 _atom_site_symmetry_multiplicity
 _atom_site_fract_x
 _atom_site_fract_y
 _atom_site_fract_z
 _atom_site_occupancy
  Ag  Ag0  1  0.515348  0.000000  0.114940  1
  Ag  Ag1  1  0.996214  0.500000  0.861834  1
  Ag  Ag2  1  0.110619  0.000000  0.516059  1
  S  S3  1  0.001854  0.000000  0.009093  1
  I  I4  1  0.506065  0.500000  0.498074  1
