# generated using pymatgen
data_Tl4Te3Mo
_symmetry_space_group_name_H-M   'P 1'
_cell_length_a   9.06800251
_cell_length_b   9.06800251
_cell_length_c   9.06800251
_cell_angle_alpha   123.24474757
_cell_angle_beta   123.24474757
_cell_angle_gamma   84.46618935
_symmetry_Int_Tables_number   1
_chemical_formula_structural   Tl4Te3Mo
_chemical_formula_sum   'Tl8 Te6 Mo2'
_cell_volume   498.85148773
_cell_formula_units_Z   2
loop_
 _symmetry_equiv_pos_site_id
 _symmetry_equiv_pos_as_xyz
  1  'x, y, z'
loop_
 _atom_site_type_symbol
 _atom_site_label
 _atom_site_symmetry_multiplicity
 _atom_site_fract_x
 _atom_site_fract_y
 _atom_site_fract_z
 _atom_site_occupancy
  Tl  Tl0  1  0.305928  0.805928  0.789060  1
  Tl  Tl1  1  0.805928  0.016868  0.500000  1
  Tl  Tl2  1  0.516868  0.305928  0.500000  1
  Tl  Tl3  1  0.983132  0.483132  0.789060  1
  Tl  Tl4  1  0.016868  0.516868  0.210940  1
  Tl  Tl5  1  0.483132  0.694072  0.500000  1
  Tl  Tl6  1  0.194072  0.983132  0.500000  1
  Tl  Tl7  1  0.694072  0.194072  0.210940  1
  Te  Te8  1  0.672515  0.172515  0.845030  1
  Te  Te9  1  0.750000  0.750000  0.000000  1
  Te  Te10  1  0.172515  0.327485  0.500000  1
  Te  Te11  1  0.827485  0.672515  0.500000  1
  Te  Te12  1  0.250000  0.250000  0.000000  1
  Te  Te13  1  0.327485  0.827485  0.154970  1
  Mo  Mo14  1  0.500000  0.500000  0.000000  1
  Mo  Mo15  1  1.000000  0.000000  0.000000  1
