# generated using pymatgen
data_ZnH10C4(N2O3)2
_symmetry_space_group_name_H-M   'P 1'
_cell_length_a   12.14721773
_cell_length_b   12.14721773
_cell_length_c   15.49811804
_cell_angle_alpha   67.57240072
_cell_angle_beta   112.42759928
_cell_angle_gamma   90.42307600
_symmetry_Int_Tables_number   1
_chemical_formula_structural   ZnH10C4(N2O3)2
_chemical_formula_sum   'Zn8 H80 C32 N32 O48'
_cell_volume   1928.24982197
_cell_formula_units_Z   8
loop_
 _symmetry_equiv_pos_site_id
 _symmetry_equiv_pos_as_xyz
  1  'x, y, z'
loop_
 _atom_site_type_symbol
 _atom_site_label
 _atom_site_symmetry_multiplicity
 _atom_site_fract_x
 _atom_site_fract_y
 _atom_site_fract_z
 _atom_site_occupancy
  Zn  Zn0  1  0.241716  0.749412  0.003269  1
  Zn  Zn1  1  0.749412  0.241716  0.496731  1
  Zn  Zn2  1  0.758284  0.250588  0.996731  1
  Zn  Zn3  1  0.250588  0.758284  0.503269  1
  Zn  Zn4  1  0.743409  0.748347  0.002605  1
  Zn  Zn5  1  0.748347  0.743409  0.497395  1
  Zn  Zn6  1  0.256591  0.251653  0.997395  1
  Zn  Zn7  1  0.251653  0.256591  0.502605  1
  H  H8  1  0.352113  0.453467  0.329838  1
  H  H9  1  0.453467  0.352113  0.170162  1
  H  H10  1  0.647887  0.546533  0.670162  1
  H  H11  1  0.546533  0.647887  0.829838  1
  H  H12  1  0.483812  0.501327  0.392223  1
  H  H13  1  0.501327  0.483812  0.107777  1
  H  H14  1  0.516188  0.498673  0.607777  1
  H  H15  1  0.498673  0.516188  0.892223  1
  H  H16  1  0.464640  0.756081  0.177329  1
  H  H17  1  0.756081  0.464640  0.322671  1
  H  H18  1  0.535360  0.243919  0.822671  1
  H  H19  1  0.243919  0.535360  0.677329  1
  H  H20  1  0.547512  0.664882  0.308840  1
  H  H21  1  0.664882  0.547512  0.191160  1
  H  H22  1  0.452488  0.335118  0.691160  1
  H  H23  1  0.335118  0.452488  0.808840  1
  H  H24  1  0.014226  0.029295  0.672701  1
  H  H25  1  0.029295  0.014226  0.827299  1
  H  H26  1  0.985774  0.970705  0.327299  1
  H  H27  1  0.970705  0.985774  0.172701  1
  H  H28  1  0.090527  0.989196  0.610374  1
  H  H29  1  0.989196  0.090527  0.889626  1
  H  H30  1  0.909473  0.010804  0.389626  1
  H  H31  1  0.010804  0.909473  0.110374  1
  H  H32  1  0.241167  0.829548  0.694048  1
  H  H33  1  0.829548  0.241167  0.805952  1
  H  H34  1  0.758833  0.170452  0.305952  1
  H  H35  1  0.170452  0.758833  0.194048  1
  H  H36  1  0.296103  0.749854  0.827356  1
  H  H37  1  0.749854  0.296103  0.672644  1
  H  H38  1  0.703897  0.250146  0.172644  1
  H  H39  1  0.250146  0.703897  0.327356  1
  H  H40  1  0.975400  0.719071  0.957276  1
  H  H41  1  0.719071  0.975400  0.542724  1
  H  H42  1  0.024600  0.280929  0.042724  1
  H  H43  1  0.280929  0.024600  0.457276  1
  H  H44  1  0.305353  0.496316  0.014466  1
  H  H45  1  0.496316  0.305353  0.485534  1
  H  H46  1  0.694647  0.503684  0.985534  1
  H  H47  1  0.503684  0.694647  0.514466  1
  H  H48  1  0.954279  0.580856  0.398270  1
  H  H49  1  0.580856  0.954279  0.101730  1
  H  H50  1  0.045721  0.419144  0.601730  1
  H  H51  1  0.419144  0.045721  0.898270  1
  H  H52  1  0.834603  0.702410  0.333983  1
  H  H53  1  0.702410  0.834603  0.166017  1
  H  H54  1  0.165397  0.297590  0.666017  1
  H  H55  1  0.297590  0.165397  0.833983  1
  H  H56  1  0.013393  0.495581  0.313877  1
  H  H57  1  0.495581  0.013393  0.186123  1
  H  H58  1  0.986607  0.504419  0.686123  1
  H  H59  1  0.504419  0.986607  0.813877  1
  H  H60  1  0.948054  0.556331  0.178894  1
  H  H61  1  0.556331  0.948054  0.321106  1
  H  H62  1  0.051946  0.443669  0.821106  1
  H  H63  1  0.443669  0.051946  0.678894  1
  H  H64  1  0.552545  0.937932  0.608467  1
  H  H65  1  0.937932  0.552545  0.891533  1
  H  H66  1  0.447455  0.062068  0.391533  1
  H  H67  1  0.062068  0.447455  0.108467  1
  H  H68  1  0.503251  0.806442  0.670400  1
  H  H69  1  0.806442  0.503251  0.829601  1
  H  H70  1  0.496749  0.193558  0.329600  1
  H  H71  1  0.193558  0.496749  0.170400  1
  H  H72  1  0.786404  0.935192  0.828458  1
  H  H73  1  0.935192  0.786404  0.671542  1
  H  H74  1  0.213596  0.064808  0.171542  1
  H  H75  1  0.064808  0.213596  0.328458  1
  H  H76  1  0.708530  0.007825  0.693778  1
  H  H77  1  0.007825  0.708530  0.806222  1
  H  H78  1  0.291470  0.992175  0.306222  1
  H  H79  1  0.992175  0.291470  0.193778  1
  H  H80  1  0.193341  0.003564  0.997440  1
  H  H81  1  0.003564  0.193341  0.502560  1
  H  H82  1  0.806659  0.996436  0.002560  1
  H  H83  1  0.996436  0.806659  0.497440  1
  H  H84  1  0.483047  0.823608  0.965807  1
  H  H85  1  0.823608  0.483047  0.534193  1
  H  H86  1  0.516953  0.176392  0.034193  1
  H  H87  1  0.176392  0.516953  0.465807  1
  C  C88  1  0.885282  0.646557  0.241996  1
  C  C89  1  0.646557  0.885282  0.258004  1
  C  C90  1  0.114718  0.353443  0.758004  1
  C  C91  1  0.353443  0.114718  0.741996  1
  C  C92  1  0.647718  0.855832  0.764347  1
  C  C93  1  0.855832  0.647718  0.735653  1
  C  C94  1  0.352282  0.144168  0.235653  1
  C  C95  1  0.144168  0.352282  0.264347  1
  C  C96  1  0.292538  0.986490  0.026534  1
  C  C97  1  0.986490  0.292538  0.473466  1
  C  C98  1  0.707462  0.013510  0.973466  1
  C  C99  1  0.013510  0.707462  0.526534  1
  C  C100  1  0.492541  0.724153  0.996602  1
  C  C101  1  0.724153  0.492541  0.503398  1
  C  C102  1  0.507459  0.275847  0.003398  1
  C  C103  1  0.275847  0.507459  0.496602  1
  C  C104  1  0.390868  0.609401  0.239426  1
  C  C105  1  0.609401  0.390868  0.260574  1
  C  C106  1  0.609132  0.390599  0.760574  1
  C  C107  1  0.390599  0.609132  0.739426  1
  C  C108  1  0.154769  0.885999  0.765029  1
  C  C109  1  0.885999  0.154769  0.734971  1
  C  C110  1  0.845231  0.114001  0.234971  1
  C  C111  1  0.114001  0.845231  0.265029  1
  C  C112  1  0.989224  0.784616  0.992611  1
  C  C113  1  0.784616  0.989224  0.507389  1
  C  C114  1  0.010776  0.215384  0.007389  1
  C  C115  1  0.215384  0.010776  0.492611  1
  C  C116  1  0.206043  0.509998  0.977618  1
  C  C117  1  0.509998  0.206043  0.522382  1
  C  C118  1  0.793957  0.490002  0.022382  1
  C  C119  1  0.490002  0.793957  0.477618  1
  N  N120  1  0.406396  0.518354  0.328897  1
  N  N121  1  0.518354  0.406396  0.171103  1
  N  N122  1  0.593604  0.481646  0.671103  1
  N  N123  1  0.481646  0.593604  0.828897  1
  N  N124  1  0.475565  0.682175  0.241640  1
  N  N125  1  0.682175  0.475565  0.258360  1
  N  N126  1  0.524435  0.317825  0.758360  1
  N  N127  1  0.317825  0.524435  0.741640  1
  N  N128  1  0.077474  0.971589  0.675222  1
  N  N129  1  0.971589  0.077474  0.824778  1
  N  N130  1  0.922526  0.028411  0.324778  1
  N  N131  1  0.028411  0.922526  0.175222  1
  N  N132  1  0.234176  0.812729  0.761281  1
  N  N133  1  0.812729  0.234176  0.738719  1
  N  N134  1  0.765824  0.187271  0.238719  1
  N  N135  1  0.187271  0.765824  0.261281  1
  N  N136  1  0.894015  0.645113  0.331651  1
  N  N137  1  0.645113  0.894015  0.168349  1
  N  N138  1  0.105985  0.354887  0.668349  1
  N  N139  1  0.354887  0.105985  0.831651  1
  N  N140  1  0.962771  0.564951  0.245270  1
  N  N141  1  0.564951  0.962771  0.254730  1
  N  N142  1  0.037229  0.435049  0.754730  1
  N  N143  1  0.435049  0.037229  0.745270  1
  N  N144  1  0.563887  0.865197  0.673397  1
  N  N145  1  0.865197  0.563887  0.826603  1
  N  N146  1  0.436113  0.134803  0.326603  1
  N  N147  1  0.134803  0.436113  0.173397  1
  N  N148  1  0.720227  0.940334  0.762161  1
  N  N149  1  0.940334  0.720227  0.737839  1
  N  N150  1  0.279773  0.059666  0.237839  1
  N  N151  1  0.059666  0.279773  0.262161  1
  O  O152  1  0.298120  0.625449  0.158282  1
  O  O153  1  0.625449  0.298120  0.341718  1
  O  O154  1  0.701880  0.374551  0.841718  1
  O  O155  1  0.374551  0.701880  0.658282  1
  O  O156  1  0.148226  0.873742  0.848400  1
  O  O157  1  0.873742  0.148226  0.651600  1
  O  O158  1  0.851774  0.126258  0.151600  1
  O  O159  1  0.126258  0.851774  0.348400  1
  O  O160  1  0.094150  0.810859  0.026151  1
  O  O161  1  0.810859  0.094150  0.473849  1
  O  O162  1  0.905850  0.189141  0.973849  1
  O  O163  1  0.189141  0.905850  0.526151  1
  O  O164  1  0.148504  0.610374  0.956993  1
  O  O165  1  0.610374  0.148504  0.543007  1
  O  O166  1  0.851496  0.389626  0.043007  1
  O  O167  1  0.389626  0.851496  0.456993  1
  O  O168  1  0.342595  0.884808  0.042468  1
  O  O169  1  0.884808  0.342595  0.457532  1
  O  O170  1  0.657405  0.115192  0.957532  1
  O  O171  1  0.115192  0.657405  0.542468  1
  O  O172  1  0.400550  0.675225  0.000553  1
  O  O173  1  0.675225  0.400550  0.499447  1
  O  O174  1  0.599450  0.324775  0.999447  1
  O  O175  1  0.324775  0.599450  0.500553  1
  O  O176  1  0.655864  0.770335  0.847246  1
  O  O177  1  0.770335  0.655864  0.652754  1
  O  O178  1  0.344136  0.229665  0.152754  1
  O  O179  1  0.229665  0.344136  0.347246  1
  O  O180  1  0.805817  0.724445  0.158085  1
  O  O181  1  0.724445  0.805817  0.341915  1
  O  O182  1  0.194183  0.275555  0.841915  1
  O  O183  1  0.275555  0.194183  0.658085  1
  O  O184  1  0.349930  0.069965  0.042535  1
  O  O185  1  0.069965  0.349930  0.457465  1
  O  O186  1  0.650070  0.930035  0.957465  1
  O  O187  1  0.930035  0.650070  0.542535  1
  O  O188  1  0.595532  0.664597  0.026855  1
  O  O189  1  0.664597  0.595532  0.473145  1
  O  O190  1  0.404468  0.335403  0.973145  1
  O  O191  1  0.335403  0.404468  0.526855  1
  O  O192  1  0.899065  0.829726  0.997925  1
  O  O193  1  0.829726  0.899065  0.502075  1
  O  O194  1  0.100935  0.170274  0.002075  1
  O  O195  1  0.170274  0.100935  0.497925  1
  O  O196  1  0.156186  0.424970  0.957658  1
  O  O197  1  0.424970  0.156186  0.542342  1
  O  O198  1  0.843814  0.575030  0.042342  1
  O  O199  1  0.575030  0.843814  0.457658  1
