# generated using pymatgen
data_V3(H3O5)2
_symmetry_space_group_name_H-M   'P 1'
_cell_length_a   5.81707741
_cell_length_b   8.81160222
_cell_length_c   9.11377897
_cell_angle_alpha   88.60911327
_cell_angle_beta   87.38705070
_cell_angle_gamma   85.33323791
_symmetry_Int_Tables_number   1
_chemical_formula_structural   V3(H3O5)2
_chemical_formula_sum   'V6 H12 O20'
_cell_volume   465.01997334
_cell_formula_units_Z   2
loop_
 _symmetry_equiv_pos_site_id
 _symmetry_equiv_pos_as_xyz
  1  'x, y, z'
loop_
 _atom_site_type_symbol
 _atom_site_label
 _atom_site_symmetry_multiplicity
 _atom_site_fract_x
 _atom_site_fract_y
 _atom_site_fract_z
 _atom_site_occupancy
  V  V0  1  0.733902  0.491600  0.488199  1
  V  V1  1  0.726167  0.993960  0.002587  1
  V  V2  1  0.757914  0.372087  0.861300  1
  V  V3  1  0.755705  0.631728  0.124662  1
  V  V4  1  0.700401  0.124962  0.370486  1
  V  V5  1  0.705430  0.855809  0.642254  1
  H  H6  1  0.353816  0.611191  0.440186  1
  H  H7  1  0.348465  0.097766  0.073369  1
  H  H8  1  0.303331  0.365495  0.098880  1
  H  H9  1  0.275848  0.272353  0.248090  1
  H  H10  1  0.152919  0.712325  0.899830  1
  H  H11  1  0.326554  0.576946  0.827262  1
  H  H12  1  0.311387  0.766380  0.738534  1
  H  H13  1  0.160551  0.129147  0.784317  1
  H  H14  1  0.252702  0.099373  0.623169  1
  H  H15  1  0.022311  0.298724  0.660190  1
  H  H16  1  0.296556  0.877627  0.386606  1
  H  H17  1  0.288640  0.771688  0.251036  1
  O  O18  1  0.431199  0.513492  0.483627  1
  O  O19  1  0.421107  0.008310  0.014183  1
  O  O20  1  0.885416  0.385788  0.671720  1
  O  O21  1  0.822408  0.579367  0.306700  1
  O  O22  1  0.774655  0.071233  0.189401  1
  O  O23  1  0.807893  0.908853  0.807909  1
  O  O24  1  0.816263  0.296250  0.410058  1
  O  O25  1  0.794407  0.671082  0.594426  1
  O  O26  1  0.872829  0.804061  0.070325  1
  O  O27  1  0.817740  0.185104  0.916777  1
  O  O28  1  0.478287  0.421037  0.856735  1
  O  O29  1  0.473763  0.648317  0.109433  1
  O  O30  1  0.415465  0.140513  0.395787  1
  O  O31  1  0.409818  0.867461  0.659962  1
  O  O32  1  0.876285  0.493752  0.988256  1
  O  O33  1  0.808378  0.980656  0.500330  1
  O  O34  1  0.247468  0.272069  0.142574  1
  O  O35  1  0.223482  0.673408  0.806822  1
  O  O36  1  0.208659  0.180697  0.692873  1
  O  O37  1  0.252372  0.778813  0.357661  1
