# generated using pymatgen
data_K3Cr11S18
_symmetry_space_group_name_H-M   'P 1'
_cell_length_a   10.87955102
_cell_length_b   10.87955102
_cell_length_c   16.47179091
_cell_angle_alpha   80.17276839
_cell_angle_beta   99.82723161
_cell_angle_gamma   161.37997056
_symmetry_Int_Tables_number   1
_chemical_formula_structural   K3Cr11S18
_chemical_formula_sum   'K3 Cr11 S18'
_cell_volume   613.13212943
_cell_formula_units_Z   1
loop_
 _symmetry_equiv_pos_site_id
 _symmetry_equiv_pos_as_xyz
  1  'x, y, z'
loop_
 _atom_site_type_symbol
 _atom_site_label
 _atom_site_symmetry_multiplicity
 _atom_site_fract_x
 _atom_site_fract_y
 _atom_site_fract_z
 _atom_site_occupancy
  K  K0  1  0.196726  0.803274  0.088662  1
  K  K1  1  0.803274  0.196726  0.911338  1
  K  K2  1  0.500000  0.500000  0.500000  1
  Cr  Cr3  1  0.154067  0.845933  0.721657  1
  Cr  Cr4  1  0.845933  0.154067  0.278343  1
  Cr  Cr5  1  0.708190  0.291810  0.570255  1
  Cr  Cr6  1  0.411392  0.588608  0.132203  1
  Cr  Cr7  1  0.532450  0.467550  0.256792  1
  Cr  Cr8  1  0.467550  0.532450  0.743208  1
  Cr  Cr9  1  0.291810  0.708190  0.429745  1
  Cr  Cr10  1  0.588608  0.411392  0.867797  1
  Cr  Cr11  1  0.167563  0.832437  0.320432  1
  Cr  Cr12  1  0.832437  0.167563  0.679568  1
  Cr  Cr13  1  0.000000  0.000000  0.000000  1
  S  S14  1  0.367086  0.632914  0.773203  1
  S  S15  1  0.579475  0.420525  0.008377  1
  S  S16  1  0.167662  0.832338  0.873848  1
  S  S17  1  0.273185  0.726815  0.281420  1
  S  S18  1  0.708341  0.291659  0.424032  1
  S  S19  1  0.424500  0.575500  0.281185  1
  S  S20  1  0.632914  0.367086  0.226797  1
  S  S21  1  0.064021  0.935979  0.351986  1
  S  S22  1  0.832338  0.167662  0.126152  1
  S  S23  1  0.866538  0.133462  0.426031  1
  S  S24  1  0.935979  0.064021  0.648014  1
  S  S25  1  0.575500  0.424500  0.718815  1
  S  S26  1  0.133462  0.866538  0.573969  1
  S  S27  1  0.420525  0.579475  0.991623  1
  S  S28  1  0.006045  0.993955  0.852358  1
  S  S29  1  0.726815  0.273185  0.718580  1
  S  S30  1  0.993955  0.006045  0.147642  1
  S  S31  1  0.291659  0.708341  0.575968  1
