# generated using pymatgen
data_Hf8PbO24
_symmetry_space_group_name_H-M   'P 1'
_cell_length_a   9.25109925
_cell_length_b   9.25109925
_cell_length_c   9.24047733
_cell_angle_alpha   66.59826655
_cell_angle_beta   113.40173345
_cell_angle_gamma   126.89578218
_symmetry_Int_Tables_number   1
_chemical_formula_structural   Hf8PbO24
_chemical_formula_sum   'Hf8 Pb1 O24'
_cell_volume   566.68728097
_cell_formula_units_Z   1
loop_
 _symmetry_equiv_pos_site_id
 _symmetry_equiv_pos_as_xyz
  1  'x, y, z'
loop_
 _atom_site_type_symbol
 _atom_site_label
 _atom_site_symmetry_multiplicity
 _atom_site_fract_x
 _atom_site_fract_y
 _atom_site_fract_z
 _atom_site_occupancy
  Hf  Hf0  1  0.818395  0.690820  0.245842  1
  Hf  Hf1  1  0.690820  0.818395  0.754158  1
  Hf  Hf2  1  0.309180  0.181605  0.245842  1
  Hf  Hf3  1  0.054861  0.436481  0.246046  1
  Hf  Hf4  1  0.181605  0.309180  0.754158  1
  Hf  Hf5  1  0.945139  0.563519  0.753954  1
  Hf  Hf6  1  0.563519  0.945139  0.246046  1
  Hf  Hf7  1  0.436481  0.054861  0.753954  1
  Pb  Pb8  1  0.500000  0.500000  0.500000  1
  O  O9  1  0.748191  0.748191  0.000000  1
  O  O10  1  0.678083  0.796832  0.262743  1
  O  O11  1  0.796832  0.678083  0.737257  1
  O  O12  1  0.559150  0.440850  0.262927  1
  O  O13  1  0.321862  0.678138  0.261809  1
  O  O14  1  0.440850  0.559150  0.737073  1
  O  O15  1  0.186011  0.813989  0.747760  1
  O  O16  1  0.251809  0.251809  0.000000  1
  O  O17  1  0.203168  0.321917  0.262743  1
  O  O18  1  0.000000  0.500000  0.000000  1
  O  O19  1  0.143781  0.380646  0.500088  1
  O  O20  1  0.321917  0.203168  0.737257  1
  O  O21  1  0.938173  0.561921  0.252516  1
  O  O22  1  0.856219  0.619354  0.499912  1
  O  O23  1  0.061827  0.438079  0.747484  1
  O  O24  1  0.813989  0.186011  0.252240  1
  O  O25  1  0.938122  0.061878  0.748754  1
  O  O26  1  0.678138  0.321862  0.738191  1
  O  O27  1  0.061878  0.938122  0.251246  1
  O  O28  1  0.500000  0.000000  0.000000  1
  O  O29  1  0.438079  0.061827  0.252516  1
  O  O30  1  0.561921  0.938173  0.747484  1
  O  O31  1  0.380646  0.143781  0.499912  1
  O  O32  1  0.619354  0.856219  0.500088  1
