# generated using pymatgen
data_Cu7S4
_symmetry_space_group_name_H-M   'P 1'
_cell_length_a   7.82934881
_cell_length_b   7.87305464
_cell_length_c   10.88931563
_cell_angle_alpha   90.00000000
_cell_angle_beta   90.00000000
_cell_angle_gamma   90.00000000
_symmetry_Int_Tables_number   1
_chemical_formula_structural   Cu7S4
_chemical_formula_sum   'Cu28 S16'
_cell_volume   671.22711705
_cell_formula_units_Z   4
loop_
 _symmetry_equiv_pos_site_id
 _symmetry_equiv_pos_as_xyz
  1  'x, y, z'
loop_
 _atom_site_type_symbol
 _atom_site_label
 _atom_site_symmetry_multiplicity
 _atom_site_fract_x
 _atom_site_fract_y
 _atom_site_fract_z
 _atom_site_occupancy
  Cu  Cu0  1  0.520851  0.750000  0.152337  1
  Cu  Cu1  1  0.979149  0.250000  0.652337  1
  Cu  Cu2  1  0.419348  0.750000  0.829557  1
  Cu  Cu3  1  0.518017  0.750000  0.408528  1
  Cu  Cu4  1  0.264935  0.085417  0.159557  1
  Cu  Cu5  1  0.020851  0.750000  0.347663  1
  Cu  Cu6  1  0.326982  0.023222  0.426025  1
  Cu  Cu7  1  0.826982  0.476778  0.073975  1
  Cu  Cu8  1  0.735065  0.914583  0.840443  1
  Cu  Cu9  1  0.235065  0.585417  0.659557  1
  Cu  Cu10  1  0.481983  0.250000  0.591472  1
  Cu  Cu11  1  0.673018  0.523222  0.573975  1
  Cu  Cu12  1  0.735065  0.585417  0.840443  1
  Cu  Cu13  1  0.018017  0.750000  0.091472  1
  Cu  Cu14  1  0.173018  0.976778  0.926025  1
  Cu  Cu15  1  0.235065  0.914583  0.659557  1
  Cu  Cu16  1  0.919348  0.750000  0.670443  1
  Cu  Cu17  1  0.326982  0.476778  0.426025  1
  Cu  Cu18  1  0.826982  0.023222  0.073975  1
  Cu  Cu19  1  0.479149  0.250000  0.847663  1
  Cu  Cu20  1  0.580652  0.250000  0.170443  1
  Cu  Cu21  1  0.764935  0.085417  0.340443  1
  Cu  Cu22  1  0.264935  0.414583  0.159557  1
  Cu  Cu23  1  0.764935  0.414583  0.340443  1
  Cu  Cu24  1  0.673018  0.976778  0.573975  1
  Cu  Cu25  1  0.981983  0.250000  0.908528  1
  Cu  Cu26  1  0.173018  0.523222  0.926025  1
  Cu  Cu27  1  0.080652  0.250000  0.329557  1
  S  S28  1  0.212001  0.250000  0.515675  1
  S  S29  1  0.001340  0.997917  0.237732  1
  S  S30  1  0.787999  0.750000  0.484325  1
  S  S31  1  0.501340  0.502083  0.262268  1
  S  S32  1  0.498660  0.497917  0.737732  1
  S  S33  1  0.744653  0.750000  0.015869  1
  S  S34  1  0.998660  0.002083  0.762268  1
  S  S35  1  0.244653  0.750000  0.484131  1
  S  S36  1  0.998660  0.497917  0.762268  1
  S  S37  1  0.501340  0.997917  0.262268  1
  S  S38  1  0.255347  0.250000  0.984131  1
  S  S39  1  0.001340  0.502083  0.237732  1
  S  S40  1  0.287999  0.750000  0.015675  1
  S  S41  1  0.498660  0.002083  0.737732  1
  S  S42  1  0.755347  0.250000  0.515869  1
  S  S43  1  0.712001  0.250000  0.984325  1
