# generated using pymatgen
data_Y3U2O10
_symmetry_space_group_name_H-M   'P 1'
_cell_length_a   6.47261752
_cell_length_b   6.47261752
_cell_length_c   8.37113471
_cell_angle_alpha   51.54709413
_cell_angle_beta   128.45290587
_cell_angle_gamma   130.99948973
_symmetry_Int_Tables_number   1
_chemical_formula_structural   Y3U2O10
_chemical_formula_sum   'Y3 U2 O10'
_cell_volume   193.22956095
_cell_formula_units_Z   1
loop_
 _symmetry_equiv_pos_site_id
 _symmetry_equiv_pos_as_xyz
  1  'x, y, z'
loop_
 _atom_site_type_symbol
 _atom_site_label
 _atom_site_symmetry_multiplicity
 _atom_site_fract_x
 _atom_site_fract_y
 _atom_site_fract_z
 _atom_site_occupancy
  Y  Y0  1  0.397365  0.602635  0.095755  1
  Y  Y1  1  0.000000  0.000000  0.500000  1
  Y  Y2  1  0.602635  0.397365  0.904245  1
  U  U3  1  0.196432  0.803568  0.294154  1
  U  U4  1  0.803568  0.196432  0.705846  1
  O  O5  1  0.462461  0.053326  0.791553  1
  O  O6  1  0.053326  0.462461  0.208447  1
  O  O7  1  0.946674  0.537539  0.791553  1
  O  O8  1  0.644376  0.855411  0.606441  1
  O  O9  1  0.537539  0.946674  0.208447  1
  O  O10  1  0.233779  0.233779  0.000000  1
  O  O11  1  0.144589  0.355624  0.606441  1
  O  O12  1  0.855411  0.644376  0.393559  1
  O  O13  1  0.766221  0.766221  0.000000  1
  O  O14  1  0.355624  0.144589  0.393559  1
