# generated using pymatgen
data_CdI2
_symmetry_space_group_name_H-M   'P 1'
_cell_length_a   4.34614638
_cell_length_b   4.34614638
_cell_length_c   66.13781235
_cell_angle_alpha   90.00000000
_cell_angle_beta   90.00000000
_cell_angle_gamma   120.00000000
_symmetry_Int_Tables_number   1
_chemical_formula_structural   CdI2
_chemical_formula_sum   'Cd9 I18'
_cell_volume   1081.90507177
_cell_formula_units_Z   9
loop_
 _symmetry_equiv_pos_site_id
 _symmetry_equiv_pos_as_xyz
  1  'x, y, z'
loop_
 _atom_site_type_symbol
 _atom_site_label
 _atom_site_symmetry_multiplicity
 _atom_site_fract_x
 _atom_site_fract_y
 _atom_site_fract_z
 _atom_site_occupancy
  Cd  Cd0  1  0.000000  0.000000  0.583320  1
  Cd  Cd1  1  0.000000  0.000000  0.805576  1
  Cd  Cd2  1  0.333333  0.666667  0.472238  1
  Cd  Cd3  1  0.000000  0.000000  0.027778  1
  Cd  Cd4  1  0.333333  0.666667  0.138906  1
  Cd  Cd5  1  0.333333  0.666667  0.361081  1
  Cd  Cd6  1  0.000000  0.000000  0.694435  1
  Cd  Cd7  1  0.000000  0.000000  0.916658  1
  Cd  Cd8  1  0.000000  0.000000  0.249985  1
  I  I9  1  0.000000  0.000000  0.334986  1
  I  I10  1  0.666667  0.333333  0.720545  1
  I  I11  1  0.333333  0.666667  0.557221  1
  I  I12  1  0.333333  0.666667  0.779474  1
  I  I13  1  0.333333  0.666667  0.223887  1
  I  I14  1  0.666667  0.333333  0.276091  1
  I  I15  1  0.333333  0.666667  0.668345  1
  I  I16  1  0.666667  0.333333  0.053884  1
  I  I17  1  0.666667  0.333333  0.609418  1
  I  I18  1  0.666667  0.333333  0.942753  1
  I  I19  1  0.000000  0.000000  0.112820  1
  I  I20  1  0.333333  0.666667  0.001700  1
  I  I21  1  0.000000  0.000000  0.446133  1
  I  I22  1  0.666667  0.333333  0.165001  1
  I  I23  1  0.666667  0.333333  0.387170  1
  I  I24  1  0.666667  0.333333  0.831686  1
  I  I25  1  0.666667  0.333333  0.498352  1
  I  I26  1  0.333333  0.666667  0.890556  1
