# generated using pymatgen
data_LiCo(PO3)4
_symmetry_space_group_name_H-M   'P 1'
_cell_length_a   5.08404794
_cell_length_b   7.15096537
_cell_length_c   7.52991466
_cell_angle_alpha   108.59072312
_cell_angle_beta   97.10614461
_cell_angle_gamma   109.79890265
_symmetry_Int_Tables_number   1
_chemical_formula_structural   LiCo(PO3)4
_chemical_formula_sum   'Li1 Co1 P4 O12'
_cell_volume   235.75034213
_cell_formula_units_Z   1
loop_
 _symmetry_equiv_pos_site_id
 _symmetry_equiv_pos_as_xyz
  1  'x, y, z'
loop_
 _atom_site_type_symbol
 _atom_site_label
 _atom_site_symmetry_multiplicity
 _atom_site_fract_x
 _atom_site_fract_y
 _atom_site_fract_z
 _atom_site_occupancy
  Li  Li0  1  0.332219  0.280396  0.449279  1
  Co  Co1  1  0.987498  0.990429  0.988035  1
  P  P2  1  0.156764  0.593957  0.785035  1
  P  P3  1  0.347602  0.800352  0.208941  1
  P  P4  1  0.642900  0.202294  0.794577  1
  P  P5  1  0.842719  0.398043  0.216063  1
  O  O6  1  0.992284  0.239338  0.190236  1
  O  O7  1  0.021593  0.759342  0.803813  1
  O  O8  1  0.224832  0.965872  0.188927  1
  O  O9  1  0.078620  0.618968  0.230806  1
  O  O10  1  0.624055  0.879125  0.350537  1
  O  O11  1  0.609056  0.316438  0.009621  1
  O  O12  1  0.383626  0.681825  0.993932  1
  O  O13  1  0.296545  0.541843  0.627492  1
  O  O14  1  0.687736  0.423793  0.368738  1
  O  O15  1  0.920416  0.381300  0.784482  1
  O  O16  1  0.739212  0.024572  0.808340  1
  O  O17  1  0.379277  0.146236  0.647712  1
