# generated using pymatgen
data_Mo2P2O11
_symmetry_space_group_name_H-M   'P 1'
_cell_length_a   6.39413981
_cell_length_b   10.67116716
_cell_length_c   12.78104074
_cell_angle_alpha   90.00000000
_cell_angle_beta   90.00000000
_cell_angle_gamma   90.00000000
_symmetry_Int_Tables_number   1
_chemical_formula_structural   Mo2P2O11
_chemical_formula_sum   'Mo8 P8 O44'
_cell_volume   872.08791894
_cell_formula_units_Z   4
loop_
 _symmetry_equiv_pos_site_id
 _symmetry_equiv_pos_as_xyz
  1  'x, y, z'
loop_
 _atom_site_type_symbol
 _atom_site_label
 _atom_site_symmetry_multiplicity
 _atom_site_fract_x
 _atom_site_fract_y
 _atom_site_fract_z
 _atom_site_occupancy
  Mo  Mo0  1  0.750000  0.511753  0.250374  1
  Mo  Mo1  1  0.750000  0.781284  0.006121  1
  Mo  Mo2  1  0.250000  0.488247  0.749626  1
  Mo  Mo3  1  0.250000  0.011753  0.249626  1
  Mo  Mo4  1  0.250000  0.281284  0.493879  1
  Mo  Mo5  1  0.750000  0.988247  0.750374  1
  Mo  Mo6  1  0.250000  0.218716  0.993879  1
  Mo  Mo7  1  0.750000  0.718716  0.506121  1
  P  P8  1  0.250000  0.689390  0.976878  1
  P  P9  1  0.250000  0.810610  0.476878  1
  P  P10  1  0.250000  0.504630  0.158196  1
  P  P11  1  0.750000  0.189390  0.523122  1
  P  P12  1  0.750000  0.495370  0.841804  1
  P  P13  1  0.250000  0.995370  0.658196  1
  P  P14  1  0.750000  0.310610  0.023122  1
  P  P15  1  0.750000  0.004630  0.341804  1
  O  O16  1  0.750000  0.130646  0.408827  1
  O  O17  1  0.750000  0.414679  0.103196  1
  O  O18  1  0.250000  0.914679  0.396804  1
  O  O19  1  0.556560  0.225585  0.026754  1
  O  O20  1  0.250000  0.365344  0.657239  1
  O  O21  1  0.443356  0.981002  0.728503  1
  O  O22  1  0.443440  0.725585  0.473246  1
  O  O23  1  0.250000  0.313827  0.881641  1
  O  O24  1  0.056560  0.725585  0.473246  1
  O  O25  1  0.556560  0.274415  0.526754  1
  O  O26  1  0.943356  0.018998  0.271497  1
  O  O27  1  0.250000  0.186173  0.381641  1
  O  O28  1  0.250000  0.391444  0.090263  1
  O  O29  1  0.556644  0.018998  0.271497  1
  O  O30  1  0.750000  0.570360  0.555766  1
  O  O31  1  0.250000  0.108556  0.590263  1
  O  O32  1  0.250000  0.617803  0.672736  1
  O  O33  1  0.250000  0.429640  0.444234  1
  O  O34  1  0.750000  0.865344  0.842761  1
  O  O35  1  0.943356  0.481002  0.771497  1
  O  O36  1  0.056560  0.774415  0.973246  1
  O  O37  1  0.443440  0.774415  0.973246  1
  O  O38  1  0.443356  0.518998  0.228503  1
  O  O39  1  0.250000  0.585321  0.896804  1
  O  O40  1  0.750000  0.608556  0.909737  1
  O  O41  1  0.750000  0.085321  0.603196  1
  O  O42  1  0.250000  0.134656  0.157239  1
  O  O43  1  0.556644  0.481002  0.771497  1
  O  O44  1  0.056644  0.981002  0.728503  1
  O  O45  1  0.250000  0.630646  0.091173  1
  O  O46  1  0.750000  0.634656  0.342761  1
  O  O47  1  0.750000  0.813827  0.618359  1
  O  O48  1  0.750000  0.891444  0.409737  1
  O  O49  1  0.943440  0.274415  0.526754  1
  O  O50  1  0.750000  0.382197  0.327264  1
  O  O51  1  0.943440  0.225585  0.026754  1
  O  O52  1  0.056644  0.518998  0.228503  1
  O  O53  1  0.750000  0.117803  0.827264  1
  O  O54  1  0.250000  0.882197  0.172736  1
  O  O55  1  0.750000  0.686173  0.118359  1
  O  O56  1  0.750000  0.929640  0.055766  1
  O  O57  1  0.750000  0.369354  0.908827  1
  O  O58  1  0.250000  0.869354  0.591173  1
  O  O59  1  0.250000  0.070360  0.944234  1
