# generated using pymatgen
data_Cs2HgBr4
_symmetry_space_group_name_H-M   'P 1'
_cell_length_a   8.18665672
_cell_length_b   10.51894526
_cell_length_c   14.44132254
_cell_angle_alpha   90.00000000
_cell_angle_beta   90.00000000
_cell_angle_gamma   90.00000000
_symmetry_Int_Tables_number   1
_chemical_formula_structural   Cs2HgBr4
_chemical_formula_sum   'Cs8 Hg4 Br16'
_cell_volume   1243.61440244
_cell_formula_units_Z   4
loop_
 _symmetry_equiv_pos_site_id
 _symmetry_equiv_pos_as_xyz
  1  'x, y, z'
loop_
 _atom_site_type_symbol
 _atom_site_label
 _atom_site_symmetry_multiplicity
 _atom_site_fract_x
 _atom_site_fract_y
 _atom_site_fract_z
 _atom_site_occupancy
  Cs  Cs0  1  0.250000  0.482709  0.329218  1
  Cs  Cs1  1  0.750000  0.878976  0.400342  1
  Cs  Cs2  1  0.750000  0.017291  0.829218  1
  Cs  Cs3  1  0.250000  0.621024  0.900342  1
  Cs  Cs4  1  0.250000  0.121024  0.599658  1
  Cs  Cs5  1  0.250000  0.982709  0.170782  1
  Cs  Cs6  1  0.750000  0.378976  0.099658  1
  Cs  Cs7  1  0.750000  0.517291  0.670782  1
  Hg  Hg8  1  0.250000  0.222208  0.923285  1
  Hg  Hg9  1  0.750000  0.777792  0.076715  1
  Hg  Hg10  1  0.250000  0.722208  0.576715  1
  Hg  Hg11  1  0.750000  0.277792  0.423285  1
  Br  Br12  1  0.250000  0.472046  0.588640  1
  Br  Br13  1  0.250000  0.821677  0.405432  1
  Br  Br14  1  0.986162  0.821645  0.657575  1
  Br  Br15  1  0.750000  0.678323  0.905432  1
  Br  Br16  1  0.250000  0.972046  0.911360  1
  Br  Br17  1  0.513838  0.321645  0.842425  1
  Br  Br18  1  0.013838  0.678355  0.157575  1
  Br  Br19  1  0.486162  0.678355  0.157575  1
  Br  Br20  1  0.513838  0.821645  0.657575  1
  Br  Br21  1  0.486162  0.178355  0.342425  1
  Br  Br22  1  0.750000  0.178323  0.594568  1
  Br  Br23  1  0.250000  0.321677  0.094568  1
  Br  Br24  1  0.750000  0.527954  0.411360  1
  Br  Br25  1  0.986162  0.321645  0.842425  1
  Br  Br26  1  0.750000  0.027954  0.088640  1
  Br  Br27  1  0.013838  0.178355  0.342425  1
