# generated using pymatgen
data_Ca3NdF9
_symmetry_space_group_name_H-M   'P 1'
_cell_length_a   3.91902997
_cell_length_b   3.93033853
_cell_length_c   26.89399313
_cell_angle_alpha   86.09246883
_cell_angle_beta   86.04683870
_cell_angle_gamma   60.30392746
_symmetry_Int_Tables_number   1
_chemical_formula_structural   Ca3NdF9
_chemical_formula_sum   'Ca6 Nd2 F18'
_cell_volume   358.71330734
_cell_formula_units_Z   2
loop_
 _symmetry_equiv_pos_site_id
 _symmetry_equiv_pos_as_xyz
  1  'x, y, z'
loop_
 _atom_site_type_symbol
 _atom_site_label
 _atom_site_symmetry_multiplicity
 _atom_site_fract_x
 _atom_site_fract_y
 _atom_site_fract_z
 _atom_site_occupancy
  Ca  Ca0  1  0.972370  0.963287  0.015788  1
  Ca  Ca1  1  0.609294  0.571759  0.138951  1
  Ca  Ca2  1  0.246864  0.213926  0.256778  1
  Ca  Ca3  1  0.873674  0.865270  0.376856  1
  Ca  Ca4  1  0.503880  0.513305  0.496909  1
  Ca  Ca5  1  0.328179  0.380817  0.891927  1
  Nd  Nd6  1  0.132775  0.148968  0.626294  1
  Nd  Nd7  1  0.708619  0.770264  0.768825  1
  F  F8  1  0.952164  0.916575  0.108841  1
  F  F9  1  0.270609  0.230166  0.169348  1
  F  F10  1  0.589746  0.551954  0.226001  1
  F  F11  1  0.549584  0.539736  0.347616  1
  F  F12  1  0.902647  0.877980  0.285620  1
  F  F13  1  0.160116  0.173032  0.529962  1
  F  F14  1  0.197054  0.192523  0.405300  1
  F  F15  1  0.845804  0.851401  0.467705  1
  F  F16  1  0.798650  0.814242  0.627565  1
  F  F17  1  0.479791  0.494018  0.580314  1
  F  F18  1  0.372275  0.432275  0.779520  1
  F  F19  1  0.452651  0.463207  0.672725  1
  F  F20  1  0.988554  0.025528  0.923221  1
  F  F21  1  0.087354  0.114865  0.720581  1
  F  F22  1  0.024206  0.086393  0.813536  1
  F  F23  1  0.673312  0.728697  0.860895  1
  F  F24  1  0.645359  0.642670  0.985996  1
  F  F25  1  0.297968  0.284639  0.044426  1
