# generated using pymatgen
data_La3Zn3Ge2SbO14
_symmetry_space_group_name_H-M   'P 1'
_cell_length_a   8.40304604
_cell_length_b   8.40304604
_cell_length_c   5.28652616
_cell_angle_alpha   90.00000000
_cell_angle_beta   90.00000000
_cell_angle_gamma   120.00000000
_symmetry_Int_Tables_number   1
_chemical_formula_structural   La3Zn3Ge2SbO14
_chemical_formula_sum   'La3 Zn3 Ge2 Sb1 O14'
_cell_volume   323.27677366
_cell_formula_units_Z   1
loop_
 _symmetry_equiv_pos_site_id
 _symmetry_equiv_pos_as_xyz
  1  'x, y, z'
loop_
 _atom_site_type_symbol
 _atom_site_label
 _atom_site_symmetry_multiplicity
 _atom_site_fract_x
 _atom_site_fract_y
 _atom_site_fract_z
 _atom_site_occupancy
  La  La0  1  0.000000  0.580096  0.000000  1
  La  La1  1  0.580096  0.000000  0.000000  1
  La  La2  1  0.419904  0.419904  0.000000  1
  Zn  Zn3  1  0.000000  0.239425  0.500000  1
  Zn  Zn4  1  0.239425  0.000000  0.500000  1
  Zn  Zn5  1  0.760575  0.760575  0.500000  1
  Ge  Ge6  1  0.666667  0.333333  0.551568  1
  Ge  Ge7  1  0.333333  0.666667  0.448432  1
  Sb  Sb8  1  0.000000  0.000000  0.000000  1
  O  O9  1  0.673756  0.528140  0.704155  1
  O  O10  1  0.777002  0.918652  0.779611  1
  O  O11  1  0.666667  0.333333  0.217815  1
  O  O12  1  0.471860  0.145616  0.704155  1
  O  O13  1  0.333333  0.666667  0.782185  1
  O  O14  1  0.222998  0.141651  0.220389  1
  O  O15  1  0.528140  0.673756  0.295845  1
  O  O16  1  0.081348  0.858349  0.779611  1
  O  O17  1  0.326244  0.854384  0.295845  1
  O  O18  1  0.854384  0.326244  0.704155  1
  O  O19  1  0.918652  0.777002  0.220389  1
  O  O20  1  0.145616  0.471860  0.295845  1
  O  O21  1  0.858349  0.081348  0.220389  1
  O  O22  1  0.141651  0.222998  0.779611  1
