# generated using pymatgen
data_MnPO4
_symmetry_space_group_name_H-M   'P 1'
_cell_length_a   8.84303884
_cell_length_b   8.84303884
_cell_length_c   8.84303884
_cell_angle_alpha   108.21458002
_cell_angle_beta   108.21458002
_cell_angle_gamma   108.21458002
_symmetry_Int_Tables_number   1
_chemical_formula_structural   MnPO4
_chemical_formula_sum   'Mn6 P6 O24'
_cell_volume   555.72011943
_cell_formula_units_Z   6
loop_
 _symmetry_equiv_pos_site_id
 _symmetry_equiv_pos_as_xyz
  1  'x, y, z'
loop_
 _atom_site_type_symbol
 _atom_site_label
 _atom_site_symmetry_multiplicity
 _atom_site_fract_x
 _atom_site_fract_y
 _atom_site_fract_z
 _atom_site_occupancy
  Mn  Mn0  1  0.243907  0.463343  0.041213  1
  Mn  Mn1  1  0.463343  0.041213  0.243907  1
  Mn  Mn2  1  0.523013  0.932218  0.748469  1
  Mn  Mn3  1  0.932218  0.748469  0.523013  1
  Mn  Mn4  1  0.041213  0.243907  0.463343  1
  Mn  Mn5  1  0.748469  0.523013  0.932218  1
  P  P6  1  0.789718  0.390354  0.575640  1
  P  P7  1  0.880849  0.279227  0.088634  1
  P  P8  1  0.279227  0.088634  0.880849  1
  P  P9  1  0.088634  0.880849  0.279227  1
  P  P10  1  0.390354  0.575640  0.789718  1
  P  P11  1  0.575640  0.789718  0.390354  1
  O  O12  1  0.646055  0.285935  0.377438  1
  O  O13  1  0.590873  0.625976  0.880598  1
  O  O14  1  0.325604  0.608261  0.937242  1
  O  O15  1  0.072968  0.794110  0.405795  1
  O  O16  1  0.959162  0.320156  0.285821  1
  O  O17  1  0.082722  0.972163  0.739040  1
  O  O18  1  0.625976  0.880598  0.590873  1
  O  O19  1  0.285821  0.959162  0.320156  1
  O  O20  1  0.739040  0.082722  0.972163  1
  O  O21  1  0.377438  0.646055  0.285935  1
  O  O22  1  0.405795  0.072968  0.794110  1
  O  O23  1  0.315290  0.025090  0.026218  1
  O  O24  1  0.699317  0.706032  0.359261  1
  O  O25  1  0.608261  0.937242  0.325604  1
  O  O26  1  0.320156  0.285821  0.959162  1
  O  O27  1  0.359261  0.699317  0.706032  1
  O  O28  1  0.706032  0.359261  0.699317  1
  O  O29  1  0.972163  0.739040  0.082722  1
  O  O30  1  0.794110  0.405795  0.072968  1
  O  O31  1  0.285935  0.377438  0.646055  1
  O  O32  1  0.880598  0.590873  0.625976  1
  O  O33  1  0.025090  0.026218  0.315290  1
  O  O34  1  0.937242  0.325604  0.608261  1
  O  O35  1  0.026218  0.315290  0.025090  1
