# generated using pymatgen
data_NaLiLa2Ti4O12
_symmetry_space_group_name_H-M   'P 1'
_cell_length_a   5.48987525
_cell_length_b   5.49325275
_cell_length_c   8.00632431
_cell_angle_alpha   90.10365639
_cell_angle_beta   90.21876321
_cell_angle_gamma   90.07508266
_symmetry_Int_Tables_number   1
_chemical_formula_structural   NaLiLa2Ti4O12
_chemical_formula_sum   'Na1 Li1 La2 Ti4 O12'
_cell_volume   241.44653771
_cell_formula_units_Z   1
loop_
 _symmetry_equiv_pos_site_id
 _symmetry_equiv_pos_as_xyz
  1  'x, y, z'
loop_
 _atom_site_type_symbol
 _atom_site_label
 _atom_site_symmetry_multiplicity
 _atom_site_fract_x
 _atom_site_fract_y
 _atom_site_fract_z
 _atom_site_occupancy
  Na  Na0  1  0.510743  0.989383  0.812242  1
  Li  Li1  1  0.484627  0.996148  0.383448  1
  La  La2  1  0.000479  0.493621  0.773423  1
  La  La3  1  0.997182  0.498298  0.265231  1
  Ti  Ti4  1  0.003456  0.997218  0.023881  1
  Ti  Ti5  1  0.494449  0.496849  0.021280  1
  Ti  Ti6  1  0.501608  0.499248  0.518074  1
  Ti  Ti7  1  0.993801  0.999158  0.519645  1
  O  O8  1  0.252497  0.758211  0.519304  1
  O  O9  1  0.060315  0.001148  0.248015  1
  O  O10  1  0.255318  0.251033  0.966799  1
  O  O11  1  0.781315  0.277154  0.019933  1
  O  O12  1  0.225912  0.273098  0.518528  1
  O  O13  1  0.552888  0.500216  0.744978  1
  O  O14  1  0.447128  0.499920  0.246974  1
  O  O15  1  0.760501  0.737741  0.467998  1
  O  O16  1  0.234655  0.730262  0.970744  1
  O  O17  1  0.756591  0.750265  0.019404  1
  O  O18  1  0.945959  0.003891  0.745163  1
  O  O19  1  0.740577  0.247139  0.464935  1
