# generated using pymatgen
data_LiFe(GeO3)2
_symmetry_space_group_name_H-M   'P 1'
_cell_length_a   5.45541107
_cell_length_b   8.93717844
_cell_length_c   9.75078421
_cell_angle_alpha   90.00000000
_cell_angle_beta   103.05473351
_cell_angle_gamma   90.00000000
_symmetry_Int_Tables_number   1
_chemical_formula_structural   LiFe(GeO3)2
_chemical_formula_sum   'Li4 Fe4 Ge8 O24'
_cell_volume   463.12198531
_cell_formula_units_Z   4
loop_
 _symmetry_equiv_pos_site_id
 _symmetry_equiv_pos_as_xyz
  1  'x, y, z'
loop_
 _atom_site_type_symbol
 _atom_site_label
 _atom_site_symmetry_multiplicity
 _atom_site_fract_x
 _atom_site_fract_y
 _atom_site_fract_z
 _atom_site_occupancy
  Li  Li0  1  0.036643  0.011213  0.257874  1
  Li  Li1  1  0.463357  0.511213  0.742126  1
  Li  Li2  1  0.963357  0.988787  0.742126  1
  Li  Li3  1  0.536643  0.488787  0.257874  1
  Fe  Fe4  1  0.536508  0.849209  0.250730  1
  Fe  Fe5  1  0.963492  0.349209  0.749270  1
  Fe  Fe6  1  0.463492  0.150791  0.749270  1
  Fe  Fe7  1  0.036508  0.650791  0.250730  1
  Ge  Ge8  1  0.266211  0.158039  0.045574  1
  Ge  Ge9  1  0.233789  0.658039  0.954426  1
  Ge  Ge10  1  0.733789  0.841961  0.954426  1
  Ge  Ge11  1  0.766211  0.341961  0.045574  1
  Ge  Ge12  1  0.821601  0.660205  0.551798  1
  Ge  Ge13  1  0.678399  0.160205  0.448202  1
  Ge  Ge14  1  0.178399  0.339795  0.448202  1
  Ge  Ge15  1  0.321601  0.839795  0.551798  1
  O  O16  1  0.183575  0.168182  0.858459  1
  O  O17  1  0.316425  0.668182  0.141541  1
  O  O18  1  0.816425  0.831818  0.141541  1
  O  O19  1  0.683575  0.331818  0.858459  1
  O  O20  1  0.327913  0.979868  0.114837  1
  O  O21  1  0.172087  0.479868  0.885163  1
  O  O22  1  0.672087  0.020132  0.885163  1
  O  O23  1  0.827913  0.520132  0.114837  1
  O  O24  1  0.004334  0.209379  0.117251  1
  O  O25  1  0.495666  0.709379  0.882749  1
  O  O26  1  0.995666  0.790621  0.882749  1
  O  O27  1  0.504334  0.290621  0.117251  1
  O  O28  1  0.756731  0.668251  0.363865  1
  O  O29  1  0.743269  0.168251  0.636135  1
  O  O30  1  0.243269  0.331749  0.636135  1
  O  O31  1  0.256731  0.831749  0.363865  1
  O  O32  1  0.746422  0.496639  0.629329  1
  O  O33  1  0.753578  0.996639  0.370671  1
  O  O34  1  0.253578  0.503361  0.370671  1
  O  O35  1  0.246422  0.003361  0.629329  1
  O  O36  1  0.652983  0.809225  0.612475  1
  O  O37  1  0.847017  0.309225  0.387525  1
  O  O38  1  0.347017  0.190775  0.387525  1
  O  O39  1  0.152983  0.690775  0.612475  1
