# generated using pymatgen
data_H7ClO3
_symmetry_space_group_name_H-M   'P 1'
_cell_length_a   6.41121003
_cell_length_b   6.41121003
_cell_length_c   6.78989847
_cell_angle_alpha   70.74928424
_cell_angle_beta   109.25071576
_cell_angle_gamma   72.76868729
_symmetry_Int_Tables_number   1
_chemical_formula_structural   H7ClO3
_chemical_formula_sum   'H14 Cl2 O6'
_cell_volume   221.59726164
_cell_formula_units_Z   2
loop_
 _symmetry_equiv_pos_site_id
 _symmetry_equiv_pos_as_xyz
  1  'x, y, z'
loop_
 _atom_site_type_symbol
 _atom_site_label
 _atom_site_symmetry_multiplicity
 _atom_site_fract_x
 _atom_site_fract_y
 _atom_site_fract_z
 _atom_site_occupancy
  H  H0  1  0.792764  0.179291  0.448758  1
  H  H1  1  0.670695  0.083466  0.602991  1
  H  H2  1  0.820709  0.207236  0.948758  1
  H  H3  1  0.916534  0.329305  0.102991  1
  H  H4  1  0.184542  0.692428  0.243872  1
  H  H5  1  0.468799  0.460509  0.382818  1
  H  H6  1  0.539491  0.531201  0.882818  1
  H  H7  1  0.307572  0.815458  0.743872  1
  H  H8  1  0.499854  0.053933  0.258781  1
  H  H9  1  0.413802  0.778618  0.275465  1
  H  H10  1  0.579776  0.924936  0.113633  1
  H  H11  1  0.946067  0.500146  0.758781  1
  H  H12  1  0.221382  0.586198  0.775465  1
  H  H13  1  0.075064  0.420224  0.613633  1
  Cl  Cl14  1  0.130562  0.167162  0.482038  1
  Cl  Cl15  1  0.832838  0.869438  0.982038  1
  O  O16  1  0.628955  0.195468  0.438812  1
  O  O17  1  0.804532  0.371045  0.938812  1
  O  O18  1  0.363089  0.634045  0.357177  1
  O  O19  1  0.365955  0.636911  0.857177  1
  O  O20  1  0.450979  0.971265  0.163753  1
  O  O21  1  0.028735  0.549021  0.663753  1
