# generated using pymatgen
data_Mg4Al9Cu(SiO4)9
_symmetry_space_group_name_H-M   'P 1'
_cell_length_a   9.83220741
_cell_length_b   9.47970891
_cell_length_c   9.88382228
_cell_angle_alpha   90.00000000
_cell_angle_beta   119.61569355
_cell_angle_gamma   90.00000000
_symmetry_Int_Tables_number   1
_chemical_formula_structural   Mg4Al9Cu(SiO4)9
_chemical_formula_sum   'Mg4 Al9 Cu1 Si9 O36'
_cell_volume   800.88547514
_cell_formula_units_Z   1
loop_
 _symmetry_equiv_pos_site_id
 _symmetry_equiv_pos_as_xyz
  1  'x, y, z'
loop_
 _atom_site_type_symbol
 _atom_site_label
 _atom_site_symmetry_multiplicity
 _atom_site_fract_x
 _atom_site_fract_y
 _atom_site_fract_z
 _atom_site_occupancy
  Mg  Mg0  1  0.662044  0.748383  0.324359  1
  Mg  Mg1  1  0.660872  0.252672  0.321735  1
  Mg  Mg2  1  0.337956  0.748383  0.675641  1
  Mg  Mg3  1  0.339128  0.252672  0.678265  1
  Al  Al4  1  0.742777  0.500751  0.104840  1
  Al  Al5  1  0.500000  0.253134  0.000000  1
  Al  Al6  1  0.358891  0.002461  0.100927  1
  Al  Al7  1  0.500000  0.747341  0.500000  1
  Al  Al8  1  0.500000  0.254217  0.500000  1
  Al  Al9  1  0.000000  0.751223  0.500000  1
  Al  Al10  1  0.000000  0.251727  0.500000  1
  Al  Al11  1  0.641109  0.002461  0.899073  1
  Al  Al12  1  0.257223  0.500751  0.895160  1
  Cu  Cu13  1  0.000000  0.014231  0.000000  1
  Si  Si14  1  0.900119  0.002196  0.273018  1
  Si  Si15  1  0.374615  0.500996  0.270157  1
  Si  Si16  1  0.885231  0.502878  0.616455  1
  Si  Si17  1  0.269100  0.000727  0.382818  1
  Si  Si18  1  0.730900  0.000727  0.617182  1
  Si  Si19  1  0.114769  0.502878  0.383545  1
  Si  Si20  1  0.625385  0.500996  0.729843  1
  Si  Si21  1  0.099881  0.002196  0.726982  1
  Si  Si22  1  0.500000  0.749383  0.000000  1
  O  O23  1  0.818093  0.006347  0.083555  1
  O  O24  1  0.940870  0.511314  0.239568  1
  O  O25  1  0.655052  0.355854  0.139577  1
  O  O26  1  0.647531  0.654939  0.126761  1
  O  O27  1  0.470977  0.847521  0.121145  1
  O  O28  1  0.484422  0.143676  0.137511  1
  O  O29  1  0.861524  0.859040  0.343078  1
  O  O30  1  0.862619  0.141782  0.347498  1
  O  O31  1  0.294229  0.500717  0.085872  1
  O  O32  1  0.272723  0.997468  0.220572  1
  O  O33  1  0.854634  0.642607  0.503019  1
  O  O34  1  0.859079  0.358525  0.511796  1
  O  O35  1  0.486514  0.642299  0.346809  1
  O  O36  1  0.485917  0.360701  0.348127  1
  O  O37  1  0.648486  0.859919  0.509551  1
  O  O38  1  0.649975  0.142672  0.513185  1
  O  O39  1  0.248892  0.503611  0.332852  1
  O  O40  1  0.912528  0.000618  0.659173  1
  O  O41  1  0.087472  0.000618  0.340827  1
  O  O42  1  0.751108  0.503611  0.667148  1
  O  O43  1  0.351514  0.859919  0.490449  1
  O  O44  1  0.350025  0.142672  0.486815  1
  O  O45  1  0.513486  0.642299  0.653191  1
  O  O46  1  0.514083  0.360701  0.651873  1
  O  O47  1  0.145366  0.642607  0.496981  1
  O  O48  1  0.140921  0.358525  0.488204  1
  O  O49  1  0.727277  0.997468  0.779428  1
  O  O50  1  0.705771  0.500717  0.914128  1
  O  O51  1  0.137381  0.141782  0.652502  1
  O  O52  1  0.138476  0.859040  0.656922  1
  O  O53  1  0.529023  0.847521  0.878855  1
  O  O54  1  0.515578  0.143676  0.862489  1
  O  O55  1  0.352469  0.654939  0.873239  1
  O  O56  1  0.344948  0.355854  0.860423  1
  O  O57  1  0.059130  0.511314  0.760432  1
  O  O58  1  0.181907  0.006347  0.916445  1
