# generated using pymatgen
data_Li3(Mo3S4)2
_symmetry_space_group_name_H-M   'P 1'
_cell_length_a   6.66779725
_cell_length_b   6.67627271
_cell_length_c   13.34679161
_cell_angle_alpha   94.02627346
_cell_angle_beta   93.78715074
_cell_angle_gamma   95.68037910
_symmetry_Int_Tables_number   1
_chemical_formula_structural   Li3(Mo3S4)2
_chemical_formula_sum   'Li6 Mo12 S16'
_cell_volume   588.17248972
_cell_formula_units_Z   2
loop_
 _symmetry_equiv_pos_site_id
 _symmetry_equiv_pos_as_xyz
  1  'x, y, z'
loop_
 _atom_site_type_symbol
 _atom_site_label
 _atom_site_symmetry_multiplicity
 _atom_site_fract_x
 _atom_site_fract_y
 _atom_site_fract_z
 _atom_site_occupancy
  Li  Li0  1  0.015719  0.395073  0.984728  1
  Li  Li1  1  0.140526  0.918085  0.987947  1
  Li  Li2  1  0.410253  0.962679  0.509895  1
  Li  Li3  1  0.973871  0.012823  0.704012  1
  Li  Li4  1  0.977772  0.140581  0.458726  1
  Li  Li5  1  0.961028  0.018534  0.203047  1
  Mo  Mo6  1  0.234988  0.405396  0.774019  1
  Mo  Mo7  1  0.231275  0.413877  0.273983  1
  Mo  Mo8  1  0.462167  0.764525  0.794763  1
  Mo  Mo9  1  0.414666  0.543761  0.614359  1
  Mo  Mo10  1  0.453660  0.773595  0.293601  1
  Mo  Mo11  1  0.412186  0.549887  0.114968  1
  Mo  Mo12  1  0.591185  0.450240  0.884282  1
  Mo  Mo13  1  0.547239  0.229263  0.705431  1
  Mo  Mo14  1  0.588101  0.458330  0.384788  1
  Mo  Mo15  1  0.542449  0.232647  0.204471  1
  Mo  Mo16  1  0.773597  0.586145  0.725159  1
  Mo  Mo17  1  0.764381  0.596247  0.225667  1
  S  S18  1  0.142172  0.707198  0.689350  1
  S  S19  1  0.134721  0.716062  0.186463  1
  S  S20  1  0.291242  0.616551  0.934267  1
  S  S21  1  0.216696  0.210221  0.607262  1
  S  S22  1  0.286660  0.618279  0.435165  1
  S  S23  1  0.211013  0.215198  0.107964  1
  S  S24  1  0.375292  0.126910  0.859472  1
  S  S25  1  0.371342  0.134034  0.357674  1
  S  S26  1  0.630337  0.869138  0.643198  1
  S  S27  1  0.619243  0.874202  0.139872  1
  S  S28  1  0.795809  0.778963  0.890308  1
  S  S29  1  0.718075  0.378836  0.564333  1
  S  S30  1  0.781632  0.794980  0.390376  1
  S  S31  1  0.708757  0.380715  0.066389  1
  S  S32  1  0.868484  0.286176  0.811185  1
  S  S33  1  0.863463  0.293848  0.309377  1
