# generated using pymatgen
data_Li10Ge(PO6)2
_symmetry_space_group_name_H-M   'P 1'
_cell_length_a   6.83682402
_cell_length_b   7.14601822
_cell_length_c   10.52699067
_cell_angle_alpha   89.89309053
_cell_angle_beta   89.84990151
_cell_angle_gamma   89.75412134
_symmetry_Int_Tables_number   1
_chemical_formula_structural   Li10Ge(PO6)2
_chemical_formula_sum   'Li20 Ge2 P4 O24'
_cell_volume   514.29999767
_cell_formula_units_Z   2
loop_
 _symmetry_equiv_pos_site_id
 _symmetry_equiv_pos_as_xyz
  1  'x, y, z'
loop_
 _atom_site_type_symbol
 _atom_site_label
 _atom_site_symmetry_multiplicity
 _atom_site_fract_x
 _atom_site_fract_y
 _atom_site_fract_z
 _atom_site_occupancy
  Li  Li0  1  0.016129  0.454362  0.936237  1
  Li  Li1  1  0.210132  0.357461  0.430173  1
  Li  Li2  1  0.508943  0.075382  0.561422  1
  Li  Li3  1  0.521732  0.966532  0.063634  1
  Li  Li4  1  0.721979  0.741132  0.178917  1
  Li  Li5  1  0.482673  0.437104  0.247638  1
  Li  Li6  1  0.862147  0.107747  0.763727  1
  Li  Li7  1  0.952670  0.080707  0.242008  1
  Li  Li8  1  0.221682  0.764039  0.332320  1
  Li  Li9  1  0.553530  0.478846  0.740222  1
  Li  Li10  1  0.749993  0.708675  0.426117  1
  Li  Li11  1  0.230107  0.749497  0.826466  1
  Li  Li12  1  0.743755  0.234868  0.013130  1
  Li  Li13  1  0.220479  0.802096  0.074761  1
  Li  Li14  1  0.224129  0.263244  0.686726  1
  Li  Li15  1  0.819950  0.753159  0.928634  1
  Li  Li16  1  0.236939  0.183416  0.064701  1
  Li  Li17  1  0.743165  0.350380  0.435178  1
  Li  Li18  1  0.296244  0.777880  0.575180  1
  Li  Li19  1  0.730261  0.788424  0.667884  1
  Ge  Ge20  1  0.984280  0.493791  0.197546  1
  Ge  Ge21  1  0.479360  0.014535  0.820897  1
  P  P22  1  0.986144  0.027211  0.501522  1
  P  P23  1  0.483602  0.507628  0.994473  1
  P  P24  1  0.974483  0.523520  0.672165  1
  P  P25  1  0.481818  0.020371  0.313025  1
  O  O26  1  0.991735  0.850569  0.416907  1
  O  O27  1  0.975437  0.202291  0.413439  1
  O  O28  1  0.673836  0.503690  0.912776  1
  O  O29  1  0.298978  0.516153  0.911158  1
  O  O30  1  0.483678  0.323942  0.076027  1
  O  O31  1  0.488240  0.682372  0.083708  1
  O  O32  1  0.800088  0.020559  0.588079  1
  O  O33  1  0.171874  0.037817  0.585438  1
  O  O34  1  0.968151  0.688522  0.086916  1
  O  O35  1  0.982373  0.285669  0.102426  1
  O  O36  1  0.781909  0.535012  0.590528  1
  O  O37  1  0.165643  0.517394  0.591146  1
  O  O38  1  0.482247  0.210435  0.386861  1
  O  O39  1  0.476243  0.856066  0.413221  1
  O  O40  1  0.704131  0.007074  0.910077  1
  O  O41  1  0.284539  0.986369  0.932844  1
  O  O42  1  0.977291  0.346471  0.758325  1
  O  O43  1  0.971090  0.701224  0.758954  1
  O  O44  1  0.204898  0.513266  0.282321  1
  O  O45  1  0.763390  0.523927  0.289748  1
  O  O46  1  0.468345  0.808164  0.722685  1
  O  O47  1  0.485665  0.214288  0.722913  1
  O  O48  1  0.299185  0.999448  0.224075  1
  O  O49  1  0.667310  0.000173  0.227930  1
