# generated using pymatgen
data_Li27Sb10
_symmetry_space_group_name_H-M   'P 1'
_cell_length_a   12.23668992
_cell_length_b   12.23668992
_cell_length_c   7.95452312
_cell_angle_alpha   84.03095568
_cell_angle_beta   95.96904432
_cell_angle_gamma   37.86759063
_symmetry_Int_Tables_number   1
_chemical_formula_structural   Li27Sb10
_chemical_formula_sum   'Li27 Sb10'
_cell_volume   692.56708057
_cell_formula_units_Z   1
loop_
 _symmetry_equiv_pos_site_id
 _symmetry_equiv_pos_as_xyz
  1  'x, y, z'
loop_
 _atom_site_type_symbol
 _atom_site_label
 _atom_site_symmetry_multiplicity
 _atom_site_fract_x
 _atom_site_fract_y
 _atom_site_fract_z
 _atom_site_occupancy
  Li  Li0  1  0.681669  0.918364  0.143674  1
  Li  Li1  1  0.300189  0.300189  0.000000  1
  Li  Li2  1  0.318331  0.081636  0.856326  1
  Li  Li3  1  0.286301  0.525603  0.117032  1
  Li  Li4  1  0.157188  0.433127  0.613643  1
  Li  Li5  1  0.918364  0.681669  0.856326  1
  Li  Li6  1  0.898280  0.898280  0.000000  1
  Li  Li7  1  0.854342  0.145658  0.116966  1
  Li  Li8  1  0.474397  0.713699  0.117032  1
  Li  Li9  1  0.777063  0.012477  0.618580  1
  Li  Li10  1  0.525603  0.286301  0.882968  1
  Li  Li11  1  0.842812  0.566873  0.386357  1
  Li  Li12  1  0.081636  0.318331  0.143674  1
  Li  Li13  1  0.433127  0.157188  0.386357  1
  Li  Li14  1  0.399489  0.399489  0.500000  1
  Li  Li15  1  0.382467  0.617533  0.644708  1
  Li  Li16  1  0.101720  0.101720  0.000000  1
  Li  Li17  1  0.145658  0.854342  0.883034  1
  Li  Li18  1  0.699811  0.699811  0.000000  1
  Li  Li19  1  0.012477  0.777063  0.381420  1
  Li  Li20  1  0.000000  0.000000  0.500000  1
  Li  Li21  1  0.987523  0.222937  0.618580  1
  Li  Li22  1  0.713699  0.474397  0.882968  1
  Li  Li23  1  0.600511  0.600511  0.500000  1
  Li  Li24  1  0.566873  0.842812  0.613643  1
  Li  Li25  1  0.617533  0.382467  0.355292  1
  Li  Li26  1  0.222937  0.987523  0.381420  1
  Sb  Sb27  1  0.451464  0.941187  0.235343  1
  Sb  Sb28  1  0.058813  0.548536  0.235343  1
  Sb  Sb29  1  0.941187  0.451464  0.764657  1
  Sb  Sb30  1  0.647416  0.151022  0.251798  1
  Sb  Sb31  1  0.548536  0.058813  0.764657  1
  Sb  Sb32  1  0.239336  0.760664  0.260452  1
  Sb  Sb33  1  0.151022  0.647416  0.748202  1
  Sb  Sb34  1  0.848978  0.352584  0.251798  1
  Sb  Sb35  1  0.760664  0.239336  0.739547  1
  Sb  Sb36  1  0.352584  0.848978  0.748202  1
