# generated using pymatgen
data_Ta14(CuS8)3
_symmetry_space_group_name_H-M   'P 1'
_cell_length_a   6.67965298
_cell_length_b   8.81650474
_cell_length_c   13.09462528
_cell_angle_alpha   92.35603036
_cell_angle_beta   97.84461311
_cell_angle_gamma   101.39692754
_symmetry_Int_Tables_number   1
_chemical_formula_structural   Ta14(CuS8)3
_chemical_formula_sum   'Ta14 Cu3 S24'
_cell_volume   747.03540260
_cell_formula_units_Z   1
loop_
 _symmetry_equiv_pos_site_id
 _symmetry_equiv_pos_as_xyz
  1  'x, y, z'
loop_
 _atom_site_type_symbol
 _atom_site_label
 _atom_site_symmetry_multiplicity
 _atom_site_fract_x
 _atom_site_fract_y
 _atom_site_fract_z
 _atom_site_occupancy
  Ta  Ta0  1  0.061327  0.022278  0.242488  1
  Ta  Ta1  1  0.406756  0.362208  0.243596  1
  Ta  Ta2  1  0.572015  0.026731  0.241527  1
  Ta  Ta3  1  0.852786  0.350699  0.000790  1
  Ta  Ta4  1  0.898985  0.361790  0.247205  1
  Ta  Ta5  1  0.729132  0.699683  0.245458  1
  Ta  Ta6  1  0.763897  0.306358  0.752890  1
  Ta  Ta7  1  0.234991  0.692468  0.247484  1
  Ta  Ta8  1  0.271558  0.301585  0.754423  1
  Ta  Ta9  1  0.098592  0.638248  0.753100  1
  Ta  Ta10  1  0.147980  0.649475  0.000015  1
  Ta  Ta11  1  0.430764  0.974618  0.758350  1
  Ta  Ta12  1  0.595649  0.637294  0.756309  1
  Ta  Ta13  1  0.935179  0.976179  0.757559  1
  Cu  Cu14  1  0.796438  0.717732  0.463930  1
  Cu  Cu15  1  0.203875  0.284604  0.535319  1
  Cu  Cu16  1  0.372742  0.947184  0.535869  1
  S  S17  1  0.167667  0.065531  0.631210  1
  S  S18  1  0.247060  0.097381  0.877362  1
  S  S19  1  0.515257  0.407713  0.632159  1
  S  S20  1  0.680139  0.072302  0.634459  1
  S  S21  1  0.580864  0.430354  0.878916  1
  S  S22  1  0.747275  0.100766  0.879962  1
  S  S23  1  0.591435  0.238200  0.118899  1
  S  S24  1  0.656806  0.261187  0.364803  1
  S  S25  1  0.840907  0.738894  0.635915  1
  S  S26  1  0.005053  0.405500  0.632498  1
  S  S27  1  0.911154  0.762090  0.877621  1
  S  S28  1  0.088947  0.423893  0.875517  1
  S  S29  1  0.911011  0.576280  0.124571  1
  S  S30  1  0.088805  0.238422  0.123138  1
  S  S31  1  0.994212  0.594665  0.367965  1
  S  S32  1  0.158742  0.260837  0.363712  1
  S  S33  1  0.341568  0.733102  0.634155  1
  S  S34  1  0.408739  0.762287  0.880000  1
  S  S35  1  0.252360  0.898907  0.121219  1
  S  S36  1  0.419145  0.569733  0.121353  1
  S  S37  1  0.325854  0.930593  0.364086  1
  S  S38  1  0.485328  0.591771  0.367860  1
  S  S39  1  0.752671  0.901992  0.121487  1
  S  S40  1  0.826668  0.936599  0.368020  1
