# generated using pymatgen
data_Y2Be2SiO7
_symmetry_space_group_name_H-M   'P 1'
_cell_length_a   7.34937811
_cell_length_b   7.34937811
_cell_length_c   4.80136399
_cell_angle_alpha   90.00000000
_cell_angle_beta   90.00000000
_cell_angle_gamma   90.00000000
_symmetry_Int_Tables_number   1
_chemical_formula_structural   Y2Be2SiO7
_chemical_formula_sum   'Y4 Be4 Si2 O14'
_cell_volume   259.33779498
_cell_formula_units_Z   2
loop_
 _symmetry_equiv_pos_site_id
 _symmetry_equiv_pos_as_xyz
  1  'x, y, z'
loop_
 _atom_site_type_symbol
 _atom_site_label
 _atom_site_symmetry_multiplicity
 _atom_site_fract_x
 _atom_site_fract_y
 _atom_site_fract_z
 _atom_site_occupancy
  Y  Y0  1  0.159007  0.340993  0.507509  1
  Y  Y1  1  0.659007  0.159007  0.492491  1
  Y  Y2  1  0.340993  0.840993  0.492491  1
  Y  Y3  1  0.840993  0.659007  0.507509  1
  Be  Be4  1  0.136667  0.636667  0.040155  1
  Be  Be5  1  0.636667  0.863333  0.959845  1
  Be  Be6  1  0.363333  0.136667  0.959845  1
  Be  Be7  1  0.863333  0.363333  0.040155  1
  Si  Si8  1  0.500000  0.500000  0.000000  1
  Si  Si9  1  0.000000  0.000000  0.000000  1
  O  O10  1  0.918314  0.162912  0.198804  1
  O  O11  1  0.837088  0.918314  0.801196  1
  O  O12  1  0.162912  0.081686  0.801196  1
  O  O13  1  0.081686  0.837088  0.198804  1
  O  O14  1  0.418314  0.337088  0.801196  1
  O  O15  1  0.581686  0.662912  0.801196  1
  O  O16  1  0.662912  0.418314  0.198804  1
  O  O17  1  0.337088  0.581686  0.198804  1
  O  O18  1  0.641314  0.858686  0.291101  1
  O  O19  1  0.141314  0.641314  0.708899  1
  O  O20  1  0.858686  0.358686  0.708899  1
  O  O21  1  0.358686  0.141314  0.291101  1
  O  O22  1  0.500000  0.000000  0.818559  1
  O  O23  1  0.000000  0.500000  0.181441  1
