# generated using pymatgen
data_Li4Mn5O12
_symmetry_space_group_name_H-M   'P 1'
_cell_length_a   5.83752968
_cell_length_b   5.83752968
_cell_length_c   13.02123491
_cell_angle_alpha   77.21990994
_cell_angle_beta   102.78009006
_cell_angle_gamma   90.20068685
_symmetry_Int_Tables_number   1
_chemical_formula_structural   Li4Mn5O12
_chemical_formula_sum   'Li8 Mn10 O24'
_cell_volume   421.52672098
_cell_formula_units_Z   2
loop_
 _symmetry_equiv_pos_site_id
 _symmetry_equiv_pos_as_xyz
  1  'x, y, z'
loop_
 _atom_site_type_symbol
 _atom_site_label
 _atom_site_symmetry_multiplicity
 _atom_site_fract_x
 _atom_site_fract_y
 _atom_site_fract_z
 _atom_site_occupancy
  Li  Li0  1  0.283628  0.958910  0.079668  1
  Li  Li1  1  0.041090  0.716372  0.579668  1
  Li  Li2  1  0.379915  0.379915  0.250000  1
  Li  Li3  1  0.620085  0.620085  0.750000  1
  Li  Li4  1  0.500000  0.500000  0.500000  1
  Li  Li5  1  0.716372  0.041090  0.920332  1
  Li  Li6  1  0.958910  0.283628  0.420332  1
  Li  Li7  1  0.500000  0.500000  0.000000  1
  Mn  Mn8  1  0.167104  0.832928  0.835068  1
  Mn  Mn9  1  0.664813  0.829974  0.336315  1
  Mn  Mn10  1  0.167072  0.832896  0.335068  1
  Mn  Mn11  1  0.000000  0.500000  0.000000  1
  Mn  Mn12  1  0.829974  0.664813  0.163685  1
  Mn  Mn13  1  0.832896  0.167072  0.164932  1
  Mn  Mn14  1  0.335187  0.170026  0.663685  1
  Mn  Mn15  1  0.170026  0.335187  0.836315  1
  Mn  Mn16  1  0.832928  0.167104  0.664932  1
  Mn  Mn17  1  0.500000  0.000000  0.500000  1
  O  O18  1  0.086016  0.942131  0.675843  1
  O  O19  1  0.723930  0.773830  0.486498  1
  O  O20  1  0.414778  0.623758  0.331159  1
  O  O21  1  0.577095  0.946205  0.658517  1
  O  O22  1  0.261374  0.773526  0.486429  1
  O  O23  1  0.057869  0.913984  0.175843  1
  O  O24  1  0.053795  0.422904  0.158517  1
  O  O25  1  0.773526  0.261374  0.013571  1
  O  O26  1  0.912256  0.615288  0.326210  1
  O  O27  1  0.773830  0.723930  0.013502  1
  O  O28  1  0.623758  0.414778  0.168841  1
  O  O29  1  0.615288  0.912256  0.173790  1
  O  O30  1  0.376242  0.585222  0.831159  1
  O  O31  1  0.384712  0.087744  0.826210  1
  O  O32  1  0.226170  0.276070  0.986498  1
  O  O33  1  0.087744  0.384712  0.673790  1
  O  O34  1  0.226474  0.738626  0.986429  1
  O  O35  1  0.946205  0.577095  0.841483  1
  O  O36  1  0.942131  0.086016  0.824157  1
  O  O37  1  0.738626  0.226474  0.513571  1
  O  O38  1  0.422904  0.053795  0.341483  1
  O  O39  1  0.585222  0.376242  0.668841  1
  O  O40  1  0.276070  0.226170  0.513502  1
  O  O41  1  0.913984  0.057869  0.324157  1
