# generated using pymatgen
data_Ca4Bi6O13
_symmetry_space_group_name_H-M   'P 1'
_cell_length_a   3.71279192
_cell_length_b   4.61111604
_cell_length_c   23.69861197
_cell_angle_alpha   91.54778005
_cell_angle_beta   90.84703932
_cell_angle_gamma   90.16948484
_symmetry_Int_Tables_number   1
_chemical_formula_structural   Ca4Bi6O13
_chemical_formula_sum   'Ca4 Bi6 O13'
_cell_volume   405.52831159
_cell_formula_units_Z   1
loop_
 _symmetry_equiv_pos_site_id
 _symmetry_equiv_pos_as_xyz
  1  'x, y, z'
loop_
 _atom_site_type_symbol
 _atom_site_label
 _atom_site_symmetry_multiplicity
 _atom_site_fract_x
 _atom_site_fract_y
 _atom_site_fract_z
 _atom_site_occupancy
  Ca  Ca0  1  0.750850  0.096779  0.945530  1
  Ca  Ca1  1  0.689810  0.084207  0.797699  1
  Ca  Ca2  1  0.223847  0.591811  0.873674  1
  Ca  Ca3  1  0.165532  0.574717  0.721682  1
  Bi  Bi4  1  0.558442  0.060885  0.636774  1
  Bi  Bi5  1  0.377767  0.099116  0.407396  1
  Bi  Bi6  1  0.150770  0.009756  0.171545  1
  Bi  Bi7  1  0.138061  0.509990  0.537649  1
  Bi  Bi8  1  0.875262  0.458976  0.302024  1
  Bi  Bi9  1  0.555437  0.406454  0.067300  1
  O  O10  1  0.121112  0.073720  0.570545  1
  O  O11  1  0.843857  0.060288  0.352672  1
  O  O12  1  0.624489  0.991949  0.117476  1
  O  O13  1  0.171021  0.073104  0.708825  1
  O  O14  1  0.668475  0.582099  0.776260  1
  O  O15  1  0.199405  0.090958  0.856182  1
  O  O16  1  0.228231  0.161707  0.009218  1
  O  O17  1  0.727360  0.602597  0.924776  1
  O  O18  1  0.599800  0.383587  0.485502  1
  O  O19  1  0.327162  0.246718  0.255724  1
  O  O20  1  0.461253  0.565304  0.626020  1
  O  O21  1  0.325658  0.516121  0.369150  1
  O  O22  1  0.144401  0.439156  0.134377  1
