# generated using pymatgen
data_Na13Zr8Si9(PO16)3
_symmetry_space_group_name_H-M   'P 1'
_cell_length_a   9.18281645
_cell_length_b   9.20851801
_cell_length_c   16.20803087
_cell_angle_alpha   105.74772457
_cell_angle_beta   90.33114249
_cell_angle_gamma   119.82480731
_symmetry_Int_Tables_number   1
_chemical_formula_structural   Na13Zr8Si9(PO16)3
_chemical_formula_sum   'Na13 Zr8 Si9 P3 O48'
_cell_volume   1128.01651509
_cell_formula_units_Z   1
loop_
 _symmetry_equiv_pos_site_id
 _symmetry_equiv_pos_as_xyz
  1  'x, y, z'
loop_
 _atom_site_type_symbol
 _atom_site_label
 _atom_site_symmetry_multiplicity
 _atom_site_fract_x
 _atom_site_fract_y
 _atom_site_fract_z
 _atom_site_occupancy
  Na  Na0  1  0.048105  0.488169  0.208260  1
  Na  Na1  1  0.240267  0.500626  0.392293  1
  Na  Na2  1  0.506534  0.504966  0.497659  1
  Na  Na3  1  0.390848  0.273266  0.131021  1
  Na  Na4  1  0.045165  0.964521  0.717671  1
  Na  Na5  1  0.615138  0.234789  0.371610  1
  Na  Na6  1  0.454082  0.005155  0.988036  1
  Na  Na7  1  0.746420  0.001887  0.087959  1
  Na  Na8  1  0.390401  0.770172  0.628071  1
  Na  Na9  1  0.947288  0.997607  0.298653  1
  Na  Na10  1  0.605576  0.738411  0.882462  1
  Na  Na11  1  0.760536  0.501882  0.602131  1
  Na  Na12  1  0.935084  0.473389  0.804825  1
  Zr  Zr13  1  0.649431  0.568219  0.278419  1
  Zr  Zr14  1  0.150541  0.329853  0.026427  1
  Zr  Zr15  1  0.646655  0.063472  0.777880  1
  Zr  Zr16  1  0.845135  0.171935  0.469501  1
  Zr  Zr17  1  0.154937  0.830863  0.527252  1
  Zr  Zr18  1  0.350321  0.927080  0.222641  1
  Zr  Zr19  1  0.856490  0.684662  0.967635  1
  Zr  Zr20  1  0.345508  0.423274  0.721546  1
  Si  Si21  1  0.465906  0.631266  0.119240  1
  Si  Si22  1  0.949951  0.582436  0.379972  1
  Si  Si23  1  0.252211  0.165159  0.368908  1
  Si  Si24  1  0.748211  0.338544  0.126815  1
  Si  Si25  1  0.468319  0.134825  0.618029  1
  Si  Si26  1  0.948105  0.082452  0.877873  1
  Si  Si27  1  0.532211  0.866462  0.380938  1
  Si  Si28  1  0.251122  0.665384  0.867950  1
  Si  Si29  1  0.749329  0.834018  0.630478  1
  P  P30  1  0.047175  0.919014  0.120831  1
  P  P31  1  0.050051  0.417551  0.620288  1
  P  P32  1  0.534099  0.368648  0.879428  1
  O  O33  1  0.006151  0.845128  0.040271  1
  O  O34  1  0.114042  0.711637  0.291686  1
  O  O35  1  0.429440  0.785684  0.142484  1
  O  O36  1  0.633887  0.708544  0.028343  1
  O  O37  1  0.017383  0.350884  0.536839  1
  O  O38  1  0.285382  0.463012  0.112797  1
  O  O39  1  0.517055  0.568658  0.196415  1
  O  O40  1  0.760854  0.553369  0.376272  1
  O  O41  1  0.113161  0.208863  0.789039  1
  O  O42  1  0.069325  0.168833  0.396172  1
  O  O43  1  0.416696  0.357783  0.364289  1
  O  O44  1  0.749196  0.466428  0.055778  1
  O  O45  1  0.058152  0.093348  0.121469  1
  O  O46  1  0.437833  0.293497  0.638852  1
  O  O47  1  0.730318  0.404868  0.220981  1
  O  O48  1  0.270877  0.097756  0.275651  1
  O  O49  1  0.947500  0.401752  0.377257  1
  O  O50  1  0.256499  0.041600  0.440588  1
  O  O51  1  0.633099  0.207705  0.525707  1
  O  O52  1  0.580919  0.146020  0.132925  1
  O  O53  1  0.931655  0.332907  0.101872  1
  O  O54  1  0.286624  0.964720  0.615121  1
  O  O55  1  0.528052  0.080304  0.693587  1
  O  O56  1  0.226851  0.944168  0.121311  1
  O  O57  1  0.762497  0.066734  0.875916  1
  O  O58  1  0.481590  0.932473  0.304700  1
  O  O59  1  0.715334  0.032508  0.385959  1
  O  O60  1  0.061376  0.655746  0.894891  1
  O  O61  1  0.416705  0.856946  0.863826  1
  O  O62  1  0.367056  0.791646  0.472940  1
  O  O63  1  0.751646  0.962533  0.558798  1
  O  O64  1  0.053607  0.588226  0.624762  1
  O  O65  1  0.722953  0.899227  0.724664  1
  O  O66  1  0.275439  0.597178  0.774760  1
  O  O67  1  0.566681  0.712022  0.356886  1
  O  O68  1  0.925200  0.893492  0.875437  1
  O  O69  1  0.258111  0.541612  0.939062  1
  O  O70  1  0.583689  0.641590  0.634675  1
  O  O71  1  0.931368  0.828266  0.608450  1
  O  O72  1  0.894525  0.798441  0.205158  1
  O  O73  1  0.231904  0.446820  0.621438  1
  O  O74  1  0.480497  0.421593  0.806831  1
  O  O75  1  0.704383  0.531575  0.883882  1
  O  O76  1  0.987902  0.657441  0.466990  1
  O  O77  1  0.382431  0.301200  0.967772  1
  O  O78  1  0.582573  0.232605  0.856147  1
  O  O79  1  0.897019  0.290586  0.702546  1
  O  O80  1  0.993411  0.157621  0.963597  1
