# generated using pymatgen
data_ReSbH4O7
_symmetry_space_group_name_H-M   'P 1'
_cell_length_a   5.77673962
_cell_length_b   11.96335782
_cell_length_c   18.51661038
_cell_angle_alpha   90.00000000
_cell_angle_beta   90.00000000
_cell_angle_gamma   90.00000000
_symmetry_Int_Tables_number   1
_chemical_formula_structural   ReSbH4O7
_chemical_formula_sum   'Re8 Sb8 H32 O56'
_cell_volume   1279.66818761
_cell_formula_units_Z   8
loop_
 _symmetry_equiv_pos_site_id
 _symmetry_equiv_pos_as_xyz
  1  'x, y, z'
loop_
 _atom_site_type_symbol
 _atom_site_label
 _atom_site_symmetry_multiplicity
 _atom_site_fract_x
 _atom_site_fract_y
 _atom_site_fract_z
 _atom_site_occupancy
  Re  Re0  1  0.993692  0.626179  0.079969  1
  Re  Re1  1  0.493692  0.373821  0.420031  1
  Re  Re2  1  0.006308  0.873821  0.579969  1
  Re  Re3  1  0.506308  0.126179  0.920031  1
  Re  Re4  1  0.006308  0.373821  0.920031  1
  Re  Re5  1  0.506308  0.626179  0.579969  1
  Re  Re6  1  0.993692  0.126179  0.420031  1
  Re  Re7  1  0.493692  0.873821  0.079969  1
  Sb  Sb8  1  0.974880  0.842491  0.910847  1
  Sb  Sb9  1  0.474880  0.157509  0.589153  1
  Sb  Sb10  1  0.025120  0.657509  0.410847  1
  Sb  Sb11  1  0.525120  0.342491  0.089153  1
  Sb  Sb12  1  0.025120  0.157509  0.089153  1
  Sb  Sb13  1  0.525120  0.842491  0.410847  1
  Sb  Sb14  1  0.974880  0.342491  0.589153  1
  Sb  Sb15  1  0.474880  0.657509  0.910847  1
  H  H16  1  0.009401  0.989333  0.786872  1
  H  H17  1  0.509401  0.010667  0.713128  1
  H  H18  1  0.990599  0.510667  0.286872  1
  H  H19  1  0.490599  0.489333  0.213128  1
  H  H20  1  0.990599  0.010667  0.213128  1
  H  H21  1  0.490599  0.989333  0.286872  1
  H  H22  1  0.009401  0.489333  0.713128  1
  H  H23  1  0.509401  0.510667  0.786872  1
  H  H24  1  0.201591  0.890996  0.782314  1
  H  H25  1  0.701591  0.109004  0.717686  1
  H  H26  1  0.798409  0.609004  0.282314  1
  H  H27  1  0.298409  0.390996  0.217686  1
  H  H28  1  0.798409  0.109004  0.217686  1
  H  H29  1  0.298409  0.890996  0.282314  1
  H  H30  1  0.201591  0.390996  0.717686  1
  H  H31  1  0.701591  0.609004  0.782314  1
  H  H32  1  0.569926  0.846006  0.791986  1
  H  H33  1  0.069926  0.153994  0.708014  1
  H  H34  1  0.430074  0.653994  0.291986  1
  H  H35  1  0.930074  0.346006  0.208014  1
  H  H36  1  0.430074  0.153994  0.208014  1
  H  H37  1  0.930074  0.846006  0.291986  1
  H  H38  1  0.569926  0.346006  0.708014  1
  H  H39  1  0.069926  0.653994  0.791986  1
  H  H40  1  0.474277  0.821095  0.712505  1
  H  H41  1  0.974277  0.178905  0.787495  1
  H  H42  1  0.525723  0.678905  0.212505  1
  H  H43  1  0.025723  0.321095  0.287495  1
  H  H44  1  0.525723  0.178905  0.287495  1
  H  H45  1  0.025723  0.821095  0.212505  1
  H  H46  1  0.474277  0.321095  0.787495  1
  H  H47  1  0.974277  0.678905  0.712505  1
  O  O48  1  0.873634  0.706282  0.008086  1
  O  O49  1  0.373634  0.293718  0.491914  1
  O  O50  1  0.126366  0.793718  0.508086  1
  O  O51  1  0.626366  0.206282  0.991914  1
  O  O52  1  0.126366  0.293718  0.991914  1
  O  O53  1  0.626366  0.706282  0.508086  1
  O  O54  1  0.873634  0.206282  0.491914  1
  O  O55  1  0.373634  0.793718  0.008086  1
  O  O56  1  0.782709  0.541182  0.119484  1
  O  O57  1  0.282709  0.458818  0.380516  1
  O  O58  1  0.217291  0.958818  0.619484  1
  O  O59  1  0.717291  0.041182  0.880516  1
  O  O60  1  0.217291  0.458818  0.880516  1
  O  O61  1  0.717291  0.541182  0.619484  1
  O  O62  1  0.782709  0.041182  0.380516  1
  O  O63  1  0.282709  0.958818  0.119484  1
  O  O64  1  0.114369  0.712692  0.146140  1
  O  O65  1  0.614369  0.287308  0.353860  1
  O  O66  1  0.885631  0.787308  0.646140  1
  O  O67  1  0.385631  0.212692  0.853860  1
  O  O68  1  0.885631  0.287308  0.853860  1
  O  O69  1  0.385631  0.712692  0.646140  1
  O  O70  1  0.114369  0.212692  0.353860  1
  O  O71  1  0.614369  0.787308  0.146140  1
  O  O72  1  0.214388  0.540586  0.046168  1
  O  O73  1  0.714388  0.459414  0.453832  1
  O  O74  1  0.785612  0.959414  0.546168  1
  O  O75  1  0.285612  0.040586  0.953832  1
  O  O76  1  0.785612  0.459414  0.953832  1
  O  O77  1  0.285612  0.540586  0.546168  1
  O  O78  1  0.214388  0.040586  0.453832  1
  O  O79  1  0.714388  0.959414  0.046168  1
  O  O80  1  0.181415  0.720686  0.870657  1
  O  O81  1  0.681415  0.279314  0.629343  1
  O  O82  1  0.818585  0.779314  0.370657  1
  O  O83  1  0.318585  0.220686  0.129343  1
  O  O84  1  0.818585  0.279314  0.129343  1
  O  O85  1  0.318585  0.720686  0.370657  1
  O  O86  1  0.181415  0.220686  0.629343  1
  O  O87  1  0.681415  0.779314  0.870657  1
  O  O88  1  0.040549  0.909471  0.800346  1
  O  O89  1  0.540549  0.090529  0.699654  1
  O  O90  1  0.959451  0.590529  0.300346  1
  O  O91  1  0.459451  0.409471  0.199654  1
  O  O92  1  0.959451  0.090529  0.199654  1
  O  O93  1  0.459451  0.909471  0.300346  1
  O  O94  1  0.040549  0.409471  0.699654  1
  O  O95  1  0.540549  0.590529  0.800346  1
  O  O96  1  0.474260  0.877198  0.751728  1
  O  O97  1  0.974260  0.122802  0.748272  1
  O  O98  1  0.525740  0.622802  0.251728  1
  O  O99  1  0.025740  0.377198  0.248272  1
  O  O100  1  0.525740  0.122802  0.248272  1
  O  O101  1  0.025740  0.877198  0.251728  1
  O  O102  1  0.474260  0.377198  0.748272  1
  O  O103  1  0.974260  0.622802  0.751728  1
