# generated using pymatgen
data_Tm10Ti6O27
_symmetry_space_group_name_H-M   'P 1'
_cell_length_a   7.24676443
_cell_length_b   7.24676443
_cell_length_c   23.96132651
_cell_angle_alpha   81.83883663
_cell_angle_beta   98.16116337
_cell_angle_gamma   120.02836466
_symmetry_Int_Tables_number   1
_chemical_formula_structural   Tm10Ti6O27
_chemical_formula_sum   'Tm20 Ti12 O54'
_cell_volume   1074.71384835
_cell_formula_units_Z   2
loop_
 _symmetry_equiv_pos_site_id
 _symmetry_equiv_pos_as_xyz
  1  'x, y, z'
loop_
 _atom_site_type_symbol
 _atom_site_label
 _atom_site_symmetry_multiplicity
 _atom_site_fract_x
 _atom_site_fract_y
 _atom_site_fract_z
 _atom_site_occupancy
  Tm  Tm0  1  0.011640  0.988360  0.997435  1
  Tm  Tm1  1  0.763726  0.236274  0.254984  1
  Tm  Tm2  1  0.369340  0.118126  0.124266  1
  Tm  Tm3  1  0.366577  0.633423  0.112779  1
  Tm  Tm4  1  0.269177  0.730823  0.244745  1
  Tm  Tm5  1  0.123052  0.349784  0.376542  1
  Tm  Tm6  1  0.887699  0.112301  0.134325  1
  Tm  Tm7  1  0.881874  0.630660  0.124266  1
  Tm  Tm8  1  0.132631  0.867369  0.392736  1
  Tm  Tm9  1  0.988391  0.011609  0.504824  1
  Tm  Tm10  1  0.640230  0.359770  0.389499  1
  Tm  Tm11  1  0.885876  0.621510  0.630199  1
  Tm  Tm12  1  0.650216  0.876948  0.376542  1
  Tm  Tm13  1  0.882564  0.117436  0.634775  1
  Tm  Tm14  1  0.642190  0.874442  0.867035  1
  Tm  Tm15  1  0.731948  0.268052  0.749984  1
  Tm  Tm16  1  0.626502  0.373498  0.880133  1
  Tm  Tm17  1  0.378490  0.114124  0.630199  1
  Tm  Tm18  1  0.477939  0.522061  0.990717  1
  Tm  Tm19  1  0.125558  0.357810  0.867035  1
  Ti  Ti20  1  0.990926  0.481348  0.999806  1
  Ti  Ti21  1  0.518652  0.009074  0.999806  1
  Ti  Ti22  1  0.755573  0.744834  0.254877  1
  Ti  Ti23  1  0.255166  0.244427  0.254877  1
  Ti  Ti24  1  0.498322  0.501678  0.499599  1
  Ti  Ti25  1  0.498776  0.989033  0.502276  1
  Ti  Ti26  1  0.010967  0.501224  0.502276  1
  Ti  Ti27  1  0.256713  0.743287  0.751310  1
  Ti  Ti28  1  0.252411  0.245389  0.749279  1
  Ti  Ti29  1  0.754611  0.747589  0.749279  1
  Ti  Ti30  1  0.380552  0.619448  0.624350  1
  Ti  Ti31  1  0.120641  0.879359  0.876241  1
  O  O32  1  0.714816  0.285184  0.161357  1
  O  O33  1  0.808404  0.636706  0.029529  1
  O  O34  1  0.687425  0.746877  0.155212  1
  O  O35  1  0.363294  0.191596  0.029529  1
  O  O36  1  0.466183  0.533817  0.410046  1
  O  O37  1  0.581045  0.996952  0.077355  1
  O  O38  1  0.470209  0.529791  0.245440  1
  O  O39  1  0.586478  0.886156  0.285570  1
  O  O40  1  0.310878  0.689122  0.017548  1
  O  O41  1  0.253123  0.312575  0.155212  1
  O  O42  1  0.113844  0.413522  0.285570  1
  O  O43  1  0.003048  0.418955  0.077355  1
  O  O44  1  0.232038  0.767962  0.154782  1
  O  O45  1  0.370099  0.083199  0.238392  1
  O  O46  1  0.472412  0.998301  0.415813  1
  O  O47  1  0.256584  0.743416  0.668687  1
  O  O48  1  0.294488  0.186034  0.335774  1
  O  O49  1  0.183820  0.816180  0.490556  1
  O  O50  1  0.433127  0.208830  0.500931  1
  O  O51  1  0.939991  0.060009  0.232066  1
  O  O52  1  0.916801  0.629901  0.238392  1
  O  O53  1  0.026544  0.973456  0.090108  1
  O  O54  1  0.001699  0.527588  0.415813  1
  O  O55  1  0.247867  0.338185  0.665545  1
  O  O56  1  0.813966  0.705512  0.335774  1
  O  O57  1  0.975905  0.024095  0.414862  1
  O  O58  1  0.035167  0.964833  0.597486  1
  O  O59  1  0.193816  0.374608  0.495392  1
  O  O60  1  0.791170  0.566873  0.500931  1
  O  O61  1  0.977101  0.022899  0.898894  1
  O  O62  1  0.071753  0.498235  0.585075  1
  O  O63  1  0.945101  0.054899  0.728836  1
  O  O64  1  0.146030  0.440177  0.768793  1
  O  O65  1  0.801721  0.198279  0.504913  1
  O  O66  1  0.625392  0.806184  0.495392  1
  O  O67  1  0.775098  0.224902  0.346196  1
  O  O68  1  0.661815  0.752133  0.665545  1
  O  O69  1  0.501765  0.928247  0.585075  1
  O  O70  1  0.771270  0.228730  0.841483  1
  O  O71  1  0.721763  0.278237  0.658637  1
  O  O72  1  0.938151  0.648142  0.726943  1
  O  O73  1  0.980896  0.648080  0.927366  1
  O  O74  1  0.559823  0.853970  0.768793  1
  O  O75  1  0.817376  0.728027  0.829148  1
  O  O76  1  0.705333  0.294667  0.969477  1
  O  O77  1  0.555963  0.444037  0.759045  1
  O  O78  1  0.351858  0.061849  0.726943  1
  O  O79  1  0.512746  0.487254  0.585419  1
  O  O80  1  0.351920  0.019104  0.927366  1
  O  O81  1  0.271973  0.182624  0.829148  1
  O  O82  1  0.464128  0.535872  0.900356  1
  O  O83  1  0.665943  0.902117  0.966452  1
  O  O84  1  0.097883  0.334057  0.966452  1
  O  O85  1  0.241523  0.758477  0.832733  1
