# generated using pymatgen
data_Sr4Nb2O9
_symmetry_space_group_name_H-M   'P 1'
_cell_length_a   10.45569024
_cell_length_b   10.45569024
_cell_length_c   10.44811476
_cell_angle_alpha   79.43548654
_cell_angle_beta   100.56451346
_cell_angle_gamma   61.94450544
_symmetry_Int_Tables_number   1
_chemical_formula_structural   Sr4Nb2O9
_chemical_formula_sum   'Sr16 Nb8 O36'
_cell_volume   941.84634969
_cell_formula_units_Z   4
loop_
 _symmetry_equiv_pos_site_id
 _symmetry_equiv_pos_as_xyz
  1  'x, y, z'
loop_
 _atom_site_type_symbol
 _atom_site_label
 _atom_site_symmetry_multiplicity
 _atom_site_fract_x
 _atom_site_fract_y
 _atom_site_fract_z
 _atom_site_occupancy
  Sr  Sr0  1  0.371375  0.159853  0.136630  1
  Sr  Sr1  1  0.747722  0.747722  0.250000  1
  Sr  Sr2  1  0.082838  0.741402  0.135572  1
  Sr  Sr3  1  0.840147  0.628625  0.636630  1
  Sr  Sr4  1  0.159853  0.371375  0.363370  1
  Sr  Sr5  1  0.707261  0.461060  0.121288  1
  Sr  Sr6  1  0.252278  0.252278  0.750000  1
  Sr  Sr7  1  0.741402  0.082838  0.364428  1
  Sr  Sr8  1  0.538940  0.292739  0.621287  1
  Sr  Sr9  1  0.076365  0.076365  0.250000  1
  Sr  Sr10  1  0.628625  0.840147  0.863370  1
  Sr  Sr11  1  0.923635  0.923635  0.750000  1
  Sr  Sr12  1  0.258598  0.917162  0.635572  1
  Sr  Sr13  1  0.461060  0.707261  0.378713  1
  Sr  Sr14  1  0.292739  0.538940  0.878713  1
  Sr  Sr15  1  0.917162  0.258598  0.864428  1
  Nb  Nb16  1  0.000000  0.500000  0.000000  1
  Nb  Nb17  1  0.500000  1.000000  0.500000  1
  Nb  Nb18  1  0.164962  0.664842  0.495901  1
  Nb  Nb19  1  0.423618  0.423618  0.250000  1
  Nb  Nb20  1  0.835038  0.335158  0.504099  1
  Nb  Nb21  1  0.664842  0.164962  0.004099  1
  Nb  Nb22  1  0.335158  0.835038  0.995901  1
  Nb  Nb23  1  0.576382  0.576382  0.750000  1
  O  O24  1  0.683074  0.999219  0.132186  1
  O  O25  1  0.600867  0.896117  0.375933  1
  O  O26  1  0.379906  0.607548  0.122146  1
  O  O27  1  0.210752  0.455127  0.127359  1
  O  O28  1  0.999219  0.683074  0.367814  1
  O  O29  1  0.296622  0.530850  0.357456  1
  O  O30  1  0.530850  0.296622  0.142544  1
  O  O31  1  0.255527  0.453716  0.600736  1
  O  O32  1  0.816983  0.187753  0.119403  1
  O  O33  1  0.047937  0.300138  0.111842  1
  O  O34  1  0.455127  0.210752  0.372641  1
  O  O35  1  0.607548  0.379906  0.377854  1
  O  O36  1  0.928522  0.223098  0.389261  1
  O  O37  1  0.103883  0.399133  0.875933  1
  O  O38  1  0.223098  0.928522  0.110739  1
  O  O39  1  0.812247  0.183017  0.619403  1
  O  O40  1  0.699862  0.952063  0.611842  1
  O  O41  1  0.546284  0.744473  0.100736  1
  O  O42  1  0.300138  0.047937  0.388158  1
  O  O43  1  0.453716  0.255527  0.899264  1
  O  O44  1  0.187753  0.816983  0.380597  1
  O  O45  1  0.776902  0.071478  0.889261  1
  O  O46  1  0.071478  0.776902  0.610739  1
  O  O47  1  0.896117  0.600867  0.124067  1
  O  O48  1  0.392452  0.620094  0.622146  1
  O  O49  1  0.544873  0.789248  0.627359  1
  O  O50  1  0.744473  0.546284  0.399264  1
  O  O51  1  0.952063  0.699862  0.888158  1
  O  O52  1  0.183017  0.812247  0.880597  1
  O  O53  1  0.469150  0.703378  0.857456  1
  O  O54  1  0.703378  0.469150  0.642544  1
  O  O55  1  0.000781  0.316926  0.632186  1
  O  O56  1  0.620094  0.392452  0.877854  1
  O  O57  1  0.789248  0.544873  0.872641  1
  O  O58  1  0.399133  0.103883  0.624067  1
  O  O59  1  0.316926  0.000781  0.867814  1
