# generated using pymatgen
data_Na3AlH10C6O17
_symmetry_space_group_name_H-M   'P 1'
_cell_length_a   10.72412880
_cell_length_b   10.72412880
_cell_length_c   15.36576868
_cell_angle_alpha   82.19199764
_cell_angle_beta   97.80800236
_cell_angle_gamma   108.26597463
_symmetry_Int_Tables_number   1
_chemical_formula_structural   Na3AlH10C6O17
_chemical_formula_sum   'Na12 Al4 H40 C24 O68'
_cell_volume   1654.37639022
_cell_formula_units_Z   4
loop_
 _symmetry_equiv_pos_site_id
 _symmetry_equiv_pos_as_xyz
  1  'x, y, z'
loop_
 _atom_site_type_symbol
 _atom_site_label
 _atom_site_symmetry_multiplicity
 _atom_site_fract_x
 _atom_site_fract_y
 _atom_site_fract_z
 _atom_site_occupancy
  Na  Na0  1  0.492675  0.492675  0.250000  1
  Na  Na1  1  0.507325  0.507325  0.750000  1
  Na  Na2  1  0.769090  0.769090  0.250000  1
  Na  Na3  1  0.230910  0.230910  0.750000  1
  Na  Na4  1  0.160367  0.071871  0.000768  1
  Na  Na5  1  0.071871  0.160367  0.499232  1
  Na  Na6  1  0.839633  0.928129  0.999232  1
  Na  Na7  1  0.928129  0.839633  0.500768  1
  Na  Na8  1  0.492515  0.258095  0.012706  1
  Na  Na9  1  0.258095  0.492515  0.487294  1
  Na  Na10  1  0.507485  0.741905  0.987294  1
  Na  Na11  1  0.741905  0.507485  0.512706  1
  Al  Al12  1  0.321875  0.937263  0.230768  1
  Al  Al13  1  0.937263  0.321875  0.269232  1
  Al  Al14  1  0.678125  0.062737  0.769232  1
  Al  Al15  1  0.062737  0.678125  0.730768  1
  H  H16  1  0.728152  0.642208  0.055843  1
  H  H17  1  0.642208  0.728152  0.444157  1
  H  H18  1  0.271848  0.357792  0.944157  1
  H  H19  1  0.357792  0.271848  0.555843  1
  H  H20  1  0.721037  0.649636  0.950793  1
  H  H21  1  0.649636  0.721037  0.549207  1
  H  H22  1  0.278963  0.350364  0.049207  1
  H  H23  1  0.350364  0.278963  0.450793  1
  H  H24  1  0.992562  0.811331  0.906403  1
  H  H25  1  0.811331  0.992562  0.593597  1
  H  H26  1  0.007438  0.188669  0.093597  1
  H  H27  1  0.188669  0.007438  0.406403  1
  H  H28  1  0.024089  0.771494  0.005226  1
  H  H29  1  0.771494  0.024089  0.494774  1
  H  H30  1  0.975911  0.228506  0.994774  1
  H  H31  1  0.228506  0.975911  0.505226  1
  H  H32  1  0.344799  0.016204  0.916206  1
  H  H33  1  0.016204  0.344799  0.583794  1
  H  H34  1  0.655201  0.983796  0.083794  1
  H  H35  1  0.983796  0.655201  0.416206  1
  H  H36  1  0.381649  0.957403  0.011752  1
  H  H37  1  0.957403  0.381649  0.488248  1
  H  H38  1  0.618351  0.042597  0.988248  1
  H  H39  1  0.042597  0.618351  0.511752  1
  H  H40  1  0.212948  0.674678  0.000842  1
  H  H41  1  0.674678  0.212948  0.499158  1
  H  H42  1  0.787052  0.325322  0.999158  1
  H  H43  1  0.325322  0.787052  0.500842  1
  H  H44  1  0.253028  0.735931  0.906200  1
  H  H45  1  0.735931  0.253028  0.593800  1
  H  H46  1  0.746972  0.264069  0.093800  1
  H  H47  1  0.264069  0.746972  0.406200  1
  H  H48  1  0.002723  0.563189  0.105078  1
  H  H49  1  0.563189  0.002723  0.394922  1
  H  H50  1  0.997277  0.436811  0.894922  1
  H  H51  1  0.436811  0.997277  0.605078  1
  H  H52  1  0.128966  0.684081  0.121013  1
  H  H53  1  0.684081  0.128966  0.378987  1
  H  H54  1  0.871034  0.315919  0.878987  1
  H  H55  1  0.315919  0.871034  0.621013  1
  C  C56  1  0.444975  0.769564  0.187833  1
  C  C57  1  0.769564  0.444975  0.312167  1
  C  C58  1  0.555025  0.230436  0.812167  1
  C  C59  1  0.230436  0.555025  0.687833  1
  C  C60  1  0.500472  0.800388  0.283862  1
  C  C61  1  0.800388  0.500472  0.216138  1
  C  C62  1  0.499528  0.199612  0.716138  1
  C  C63  1  0.199612  0.499528  0.783862  1
  C  C64  1  0.385638  0.177666  0.295191  1
  C  C65  1  0.177666  0.385638  0.204809  1
  C  C66  1  0.614362  0.822334  0.704809  1
  C  C67  1  0.822334  0.614362  0.795191  1
  C  C68  1  0.453079  0.198705  0.208949  1
  C  C69  1  0.198705  0.453079  0.291051  1
  C  C70  1  0.546921  0.801295  0.791051  1
  C  C71  1  0.801295  0.546921  0.708949  1
  C  C72  1  0.073014  0.790956  0.268508  1
  C  C73  1  0.790956  0.073014  0.231492  1
  C  C74  1  0.926986  0.209044  0.731492  1
  C  C75  1  0.209044  0.926986  0.768508  1
  C  C76  1  0.054968  0.882173  0.183638  1
  C  C77  1  0.882173  0.054968  0.316362  1
  C  C78  1  0.945032  0.117827  0.816362  1
  C  C79  1  0.117827  0.945032  0.683638  1
  O  O80  1  0.354223  0.825062  0.156068  1
  O  O81  1  0.825062  0.354223  0.343932  1
  O  O82  1  0.645777  0.174938  0.843932  1
  O  O83  1  0.174938  0.645777  0.656068  1
  O  O84  1  0.458966  0.889114  0.310175  1
  O  O85  1  0.889114  0.458966  0.189825  1
  O  O86  1  0.541034  0.110886  0.689825  1
  O  O87  1  0.110886  0.541034  0.810175  1
  O  O88  1  0.489210  0.700851  0.149162  1
  O  O89  1  0.700851  0.489210  0.350838  1
  O  O90  1  0.510790  0.299149  0.850838  1
  O  O91  1  0.299149  0.510790  0.649162  1
  O  O92  1  0.578071  0.744198  0.326687  1
  O  O93  1  0.744198  0.578071  0.173313  1
  O  O94  1  0.421929  0.255802  0.673313  1
  O  O95  1  0.255802  0.421929  0.826687  1
  O  O96  1  0.312497  0.056569  0.311528  1
  O  O97  1  0.056569  0.312497  0.188472  1
  O  O98  1  0.687503  0.943431  0.688472  1
  O  O99  1  0.943431  0.687503  0.811528  1
  O  O100  1  0.431144  0.090068  0.172700  1
  O  O101  1  0.090068  0.431144  0.327300  1
  O  O102  1  0.568856  0.909932  0.827300  1
  O  O103  1  0.909932  0.568856  0.672700  1
  O  O104  1  0.402248  0.271003  0.339704  1
  O  O105  1  0.271003  0.402248  0.160296  1
  O  O106  1  0.597752  0.728997  0.660296  1
  O  O107  1  0.728997  0.597752  0.839704  1
  O  O108  1  0.517691  0.309754  0.178790  1
  O  O109  1  0.309754  0.517691  0.321210  1
  O  O110  1  0.482309  0.690246  0.821210  1
  O  O111  1  0.690246  0.482309  0.678790  1
  O  O112  1  0.195415  0.798472  0.292594  1
  O  O113  1  0.798472  0.195415  0.207406  1
  O  O114  1  0.804585  0.201528  0.707406  1
  O  O115  1  0.201528  0.804585  0.792594  1
  O  O116  1  0.166843  0.953442  0.154984  1
  O  O117  1  0.953442  0.166843  0.345016  1
  O  O118  1  0.833157  0.046558  0.845016  1
  O  O119  1  0.046558  0.833157  0.654984  1
  O  O120  1  0.976042  0.719763  0.305700  1
  O  O121  1  0.719763  0.976042  0.194300  1
  O  O122  1  0.023957  0.280237  0.694300  1
  O  O123  1  0.280237  0.023957  0.805700  1
  O  O124  1  0.942993  0.880678  0.149744  1
  O  O125  1  0.880678  0.942993  0.350256  1
  O  O126  1  0.057007  0.119322  0.850256  1
  O  O127  1  0.119322  0.057007  0.649744  1
  O  O128  1  0.704103  0.690704  0.999926  1
  O  O129  1  0.690704  0.704103  0.500074  1
  O  O130  1  0.295897  0.309296  0.000074  1
  O  O131  1  0.309296  0.295897  0.499926  1
  O  O132  1  0.019230  0.848901  0.963371  1
  O  O133  1  0.848901  0.019230  0.536629  1
  O  O134  1  0.980770  0.151099  0.036629  1
  O  O135  1  0.151099  0.980770  0.463371  1
  O  O136  1  0.370713  0.038110  0.978118  1
  O  O137  1  0.038110  0.370713  0.521882  1
  O  O138  1  0.629287  0.961890  0.021882  1
  O  O139  1  0.961890  0.629287  0.478118  1
  O  O140  1  0.288899  0.717001  0.967033  1
  O  O141  1  0.717001  0.288899  0.532967  1
  O  O142  1  0.711101  0.282999  0.032967  1
  O  O143  1  0.282999  0.711101  0.467033  1
  O  O144  1  0.071493  0.633978  0.074857  1
  O  O145  1  0.633978  0.071493  0.425143  1
  O  O146  1  0.928507  0.366022  0.925143  1
  O  O147  1  0.366022  0.928507  0.574857  1
