# generated using pymatgen
data_LiSb(PO3)4
_symmetry_space_group_name_H-M   'P 1'
_cell_length_a   7.35897995
_cell_length_b   13.17352347
_cell_length_c   11.97327247
_cell_angle_alpha   90.00000000
_cell_angle_beta   125.43743774
_cell_angle_gamma   90.00000000
_symmetry_Int_Tables_number   1
_chemical_formula_structural   LiSb(PO3)4
_chemical_formula_sum   'Li4 Sb4 P16 O48'
_cell_volume   945.70640712
_cell_formula_units_Z   4
loop_
 _symmetry_equiv_pos_site_id
 _symmetry_equiv_pos_as_xyz
  1  'x, y, z'
loop_
 _atom_site_type_symbol
 _atom_site_label
 _atom_site_symmetry_multiplicity
 _atom_site_fract_x
 _atom_site_fract_y
 _atom_site_fract_z
 _atom_site_occupancy
  Li  Li0  1  0.632905  0.220545  0.072198  1
  Li  Li1  1  0.367095  0.720545  0.427802  1
  Li  Li2  1  0.632905  0.279455  0.572198  1
  Li  Li3  1  0.367095  0.779455  0.927802  1
  Sb  Sb4  1  0.990700  0.786392  0.008229  1
  Sb  Sb5  1  0.009300  0.213608  0.991771  1
  Sb  Sb6  1  0.009300  0.286392  0.491771  1
  Sb  Sb7  1  0.990700  0.713608  0.508229  1
  P  P8  1  0.512824  0.602771  0.276059  1
  P  P9  1  0.919513  0.412773  0.211368  1
  P  P10  1  0.080487  0.912773  0.288632  1
  P  P11  1  0.624232  0.886256  0.223905  1
  P  P12  1  0.487176  0.102771  0.223941  1
  P  P13  1  0.375768  0.386256  0.276095  1
  P  P14  1  0.487176  0.397229  0.723941  1
  P  P15  1  0.080487  0.587227  0.788632  1
  P  P16  1  0.919513  0.087227  0.711368  1
  P  P17  1  0.185496  0.368966  0.807725  1
  P  P18  1  0.814504  0.868966  0.692275  1
  P  P19  1  0.185496  0.131034  0.307725  1
  P  P20  1  0.512824  0.897229  0.776059  1
  P  P21  1  0.375768  0.113744  0.776095  1
  P  P22  1  0.624232  0.613744  0.723905  1
  P  P23  1  0.814504  0.631034  0.192275  1
  O  O24  1  0.422477  0.371615  0.828214  1
  O  O25  1  0.879683  0.098664  0.821098  1
  O  O26  1  0.793477  0.787782  0.597507  1
  O  O27  1  0.175190  0.477811  0.864017  1
  O  O28  1  0.676932  0.333847  0.750932  1
  O  O29  1  0.120317  0.901336  0.178902  1
  O  O30  1  0.998431  0.137584  0.155965  1
  O  O31  1  0.824810  0.977811  0.635983  1
  O  O32  1  0.183387  0.427647  0.289308  1
  O  O33  1  0.430958  0.851528  0.086713  1
  O  O34  1  0.822444  0.335447  0.099731  1
  O  O35  1  0.824810  0.522189  0.135983  1
  O  O36  1  0.177556  0.664553  0.900269  1
  O  O37  1  0.430958  0.648472  0.586713  1
  O  O38  1  0.721213  0.685045  0.844137  1
  O  O39  1  0.438799  0.012382  0.730552  1
  O  O40  1  0.323068  0.666153  0.249068  1
  O  O41  1  0.879683  0.401336  0.321098  1
  O  O42  1  0.001569  0.862416  0.844035  1
  O  O43  1  0.183387  0.072353  0.789308  1
  O  O44  1  0.721213  0.814955  0.344137  1
  O  O45  1  0.724033  0.607679  0.423717  1
  O  O46  1  0.177556  0.835447  0.400269  1
  O  O47  1  0.793477  0.712218  0.097507  1
  O  O48  1  0.278787  0.314955  0.155863  1
  O  O49  1  0.676932  0.166153  0.250932  1
  O  O50  1  0.998431  0.362416  0.655965  1
  O  O51  1  0.569042  0.148472  0.913287  1
  O  O52  1  0.422477  0.128385  0.328214  1
  O  O53  1  0.275967  0.392321  0.576283  1
  O  O54  1  0.569042  0.351528  0.413287  1
  O  O55  1  0.561201  0.512382  0.769448  1
  O  O56  1  0.438799  0.487618  0.230552  1
  O  O57  1  0.120317  0.598664  0.678902  1
  O  O58  1  0.206523  0.212218  0.402493  1
  O  O59  1  0.816613  0.572353  0.710692  1
  O  O60  1  0.822444  0.164553  0.599731  1
  O  O61  1  0.278787  0.185045  0.655863  1
  O  O62  1  0.561201  0.987618  0.269448  1
  O  O63  1  0.175190  0.022189  0.364017  1
  O  O64  1  0.577523  0.628385  0.171786  1
  O  O65  1  0.816613  0.927647  0.210692  1
  O  O66  1  0.275967  0.107679  0.076283  1
  O  O67  1  0.001569  0.637584  0.344035  1
  O  O68  1  0.724033  0.892321  0.923717  1
  O  O69  1  0.577523  0.871615  0.671786  1
  O  O70  1  0.323068  0.833847  0.749068  1
  O  O71  1  0.206523  0.287782  0.902493  1
