# generated using pymatgen
data_ZrP2(HO3)2
_symmetry_space_group_name_H-M   'P 1'
_cell_length_a   5.51709514
_cell_length_b   5.51709514
_cell_length_c   5.62376643
_cell_angle_alpha   90.00000000
_cell_angle_beta   90.00000000
_cell_angle_gamma   120.00000000
_symmetry_Int_Tables_number   1
_chemical_formula_structural   ZrP2(HO3)2
_chemical_formula_sum   'Zr1 P2 H2 O6'
_cell_volume   148.24458994
_cell_formula_units_Z   1
loop_
 _symmetry_equiv_pos_site_id
 _symmetry_equiv_pos_as_xyz
  1  'x, y, z'
loop_
 _atom_site_type_symbol
 _atom_site_label
 _atom_site_symmetry_multiplicity
 _atom_site_fract_x
 _atom_site_fract_y
 _atom_site_fract_z
 _atom_site_occupancy
  Zr  Zr0  1  0.000000  0.000000  0.000000  1
  P  P1  1  0.666667  0.333333  0.708277  1
  P  P2  1  0.333333  0.666667  0.291723  1
  H  H3  1  0.666667  0.333333  0.458586  1
  H  H4  1  0.333333  0.666667  0.541414  1
  O  O5  1  0.359881  0.163146  0.786775  1
  O  O6  1  0.803265  0.640119  0.786775  1
  O  O7  1  0.836854  0.196735  0.786775  1
  O  O8  1  0.640119  0.836854  0.213225  1
  O  O9  1  0.196735  0.359881  0.213225  1
  O  O10  1  0.163146  0.803265  0.213225  1
