# generated using pymatgen
data_Nb3ZnFe3(O6F)2
_symmetry_space_group_name_H-M   'P 1'
_cell_length_a   4.72739352
_cell_length_b   5.16571111
_cell_length_c   11.03187637
_cell_angle_alpha   92.78769881
_cell_angle_beta   90.31525008
_cell_angle_gamma   90.61526368
_symmetry_Int_Tables_number   1
_chemical_formula_structural   Nb3ZnFe3(O6F)2
_chemical_formula_sum   'Nb3 Zn1 Fe3 O12 F2'
_cell_volume   269.06305451
_cell_formula_units_Z   1
loop_
 _symmetry_equiv_pos_site_id
 _symmetry_equiv_pos_as_xyz
  1  'x, y, z'
loop_
 _atom_site_type_symbol
 _atom_site_label
 _atom_site_symmetry_multiplicity
 _atom_site_fract_x
 _atom_site_fract_y
 _atom_site_fract_z
 _atom_site_occupancy
  Nb  Nb0  1  0.508894  0.715153  0.839102  1
  Nb  Nb1  1  0.510527  0.769575  0.337664  1
  Nb  Nb2  1  0.081361  0.808962  0.620385  1
  Zn  Zn3  1  0.497600  0.250814  0.180108  1
  Fe  Fe4  1  0.018687  0.267153  0.400817  1
  Fe  Fe5  1  0.037915  0.240078  0.882966  1
  Fe  Fe6  1  0.033906  0.782305  0.093432  1
  O  O7  1  0.762991  0.929174  0.933769  1
  O  O8  1  0.765758  0.964506  0.442133  1
  O  O9  1  0.711914  0.797691  0.673845  1
  O  O10  1  0.724242  0.913133  0.185038  1
  O  O11  1  0.705900  0.403917  0.839986  1
  O  O12  1  0.729122  0.447829  0.317134  1
  O  O13  1  0.219398  0.536367  0.702811  1
  O  O14  1  0.233080  0.011643  0.773857  1
  O  O15  1  0.268348  0.580013  0.192469  1
  O  O16  1  0.256446  0.066214  0.299429  1
  O  O17  1  0.211269  0.581800  0.948013  1
  O  O18  1  0.220638  0.625038  0.456918  1
  F  F19  1  0.225878  0.104214  0.038029  1
  F  F20  1  0.226127  0.146422  0.547095  1
