# generated using pymatgen
data_NaH3C2O5
_symmetry_space_group_name_H-M   'P 1'
_cell_length_a   5.73014369
_cell_length_b   6.52806056
_cell_length_c   6.71311129
_cell_angle_alpha   104.96565531
_cell_angle_beta   85.09468629
_cell_angle_gamma   110.02028888
_symmetry_Int_Tables_number   1
_chemical_formula_structural   NaH3C2O5
_chemical_formula_sum   'Na2 H6 C4 O10'
_cell_volume   227.93686909
_cell_formula_units_Z   2
loop_
 _symmetry_equiv_pos_site_id
 _symmetry_equiv_pos_as_xyz
  1  'x, y, z'
loop_
 _atom_site_type_symbol
 _atom_site_label
 _atom_site_symmetry_multiplicity
 _atom_site_fract_x
 _atom_site_fract_y
 _atom_site_fract_z
 _atom_site_occupancy
  Na  Na0  1  0.759597  0.748501  0.972322  1
  Na  Na1  1  0.240403  0.251499  0.027678  1
  H  H2  1  0.237736  0.810193  0.774801  1
  H  H3  1  0.762264  0.189807  0.225199  1
  H  H4  1  0.259913  0.791009  0.002956  1
  H  H5  1  0.740087  0.208991  0.997044  1
  H  H6  1  0.990239  0.745671  0.396296  1
  H  H7  1  0.009761  0.254329  0.603704  1
  C  C8  1  0.645546  0.741564  0.460731  1
  C  C9  1  0.354454  0.258436  0.539269  1
  C  C10  1  0.401757  0.723162  0.360380  1
  C  C11  1  0.598243  0.276838  0.639620  1
  O  O12  1  0.657631  0.754572  0.646122  1
  O  O13  1  0.342369  0.245428  0.353878  1
  O  O14  1  0.828337  0.736551  0.327118  1
  O  O15  1  0.171663  0.263449  0.672882  1
  O  O16  1  0.387259  0.665517  0.165879  1
  O  O17  1  0.612741  0.334483  0.834121  1
  O  O18  1  0.235804  0.765370  0.486161  1
  O  O19  1  0.764196  0.234630  0.513839  1
  O  O20  1  0.185158  0.855817  0.918679  1
  O  O21  1  0.814842  0.144183  0.081321  1
