# generated using pymatgen
data_Tl2SO3
_symmetry_space_group_name_H-M   'P 1'
_cell_length_a   6.97691686
_cell_length_b   7.73041539
_cell_length_c   11.26662010
_cell_angle_alpha   90.00000000
_cell_angle_beta   111.33452494
_cell_angle_gamma   90.00000000
_symmetry_Int_Tables_number   1
_chemical_formula_structural   Tl2SO3
_chemical_formula_sum   'Tl8 S4 O12'
_cell_volume   566.01757285
_cell_formula_units_Z   4
loop_
 _symmetry_equiv_pos_site_id
 _symmetry_equiv_pos_as_xyz
  1  'x, y, z'
loop_
 _atom_site_type_symbol
 _atom_site_label
 _atom_site_symmetry_multiplicity
 _atom_site_fract_x
 _atom_site_fract_y
 _atom_site_fract_z
 _atom_site_occupancy
  Tl  Tl0  1  0.293492  0.838677  0.544853  1
  Tl  Tl1  1  0.122428  0.395887  0.300076  1
  Tl  Tl2  1  0.706508  0.338677  0.955147  1
  Tl  Tl3  1  0.877572  0.895887  0.199924  1
  Tl  Tl4  1  0.122428  0.104113  0.800076  1
  Tl  Tl5  1  0.293492  0.661323  0.044853  1
  Tl  Tl6  1  0.877572  0.604113  0.699924  1
  Tl  Tl7  1  0.706508  0.161323  0.455147  1
  S  S8  1  0.599948  0.662694  0.378746  1
  S  S9  1  0.400052  0.162694  0.121254  1
  S  S10  1  0.400052  0.337306  0.621254  1
  S  S11  1  0.599948  0.837306  0.878746  1
  O  O12  1  0.403788  0.255355  0.245114  1
  O  O13  1  0.630926  0.154149  0.137856  1
  O  O14  1  0.304949  0.204250  0.512002  1
  O  O15  1  0.369074  0.654149  0.362144  1
  O  O16  1  0.695051  0.704250  0.987998  1
  O  O17  1  0.596212  0.755355  0.254886  1
  O  O18  1  0.403788  0.244645  0.745114  1
  O  O19  1  0.695051  0.795750  0.487998  1
  O  O20  1  0.369074  0.845851  0.862144  1
  O  O21  1  0.304949  0.295750  0.012002  1
  O  O22  1  0.630926  0.345851  0.637856  1
  O  O23  1  0.596212  0.744645  0.754886  1
