# generated using pymatgen
data_FeCu2SnS4
_symmetry_space_group_name_H-M   'P 1'
_cell_length_a   5.46691761
_cell_length_b   5.46691761
_cell_length_c   5.38419146
_cell_angle_alpha   90.00000000
_cell_angle_beta   90.00000000
_cell_angle_gamma   90.00000000
_symmetry_Int_Tables_number   1
_chemical_formula_structural   FeCu2SnS4
_chemical_formula_sum   'Fe1 Cu2 Sn1 S4'
_cell_volume   160.91834323
_cell_formula_units_Z   1
loop_
 _symmetry_equiv_pos_site_id
 _symmetry_equiv_pos_as_xyz
  1  'x, y, z'
loop_
 _atom_site_type_symbol
 _atom_site_label
 _atom_site_symmetry_multiplicity
 _atom_site_fract_x
 _atom_site_fract_y
 _atom_site_fract_z
 _atom_site_occupancy
  Fe  Fe0  1  0.500000  0.500000  0.000000  1
  Cu  Cu1  1  0.000000  0.500000  0.500000  1
  Cu  Cu2  1  0.500000  0.000000  0.500000  1
  Sn  Sn3  1  0.000000  0.000000  0.000000  1
  S  S4  1  0.264472  0.735528  0.263677  1
  S  S5  1  0.264472  0.264472  0.736323  1
  S  S6  1  0.735528  0.735528  0.736323  1
  S  S7  1  0.735528  0.264472  0.263677  1
