# generated using pymatgen
data_AlPO4
_symmetry_space_group_name_H-M   'P 1'
_cell_length_a   8.63585579
_cell_length_b   14.02049082
_cell_length_c   24.36945313
_cell_angle_alpha   90.00000000
_cell_angle_beta   90.00000000
_cell_angle_gamma   90.00000000
_symmetry_Int_Tables_number   1
_chemical_formula_structural   AlPO4
_chemical_formula_sum   'Al24 P24 O96'
_cell_volume   2950.62747602
_cell_formula_units_Z   24
loop_
 _symmetry_equiv_pos_site_id
 _symmetry_equiv_pos_as_xyz
  1  'x, y, z'
loop_
 _atom_site_type_symbol
 _atom_site_label
 _atom_site_symmetry_multiplicity
 _atom_site_fract_x
 _atom_site_fract_y
 _atom_site_fract_z
 _atom_site_occupancy
  Al  Al0  1  0.998403  0.207335  0.666912  1
  Al  Al1  1  0.012631  0.393746  0.061523  1
  Al  Al2  1  0.999146  0.889446  0.773930  1
  Al  Al3  1  0.003770  0.291213  0.831062  1
  Al  Al4  1  0.488474  0.895920  0.439249  1
  Al  Al5  1  0.009708  0.393314  0.274442  1
  Al  Al6  1  0.503770  0.291213  0.168938  1
  Al  Al7  1  0.498403  0.792665  0.666912  1
  Al  Al8  1  0.999146  0.110554  0.226070  1
  Al  Al9  1  0.512631  0.606254  0.061523  1
  Al  Al10  1  0.499146  0.110554  0.773930  1
  Al  Al11  1  0.509708  0.393314  0.725558  1
  Al  Al12  1  0.509708  0.606686  0.274442  1
  Al  Al13  1  0.998403  0.792665  0.333088  1
  Al  Al14  1  0.988474  0.104080  0.439249  1
  Al  Al15  1  0.498403  0.207335  0.333088  1
  Al  Al16  1  0.009708  0.606686  0.725558  1
  Al  Al17  1  0.012631  0.606254  0.938477  1
  Al  Al18  1  0.003770  0.708787  0.168938  1
  Al  Al19  1  0.499146  0.889446  0.226070  1
  Al  Al20  1  0.512631  0.393746  0.938477  1
  Al  Al21  1  0.503770  0.708787  0.831062  1
  Al  Al22  1  0.988474  0.895920  0.560751  1
  Al  Al23  1  0.488474  0.104080  0.560751  1
  P  P24  1  0.125135  0.209102  0.335781  1
  P  P25  1  0.133330  0.390171  0.938018  1
  P  P26  1  0.121315  0.103742  0.775296  1
  P  P27  1  0.133330  0.609829  0.061982  1
  P  P28  1  0.615058  0.892787  0.560422  1
  P  P29  1  0.625135  0.209102  0.664219  1
  P  P30  1  0.621315  0.896258  0.775296  1
  P  P31  1  0.131656  0.706069  0.831728  1
  P  P32  1  0.636722  0.392000  0.275271  1
  P  P33  1  0.633330  0.609829  0.938018  1
  P  P34  1  0.121315  0.896258  0.224704  1
  P  P35  1  0.615058  0.107213  0.439578  1
  P  P36  1  0.131656  0.293931  0.168272  1
  P  P37  1  0.125135  0.790898  0.664219  1
  P  P38  1  0.115058  0.107213  0.560422  1
  P  P39  1  0.631656  0.706069  0.168272  1
  P  P40  1  0.625135  0.790898  0.335781  1
  P  P41  1  0.631656  0.293931  0.831728  1
  P  P42  1  0.633330  0.390171  0.061982  1
  P  P43  1  0.115058  0.892787  0.439578  1
  P  P44  1  0.136722  0.392000  0.724729  1
  P  P45  1  0.636722  0.608000  0.724729  1
  P  P46  1  0.136722  0.608000  0.275271  1
  P  P47  1  0.621315  0.103742  0.224704  1
  O  O48  1  0.577004  0.814609  0.602347  1
  O  O49  1  0.546661  0.011462  0.420581  1
  O  O50  1  0.604355  0.633993  0.785151  1
  O  O51  1  0.104355  0.366007  0.785151  1
  O  O52  1  0.596713  0.685019  0.107932  1
  O  O53  1  0.561154  0.317878  0.101829  1
  O  O54  1  0.078099  0.491038  0.922950  1
  O  O55  1  0.047972  0.323676  0.686552  1
  O  O56  1  0.805421  0.308480  0.820444  1
  O  O57  1  0.601073  0.685682  0.319876  1
  O  O58  1  0.051435  0.138170  0.504411  1
  O  O59  1  0.077004  0.185391  0.602347  1
  O  O60  1  0.101073  0.314318  0.319876  1
  O  O61  1  0.790063  0.096267  0.444037  1
  O  O62  1  0.070554  0.127300  0.716217  1
  O  O63  1  0.050466  0.857131  0.707164  1
  O  O64  1  0.101073  0.685682  0.680124  1
  O  O65  1  0.046661  0.011462  0.579419  1
  O  O66  1  0.039877  0.636579  0.794955  1
  O  O67  1  0.798062  0.886308  0.779770  1
  O  O68  1  0.577004  0.185391  0.397653  1
  O  O69  1  0.547972  0.323676  0.313448  1
  O  O70  1  0.539877  0.636579  0.205045  1
  O  O71  1  0.551435  0.138170  0.495589  1
  O  O72  1  0.570554  0.872700  0.716217  1
  O  O73  1  0.044407  0.828847  0.183054  1
  O  O74  1  0.550466  0.857131  0.292836  1
  O  O75  1  0.544407  0.828847  0.816946  1
  O  O76  1  0.050257  0.810403  0.608355  1
  O  O77  1  0.604355  0.366007  0.214849  1
  O  O78  1  0.047972  0.676324  0.313448  1
  O  O79  1  0.305421  0.308480  0.179556  1
  O  O80  1  0.298062  0.886308  0.220230  1
  O  O81  1  0.298062  0.113692  0.779770  1
  O  O82  1  0.790063  0.903733  0.555963  1
  O  O83  1  0.077004  0.814609  0.397653  1
  O  O84  1  0.046661  0.988538  0.420581  1
  O  O85  1  0.546661  0.988538  0.579419  1
  O  O86  1  0.585863  0.190097  0.820067  1
  O  O87  1  0.081165  0.637184  0.003632  1
  O  O88  1  0.310717  0.387025  0.934126  1
  O  O89  1  0.550257  0.810403  0.391645  1
  O  O90  1  0.810988  0.384859  0.286462  1
  O  O91  1  0.078099  0.508962  0.077050  1
  O  O92  1  0.810717  0.387025  0.065874  1
  O  O93  1  0.085863  0.809903  0.820067  1
  O  O94  1  0.539877  0.363421  0.794955  1
  O  O95  1  0.050466  0.142869  0.292836  1
  O  O96  1  0.550257  0.189597  0.608355  1
  O  O97  1  0.096713  0.314981  0.107932  1
  O  O98  1  0.072207  0.001819  0.789824  1
  O  O99  1  0.290063  0.096267  0.555963  1
  O  O100  1  0.083815  0.506017  0.288096  1
  O  O101  1  0.547972  0.676324  0.686552  1
  O  O102  1  0.083815  0.493983  0.711904  1
  O  O103  1  0.310988  0.384859  0.713538  1
  O  O104  1  0.805421  0.691520  0.179556  1
  O  O105  1  0.061154  0.317878  0.898171  1
  O  O106  1  0.039877  0.363421  0.205045  1
  O  O107  1  0.299325  0.811513  0.661226  1
  O  O108  1  0.050257  0.189597  0.391645  1
  O  O109  1  0.810717  0.612975  0.934126  1
  O  O110  1  0.578099  0.491038  0.077050  1
  O  O111  1  0.310717  0.612975  0.065874  1
  O  O112  1  0.070554  0.872700  0.283783  1
  O  O113  1  0.072207  0.998181  0.210176  1
  O  O114  1  0.578099  0.508962  0.922950  1
  O  O115  1  0.601073  0.314318  0.680124  1
  O  O116  1  0.798062  0.113692  0.220230  1
  O  O117  1  0.051435  0.861830  0.495589  1
  O  O118  1  0.561154  0.682122  0.898171  1
  O  O119  1  0.550466  0.142869  0.707164  1
  O  O120  1  0.085863  0.190097  0.179933  1
  O  O121  1  0.596713  0.314981  0.892068  1
  O  O122  1  0.581165  0.362816  0.003632  1
  O  O123  1  0.299325  0.188487  0.338774  1
  O  O124  1  0.310988  0.615141  0.286462  1
  O  O125  1  0.572207  0.001819  0.210176  1
  O  O126  1  0.570554  0.127300  0.283783  1
  O  O127  1  0.061154  0.682122  0.101829  1
  O  O128  1  0.583815  0.506017  0.711904  1
  O  O129  1  0.799325  0.811513  0.338774  1
  O  O130  1  0.572207  0.998181  0.789824  1
  O  O131  1  0.081165  0.362816  0.996368  1
  O  O132  1  0.810988  0.615141  0.713538  1
  O  O133  1  0.585863  0.809903  0.179933  1
  O  O134  1  0.290063  0.903733  0.444037  1
  O  O135  1  0.104355  0.633993  0.214849  1
  O  O136  1  0.096713  0.685019  0.892068  1
  O  O137  1  0.551435  0.861830  0.504411  1
  O  O138  1  0.583815  0.493983  0.288096  1
  O  O139  1  0.305421  0.691520  0.820444  1
  O  O140  1  0.044407  0.171153  0.816946  1
  O  O141  1  0.544407  0.171153  0.183054  1
  O  O142  1  0.581165  0.637184  0.996368  1
  O  O143  1  0.799325  0.188487  0.661226  1
