# generated using pymatgen
data_Ba6Ti2Nb10Si8O51
_symmetry_space_group_name_H-M   'P 1'
_cell_length_a   9.09725126
_cell_length_b   12.07919720
_cell_length_c   12.09491824
_cell_angle_alpha   82.68958278
_cell_angle_beta   112.01434940
_cell_angle_gamma   111.97864827
_symmetry_Int_Tables_number   1
_chemical_formula_structural   Ba6Ti2Nb10Si8O51
_chemical_formula_sum   'Ba6 Ti2 Nb10 Si8 O51'
_cell_volume   1142.49505601
_cell_formula_units_Z   1
loop_
 _symmetry_equiv_pos_site_id
 _symmetry_equiv_pos_as_xyz
  1  'x, y, z'
loop_
 _atom_site_type_symbol
 _atom_site_label
 _atom_site_symmetry_multiplicity
 _atom_site_fract_x
 _atom_site_fract_y
 _atom_site_fract_z
 _atom_site_occupancy
  Ba  Ba0  1  0.000375  0.947343  0.445415  1
  Ba  Ba1  1  0.596061  0.551275  0.050183  1
  Ba  Ba2  1  0.410382  0.752737  0.251721  1
  Ba  Ba3  1  0.999939  0.449708  0.948472  1
  Ba  Ba4  1  0.588787  0.046091  0.546498  1
  Ba  Ba5  1  0.404154  0.252080  0.752168  1
  Ti  Ti6  1  0.000470  0.477605  0.274328  1
  Ti  Ti7  1  0.000481  0.773792  0.982045  1
  Nb  Nb8  1  0.762129  0.883152  0.110225  1
  Nb  Nb9  1  0.766180  0.627051  0.365455  1
  Nb  Nb10  1  0.238913  0.249834  0.990252  1
  Nb  Nb11  1  0.000383  0.006694  0.755542  1
  Nb  Nb12  1  0.999398  0.254320  0.510797  1
  Nb  Nb13  1  0.757277  0.388968  0.614424  1
  Nb  Nb14  1  0.761606  0.130694  0.870966  1
  Nb  Nb15  1  0.234369  0.743788  0.481912  1
  Nb  Nb16  1  0.237844  0.002282  0.228835  1
  Nb  Nb17  1  0.242066  0.509973  0.735445  1
  Si  Si18  1  0.675086  0.274065  0.071371  1
  Si  Si19  1  0.325925  0.436028  0.233238  1
  Si  Si20  1  0.669982  0.766108  0.567099  1
  Si  Si21  1  0.669014  0.064730  0.268977  1
  Si  Si22  1  0.330847  0.931360  0.732495  1
  Si  Si23  1  0.331147  0.230550  0.434801  1
  Si  Si24  1  0.674344  0.568943  0.776863  1
  Si  Si25  1  0.325562  0.730724  0.938999  1
  O  O26  1  0.827109  0.404234  0.119106  1
  O  O27  1  0.999719  0.969949  0.207703  1
  O  O28  1  0.830339  0.786878  0.035286  1
  O  O29  1  0.831138  0.532861  0.287152  1
  O  O30  1  0.000059  0.704829  0.472935  1
  O  O31  1  0.495572  0.297855  0.018655  1
  O  O32  1  0.766932  0.747910  0.250972  1
  O  O33  1  0.999413  0.353609  0.365488  1
  O  O34  1  0.002112  0.136500  0.638373  1
  O  O35  1  0.695728  0.950425  0.230925  1
  O  O36  1  0.508142  0.765370  0.050289  1
  O  O37  1  0.695734  0.728859  0.452896  1
  O  O38  1  0.507152  0.547573  0.268185  1
  O  O39  1  0.817969  0.897045  0.614118  1
  O  O40  1  0.298616  0.385265  0.104823  1
  O  O41  1  0.816706  0.112103  0.399804  1
  O  O42  1  0.675484  0.171681  0.172523  1
  O  O43  1  0.823119  0.028447  0.793208  1
  O  O44  1  0.999647  0.470348  0.707184  1
  O  O45  1  0.822678  0.292732  0.532143  1
  O  O46  1  0.000655  0.204647  0.973047  1
  O  O47  1  0.488644  0.010449  0.292610  1
  O  O48  1  0.174940  0.490757  0.206701  1
  O  O49  1  0.489896  0.789227  0.514264  1
  O  O50  1  0.767594  0.247926  0.752836  1
  O  O51  1  0.722341  0.498805  0.498325  1
  O  O52  1  0.168464  0.872712  0.119114  1
  O  O53  1  0.168209  0.616652  0.371777  1
  O  O54  1  0.277187  0.136012  0.135982  1
  O  O55  1  0.999991  0.862698  0.856879  1
  O  O56  1  0.232922  0.864494  0.367459  1
  O  O57  1  0.697388  0.452295  0.737647  1
  O  O58  1  0.510803  0.268539  0.550099  1
  O  O59  1  0.509296  0.046489  0.771730  1
  O  O60  1  0.698960  0.235287  0.955854  1
  O  O61  1  0.305848  0.102801  0.384405  1
  O  O62  1  0.307763  0.882387  0.605562  1
  O  O63  1  0.825938  0.616675  0.906970  1
  O  O64  1  0.325847  0.333547  0.334361  1
  O  O65  1  0.676661  0.669752  0.674491  1
  O  O66  1  0.493224  0.516652  0.799562  1
  O  O67  1  0.183415  0.204328  0.491303  1
  O  O68  1  0.182112  0.987528  0.704933  1
  O  O69  1  0.723789  0.996923  0.997364  1
  O  O70  1  0.179145  0.382099  0.620583  1
  O  O71  1  0.180580  0.116665  0.882781  1
  O  O72  1  0.276724  0.637617  0.637432  1
  O  O73  1  0.232807  0.362367  0.867323  1
  O  O74  1  0.296785  0.601203  0.887731  1
  O  O75  1  0.324306  0.830778  0.835735  1
  O  O76  1  0.175901  0.705144  0.994669  1
