# generated using pymatgen
data_Te3WICl6
_symmetry_space_group_name_H-M   'P 1'
_cell_length_a   11.85258731
_cell_length_b   11.00615502
_cell_length_c   12.04067088
_cell_angle_alpha   90.00000000
_cell_angle_beta   111.67763345
_cell_angle_gamma   90.00000000
_symmetry_Int_Tables_number   1
_chemical_formula_structural   Te3WICl6
_chemical_formula_sum   'Te12 W4 I4 Cl24'
_cell_volume   1459.63607085
_cell_formula_units_Z   4
loop_
 _symmetry_equiv_pos_site_id
 _symmetry_equiv_pos_as_xyz
  1  'x, y, z'
loop_
 _atom_site_type_symbol
 _atom_site_label
 _atom_site_symmetry_multiplicity
 _atom_site_fract_x
 _atom_site_fract_y
 _atom_site_fract_z
 _atom_site_occupancy
  Te  Te0  1  0.611909  0.188432  0.956244  1
  Te  Te1  1  0.439740  0.209716  0.048069  1
  Te  Te2  1  0.560260  0.709716  0.451931  1
  Te  Te3  1  0.388091  0.811568  0.043756  1
  Te  Te4  1  0.511219  0.509922  0.281906  1
  Te  Te5  1  0.511219  0.990078  0.781906  1
  Te  Te6  1  0.560260  0.790284  0.951931  1
  Te  Te7  1  0.439740  0.290284  0.548069  1
  Te  Te8  1  0.488781  0.009922  0.218094  1
  Te  Te9  1  0.611909  0.311568  0.456244  1
  Te  Te10  1  0.388091  0.688432  0.543756  1
  Te  Te11  1  0.488781  0.490078  0.718094  1
  W  W12  1  0.139002  0.005339  0.285601  1
  W  W13  1  0.139002  0.494661  0.785601  1
  W  W14  1  0.860998  0.994661  0.714399  1
  W  W15  1  0.860998  0.505339  0.214399  1
  I  I16  1  0.726798  0.970484  0.259764  1
  I  I17  1  0.726798  0.529516  0.759764  1
  I  I18  1  0.273202  0.029516  0.740236  1
  I  I19  1  0.273202  0.470484  0.240236  1
  Cl  Cl20  1  0.058339  0.614432  0.896394  1
  Cl  Cl21  1  0.190791  0.669911  0.703600  1
  Cl  Cl22  1  0.953923  0.482013  0.631476  1
  Cl  Cl23  1  0.662841  0.005433  0.562755  1
  Cl  Cl24  1  0.337159  0.505433  0.937245  1
  Cl  Cl25  1  0.953923  0.017987  0.131476  1
  Cl  Cl26  1  0.809209  0.330089  0.296400  1
  Cl  Cl27  1  0.941661  0.385568  0.103606  1
  Cl  Cl28  1  0.890674  0.679577  0.123746  1
  Cl  Cl29  1  0.190791  0.830089  0.203600  1
  Cl  Cl30  1  0.109326  0.320423  0.876254  1
  Cl  Cl31  1  0.941661  0.114432  0.603606  1
  Cl  Cl32  1  0.109326  0.179577  0.376254  1
  Cl  Cl33  1  0.774276  0.878500  0.832112  1
  Cl  Cl34  1  0.662841  0.494567  0.062755  1
  Cl  Cl35  1  0.058339  0.885568  0.396394  1
  Cl  Cl36  1  0.890674  0.820423  0.623746  1
  Cl  Cl37  1  0.225724  0.121500  0.167888  1
  Cl  Cl38  1  0.046077  0.517987  0.368524  1
  Cl  Cl39  1  0.337159  0.994567  0.437245  1
  Cl  Cl40  1  0.225724  0.378500  0.667888  1
  Cl  Cl41  1  0.774276  0.621500  0.332112  1
  Cl  Cl42  1  0.809209  0.169911  0.796400  1
  Cl  Cl43  1  0.046077  0.982013  0.868524  1
