# generated using pymatgen
data_HfMnTl
_symmetry_space_group_name_H-M   'P 1'
_cell_length_a   4.57210717
_cell_length_b   4.57210717
_cell_length_c   4.57210717
_cell_angle_alpha   60.00000000
_cell_angle_beta   60.00000000
_cell_angle_gamma   60.00000000
_symmetry_Int_Tables_number   1
_chemical_formula_structural   HfMnTl
_chemical_formula_sum   'Hf1 Mn1 Tl1'
_cell_volume   67.58249291
_cell_formula_units_Z   1
loop_
 _symmetry_equiv_pos_site_id
 _symmetry_equiv_pos_as_xyz
  1  'x, y, z'
loop_
 _atom_site_type_symbol
 _atom_site_label
 _atom_site_symmetry_multiplicity
 _atom_site_fract_x
 _atom_site_fract_y
 _atom_site_fract_z
 _atom_site_occupancy
  Hf  Hf0  1  1.000000  0.000000  1.000000  1
  Mn  Mn1  1  0.250000  0.250000  0.250000  1
  Tl  Tl2  1  0.750000  0.750000  0.750000  1
