# generated using pymatgen
data_La(Mo3Se4)2
_symmetry_space_group_name_H-M   'P 1'
_cell_length_a   6.84882642
_cell_length_b   6.84882642
_cell_length_c   6.84882642
_cell_angle_alpha   88.63767156
_cell_angle_beta   88.63767156
_cell_angle_gamma   88.63767156
_symmetry_Int_Tables_number   1
_chemical_formula_structural   La(Mo3Se4)2
_chemical_formula_sum   'La1 Mo6 Se8'
_cell_volume   320.98577654
_cell_formula_units_Z   1
loop_
 _symmetry_equiv_pos_site_id
 _symmetry_equiv_pos_as_xyz
  1  'x, y, z'
loop_
 _atom_site_type_symbol
 _atom_site_label
 _atom_site_symmetry_multiplicity
 _atom_site_fract_x
 _atom_site_fract_y
 _atom_site_fract_z
 _atom_site_occupancy
  La  La0  1  0.000000  0.000000  0.000000  1
  Mo  Mo1  1  0.422819  0.561517  0.237402  1
  Mo  Mo2  1  0.237402  0.422819  0.561517  1
  Mo  Mo3  1  0.561517  0.237402  0.422819  1
  Mo  Mo4  1  0.438483  0.762598  0.577181  1
  Mo  Mo5  1  0.762598  0.577181  0.438483  1
  Mo  Mo6  1  0.577181  0.438483  0.762598  1
  Se  Se7  1  0.120939  0.753371  0.378348  1
  Se  Se8  1  0.753371  0.378347  0.120939  1
  Se  Se9  1  0.242791  0.242791  0.242791  1
  Se  Se10  1  0.378348  0.120939  0.753371  1
  Se  Se11  1  0.621652  0.879061  0.246629  1
  Se  Se12  1  0.757209  0.757209  0.757209  1
  Se  Se13  1  0.246629  0.621652  0.879061  1
  Se  Se14  1  0.879061  0.246629  0.621653  1
