# generated using pymatgen
data_TaAg7S6
_symmetry_space_group_name_H-M   'P 1'
_cell_length_a   7.53614210
_cell_length_b   7.61566285
_cell_length_c   7.61987242
_cell_angle_alpha   92.60835918
_cell_angle_beta   117.90162541
_cell_angle_gamma   118.36421449
_symmetry_Int_Tables_number   1
_chemical_formula_structural   TaAg7S6
_chemical_formula_sum   'Ta1 Ag7 S6'
_cell_volume   319.28236478
_cell_formula_units_Z   1
loop_
 _symmetry_equiv_pos_site_id
 _symmetry_equiv_pos_as_xyz
  1  'x, y, z'
loop_
 _atom_site_type_symbol
 _atom_site_label
 _atom_site_symmetry_multiplicity
 _atom_site_fract_x
 _atom_site_fract_y
 _atom_site_fract_z
 _atom_site_occupancy
  Ta  Ta0  1  0.983649  0.486238  0.505410  1
  Ag  Ag1  1  0.885577  0.262188  0.883056  1
  Ag  Ag2  1  0.453744  0.194503  0.087694  1
  Ag  Ag3  1  0.063586  0.718279  0.064675  1
  Ag  Ag4  1  0.616460  0.619389  0.675602  1
  Ag  Ag5  1  0.084168  0.184342  0.301636  1
  Ag  Ag6  1  0.092615  0.971182  0.619519  1
  Ag  Ag7  1  0.419549  0.017425  0.485543  1
  S  S8  1  0.006037  0.003480  0.963657  1
  S  S9  1  0.521390  0.285883  0.778604  1
  S  S10  1  0.748374  0.114041  0.369838  1
  S  S11  1  0.729174  0.600177  0.386072  1
  S  S12  1  0.215696  0.597956  0.864714  1
  S  S13  1  0.241978  0.612916  0.385981  1
