# generated using pymatgen
data_LiSbP2O7
_symmetry_space_group_name_H-M   'P 1'
_cell_length_a   7.23089969
_cell_length_b   9.13594986
_cell_length_c   9.18973397
_cell_angle_alpha   90.00000000
_cell_angle_beta   112.49581265
_cell_angle_gamma   90.00000000
_symmetry_Int_Tables_number   1
_chemical_formula_structural   LiSbP2O7
_chemical_formula_sum   'Li4 Sb4 P8 O28'
_cell_volume   560.88971339
_cell_formula_units_Z   4
loop_
 _symmetry_equiv_pos_site_id
 _symmetry_equiv_pos_as_xyz
  1  'x, y, z'
loop_
 _atom_site_type_symbol
 _atom_site_label
 _atom_site_symmetry_multiplicity
 _atom_site_fract_x
 _atom_site_fract_y
 _atom_site_fract_z
 _atom_site_occupancy
  Li  Li0  1  0.711319  0.047110  0.823684  1
  Li  Li1  1  0.711319  0.452890  0.323684  1
  Li  Li2  1  0.288681  0.952890  0.176316  1
  Li  Li3  1  0.288681  0.547110  0.676316  1
  Sb  Sb4  1  0.251666  0.910811  0.614167  1
  Sb  Sb5  1  0.748334  0.089189  0.385833  1
  Sb  Sb6  1  0.748334  0.410811  0.885833  1
  Sb  Sb7  1  0.251666  0.589189  0.114167  1
  P  P8  1  0.931057  0.755682  0.250558  1
  P  P9  1  0.531991  0.724808  0.469772  1
  P  P10  1  0.531991  0.775192  0.969772  1
  P  P11  1  0.068943  0.255682  0.249442  1
  P  P12  1  0.468009  0.224808  0.030228  1
  P  P13  1  0.468009  0.275192  0.530228  1
  P  P14  1  0.068943  0.244318  0.749442  1
  P  P15  1  0.931057  0.744318  0.750558  1
  O  O16  1  0.471524  0.373530  0.103421  1
  O  O17  1  0.528476  0.626470  0.896579  1
  O  O18  1  0.888223  0.245490  0.804698  1
  O  O19  1  0.747853  0.820111  0.097235  1
  O  O20  1  0.121208  0.389236  0.701526  1
  O  O21  1  0.121208  0.110764  0.201526  1
  O  O22  1  0.111777  0.745490  0.695302  1
  O  O23  1  0.616807  0.281158  0.443568  1
  O  O24  1  0.510588  0.095719  0.148323  1
  O  O25  1  0.888223  0.254510  0.304698  1
  O  O26  1  0.489412  0.595719  0.351677  1
  O  O27  1  0.471524  0.126470  0.603421  1
  O  O28  1  0.878792  0.889236  0.798474  1
  O  O29  1  0.025726  0.118893  0.627949  1
  O  O30  1  0.974274  0.881107  0.372051  1
  O  O31  1  0.528476  0.873530  0.396579  1
  O  O32  1  0.252147  0.320111  0.402765  1
  O  O33  1  0.111777  0.754510  0.195302  1
  O  O34  1  0.878792  0.610764  0.298474  1
  O  O35  1  0.489412  0.904281  0.851677  1
  O  O36  1  0.383193  0.718842  0.556432  1
  O  O37  1  0.383193  0.781158  0.056432  1
  O  O38  1  0.252147  0.179889  0.902765  1
  O  O39  1  0.974274  0.618893  0.872051  1
  O  O40  1  0.510588  0.404281  0.648323  1
  O  O41  1  0.616807  0.218842  0.943568  1
  O  O42  1  0.025726  0.381107  0.127949  1
  O  O43  1  0.747853  0.679889  0.597235  1
