# generated using pymatgen
data_TmH3(CO2)3
_symmetry_space_group_name_H-M   'P 1'
_cell_length_a   6.12864623
_cell_length_b   6.12864623
_cell_length_c   6.12864623
_cell_angle_alpha   115.54154405
_cell_angle_beta   115.54154405
_cell_angle_gamma   115.54154405
_symmetry_Int_Tables_number   1
_chemical_formula_structural   TmH3(CO2)3
_chemical_formula_sum   'Tm1 H3 C3 O6'
_cell_volume   122.23675018
_cell_formula_units_Z   1
loop_
 _symmetry_equiv_pos_site_id
 _symmetry_equiv_pos_as_xyz
  1  'x, y, z'
loop_
 _atom_site_type_symbol
 _atom_site_label
 _atom_site_symmetry_multiplicity
 _atom_site_fract_x
 _atom_site_fract_y
 _atom_site_fract_z
 _atom_site_occupancy
  Tm  Tm0  1  0.999753  0.999753  0.999753  1
  H  H1  1  0.841947  0.358428  0.358428  1
  H  H2  1  0.358428  0.841947  0.358428  1
  H  H3  1  0.358428  0.358428  0.841947  1
  C  C4  1  0.145784  0.607120  0.607120  1
  C  C5  1  0.607120  0.145784  0.607120  1
  C  C6  1  0.607120  0.607120  0.145784  1
  O  O7  1  0.281220  0.888609  0.888609  1
  O  O8  1  0.888608  0.281220  0.888608  1
  O  O9  1  0.888609  0.888609  0.281220  1
  O  O10  1  0.338587  0.588698  0.588698  1
  O  O11  1  0.588698  0.338587  0.588698  1
  O  O12  1  0.588698  0.588698  0.338587  1
