# generated using pymatgen
data_NaHoF4
_symmetry_space_group_name_H-M   'P 1'
_cell_length_a   6.62571360
_cell_length_b   6.62571360
_cell_length_c   6.62571360
_cell_angle_alpha   131.27738443
_cell_angle_beta   131.27738443
_cell_angle_gamma   71.37274233
_symmetry_Int_Tables_number   1
_chemical_formula_structural   NaHoF4
_chemical_formula_sum   'Na2 Ho2 F8'
_cell_volume   160.78974767
_cell_formula_units_Z   2
loop_
 _symmetry_equiv_pos_site_id
 _symmetry_equiv_pos_as_xyz
  1  'x, y, z'
loop_
 _atom_site_type_symbol
 _atom_site_label
 _atom_site_symmetry_multiplicity
 _atom_site_fract_x
 _atom_site_fract_y
 _atom_site_fract_z
 _atom_site_occupancy
  Na  Na0  1  0.000000  0.000000  0.000000  1
  Na  Na1  1  0.750000  0.250000  0.500000  1
  Ho  Ho2  1  0.500000  0.500000  0.000000  1
  Ho  Ho3  1  0.250000  0.750000  0.500000  1
  F  F4  1  0.604561  0.125000  0.979561  1
  F  F5  1  0.875000  0.395439  0.020439  1
  F  F6  1  0.375000  0.395439  0.520439  1
  F  F7  1  0.145439  0.625000  0.020439  1
  F  F8  1  0.375000  0.854561  0.979561  1
  F  F9  1  0.875000  0.854561  0.479561  1
  F  F10  1  0.145439  0.125000  0.520439  1
  F  F11  1  0.604561  0.625000  0.479561  1
