# generated using pymatgen
data_Ba3Nb2CoO9
_symmetry_space_group_name_H-M   'P 1'
_cell_length_a   5.85828604
_cell_length_b   5.85828604
_cell_length_c   7.20607441
_cell_angle_alpha   90.00000000
_cell_angle_beta   90.00000000
_cell_angle_gamma   120.00000000
_symmetry_Int_Tables_number   1
_chemical_formula_structural   Ba3Nb2CoO9
_chemical_formula_sum   'Ba3 Nb2 Co1 O9'
_cell_volume   214.17586070
_cell_formula_units_Z   1
loop_
 _symmetry_equiv_pos_site_id
 _symmetry_equiv_pos_as_xyz
  1  'x, y, z'
loop_
 _atom_site_type_symbol
 _atom_site_label
 _atom_site_symmetry_multiplicity
 _atom_site_fract_x
 _atom_site_fract_y
 _atom_site_fract_z
 _atom_site_occupancy
  Ba  Ba0  1  0.000000  0.000000  0.000000  1
  Ba  Ba1  1  0.333333  0.666667  0.663848  1
  Ba  Ba2  1  0.666667  0.333333  0.336152  1
  Nb  Nb3  1  0.333333  0.666667  0.177623  1
  Nb  Nb4  1  0.666667  0.333333  0.822377  1
  Co  Co5  1  0.000000  0.000000  0.500000  1
  O  O6  1  0.500000  0.500000  0.000000  1
  O  O7  1  0.500000  0.000000  0.000000  1
  O  O8  1  0.000000  0.500000  0.000000  1
  O  O9  1  0.171825  0.828175  0.326376  1
  O  O10  1  0.171825  0.343650  0.326376  1
  O  O11  1  0.656350  0.828175  0.326376  1
  O  O12  1  0.828175  0.171825  0.673624  1
  O  O13  1  0.828175  0.656350  0.673624  1
  O  O14  1  0.343650  0.171825  0.673624  1
