# generated using pymatgen
data_KSrVO4
_symmetry_space_group_name_H-M   'P 1'
_cell_length_a   5.93148083
_cell_length_b   7.55570324
_cell_length_c   10.09797898
_cell_angle_alpha   90.00000000
_cell_angle_beta   90.00000000
_cell_angle_gamma   90.00000000
_symmetry_Int_Tables_number   1
_chemical_formula_structural   KSrVO4
_chemical_formula_sum   'K4 Sr4 V4 O16'
_cell_volume   452.55616508
_cell_formula_units_Z   4
loop_
 _symmetry_equiv_pos_site_id
 _symmetry_equiv_pos_as_xyz
  1  'x, y, z'
loop_
 _atom_site_type_symbol
 _atom_site_label
 _atom_site_symmetry_multiplicity
 _atom_site_fract_x
 _atom_site_fract_y
 _atom_site_fract_z
 _atom_site_occupancy
  K  K0  1  0.484456  0.090886  0.577228  1
  K  K1  1  0.515544  0.590886  0.922772  1
  K  K2  1  0.015544  0.909114  0.077228  1
  K  K3  1  0.984456  0.409114  0.422772  1
  Sr  Sr4  1  0.980827  0.249863  0.800819  1
  Sr  Sr5  1  0.480827  0.250137  0.199181  1
  Sr  Sr6  1  0.519173  0.750137  0.300819  1
  Sr  Sr7  1  0.019173  0.749863  0.699181  1
  V  V8  1  0.485324  0.525257  0.583730  1
  V  V9  1  0.014676  0.474743  0.083730  1
  V  V10  1  0.985324  0.974743  0.416270  1
  V  V11  1  0.514676  0.025257  0.916270  1
  O  O12  1  0.506217  0.929909  0.074161  1
  O  O13  1  0.244796  0.555541  0.172612  1
  O  O14  1  0.255204  0.444459  0.672612  1
  O  O15  1  0.064646  0.251228  0.062142  1
  O  O16  1  0.744796  0.944459  0.827388  1
  O  O17  1  0.564646  0.248772  0.937858  1
  O  O18  1  0.762348  0.516688  0.168838  1
  O  O19  1  0.262348  0.983312  0.831162  1
  O  O20  1  0.993783  0.070091  0.574161  1
  O  O21  1  0.755204  0.055541  0.327388  1
  O  O22  1  0.006217  0.570091  0.925839  1
  O  O23  1  0.493783  0.429909  0.425839  1
  O  O24  1  0.237652  0.016688  0.331162  1
  O  O25  1  0.435354  0.748772  0.562142  1
  O  O26  1  0.737652  0.483312  0.668838  1
  O  O27  1  0.935354  0.751228  0.437858  1
