# generated using pymatgen
data_NaPO3
_symmetry_space_group_name_H-M   'P 1'
_cell_length_a   9.69307002
_cell_length_b   9.69307002
_cell_length_c   9.69307002
_cell_angle_alpha   98.57500697
_cell_angle_beta   98.57500697
_cell_angle_gamma   134.57095010
_symmetry_Int_Tables_number   1
_chemical_formula_structural   NaPO3
_chemical_formula_sum   'Na8 P8 O24'
_cell_volume   598.46009411
_cell_formula_units_Z   8
loop_
 _symmetry_equiv_pos_site_id
 _symmetry_equiv_pos_as_xyz
  1  'x, y, z'
loop_
 _atom_site_type_symbol
 _atom_site_label
 _atom_site_symmetry_multiplicity
 _atom_site_fract_x
 _atom_site_fract_y
 _atom_site_fract_z
 _atom_site_occupancy
  Na  Na0  1  0.599806  0.122381  0.685312  1
  Na  Na1  1  0.650194  0.627619  0.814688  1
  Na  Na2  1  0.877619  0.562931  0.477425  1
  Na  Na3  1  0.164494  0.349806  0.977425  1
  Na  Na4  1  0.437069  0.914494  0.314688  1
  Na  Na5  1  0.085506  0.400194  0.522575  1
  Na  Na6  1  0.372381  0.187069  0.022575  1
  Na  Na7  1  0.812931  0.835506  0.185312  1
  P  P8  1  0.075136  0.636035  0.839843  1
  P  P9  1  0.764708  0.924864  0.560900  1
  P  P10  1  0.485292  0.825136  0.939100  1
  P  P11  1  0.453808  0.514708  0.339843  1
  P  P12  1  0.174864  0.113965  0.660157  1
  P  P13  1  0.886035  0.546192  0.060900  1
  P  P14  1  0.363965  0.203808  0.439100  1
  P  P15  1  0.796192  0.235292  0.160157  1
  O  O16  1  0.565181  0.740552  0.968301  1
  O  O17  1  0.403120  0.434819  0.175371  1
  O  O18  1  0.772251  0.596880  0.031699  1
  O  O19  1  0.092282  0.909971  0.595554  1
  O  O20  1  0.090029  0.685582  0.182310  1
  O  O21  1  0.717575  0.319428  0.079152  1
  O  O22  1  0.157718  0.840029  0.904446  1
  O  O23  1  0.680572  0.759724  0.398146  1
  O  O24  1  0.935582  0.253272  0.095554  1
  O  O25  1  0.314418  0.496728  0.404446  1
  O  O26  1  0.259448  0.227749  0.824629  1
  O  O27  1  0.532425  0.430572  0.420848  1
  O  O28  1  0.240276  0.638423  0.920848  1
  O  O29  1  0.009724  0.111577  0.579152  1
  O  O30  1  0.746728  0.842282  0.682310  1
  O  O31  1  0.477749  0.153120  0.468301  1
  O  O32  1  0.361577  0.282425  0.601854  1
  O  O33  1  0.888423  0.467575  0.898146  1
  O  O34  1  0.846880  0.315181  0.324629  1
  O  O35  1  0.684819  0.009448  0.531699  1
  O  O36  1  0.159971  0.064418  0.317690  1
  O  O37  1  0.569428  0.990276  0.101854  1
  O  O38  1  0.503272  0.907718  0.817690  1
  O  O39  1  0.990552  0.522251  0.675371  1
