# generated using pymatgen
data_SiO2
_symmetry_space_group_name_H-M   'P 1'
_cell_length_a   10.67970416
_cell_length_b   10.67970416
_cell_length_c   10.67970416
_cell_angle_alpha   134.72441296
_cell_angle_beta   128.64478307
_cell_angle_gamma   70.84118367
_symmetry_Int_Tables_number   1
_chemical_formula_structural   SiO2
_chemical_formula_sum   'Si12 O24'
_cell_volume   662.21751962
_cell_formula_units_Z   12
loop_
 _symmetry_equiv_pos_site_id
 _symmetry_equiv_pos_as_xyz
  1  'x, y, z'
loop_
 _atom_site_type_symbol
 _atom_site_label
 _atom_site_symmetry_multiplicity
 _atom_site_fract_x
 _atom_site_fract_y
 _atom_site_fract_z
 _atom_site_occupancy
  Si  Si0  1  0.938867  0.433977  0.235354  1
  Si  Si1  1  0.561133  0.796487  0.495110  1
  Si  Si2  1  0.801377  0.066023  0.004890  1
  Si  Si3  1  0.698623  0.703513  0.264646  1
  Si  Si4  1  0.116320  0.964716  0.024741  1
  Si  Si5  1  0.383680  0.408421  0.848396  1
  Si  Si6  1  0.060025  0.535284  0.651604  1
  Si  Si7  1  0.439975  0.091579  0.475259  1
  Si  Si8  1  0.416941  0.394040  0.151513  1
  Si  Si9  1  0.083059  0.234573  0.977099  1
  Si  Si10  1  0.757474  0.105960  0.522901  1
  Si  Si11  1  0.742526  0.265427  0.348487  1
  O  O12  1  0.804454  0.250000  0.054454  1
  O  O13  1  0.695546  0.750000  0.445546  1
  O  O14  1  0.058552  0.492687  0.470988  1
  O  O15  1  0.441447  0.912435  0.434135  1
  O  O16  1  0.978301  0.007313  0.065865  1
  O  O17  1  0.521699  0.587565  0.029012  1
  O  O18  1  0.051953  0.397150  0.163095  1
  O  O19  1  0.448047  0.611142  0.345197  1
  O  O20  1  0.765945  0.102850  0.154803  1
  O  O21  1  0.734055  0.888858  0.336905  1
  O  O22  1  0.842420  0.592420  0.250000  1
  O  O23  1  0.657580  0.907580  0.750000  1
  O  O24  1  0.095837  0.056033  0.940730  1
  O  O25  1  0.404163  0.344892  0.960196  1
  O  O26  1  0.884696  0.443967  0.539804  1
  O  O27  1  0.615304  0.155108  0.559270  1
  O  O28  1  0.094441  0.750000  0.844441  1
  O  O29  1  0.405559  0.250000  0.655559  1
  O  O30  1  0.296903  0.046903  0.250000  1
  O  O31  1  0.203097  0.453097  0.750000  1
  O  O32  1  0.565666  0.315666  0.250000  1
  O  O33  1  0.934334  0.184334  0.750000  1
  O  O34  1  0.250000  0.301385  0.051385  1
  O  O35  1  0.750000  0.198615  0.448615  1
