# generated using pymatgen
data_FeCu3S8
_symmetry_space_group_name_H-M   'P 1'
_cell_length_a   5.69173299
_cell_length_b   5.70114925
_cell_length_c   12.79109223
_cell_angle_alpha   90.00000000
_cell_angle_beta   115.94068468
_cell_angle_gamma   90.00000000
_symmetry_Int_Tables_number   1
_chemical_formula_structural   FeCu3S8
_chemical_formula_sum   'Fe2 Cu6 S16'
_cell_volume   373.24478111
_cell_formula_units_Z   2
loop_
 _symmetry_equiv_pos_site_id
 _symmetry_equiv_pos_as_xyz
  1  'x, y, z'
loop_
 _atom_site_type_symbol
 _atom_site_label
 _atom_site_symmetry_multiplicity
 _atom_site_fract_x
 _atom_site_fract_y
 _atom_site_fract_z
 _atom_site_occupancy
  Fe  Fe0  1  0.000000  0.000000  0.500000  1
  Fe  Fe1  1  0.000000  0.500000  0.000000  1
  Cu  Cu2  1  0.251034  0.996830  0.249136  1
  Cu  Cu3  1  0.748966  0.003170  0.750864  1
  Cu  Cu4  1  0.500000  0.000000  0.000000  1
  Cu  Cu5  1  0.748966  0.496830  0.250864  1
  Cu  Cu6  1  0.500000  0.500000  0.500000  1
  Cu  Cu7  1  0.251034  0.503170  0.749136  1
  S  S8  1  0.950437  0.878716  0.048526  1
  S  S9  1  0.427637  0.902752  0.548615  1
  S  S10  1  0.401145  0.897006  0.799888  1
  S  S11  1  0.908566  0.904358  0.311111  1
  S  S12  1  0.427637  0.597248  0.048615  1
  S  S13  1  0.908566  0.595642  0.811111  1
  S  S14  1  0.401145  0.602994  0.299888  1
  S  S15  1  0.950437  0.621284  0.548526  1
  S  S16  1  0.572363  0.402752  0.951385  1
  S  S17  1  0.049563  0.378716  0.451474  1
  S  S18  1  0.091434  0.404358  0.188889  1
  S  S19  1  0.598855  0.397006  0.700112  1
  S  S20  1  0.598855  0.102994  0.200112  1
  S  S21  1  0.091434  0.095642  0.688889  1
  S  S22  1  0.049563  0.121284  0.951474  1
  S  S23  1  0.572363  0.097248  0.451385  1
