# generated using pymatgen
data_SiO2
_symmetry_space_group_name_H-M   'P 1'
_cell_length_a   15.90721744
_cell_length_b   15.90721744
_cell_length_c   15.90721744
_cell_angle_alpha   100.60947544
_cell_angle_beta   100.60947544
_cell_angle_gamma   129.18099305
_symmetry_Int_Tables_number   1
_chemical_formula_structural   SiO2
_chemical_formula_sum   'Si48 O96'
_cell_volume   2818.28866393
_cell_formula_units_Z   48
loop_
 _symmetry_equiv_pos_site_id
 _symmetry_equiv_pos_as_xyz
  1  'x, y, z'
loop_
 _atom_site_type_symbol
 _atom_site_label
 _atom_site_symmetry_multiplicity
 _atom_site_fract_x
 _atom_site_fract_y
 _atom_site_fract_z
 _atom_site_occupancy
  Si  Si0  1  0.422544  0.577456  0.000000  1
  Si  Si1  1  0.645563  0.558695  0.476187  1
  Si  Si2  1  0.082508  0.169376  0.523813  1
  Si  Si3  1  0.236012  0.780036  0.301844  1
  Si  Si4  1  0.830624  0.917492  0.476187  1
  Si  Si5  1  0.068853  0.922977  0.697027  1
  Si  Si6  1  0.236012  0.934167  0.455975  1
  Si  Si7  1  0.441305  0.354437  0.523813  1
  Si  Si8  1  0.628175  0.774051  0.697027  1
  Si  Si9  1  0.422544  0.422544  0.845087  1
  Si  Si10  1  0.422829  0.807630  0.235331  1
  Si  Si11  1  0.812503  0.577171  0.384801  1
  Si  Si12  1  0.065833  0.763988  0.544025  1
  Si  Si13  1  0.219964  0.521808  0.455975  1
  Si  Si14  1  0.628175  0.931147  0.854124  1
  Si  Si15  1  0.478192  0.780036  0.544025  1
  Si  Si16  1  0.812503  0.427701  0.235331  1
  Si  Si17  1  0.441305  0.917492  0.086867  1
  Si  Si18  1  0.816788  0.816788  0.633576  1
  Si  Si19  1  0.225949  0.922977  0.854124  1
  Si  Si20  1  0.577456  0.577456  0.154913  1
  Si  Si21  1  0.183212  0.816788  1.000000  1
  Si  Si22  1  0.577456  0.422544  0.000000  1
  Si  Si23  1  0.826885  0.760130  0.313688  1
  Si  Si24  1  0.422829  0.187497  0.615199  1
  Si  Si25  1  0.816788  0.183212  0.000000  1
  Si  Si26  1  0.192370  0.577171  0.764669  1
  Si  Si27  1  0.486803  0.173115  0.933244  1
  Si  Si28  1  0.219964  0.763988  0.698156  1
  Si  Si29  1  0.225949  0.371825  0.302973  1
  Si  Si30  1  0.065833  0.521808  0.301844  1
  Si  Si31  1  0.077023  0.774051  0.145876  1
  Si  Si32  1  0.239870  0.173115  0.686312  1
  Si  Si33  1  0.572299  0.187497  0.764669  1
  Si  Si34  1  0.192370  0.427701  0.615199  1
  Si  Si35  1  0.446442  0.760130  0.933244  1
  Si  Si36  1  0.183212  0.183212  0.366424  1
  Si  Si37  1  0.826885  0.513197  0.066756  1
  Si  Si38  1  0.082508  0.558695  0.913133  1
  Si  Si39  1  0.486803  0.553558  0.313688  1
  Si  Si40  1  0.572299  0.807630  0.384801  1
  Si  Si41  1  0.830624  0.354437  0.913133  1
  Si  Si42  1  0.077023  0.931147  0.302973  1
  Si  Si43  1  0.446442  0.513197  0.686312  1
  Si  Si44  1  0.645563  0.169376  0.086867  1
  Si  Si45  1  0.068853  0.371825  0.145876  1
  Si  Si46  1  0.239870  0.553558  0.066756  1
  Si  Si47  1  0.478192  0.934167  0.698156  1
  O  O48  1  0.107712  0.678206  0.942644  1
  O  O49  1  0.387979  0.478748  0.909231  1
  O  O50  1  0.940562  0.478263  0.295795  1
  O  O51  1  0.506288  0.522661  0.220242  1
  O  O52  1  0.463215  0.895990  0.181287  1
  O  O53  1  0.826158  0.423422  0.998441  1
  O  O54  1  0.272861  0.886996  0.385865  1
  O  O55  1  0.244988  0.447560  0.401217  1
  O  O56  1  0.338267  0.661733  0.500000  1
  O  O57  1  0.713954  0.493712  0.016372  1
  O  O58  1  0.946199  0.053801  0.500000  1
  O  O59  1  0.328520  0.663145  0.837713  1
  O  O60  1  0.756802  0.829609  0.700633  1
  O  O61  1  0.506288  0.286046  0.983628  1
  O  O62  1  0.834932  0.264438  0.942644  1
  O  O63  1  0.509193  0.671480  0.334625  1
  O  O64  1  0.104010  0.285297  0.567225  1
  O  O65  1  0.424981  0.423422  0.597264  1
  O  O66  1  0.735562  0.678206  0.570494  1
  O  O67  1  0.153332  0.459858  0.693474  1
  O  O68  1  0.756802  0.056169  0.927193  1
  O  O69  1  0.355233  0.817531  0.295795  1
  O  O70  1  0.302419  0.286046  0.779758  1
  O  O71  1  0.182469  0.478263  0.537701  1
  O  O72  1  0.352434  0.441257  0.295364  1
  O  O73  1  0.338267  0.838267  0.676533  1
  O  O74  1  0.540142  0.846668  0.306526  1
  O  O75  1  0.172284  0.575019  0.998441  1
  O  O76  1  0.477339  0.697581  0.983628  1
  O  O77  1  0.161733  0.838267  0.500000  1
  O  O78  1  0.145893  0.441257  0.088823  1
  O  O79  1  0.244988  0.843771  0.797428  1
  O  O80  1  0.128977  0.056169  0.299367  1
  O  O81  1  0.136636  0.352662  0.216026  1
  O  O82  1  0.328520  0.490807  0.665375  1
  O  O83  1  0.569517  0.478748  0.090769  1
  O  O84  1  0.943831  0.871023  0.700633  1
  O  O85  1  0.647338  0.863364  0.783974  1
  O  O86  1  0.463215  0.281928  0.567225  1
  O  O87  1  0.302419  0.522661  0.016372  1
  O  O88  1  0.321794  0.264438  0.429506  1
  O  O89  1  0.718072  0.285297  0.181287  1
  O  O90  1  0.156229  0.953657  0.401217  1
  O  O91  1  0.046343  0.843771  0.598783  1
  O  O92  1  0.943831  0.243198  0.072807  1
  O  O93  1  0.172284  0.173842  0.597264  1
  O  O94  1  0.501131  0.886996  0.614135  1
  O  O95  1  0.046343  0.447560  0.202572  1
  O  O96  1  0.521252  0.612021  0.090769  1
  O  O97  1  0.552440  0.953657  0.797428  1
  O  O98  1  0.170391  0.871023  0.927193  1
  O  O99  1  0.718072  0.536785  0.432775  1
  O  O100  1  0.825432  0.490807  0.162287  1
  O  O101  1  0.113004  0.727139  0.614135  1
  O  O102  1  0.942929  0.647566  0.088823  1
  O  O103  1  0.145893  0.057071  0.704636  1
  O  O104  1  0.558743  0.854107  0.911177  1
  O  O105  1  0.424981  0.827716  0.001559  1
  O  O106  1  0.714703  0.895990  0.432775  1
  O  O107  1  0.553801  0.446199  0.500000  1
  O  O108  1  0.713954  0.697581  0.220242  1
  O  O109  1  0.336855  0.671480  0.162287  1
  O  O110  1  0.558743  0.647566  0.704636  1
  O  O111  1  0.477339  0.493712  0.779758  1
  O  O112  1  0.766384  0.459858  0.306526  1
  O  O113  1  0.576578  0.173842  0.001559  1
  O  O114  1  0.942929  0.854107  0.295364  1
  O  O115  1  0.509193  0.174568  0.837713  1
  O  O116  1  0.521737  0.817531  0.462299  1
  O  O117  1  0.521737  0.059438  0.704205  1
  O  O118  1  0.336855  0.174568  0.665375  1
  O  O119  1  0.107712  0.165068  0.429506  1
  O  O120  1  0.576578  0.575019  0.402736  1
  O  O121  1  0.714703  0.281928  0.818713  1
  O  O122  1  0.946199  0.446199  0.892397  1
  O  O123  1  0.552440  0.755012  0.598783  1
  O  O124  1  0.136636  0.920611  0.783974  1
  O  O125  1  0.170391  0.243198  0.299367  1
  O  O126  1  0.156229  0.755012  0.202572  1
  O  O127  1  0.161733  0.661733  0.323467  1
  O  O128  1  0.104010  0.536785  0.818713  1
  O  O129  1  0.540142  0.233616  0.693474  1
  O  O130  1  0.826158  0.827716  0.402736  1
  O  O131  1  0.128977  0.829609  0.072807  1
  O  O132  1  0.321794  0.892288  0.057356  1
  O  O133  1  0.834932  0.892288  0.570494  1
  O  O134  1  0.182469  0.644767  0.704205  1
  O  O135  1  0.355233  0.059438  0.537701  1
  O  O136  1  0.940562  0.644767  0.462299  1
  O  O137  1  0.079389  0.863364  0.216026  1
  O  O138  1  0.352434  0.057071  0.911177  1
  O  O139  1  0.113004  0.498869  0.385865  1
  O  O140  1  0.735562  0.165068  0.057356  1
  O  O141  1  0.553801  0.053801  0.107603  1
  O  O142  1  0.825432  0.663145  0.334625  1
  O  O143  1  0.521252  0.430483  0.909231  1
