# generated using pymatgen
data_Ca(H8O5)2
_symmetry_space_group_name_H-M   'P 1'
_cell_length_a   6.16485417
_cell_length_b   6.23380505
_cell_length_c   11.41764619
_cell_angle_alpha   96.89288835
_cell_angle_beta   90.00989417
_cell_angle_gamma   90.11399033
_symmetry_Int_Tables_number   1
_chemical_formula_structural   Ca(H8O5)2
_chemical_formula_sum   'Ca2 H32 O20'
_cell_volume   435.61350502
_cell_formula_units_Z   2
loop_
 _symmetry_equiv_pos_site_id
 _symmetry_equiv_pos_as_xyz
  1  'x, y, z'
loop_
 _atom_site_type_symbol
 _atom_site_label
 _atom_site_symmetry_multiplicity
 _atom_site_fract_x
 _atom_site_fract_y
 _atom_site_fract_z
 _atom_site_occupancy
  Ca  Ca0  1  0.992809  0.983745  0.516026  1
  Ca  Ca1  1  0.009236  0.978310  0.016347  1
  H  H2  1  0.385758  0.931091  0.365881  1
  H  H3  1  0.363560  0.689790  0.398023  1
  H  H4  1  0.726975  0.083250  0.296883  1
  H  H5  1  0.638348  0.269424  0.396046  1
  H  H6  1  0.040800  0.318894  0.353722  1
  H  H7  1  0.290454  0.347379  0.394191  1
  H  H8  1  0.862239  0.678876  0.304929  1
  H  H9  1  0.708159  0.603254  0.404175  1
  H  H10  1  0.273795  0.080379  0.797124  1
  H  H11  1  0.361535  0.266437  0.896614  1
  H  H12  1  0.617407  0.931404  0.867297  1
  H  H13  1  0.636894  0.689542  0.899246  1
  H  H14  1  0.135574  0.666623  0.804906  1
  H  H15  1  0.291468  0.599052  0.905258  1
  H  H16  1  0.959556  0.319675  0.856590  1
  H  H17  1  0.709221  0.346785  0.894847  1
  H  H18  1  0.729449  0.189628  0.716147  1
  H  H19  1  0.613086  0.287127  0.606835  1
  H  H20  1  0.373362  0.745554  0.611506  1
  H  H21  1  0.444210  0.990258  0.630854  1
  H  H22  1  0.814987  0.747033  0.725273  1
  H  H23  1  0.718939  0.625893  0.607796  1
  H  H24  1  0.264112  0.389191  0.602249  1
  H  H25  1  0.020337  0.452257  0.630582  1
  H  H26  1  0.559384  0.984989  0.131915  1
  H  H27  1  0.629071  0.740402  0.113112  1
  H  H28  1  0.272910  0.184648  0.216242  1
  H  H29  1  0.389946  0.282276  0.107245  1
  H  H30  1  0.738513  0.382980  0.103777  1
  H  H31  1  0.982183  0.447032  0.131782  1
  H  H32  1  0.187530  0.744484  0.225488  1
  H  H33  1  0.283465  0.620928  0.108662  1
  O  O34  1  0.490493  0.489017  0.436603  1
  O  O35  1  0.509684  0.487776  0.937482  1
  O  O36  1  0.493971  0.506821  0.568098  1
  O  O37  1  0.507348  0.503193  0.068945  1
  O  O38  1  0.279889  0.815191  0.368798  1
  O  O39  1  0.722262  0.128972  0.381869  1
  O  O40  1  0.176546  0.239156  0.357369  1
  O  O41  1  0.856529  0.668560  0.388947  1
  O  O42  1  0.277582  0.125781  0.882140  1
  O  O43  1  0.721742  0.814602  0.870178  1
  O  O44  1  0.142769  0.662626  0.889457  1
  O  O45  1  0.823045  0.239726  0.857534  1
  O  O46  1  0.675743  0.150264  0.633313  1
  O  O47  1  0.313012  0.896090  0.633652  1
  O  O48  1  0.858139  0.698458  0.642022  1
  O  O49  1  0.120217  0.326638  0.624103  1
  O  O50  1  0.690113  0.890974  0.135258  1
  O  O51  1  0.327881  0.144921  0.133786  1
  O  O52  1  0.882933  0.320459  0.124132  1
  O  O53  1  0.144196  0.693771  0.142362  1
