# generated using pymatgen
data_Rb3ZnH5
_symmetry_space_group_name_H-M   'P 1'
_cell_length_a   8.12206006
_cell_length_b   8.12206006
_cell_length_c   8.12206006
_cell_angle_alpha   121.22804646
_cell_angle_beta   121.22804646
_cell_angle_gamma   87.88580438
_symmetry_Int_Tables_number   1
_chemical_formula_structural   Rb3ZnH5
_chemical_formula_sum   'Rb6 Zn2 H10'
_cell_volume   371.55705538
_cell_formula_units_Z   2
loop_
 _symmetry_equiv_pos_site_id
 _symmetry_equiv_pos_as_xyz
  1  'x, y, z'
loop_
 _atom_site_type_symbol
 _atom_site_label
 _atom_site_symmetry_multiplicity
 _atom_site_fract_x
 _atom_site_fract_y
 _atom_site_fract_z
 _atom_site_occupancy
  Rb  Rb0  1  0.181280  0.318720  0.500000  1
  Rb  Rb1  1  0.818720  0.681280  0.500000  1
  Rb  Rb2  1  0.681280  0.181280  0.862561  1
  Rb  Rb3  1  0.318720  0.818720  0.137439  1
  Rb  Rb4  1  0.750000  0.750000  0.000000  1
  Rb  Rb5  1  0.250000  0.250000  0.000000  1
  Zn  Zn6  1  0.750000  0.250000  0.500000  1
  Zn  Zn7  1  0.250000  0.750000  0.500000  1
  H  H8  1  0.784521  0.045111  0.500000  1
  H  H9  1  0.545111  0.284521  0.500000  1
  H  H10  1  0.284521  0.784521  0.739411  1
  H  H11  1  0.045111  0.545111  0.260589  1
  H  H12  1  0.215479  0.954889  0.500000  1
  H  H13  1  0.454889  0.715479  0.500000  1
  H  H14  1  0.715479  0.215479  0.260589  1
  H  H15  1  0.954889  0.454889  0.739411  1
  H  H16  1  0.500000  0.500000  0.000000  1
  H  H17  1  0.000000  0.000000  0.000000  1
