# generated using pymatgen
data_Sn3Ru2
_symmetry_space_group_name_H-M   'P 1'
_cell_length_a   6.25345303
_cell_length_b   6.25345303
_cell_length_c   10.03062149
_cell_angle_alpha   90.00000000
_cell_angle_beta   90.00000000
_cell_angle_gamma   90.00000000
_symmetry_Int_Tables_number   1
_chemical_formula_structural   Sn3Ru2
_chemical_formula_sum   'Sn12 Ru8'
_cell_volume   392.25422225
_cell_formula_units_Z   4
loop_
 _symmetry_equiv_pos_site_id
 _symmetry_equiv_pos_as_xyz
  1  'x, y, z'
loop_
 _atom_site_type_symbol
 _atom_site_label
 _atom_site_symmetry_multiplicity
 _atom_site_fract_x
 _atom_site_fract_y
 _atom_site_fract_z
 _atom_site_occupancy
  Sn  Sn0  1  0.156386  0.720399  0.584074  1
  Sn  Sn1  1  0.279601  0.843614  0.915926  1
  Sn  Sn2  1  0.720399  0.843614  0.415926  1
  Sn  Sn3  1  0.279601  0.156386  0.415926  1
  Sn  Sn4  1  0.843614  0.720399  0.084074  1
  Sn  Sn5  1  0.678651  0.321349  0.250000  1
  Sn  Sn6  1  0.720399  0.156386  0.915926  1
  Sn  Sn7  1  0.678651  0.678651  0.750000  1
  Sn  Sn8  1  0.321349  0.321349  0.750000  1
  Sn  Sn9  1  0.156386  0.279601  0.084074  1
  Sn  Sn10  1  0.843614  0.279601  0.584074  1
  Sn  Sn11  1  0.321349  0.678651  0.250000  1
  Ru  Ru12  1  0.500000  0.000000  0.625521  1
  Ru  Ru13  1  0.000000  0.500000  0.374479  1
  Ru  Ru14  1  0.500000  0.500000  0.000000  1
  Ru  Ru15  1  0.000000  0.500000  0.874479  1
  Ru  Ru16  1  0.500000  0.000000  0.125521  1
  Ru  Ru17  1  0.500000  0.500000  0.500000  1
  Ru  Ru18  1  0.000000  0.000000  0.750000  1
  Ru  Ru19  1  0.000000  0.000000  0.250000  1
