# generated using pymatgen
data_Cu2S
_symmetry_space_group_name_H-M   'P 1'
_cell_length_a   3.99359027
_cell_length_b   3.99359027
_cell_length_c   11.23716739
_cell_angle_alpha   90.00000000
_cell_angle_beta   90.00000000
_cell_angle_gamma   90.00000000
_symmetry_Int_Tables_number   1
_chemical_formula_structural   Cu2S
_chemical_formula_sum   'Cu8 S4'
_cell_volume   179.21892187
_cell_formula_units_Z   4
loop_
 _symmetry_equiv_pos_site_id
 _symmetry_equiv_pos_as_xyz
  1  'x, y, z'
loop_
 _atom_site_type_symbol
 _atom_site_label
 _atom_site_symmetry_multiplicity
 _atom_site_fract_x
 _atom_site_fract_y
 _atom_site_fract_z
 _atom_site_occupancy
  Cu  Cu0  1  0.499656  0.160207  0.334523  1
  Cu  Cu1  1  0.000344  0.660207  0.415477  1
  Cu  Cu2  1  0.339793  0.999656  0.084523  1
  Cu  Cu3  1  0.500344  0.839793  0.834523  1
  Cu  Cu4  1  0.839793  0.500344  0.165477  1
  Cu  Cu5  1  0.999656  0.339793  0.915477  1
  Cu  Cu6  1  0.660207  0.000344  0.584523  1
  Cu  Cu7  1  0.160207  0.499656  0.665477  1
  S  S8  1  0.997141  0.002859  0.750000  1
  S  S9  1  0.502859  0.502859  0.000000  1
  S  S10  1  0.497141  0.497141  0.500000  1
  S  S11  1  0.002859  0.997141  0.250000  1
