# generated using pymatgen
data_Rb5NO5
_symmetry_space_group_name_H-M   'P 1'
_cell_length_a   4.27270311
_cell_length_b   20.26281594
_cell_length_c   5.48639306
_cell_angle_alpha   90.00000000
_cell_angle_beta   101.69312258
_cell_angle_gamma   90.00000000
_symmetry_Int_Tables_number   1
_chemical_formula_structural   Rb5NO5
_chemical_formula_sum   'Rb5 N1 O5'
_cell_volume   465.13792220
_cell_formula_units_Z   1
loop_
 _symmetry_equiv_pos_site_id
 _symmetry_equiv_pos_as_xyz
  1  'x, y, z'
loop_
 _atom_site_type_symbol
 _atom_site_label
 _atom_site_symmetry_multiplicity
 _atom_site_fract_x
 _atom_site_fract_y
 _atom_site_fract_z
 _atom_site_occupancy
  Rb  Rb0  1  0.024778  0.221138  0.980188  1
  Rb  Rb1  1  0.999295  0.000000  0.001748  1
  Rb  Rb2  1  0.024778  0.778862  0.980188  1
  Rb  Rb3  1  0.058861  0.392123  0.920027  1
  Rb  Rb4  1  0.058861  0.607877  0.920027  1
  N  N5  1  0.750312  0.500000  0.330197  1
  O  O6  1  0.086745  0.500000  0.398953  1
  O  O7  1  0.671114  0.500000  0.100908  1
  O  O8  1  0.199839  0.500000  0.654295  1
  O  O9  1  0.510209  0.711362  0.907234  1
  O  O10  1  0.510209  0.288638  0.907234  1
