# generated using pymatgen
data_ReHgO4
_symmetry_space_group_name_H-M   'P 1'
_cell_length_a   5.82510400
_cell_length_b   5.20278675
_cell_length_c   15.60330670
_cell_angle_alpha   90.00000000
_cell_angle_beta   110.30311325
_cell_angle_gamma   90.00000000
_symmetry_Int_Tables_number   1
_chemical_formula_structural   ReHgO4
_chemical_formula_sum   'Re4 Hg4 O16'
_cell_volume   443.50552682
_cell_formula_units_Z   4
loop_
 _symmetry_equiv_pos_site_id
 _symmetry_equiv_pos_as_xyz
  1  'x, y, z'
loop_
 _atom_site_type_symbol
 _atom_site_label
 _atom_site_symmetry_multiplicity
 _atom_site_fract_x
 _atom_site_fract_y
 _atom_site_fract_z
 _atom_site_occupancy
  Re  Re0  1  0.858853  0.142189  0.844047  1
  Re  Re1  1  0.141147  0.857811  0.155953  1
  Re  Re2  1  0.141147  0.642189  0.655953  1
  Re  Re3  1  0.858853  0.357811  0.344047  1
  Hg  Hg4  1  0.394995  0.827335  0.437954  1
  Hg  Hg5  1  0.394995  0.672665  0.937954  1
  Hg  Hg6  1  0.605005  0.327335  0.062046  1
  Hg  Hg7  1  0.605005  0.172665  0.562046  1
  O  O8  1  0.158835  0.016502  0.869106  1
  O  O9  1  0.841165  0.983498  0.130894  1
  O  O10  1  0.318521  0.573620  0.769741  1
  O  O11  1  0.841165  0.516502  0.630894  1
  O  O12  1  0.718032  0.013274  0.917083  1
  O  O13  1  0.888914  0.026053  0.361475  1
  O  O14  1  0.718032  0.486726  0.417083  1
  O  O15  1  0.681479  0.073620  0.730259  1
  O  O16  1  0.158835  0.483498  0.369106  1
  O  O17  1  0.888914  0.473947  0.861475  1
  O  O18  1  0.111086  0.973947  0.638525  1
  O  O19  1  0.681479  0.426380  0.230259  1
  O  O20  1  0.111086  0.526053  0.138525  1
  O  O21  1  0.318521  0.926380  0.269741  1
  O  O22  1  0.281968  0.513274  0.582917  1
  O  O23  1  0.281968  0.986726  0.082917  1
