# generated using pymatgen
data_Ho14(PbS8)3
_symmetry_space_group_name_H-M   'P 1'
_cell_length_a   7.27140000
_cell_length_b   7.27140000
_cell_length_c   18.84547831
_cell_angle_alpha   75.02468777
_cell_angle_beta   104.97531223
_cell_angle_gamma   109.90716717
_symmetry_Int_Tables_number   1
_chemical_formula_structural   Ho14(PbS8)3
_chemical_formula_sum   'Ho14 Pb3 S24'
_cell_volume   888.98978734
_cell_formula_units_Z   1
loop_
 _symmetry_equiv_pos_site_id
 _symmetry_equiv_pos_as_xyz
  1  'x, y, z'
loop_
 _atom_site_type_symbol
 _atom_site_label
 _atom_site_symmetry_multiplicity
 _atom_site_fract_x
 _atom_site_fract_y
 _atom_site_fract_z
 _atom_site_occupancy
  Ho  Ho0  1  0.788991  0.712568  0.198054  1
  Ho  Ho1  1  0.818477  0.177174  0.039431  1
  Ho  Ho2  1  0.129743  0.386165  0.878890  1
  Ho  Ho3  1  0.386165  0.129743  0.121110  1
  Ho  Ho4  1  0.162329  0.836263  0.712917  1
  Ho  Ho5  1  0.457209  0.042852  0.537973  1
  Ho  Ho6  1  0.177174  0.818477  0.960569  1
  Ho  Ho7  1  0.707311  0.794218  0.805453  1
  Ho  Ho8  1  0.202396  0.546376  0.164023  1
  Ho  Ho9  1  0.495975  0.508712  0.372558  1
  Ho  Ho10  1  0.508712  0.495975  0.627442  1
  Ho  Ho11  1  0.042852  0.457209  0.462027  1
  Ho  Ho12  1  0.546376  0.202396  0.835977  1
  Ho  Ho13  1  0.836263  0.162329  0.287083  1
  Pb  Pb14  1  0.961142  0.291457  0.669616  1
  Pb  Pb15  1  0.291457  0.961142  0.330384  1
  Pb  Pb16  1  0.878177  0.878177  0.500000  1
  S  S17  1  0.039660  0.842240  0.085819  1
  S  S18  1  0.036839  0.100218  0.197656  1
  S  S19  1  0.414766  0.204572  0.963695  1
  S  S20  1  0.839420  0.520273  0.918628  1
  S  S21  1  0.765396  0.379491  0.136044  1
  S  S22  1  0.204572  0.414766  0.036305  1
  S  S23  1  0.746315  0.878079  0.636235  1
  S  S24  1  0.187441  0.199030  0.583365  1
  S  S25  1  0.379491  0.765396  0.863956  1
  S  S26  1  0.100218  0.036839  0.802344  1
  S  S27  1  0.842240  0.039660  0.914181  1
  S  S28  1  0.536367  0.091705  0.710362  1
  S  S29  1  0.878079  0.746315  0.363765  1
  S  S30  1  0.520273  0.839420  0.081372  1
  S  S31  1  0.091705  0.536367  0.289638  1
  S  S32  1  0.505929  0.862071  0.246420  1
  S  S33  1  0.700313  0.422160  0.534419  1
  S  S34  1  0.422160  0.700313  0.465581  1
  S  S35  1  0.375653  0.504742  0.756972  1
  S  S36  1  0.186189  0.696904  0.589472  1
  S  S37  1  0.862071  0.505929  0.753580  1
  S  S38  1  0.696904  0.186189  0.410528  1
  S  S39  1  0.504742  0.375653  0.243028  1
  S  S40  1  0.199030  0.187441  0.416635  1
