# generated using pymatgen
data_Sr3LiIrO6
_symmetry_space_group_name_H-M   'P 1'
_cell_length_a   6.75298521
_cell_length_b   6.75298521
_cell_length_c   6.75298521
_cell_angle_alpha   92.19135697
_cell_angle_beta   92.19135697
_cell_angle_gamma   92.19135697
_symmetry_Int_Tables_number   1
_chemical_formula_structural   Sr3LiIrO6
_chemical_formula_sum   'Sr6 Li2 Ir2 O12'
_cell_volume   307.26171951
_cell_formula_units_Z   2
loop_
 _symmetry_equiv_pos_site_id
 _symmetry_equiv_pos_as_xyz
  1  'x, y, z'
loop_
 _atom_site_type_symbol
 _atom_site_label
 _atom_site_symmetry_multiplicity
 _atom_site_fract_x
 _atom_site_fract_y
 _atom_site_fract_z
 _atom_site_occupancy
  Sr  Sr0  1  0.250000  0.891754  0.608246  1
  Sr  Sr1  1  0.891754  0.608246  0.250000  1
  Sr  Sr2  1  0.391754  0.750000  0.108246  1
  Sr  Sr3  1  0.108246  0.391754  0.750000  1
  Sr  Sr4  1  0.750000  0.108246  0.391754  1
  Sr  Sr5  1  0.608246  0.250000  0.891754  1
  Li  Li6  1  0.250000  0.250000  0.250000  1
  Li  Li7  1  0.750000  0.750000  0.750000  1
  Ir  Ir8  1  0.000000  0.000000  0.000000  1
  Ir  Ir9  1  0.500000  0.500000  0.500000  1
  O  O10  1  0.584424  0.781349  0.452798  1
  O  O11  1  0.718651  0.915576  0.047202  1
  O  O12  1  0.047202  0.718651  0.915576  1
  O  O13  1  0.915576  0.047202  0.718651  1
  O  O14  1  0.452798  0.584424  0.781349  1
  O  O15  1  0.781349  0.452798  0.584424  1
  O  O16  1  0.547202  0.415576  0.218651  1
  O  O17  1  0.218651  0.547202  0.415576  1
  O  O18  1  0.084424  0.952798  0.281349  1
  O  O19  1  0.952798  0.281349  0.084424  1
  O  O20  1  0.281349  0.084424  0.952798  1
  O  O21  1  0.415576  0.218651  0.547202  1
