# generated using pymatgen
data_In9Ni13
_symmetry_space_group_name_H-M   'P 1'
_cell_length_a   6.75182195
_cell_length_b   6.75182195
_cell_length_c   9.08199057
_cell_angle_alpha   63.23150968
_cell_angle_beta   116.76849032
_cell_angle_gamma   102.43776684
_symmetry_Int_Tables_number   1
_chemical_formula_structural   In9Ni13
_chemical_formula_sum   'In9 Ni13'
_cell_volume   329.99733786
_cell_formula_units_Z   1
loop_
 _symmetry_equiv_pos_site_id
 _symmetry_equiv_pos_as_xyz
  1  'x, y, z'
loop_
 _atom_site_type_symbol
 _atom_site_label
 _atom_site_symmetry_multiplicity
 _atom_site_fract_x
 _atom_site_fract_y
 _atom_site_fract_z
 _atom_site_occupancy
  In  In0  1  0.252026  0.168978  0.809891  1
  In  In1  1  0.172193  0.827807  0.614281  1
  In  In2  1  0.285180  0.714820  0.332250  1
  In  In3  1  0.831022  0.747974  0.809891  1
  In  In4  1  0.714820  0.285180  0.667750  1
  In  In5  1  0.500000  0.500000  0.000000  1
  In  In6  1  0.747974  0.831022  0.190109  1
  In  In7  1  0.168978  0.252026  0.190109  1
  In  In8  1  0.827807  0.172193  0.385719  1
  Ni  Ni9  1  0.546034  0.935057  0.840818  1
  Ni  Ni10  1  0.500000  0.000000  0.500000  1
  Ni  Ni11  1  0.544696  0.455304  0.322904  1
  Ni  Ni12  1  0.064943  0.453966  0.840818  1
  Ni  Ni13  1  0.455304  0.544696  0.677096  1
  Ni  Ni14  1  0.266414  0.266414  0.500000  1
  Ni  Ni15  1  0.258637  0.741363  0.020479  1
  Ni  Ni16  1  0.935057  0.546034  0.159182  1
  Ni  Ni17  1  0.741363  0.258637  0.979521  1
  Ni  Ni18  1  0.453966  0.064943  0.159182  1
  Ni  Ni19  1  0.733586  0.733586  0.500000  1
  Ni  Ni20  1  0.000000  0.000000  0.000000  1
  Ni  Ni21  1  0.000000  0.500000  0.500000  1
