# generated using pymatgen
data_SrNb4O6
_symmetry_space_group_name_H-M   'P 1'
_cell_length_a   4.21586875
_cell_length_b   4.21586875
_cell_length_c   16.41247406
_cell_angle_alpha   90.00000000
_cell_angle_beta   90.00000000
_cell_angle_gamma   90.00000000
_symmetry_Int_Tables_number   1
_chemical_formula_structural   SrNb4O6
_chemical_formula_sum   'Sr2 Nb8 O12'
_cell_volume   291.70791714
_cell_formula_units_Z   2
loop_
 _symmetry_equiv_pos_site_id
 _symmetry_equiv_pos_as_xyz
  1  'x, y, z'
loop_
 _atom_site_type_symbol
 _atom_site_label
 _atom_site_symmetry_multiplicity
 _atom_site_fract_x
 _atom_site_fract_y
 _atom_site_fract_z
 _atom_site_occupancy
  Sr  Sr0  1  0.500000  0.500000  0.875498  1
  Sr  Sr1  1  0.500000  0.500000  0.124502  1
  Nb  Nb2  1  0.000000  0.500000  0.368502  1
  Nb  Nb3  1  0.500000  0.000000  0.631498  1
  Nb  Nb4  1  0.000000  0.000000  0.000000  1
  Nb  Nb5  1  0.000000  0.000000  0.247712  1
  Nb  Nb6  1  0.000000  0.000000  0.752288  1
  Nb  Nb7  1  0.500000  0.000000  0.368502  1
  Nb  Nb8  1  0.000000  0.500000  0.631498  1
  Nb  Nb9  1  0.000000  0.000000  0.500000  1
  O  O10  1  0.000000  0.500000  0.762020  1
  O  O11  1  0.000000  0.000000  0.119723  1
  O  O12  1  0.500000  0.000000  0.762020  1
  O  O13  1  0.000000  0.000000  0.880277  1
  O  O14  1  0.500000  0.500000  0.629934  1
  O  O15  1  0.000000  0.500000  0.237980  1
  O  O16  1  0.500000  0.500000  0.370066  1
  O  O17  1  0.000000  0.500000  0.500000  1
  O  O18  1  0.500000  0.000000  0.237980  1
  O  O19  1  0.500000  0.000000  0.000000  1
  O  O20  1  0.500000  0.000000  0.500000  1
  O  O21  1  0.000000  0.500000  0.000000  1
