# generated using pymatgen
data_Pr5In11Ni6
_symmetry_space_group_name_H-M   'P 1'
_cell_length_a   10.23142510
_cell_length_b   10.23142510
_cell_length_c   4.36253713
_cell_angle_alpha   90.00000000
_cell_angle_beta   90.00000000
_cell_angle_gamma   90.28348261
_symmetry_Int_Tables_number   1
_chemical_formula_structural   Pr5In11Ni6
_chemical_formula_sum   'Pr5 In11 Ni6'
_cell_volume   456.67378186
_cell_formula_units_Z   1
loop_
 _symmetry_equiv_pos_site_id
 _symmetry_equiv_pos_as_xyz
  1  'x, y, z'
loop_
 _atom_site_type_symbol
 _atom_site_label
 _atom_site_symmetry_multiplicity
 _atom_site_fract_x
 _atom_site_fract_y
 _atom_site_fract_z
 _atom_site_occupancy
  Pr  Pr0  1  0.037460  0.688989  0.000000  1
  Pr  Pr1  1  0.311011  0.962540  0.000000  1
  Pr  Pr2  1  0.688989  0.037460  0.000000  1
  Pr  Pr3  1  0.962540  0.311011  1.000000  1
  Pr  Pr4  1  0.500000  0.500000  0.500000  1
  In  In5  1  0.303510  0.303510  0.000000  1
  In  In6  1  0.696490  0.696490  0.000000  1
  In  In7  1  0.725894  0.274106  0.500000  1
  In  In8  1  0.847446  0.537305  0.500000  1
  In  In9  1  0.159950  0.159950  0.500000  1
  In  In10  1  0.840050  0.840050  0.500000  1
  In  In11  1  0.152554  0.462695  0.500000  1
  In  In12  1  0.274106  0.725894  0.500000  1
  In  In13  1  0.537305  0.847446  0.500000  1
  In  In14  1  0.000000  0.000000  0.000000  1
  In  In15  1  0.462695  0.152554  0.500000  1
  Ni  Ni16  1  0.906120  0.093880  0.500000  1
  Ni  Ni17  1  0.556289  0.280673  0.000000  1
  Ni  Ni18  1  0.443711  0.719327  0.000000  1
  Ni  Ni19  1  0.093880  0.906120  0.500000  1
  Ni  Ni20  1  0.719327  0.443711  1.000000  1
  Ni  Ni21  1  0.280673  0.556289  0.000000  1
