# generated using pymatgen
data_LaCu6
_symmetry_space_group_name_H-M   'P 1'
_cell_length_a   5.15500652
_cell_length_b   8.12047275
_cell_length_c   10.22604408
_cell_angle_alpha   90.00000000
_cell_angle_beta   90.00000000
_cell_angle_gamma   90.00000000
_symmetry_Int_Tables_number   1
_chemical_formula_structural   LaCu6
_chemical_formula_sum   'La4 Cu24'
_cell_volume   428.07335129
_cell_formula_units_Z   4
loop_
 _symmetry_equiv_pos_site_id
 _symmetry_equiv_pos_as_xyz
  1  'x, y, z'
loop_
 _atom_site_type_symbol
 _atom_site_label
 _atom_site_symmetry_multiplicity
 _atom_site_fract_x
 _atom_site_fract_y
 _atom_site_fract_z
 _atom_site_occupancy
  La  La0  1  0.750000  0.737873  0.435142  1
  La  La1  1  0.750000  0.237873  0.064858  1
  La  La2  1  0.250000  0.262127  0.564858  1
  La  La3  1  0.250000  0.762127  0.935142  1
  Cu  Cu4  1  0.750000  0.852929  0.141182  1
  Cu  Cu5  1  0.494814  0.435508  0.809690  1
  Cu  Cu6  1  0.750000  0.099308  0.515844  1
  Cu  Cu7  1  0.250000  0.317839  0.253351  1
  Cu  Cu8  1  0.250000  0.900692  0.484156  1
  Cu  Cu9  1  0.750000  0.439415  0.598391  1
  Cu  Cu10  1  0.505186  0.564492  0.190310  1
  Cu  Cu11  1  0.250000  0.060585  0.098391  1
  Cu  Cu12  1  0.750000  0.599308  0.984156  1
  Cu  Cu13  1  0.250000  0.147071  0.858818  1
  Cu  Cu14  1  0.494814  0.935508  0.690310  1
  Cu  Cu15  1  0.505186  0.064492  0.309690  1
  Cu  Cu16  1  0.750000  0.939415  0.901609  1
  Cu  Cu17  1  0.250000  0.560585  0.401609  1
  Cu  Cu18  1  0.994814  0.564492  0.190310  1
  Cu  Cu19  1  0.750000  0.352929  0.358818  1
  Cu  Cu20  1  0.005186  0.935508  0.690310  1
  Cu  Cu21  1  0.750000  0.182161  0.753351  1
  Cu  Cu22  1  0.250000  0.817839  0.246649  1
  Cu  Cu23  1  0.250000  0.647071  0.641182  1
  Cu  Cu24  1  0.750000  0.682161  0.746649  1
  Cu  Cu25  1  0.994814  0.064492  0.309690  1
  Cu  Cu26  1  0.005186  0.435508  0.809690  1
  Cu  Cu27  1  0.250000  0.400692  0.015844  1
