# generated using pymatgen
data_Na4V2O7
_symmetry_space_group_name_H-M   'P 1'
_cell_length_a   8.32400707
_cell_length_b   8.32400707
_cell_length_c   32.97887191
_cell_angle_alpha   85.26819478
_cell_angle_beta   94.73180522
_cell_angle_gamma   138.92010487
_symmetry_Int_Tables_number   1
_chemical_formula_structural   Na4V2O7
_chemical_formula_sum   'Na32 V16 O56'
_cell_volume   1495.71067822
_cell_formula_units_Z   8
loop_
 _symmetry_equiv_pos_site_id
 _symmetry_equiv_pos_as_xyz
  1  'x, y, z'
loop_
 _atom_site_type_symbol
 _atom_site_label
 _atom_site_symmetry_multiplicity
 _atom_site_fract_x
 _atom_site_fract_y
 _atom_site_fract_z
 _atom_site_occupancy
  Na  Na0  1  0.812860  0.812860  0.750000  1
  Na  Na1  1  0.435586  0.912902  0.896146  1
  Na  Na2  1  0.564414  0.087098  0.103854  1
  Na  Na3  1  0.961327  0.678388  0.022911  1
  Na  Na4  1  0.794757  0.809248  0.650121  1
  Na  Na5  1  0.038673  0.321612  0.977089  1
  Na  Na6  1  0.420438  0.036092  0.311276  1
  Na  Na7  1  0.326987  0.120887  0.627979  1
  Na  Na8  1  0.036092  0.420438  0.188724  1
  Na  Na9  1  0.087098  0.564414  0.396146  1
  Na  Na10  1  0.678388  0.961327  0.477089  1
  Na  Na11  1  0.321612  0.038673  0.522911  1
  Na  Na12  1  0.161189  0.297225  0.560686  1
  Na  Na13  1  0.297225  0.161189  0.939314  1
  Na  Na14  1  0.120887  0.326987  0.872021  1
  Na  Na15  1  0.673013  0.879113  0.372021  1
  Na  Na16  1  0.833933  0.594343  0.231028  1
  Na  Na17  1  0.702775  0.838811  0.060686  1
  Na  Na18  1  0.809248  0.794757  0.849879  1
  Na  Na19  1  0.000000  0.500000  0.500000  1
  Na  Na20  1  0.500000  0.000000  0.000000  1
  Na  Na21  1  0.166067  0.405657  0.768972  1
  Na  Na22  1  0.963908  0.579562  0.811276  1
  Na  Na23  1  0.205243  0.190752  0.349879  1
  Na  Na24  1  0.594343  0.833933  0.268972  1
  Na  Na25  1  0.190752  0.205243  0.150121  1
  Na  Na26  1  0.912902  0.435586  0.603854  1
  Na  Na27  1  0.579562  0.963908  0.688724  1
  Na  Na28  1  0.405657  0.166067  0.731028  1
  Na  Na29  1  0.838811  0.702775  0.439314  1
  Na  Na30  1  0.879113  0.673013  0.127979  1
  Na  Na31  1  0.187140  0.187140  0.250000  1
  V  V32  1  0.755224  0.653409  0.553950  1
  V  V33  1  0.203924  0.390660  0.676645  1
  V  V34  1  0.051939  0.443140  0.304232  1
  V  V35  1  0.609340  0.796076  0.176645  1
  V  V36  1  0.554919  0.896602  0.570603  1
  V  V37  1  0.390660  0.203924  0.823355  1
  V  V38  1  0.346591  0.244776  0.053950  1
  V  V39  1  0.796076  0.609340  0.323355  1
  V  V40  1  0.556860  0.948061  0.804232  1
  V  V41  1  0.948061  0.556860  0.695768  1
  V  V42  1  0.445081  0.103398  0.429397  1
  V  V43  1  0.896602  0.554919  0.929397  1
  V  V44  1  0.244776  0.346591  0.446050  1
  V  V45  1  0.103398  0.445081  0.070603  1
  V  V46  1  0.653409  0.755224  0.946050  1
  V  V47  1  0.443140  0.051939  0.195768  1
  O  O48  1  0.752516  0.333388  0.437426  1
  O  O49  1  0.821248  0.689399  0.950775  1
  O  O50  1  0.962691  0.779119  0.593730  1
  O  O51  1  0.838917  0.070362  0.809709  1
  O  O52  1  0.518513  0.429880  0.297978  1
  O  O53  1  0.070362  0.838917  0.690291  1
  O  O54  1  0.161083  0.929638  0.190291  1
  O  O55  1  0.095488  0.533792  0.254461  1
  O  O56  1  0.669408  0.333729  0.670257  1
  O  O57  1  0.848935  0.428332  0.329484  1
  O  O58  1  0.333729  0.669408  0.829743  1
  O  O59  1  0.855697  0.014587  0.208313  1
  O  O60  1  0.037309  0.220881  0.406270  1
  O  O61  1  0.295039  0.197390  0.868284  1
  O  O62  1  0.247484  0.666612  0.562574  1
  O  O63  1  0.178752  0.310601  0.049225  1
  O  O64  1  0.904512  0.466208  0.745539  1
  O  O65  1  0.779119  0.962691  0.906270  1
  O  O66  1  0.698611  0.887750  0.989456  1
  O  O67  1  0.333388  0.752516  0.062574  1
  O  O68  1  0.666612  0.247484  0.937426  1
  O  O69  1  0.466208  0.904512  0.754461  1
  O  O70  1  0.929638  0.161083  0.309709  1
  O  O71  1  0.971625  0.641440  0.879547  1
  O  O72  1  0.310601  0.178752  0.450775  1
  O  O73  1  0.533792  0.095488  0.245539  1
  O  O74  1  0.197390  0.295039  0.631716  1
  O  O75  1  0.985413  0.144303  0.708313  1
  O  O76  1  0.028375  0.358560  0.120453  1
  O  O77  1  0.666271  0.330592  0.170257  1
  O  O78  1  0.570120  0.481487  0.797978  1
  O  O79  1  0.704961  0.802610  0.131716  1
  O  O80  1  0.330592  0.666271  0.329743  1
  O  O81  1  0.429880  0.518513  0.202022  1
  O  O82  1  0.571668  0.151065  0.829484  1
  O  O83  1  0.641440  0.971625  0.620453  1
  O  O84  1  0.301389  0.112250  0.010544  1
  O  O85  1  0.314081  0.842467  0.457606  1
  O  O86  1  0.481487  0.570120  0.702022  1
  O  O87  1  0.689399  0.821248  0.549225  1
  O  O88  1  0.887750  0.698611  0.510544  1
  O  O89  1  0.014587  0.855697  0.291687  1
  O  O90  1  0.513785  0.652084  0.436520  1
  O  O91  1  0.486215  0.347916  0.563480  1
  O  O92  1  0.842467  0.314081  0.042394  1
  O  O93  1  0.144303  0.985413  0.791687  1
  O  O94  1  0.685919  0.157533  0.542394  1
  O  O95  1  0.358560  0.028375  0.379547  1
  O  O96  1  0.428332  0.848935  0.170516  1
  O  O97  1  0.112250  0.301389  0.489456  1
  O  O98  1  0.157533  0.685919  0.957606  1
  O  O99  1  0.151065  0.571668  0.670516  1
  O  O100  1  0.220881  0.037309  0.093730  1
  O  O101  1  0.802610  0.704961  0.368284  1
  O  O102  1  0.347916  0.486215  0.936520  1
  O  O103  1  0.652084  0.513785  0.063480  1
