# generated using pymatgen
data_TeHO3
_symmetry_space_group_name_H-M   'P 1'
_cell_length_a   4.91138620
_cell_length_b   8.27137799
_cell_length_c   12.06611102
_cell_angle_alpha   90.00000000
_cell_angle_beta   92.32612528
_cell_angle_gamma   90.00000000
_symmetry_Int_Tables_number   1
_chemical_formula_structural   TeHO3
_chemical_formula_sum   'Te8 H8 O24'
_cell_volume   489.76896406
_cell_formula_units_Z   8
loop_
 _symmetry_equiv_pos_site_id
 _symmetry_equiv_pos_as_xyz
  1  'x, y, z'
loop_
 _atom_site_type_symbol
 _atom_site_label
 _atom_site_symmetry_multiplicity
 _atom_site_fract_x
 _atom_site_fract_y
 _atom_site_fract_z
 _atom_site_occupancy
  Te  Te0  1  0.986843  0.699323  0.614491  1
  Te  Te1  1  0.485408  0.781362  0.393429  1
  Te  Te2  1  0.485408  0.218638  0.893429  1
  Te  Te3  1  0.986843  0.300677  0.114491  1
  Te  Te4  1  0.877288  0.597538  0.917747  1
  Te  Te5  1  0.317203  0.912264  0.071381  1
  Te  Te6  1  0.317203  0.087736  0.571381  1
  Te  Te7  1  0.877288  0.402462  0.417747  1
  H  H8  1  0.212978  0.642110  0.243427  1
  H  H9  1  0.212978  0.357890  0.743427  1
  H  H10  1  0.510110  0.769268  0.857081  1
  H  H11  1  0.510110  0.230732  0.357081  1
  H  H12  1  0.441004  0.607725  0.701592  1
  H  H13  1  0.882049  0.883269  0.298585  1
  H  H14  1  0.882049  0.116731  0.798585  1
  H  H15  1  0.441004  0.392275  0.201592  1
  O  O16  1  0.755245  0.703260  0.735249  1
  O  O17  1  0.218619  0.758286  0.266678  1
  O  O18  1  0.218619  0.241714  0.766678  1
  O  O19  1  0.755245  0.296740  0.235249  1
  O  O20  1  0.522700  0.708169  0.927280  1
  O  O21  1  0.996007  0.801166  0.033143  1
  O  O22  1  0.996007  0.198834  0.533143  1
  O  O23  1  0.522700  0.291831  0.427280  1
  O  O24  1  0.674312  0.592659  0.345098  1
  O  O25  1  0.172054  0.903194  0.655262  1
  O  O26  1  0.172054  0.096806  0.155262  1
  O  O27  1  0.674312  0.407341  0.845098  1
  O  O28  1  0.232574  0.654215  0.485222  1
  O  O29  1  0.731026  0.835240  0.521647  1
  O  O30  1  0.731026  0.164760  0.021647  1
  O  O31  1  0.232574  0.345785  0.985222  1
  O  O32  1  0.801645  0.502706  0.562016  1
  O  O33  1  0.280524  0.975171  0.428143  1
  O  O34  1  0.280524  0.024829  0.928143  1
  O  O35  1  0.801645  0.497294  0.062016  1
  O  O36  1  0.246404  0.570292  0.705238  1
  O  O37  1  0.690178  0.920033  0.297811  1
  O  O38  1  0.690178  0.079967  0.797811  1
  O  O39  1  0.246404  0.429708  0.205238  1
