# generated using pymatgen
data_KPH2SO3
_symmetry_space_group_name_H-M   'P 1'
_cell_length_a   4.58214725
_cell_length_b   4.58214725
_cell_length_c   6.01697066
_cell_angle_alpha   76.94930134
_cell_angle_beta   103.05069866
_cell_angle_gamma   91.85072642
_symmetry_Int_Tables_number   1
_chemical_formula_structural   KPH2SO3
_chemical_formula_sum   'K1 P1 H2 S1 O3'
_cell_volume   119.86758386
_cell_formula_units_Z   1
loop_
 _symmetry_equiv_pos_site_id
 _symmetry_equiv_pos_as_xyz
  1  'x, y, z'
loop_
 _atom_site_type_symbol
 _atom_site_label
 _atom_site_symmetry_multiplicity
 _atom_site_fract_x
 _atom_site_fract_y
 _atom_site_fract_z
 _atom_site_occupancy
  K  K0  1  0.847257  0.152743  0.611907  1
  P  P1  1  0.344861  0.655139  0.111208  1
  H  H2  1  0.829688  0.793020  0.188920  1
  H  H3  1  0.206980  0.170312  0.188920  1
  S  S4  1  0.384806  0.615194  0.797994  1
  O  O5  1  0.107084  0.892916  0.103960  1
  O  O6  1  0.651173  0.737679  0.269541  1
  O  O7  1  0.262321  0.348827  0.269541  1
