# generated using pymatgen
data_Na5Mg5In3(SO4)12
_symmetry_space_group_name_H-M   'P 1'
_cell_length_a   8.76683072
_cell_length_b   9.03521160
_cell_length_c   29.21228832
_cell_angle_alpha   88.97216458
_cell_angle_beta   98.60199434
_cell_angle_gamma   118.99316704
_symmetry_Int_Tables_number   1
_chemical_formula_structural   Na5Mg5In3(SO4)12
_chemical_formula_sum   'Na10 Mg10 In6 S24 O96'
_cell_volume   1997.17246798
_cell_formula_units_Z   2
loop_
 _symmetry_equiv_pos_site_id
 _symmetry_equiv_pos_as_xyz
  1  'x, y, z'
loop_
 _atom_site_type_symbol
 _atom_site_label
 _atom_site_symmetry_multiplicity
 _atom_site_fract_x
 _atom_site_fract_y
 _atom_site_fract_z
 _atom_site_occupancy
  Na  Na0  1  0.000351  0.999414  0.000473  1
  Na  Na1  1  0.500286  0.750017  0.250282  1
  Na  Na2  1  0.750183  0.374995  0.125437  1
  Na  Na3  1  0.001712  0.500308  0.500710  1
  Na  Na4  1  0.250206  0.124872  0.375463  1
  Na  Na5  1  0.503541  0.257707  0.747931  1
  Na  Na6  1  0.738922  0.872898  0.619840  1
  Na  Na7  1  0.014824  0.967149  0.721533  1
  Na  Na8  1  0.235524  0.614213  0.877984  1
  Na  Na9  1  0.499200  0.877511  0.807761  1
  Mg  Mg10  1  0.529077  0.969579  0.088412  1
  Mg  Mg11  1  0.029092  0.720001  0.338352  1
  Mg  Mg12  1  0.970866  0.780029  0.161970  1
  Mg  Mg13  1  0.528991  0.470260  0.589588  1
  Mg  Mg14  1  0.470613  0.529775  0.411988  1
  Mg  Mg15  1  0.722727  0.649671  0.787881  1
  Mg  Mg16  1  0.031976  0.222017  0.837649  1
  Mg  Mg17  1  0.973076  0.288245  0.661887  1
  Mg  Mg18  1  0.275113  0.832945  0.709786  1
  Mg  Mg19  1  0.471824  0.030904  0.912377  1
  In  In20  1  0.223218  0.408952  0.037381  1
  In  In21  1  0.723171  0.158931  0.287412  1
  In  In22  1  0.223010  0.908812  0.537688  1
  In  In23  1  0.277077  0.341113  0.212982  1
  In  In24  1  0.777199  0.091225  0.462981  1
  In  In25  1  0.777156  0.589192  0.962875  1
  S  S26  1  0.270755  0.128596  0.112540  1
  S  S27  1  0.822502  0.054864  0.186310  1
  S  S28  1  0.768523  0.228730  0.011701  1
  S  S29  1  0.731909  0.520218  0.238541  1
  S  S30  1  0.677726  0.695168  0.063591  1
  S  S31  1  0.770632  0.878483  0.362500  1
  S  S32  1  0.228987  0.621340  0.137588  1
  S  S33  1  0.322588  0.804945  0.436327  1
  S  S34  1  0.268189  0.979291  0.261454  1
  S  S35  1  0.232350  0.270114  0.488809  1
  S  S36  1  0.177606  0.445460  0.313698  1
  S  S37  1  0.271672  0.630765  0.612990  1
  S  S38  1  0.729087  0.371449  0.387632  1
  S  S39  1  0.826893  0.561162  0.687719  1
  S  S40  1  0.767830  0.728915  0.511395  1
  S  S41  1  0.727875  0.016308  0.739317  1
  S  S42  1  0.677822  0.196119  0.563894  1
  S  S43  1  0.768816  0.376979  0.861662  1
  S  S44  1  0.227519  0.117727  0.639008  1
  S  S45  1  0.322665  0.304982  0.936485  1
  S  S46  1  0.274012  0.486278  0.761612  1
  S  S47  1  0.232454  0.770554  0.988593  1
  S  S48  1  0.173729  0.939697  0.813212  1
  S  S49  1  0.734457  0.869735  0.886568  1
  O  O50  1  0.181405  0.490028  0.099759  1
  O  O51  1  0.200165  0.594112  0.995494  1
  O  O52  1  0.503363  0.537561  0.052068  1
  O  O53  1  0.367214  0.788458  0.128218  1
  O  O54  1  0.349072  0.888995  0.027725  1
  O  O55  1  0.199492  0.178933  0.068416  1
  O  O56  1  0.659522  0.843550  0.073052  1
  O  O57  1  0.436130  0.131118  0.106783  1
  O  O58  1  0.729134  0.019989  0.227754  1
  O  O59  1  0.721033  0.090830  0.147095  1
  O  O60  1  0.681546  0.240025  0.349833  1
  O  O61  1  0.699607  0.180472  0.055758  1
  O  O62  1  0.699722  0.343900  0.245607  1
  O  O63  1  0.557478  0.518293  0.234265  1
  O  O64  1  0.003405  0.287772  0.301995  1
  O  O65  1  0.867273  0.538547  0.378240  1
  O  O66  1  0.942976  0.230973  0.015900  1
  O  O67  1  0.800549  0.567586  0.194382  1
  O  O68  1  0.848617  0.638931  0.277651  1
  O  O69  1  0.779282  0.659441  0.102820  1
  O  O70  1  0.699372  0.928771  0.318333  1
  O  O71  1  0.771321  0.730043  0.022103  1
  O  O72  1  0.159127  0.593547  0.323285  1
  O  O73  1  0.936041  0.881086  0.356739  1
  O  O74  1  0.063818  0.619098  0.143352  1
  O  O75  1  0.840363  0.906339  0.176670  1
  O  O76  1  0.229335  0.770266  0.477743  1
  O  O77  1  0.300299  0.570859  0.181604  1
  O  O78  1  0.221361  0.841136  0.397071  1
  O  O79  1  0.177652  0.991840  0.599521  1
  O  O80  1  0.151686  0.860753  0.222277  1
  O  O81  1  0.199322  0.931664  0.305544  1
  O  O82  1  0.200057  0.093645  0.495796  1
  O  O83  1  0.057695  0.267965  0.484450  1
  O  O84  1  0.132658  0.961273  0.121796  1
  O  O85  1  0.996979  0.212349  0.197702  1
  O  O86  1  0.503894  0.037919  0.552188  1
  O  O87  1  0.366838  0.286411  0.630677  1
  O  O88  1  0.442711  0.981496  0.265684  1
  O  O89  1  0.300224  0.155604  0.254394  1
  O  O90  1  0.300820  0.317254  0.444595  1
  O  O91  1  0.349059  0.388454  0.528004  1
  O  O92  1  0.317480  0.259918  0.150223  1
  O  O93  1  0.279021  0.409502  0.352896  1
  O  O94  1  0.201744  0.681511  0.568325  1
  O  O95  1  0.271434  0.480898  0.272254  1
  O  O96  1  0.658588  0.343702  0.573507  1
  O  O97  1  0.438281  0.634262  0.607161  1
  O  O98  1  0.563853  0.369132  0.393355  1
  O  O99  1  0.340439  0.656416  0.426655  1
  O  O100  1  0.734265  0.530764  0.728465  1
  O  O101  1  0.800337  0.320968  0.431690  1
  O  O102  1  0.726138  0.595720  0.647414  1
  O  O103  1  0.692543  0.747933  0.847312  1
  O  O104  1  0.651242  0.610692  0.472204  1
  O  O105  1  0.698641  0.681042  0.555429  1
  O  O106  1  0.711643  0.848442  0.750382  1
  O  O107  1  0.550854  0.005549  0.733710  1
  O  O108  1  0.632571  0.711213  0.371772  1
  O  O109  1  0.497232  0.962414  0.447755  1
  O  O110  1  0.994421  0.793308  0.802096  1
  O  O111  1  0.872065  0.040804  0.879264  1
  O  O112  1  0.942319  0.731298  0.515606  1
  O  O113  1  0.799892  0.905508  0.504492  1
  O  O114  1  0.804223  0.063165  0.695556  1
  O  O115  1  0.842327  0.142636  0.777933  1
  O  O116  1  0.817411  0.009875  0.400172  1
  O  O117  1  0.779314  0.160475  0.603275  1
  O  O118  1  0.702440  0.431988  0.818896  1
  O  O119  1  0.771750  0.231174  0.522500  1
  O  O120  1  0.167541  0.096040  0.822869  1
  O  O121  1  0.935596  0.378836  0.857207  1
  O  O122  1  0.061307  0.116173  0.645677  1
  O  O123  1  0.844746  0.411536  0.678033  1
  O  O124  1  0.229087  0.269771  0.977916  1
  O  O125  1  0.289001  0.058466  0.682419  1
  O  O126  1  0.221708  0.341746  0.897348  1
  O  O127  1  0.155330  0.361771  0.722930  1
  O  O128  1  0.201449  0.439585  0.805759  1
  O  O129  1  0.058066  0.768617  0.984199  1
  O  O130  1  0.134060  0.459402  0.620291  1
  O  O131  1  0.004192  0.717218  0.698141  1
  O  O132  1  0.448339  0.492558  0.767151  1
  O  O133  1  0.297521  0.659060  0.752391  1
  O  O134  1  0.301888  0.818097  0.944472  1
  O  O135  1  0.311546  0.755530  0.650915  1
  O  O136  1  0.277303  0.901113  0.852194  1
  O  O137  1  0.266207  0.967546  0.771621  1
  O  O138  1  0.564894  0.867554  0.890393  1
  O  O139  1  0.340167  0.156293  0.926693  1
  O  O140  1  0.798518  0.817405  0.931115  1
  O  O141  1  0.652152  0.110400  0.972444  1
  O  O142  1  0.630344  0.206191  0.870386  1
  O  O143  1  0.497144  0.462043  0.948244  1
  O  O144  1  0.800315  0.405078  0.004955  1
  O  O145  1  0.814963  0.502258  0.901328  1
