# generated using pymatgen
data_MgIn2O4
_symmetry_space_group_name_H-M   'P 1'
_cell_length_a   6.36293154
_cell_length_b   6.36293154
_cell_length_c   26.20333988
_cell_angle_alpha   83.00446949
_cell_angle_beta   96.99553051
_cell_angle_gamma   119.29637532
_symmetry_Int_Tables_number   1
_chemical_formula_structural   MgIn2O4
_chemical_formula_sum   'Mg10 In20 O40'
_cell_volume   915.94299073
_cell_formula_units_Z   10
loop_
 _symmetry_equiv_pos_site_id
 _symmetry_equiv_pos_as_xyz
  1  'x, y, z'
loop_
 _atom_site_type_symbol
 _atom_site_label
 _atom_site_symmetry_multiplicity
 _atom_site_fract_x
 _atom_site_fract_y
 _atom_site_fract_z
 _atom_site_occupancy
  Mg  Mg0  1  0.998059  0.001941  0.000233  1
  Mg  Mg1  1  0.122193  0.877807  0.874393  1
  Mg  Mg2  1  0.724943  0.275057  0.674925  1
  Mg  Mg3  1  0.925005  0.074995  0.774613  1
  Mg  Mg4  1  0.324959  0.675041  0.474930  1
  Mg  Mg5  1  0.524988  0.475012  0.574910  1
  Mg  Mg6  1  0.924970  0.075030  0.274921  1
  Mg  Mg7  1  0.124960  0.875040  0.374889  1
  Mg  Mg8  1  0.525092  0.474908  0.075460  1
  Mg  Mg9  1  0.725009  0.274991  0.175035  1
  In  In10  1  0.653557  0.346443  0.950599  1
  In  In11  1  0.326103  0.673897  0.976997  1
  In  In12  1  0.122134  0.368762  0.874426  1
  In  In13  1  0.253032  0.746968  0.749268  1
  In  In14  1  0.631238  0.877866  0.874426  1
  In  In15  1  0.725107  0.775060  0.674883  1
  In  In16  1  0.797029  0.202971  0.400823  1
  In  In17  1  0.852838  0.147162  0.549001  1
  In  In18  1  0.224940  0.274893  0.674883  1
  In  In19  1  0.452808  0.547192  0.349008  1
  In  In20  1  0.596758  0.403242  0.800496  1
  In  In21  1  0.325013  0.175066  0.474905  1
  In  In22  1  0.824934  0.674987  0.474905  1
  In  In23  1  0.197084  0.802916  0.600778  1
  In  In24  1  0.925073  0.575123  0.274886  1
  In  In25  1  0.052714  0.947286  0.148686  1
  In  In26  1  0.424877  0.074927  0.274886  1
  In  In27  1  0.525234  0.975046  0.075518  1
  In  In28  1  0.024954  0.474766  0.075518  1
  In  In29  1  0.397185  0.602815  0.200965  1
  O  O30  1  0.997895  0.543627  0.921994  1
  O  O31  1  0.273886  0.726114  0.830936  1
  O  O32  1  0.456373  0.002105  0.921994  1
  O  O33  1  0.463870  0.536130  0.922904  1
  O  O34  1  0.787585  0.212415  0.824697  1
  O  O35  1  0.603148  0.944531  0.723683  1
  O  O36  1  0.976243  0.023757  0.920594  1
  O  O37  1  0.795184  0.752274  0.826008  1
  O  O38  1  0.872935  0.127065  0.630437  1
  O  O39  1  0.055469  0.396852  0.723683  1
  O  O40  1  0.061687  0.938313  0.724816  1
  O  O41  1  0.247726  0.204816  0.826008  1
  O  O42  1  0.388446  0.611554  0.625314  1
  O  O43  1  0.203061  0.344564  0.523666  1
  O  O44  1  0.577011  0.422989  0.719517  1
  O  O45  1  0.394615  0.152855  0.626468  1
  O  O46  1  0.472930  0.527070  0.430441  1
  O  O47  1  0.655436  0.796939  0.523666  1
  O  O48  1  0.661545  0.338455  0.524795  1
  O  O49  1  0.847145  0.605385  0.626468  1
  O  O50  1  0.988427  0.011573  0.425321  1
  O  O51  1  0.803068  0.744564  0.323653  1
  O  O52  1  0.177070  0.822930  0.519622  1
  O  O53  1  0.994613  0.552961  0.426472  1
  O  O54  1  0.072899  0.927101  0.230303  1
  O  O55  1  0.255436  0.196932  0.323653  1
  O  O56  1  0.261504  0.738496  0.324785  1
  O  O57  1  0.447039  0.005387  0.426472  1
  O  O58  1  0.588477  0.411523  0.225365  1
  O  O59  1  0.403862  0.145062  0.123817  1
  O  O60  1  0.777039  0.222961  0.319659  1
  O  O61  1  0.594634  0.952913  0.226484  1
  O  O62  1  0.672568  0.327432  0.030462  1
  O  O63  1  0.854938  0.596138  0.123817  1
  O  O64  1  0.861263  0.138737  0.124972  1
  O  O65  1  0.047087  0.405366  0.226484  1
  O  O66  1  0.181738  0.818262  0.026346  1
  O  O67  1  0.377267  0.622733  0.119917  1
  O  O68  1  0.187731  0.341636  0.027072  1
  O  O69  1  0.658364  0.812269  0.027072  1
