# generated using pymatgen
data_K2CdH4(SeO5)2
_symmetry_space_group_name_H-M   'P 1'
_cell_length_a   6.70858626
_cell_length_b   7.69968959
_cell_length_c   11.59073611
_cell_angle_alpha   72.15109683
_cell_angle_beta   74.46355996
_cell_angle_gamma   70.04296140
_symmetry_Int_Tables_number   1
_chemical_formula_structural   K2CdH4(SeO5)2
_chemical_formula_sum   'K4 Cd2 H8 Se4 O20'
_cell_volume   526.67797258
_cell_formula_units_Z   2
loop_
 _symmetry_equiv_pos_site_id
 _symmetry_equiv_pos_as_xyz
  1  'x, y, z'
loop_
 _atom_site_type_symbol
 _atom_site_label
 _atom_site_symmetry_multiplicity
 _atom_site_fract_x
 _atom_site_fract_y
 _atom_site_fract_z
 _atom_site_occupancy
  K  K0  1  0.797986  0.747795  0.401119  1
  K  K1  1  0.202014  0.252205  0.598881  1
  K  K2  1  0.729754  0.266713  0.078719  1
  K  K3  1  0.270246  0.733287  0.921281  1
  Cd  Cd4  1  0.751596  0.973582  0.748696  1
  Cd  Cd5  1  0.248404  0.026418  0.251304  1
  H  H6  1  0.698402  0.360875  0.657032  1
  H  H7  1  0.301598  0.639125  0.342968  1
  H  H8  1  0.663035  0.311396  0.801700  1
  H  H9  1  0.336965  0.688604  0.198300  1
  H  H10  1  0.647340  0.665700  0.707235  1
  H  H11  1  0.352660  0.334300  0.292765  1
  H  H12  1  0.831223  0.584660  0.791709  1
  H  H13  1  0.168777  0.415340  0.208291  1
  Se  Se14  1  0.737489  0.765284  0.084104  1
  Se  Se15  1  0.262511  0.234716  0.915896  1
  Se  Se16  1  0.738923  0.231252  0.424640  1
  Se  Se17  1  0.261077  0.768748  0.575360  1
  O  O18  1  0.955003  0.603094  0.131302  1
  O  O19  1  0.044997  0.396906  0.868698  1
  O  O20  1  0.560616  0.663356  0.074063  1
  O  O21  1  0.439384  0.336644  0.925937  1
  O  O22  1  0.819120  0.905129  0.947952  1
  O  O23  1  0.180880  0.094871  0.052048  1
  O  O24  1  0.621079  0.906631  0.184822  1
  O  O25  1  0.378921  0.093369  0.815178  1
  O  O26  1  0.878730  0.349217  0.453644  1
  O  O27  1  0.121270  0.650783  0.546356  1
  O  O28  1  0.505188  0.375042  0.383846  1
  O  O29  1  0.494812  0.624958  0.616154  1
  O  O30  1  0.680366  0.060770  0.549344  1
  O  O31  1  0.319634  0.939230  0.450656  1
  O  O32  1  0.877688  0.120715  0.309292  1
  O  O33  1  0.122312  0.879285  0.690708  1
  O  O34  1  0.770128  0.280029  0.727166  1
  O  O35  1  0.229872  0.719971  0.272834  1
  O  O36  1  0.695296  0.683614  0.776076  1
  O  O37  1  0.304704  0.316386  0.223924  1
