# generated using pymatgen
data_KV(IO4)2
_symmetry_space_group_name_H-M   'P 1'
_cell_length_a   9.79297229
_cell_length_b   5.30849207
_cell_length_c   16.48694027
_cell_angle_alpha   90.00000000
_cell_angle_beta   110.77721192
_cell_angle_gamma   90.00000000
_symmetry_Int_Tables_number   1
_chemical_formula_structural   KV(IO4)2
_chemical_formula_sum   'K4 V4 I8 O32'
_cell_volume   801.34950040
_cell_formula_units_Z   4
loop_
 _symmetry_equiv_pos_site_id
 _symmetry_equiv_pos_as_xyz
  1  'x, y, z'
loop_
 _atom_site_type_symbol
 _atom_site_label
 _atom_site_symmetry_multiplicity
 _atom_site_fract_x
 _atom_site_fract_y
 _atom_site_fract_z
 _atom_site_occupancy
  K  K0  1  0.086113  0.727221  0.409688  1
  K  K1  1  0.913887  0.272779  0.590312  1
  K  K2  1  0.913887  0.227221  0.090312  1
  K  K3  1  0.086113  0.772779  0.909688  1
  V  V4  1  0.699175  0.720095  0.185939  1
  V  V5  1  0.300825  0.279905  0.814061  1
  V  V6  1  0.300825  0.220095  0.314061  1
  V  V7  1  0.699175  0.779905  0.685939  1
  I  I8  1  0.561915  0.826053  0.928544  1
  I  I9  1  0.561915  0.673947  0.428544  1
  I  I10  1  0.225927  0.724978  0.179917  1
  I  I11  1  0.774073  0.275022  0.820083  1
  I  I12  1  0.438085  0.326053  0.571456  1
  I  I13  1  0.438085  0.173947  0.071456  1
  I  I14  1  0.225927  0.775022  0.679917  1
  I  I15  1  0.774073  0.224978  0.320083  1
  O  O16  1  0.925753  0.261236  0.921149  1
  O  O17  1  0.264487  0.180739  0.404611  1
  O  O18  1  0.843720  0.553036  0.776705  1
  O  O19  1  0.074247  0.761236  0.578851  1
  O  O20  1  0.697937  0.818898  0.876174  1
  O  O21  1  0.452126  0.442865  0.823356  1
  O  O22  1  0.160473  0.965058  0.241084  1
  O  O23  1  0.160473  0.534942  0.741084  1
  O  O24  1  0.603945  0.054175  0.164847  1
  O  O25  1  0.547874  0.942865  0.676644  1
  O  O26  1  0.396055  0.945825  0.835153  1
  O  O27  1  0.839527  0.034942  0.758916  1
  O  O28  1  0.264487  0.319261  0.904611  1
  O  O29  1  0.452126  0.057135  0.323356  1
  O  O30  1  0.383260  0.628321  0.515501  1
  O  O31  1  0.697937  0.681102  0.376174  1
  O  O32  1  0.616740  0.128321  0.984499  1
  O  O33  1  0.603945  0.445825  0.664847  1
  O  O34  1  0.839527  0.465058  0.258916  1
  O  O35  1  0.616740  0.371679  0.484499  1
  O  O36  1  0.074247  0.738764  0.078851  1
  O  O37  1  0.302063  0.181102  0.123826  1
  O  O38  1  0.396055  0.554175  0.335153  1
  O  O39  1  0.156280  0.446964  0.223295  1
  O  O40  1  0.735513  0.819261  0.595389  1
  O  O41  1  0.383260  0.871679  0.015501  1
  O  O42  1  0.302063  0.318898  0.623826  1
  O  O43  1  0.925753  0.238764  0.421149  1
  O  O44  1  0.843720  0.946964  0.276705  1
  O  O45  1  0.547874  0.557135  0.176644  1
  O  O46  1  0.156280  0.053036  0.723295  1
  O  O47  1  0.735513  0.680739  0.095389  1
