# generated using pymatgen
data_Te(HO)6
_symmetry_space_group_name_H-M   'P 1'
_cell_length_a   5.91528004
_cell_length_b   5.79077961
_cell_length_c   5.37207892
_cell_angle_alpha   63.86912402
_cell_angle_beta   61.50927482
_cell_angle_gamma   54.62160116
_symmetry_Int_Tables_number   1
_chemical_formula_structural   Te(HO)6
_chemical_formula_sum   'Te1 H6 O6'
_cell_volume   128.35591996
_cell_formula_units_Z   1
loop_
 _symmetry_equiv_pos_site_id
 _symmetry_equiv_pos_as_xyz
  1  'x, y, z'
loop_
 _atom_site_type_symbol
 _atom_site_label
 _atom_site_symmetry_multiplicity
 _atom_site_fract_x
 _atom_site_fract_y
 _atom_site_fract_z
 _atom_site_occupancy
  Te  Te0  1  0.024106  0.975894  0.975894  1
  H  H1  1  0.141343  0.372230  0.858657  1
  H  H2  1  0.212789  0.787211  0.420194  1
  H  H3  1  0.548506  0.451494  0.232977  1
  H  H4  1  0.767023  0.232977  0.451494  1
  H  H5  1  0.627770  0.858657  0.372230  1
  H  H6  1  0.579806  0.420194  0.787211  1
  O  O7  1  0.273096  0.726904  0.726904  1
  O  O8  1  0.226265  0.208440  0.773735  1
  O  O9  1  0.265976  0.734024  0.238251  1
  O  O10  1  0.738167  0.261833  0.261833  1
  O  O11  1  0.791560  0.773735  0.208440  1
  O  O12  1  0.761749  0.238251  0.734024  1
