# generated using pymatgen
data_Sr6Nb7O21
_symmetry_space_group_name_H-M   'P 1'
_cell_length_a   7.05081433
_cell_length_b   9.10021033
_cell_length_c   9.10149069
_cell_angle_alpha   113.56575597
_cell_angle_beta   104.96287074
_cell_angle_gamma   104.96675628
_symmetry_Int_Tables_number   1
_chemical_formula_structural   Sr6Nb7O21
_chemical_formula_sum   'Sr6 Nb7 O21'
_cell_volume   472.08406450
_cell_formula_units_Z   1
loop_
 _symmetry_equiv_pos_site_id
 _symmetry_equiv_pos_as_xyz
  1  'x, y, z'
loop_
 _atom_site_type_symbol
 _atom_site_label
 _atom_site_symmetry_multiplicity
 _atom_site_fract_x
 _atom_site_fract_y
 _atom_site_fract_z
 _atom_site_occupancy
  Sr  Sr0  1  0.562975  0.280111  0.421485  1
  Sr  Sr1  1  0.142367  0.571552  0.859634  1
  Sr  Sr2  1  0.713458  0.854977  0.283526  1
  Sr  Sr3  1  0.287132  0.143511  0.717762  1
  Sr  Sr4  1  0.850640  0.421505  0.140447  1
  Sr  Sr5  1  0.428138  0.716319  0.573411  1
  Nb  Nb6  1  0.068775  0.283798  0.425509  1
  Nb  Nb7  1  0.644432  0.576232  0.857643  1
  Nb  Nb8  1  0.210436  0.858681  0.282584  1
  Nb  Nb9  1  0.785880  0.141909  0.717001  1
  Nb  Nb10  1  0.352992  0.424849  0.141706  1
  Nb  Nb11  1  0.929664  0.717889  0.575020  1
  Nb  Nb12  1  0.498833  0.999529  0.999549  1
  O  O13  1  0.558447  0.780108  0.927384  1
  O  O14  1  0.778944  0.147417  0.220812  1
  O  O15  1  0.142974  0.073116  0.369090  1
  O  O16  1  0.356541  0.428984  0.642541  1
  O  O17  1  0.712381  0.357685  0.788309  1
  O  O18  1  0.778404  0.634100  0.705722  1
  O  O19  1  0.924997  0.708040  0.072969  1
  O  O20  1  0.284997  0.643578  0.213467  1
  O  O21  1  0.363287  0.928858  0.146661  1
  O  O22  1  0.499708  0.001418  0.498962  1
  O  O23  1  0.928795  0.221092  0.575568  1
  O  O24  1  0.853990  0.928132  0.631288  1
  O  O25  1  0.071317  0.292864  0.927725  1
  O  O26  1  0.496037  0.499947  0.998171  1
  O  O27  1  0.439906  0.221006  0.071886  1
  O  O28  1  0.643533  0.572839  0.354860  1
  O  O29  1  0.000371  0.501325  0.498436  1
  O  O30  1  0.072142  0.784870  0.427990  1
  O  O31  1  0.219306  0.853786  0.778968  1
  O  O32  1  0.633348  0.071800  0.852539  1
  O  O33  1  0.221774  0.365295  0.293804  1
