# generated using pymatgen
data_CuAsPbS3
_symmetry_space_group_name_H-M   'P 1'
_cell_length_a   7.70415663
_cell_length_b   8.16913363
_cell_length_c   8.90744022
_cell_angle_alpha   90.00000000
_cell_angle_beta   90.00000000
_cell_angle_gamma   90.00000000
_symmetry_Int_Tables_number   1
_chemical_formula_structural   CuAsPbS3
_chemical_formula_sum   'Cu4 As4 Pb4 S12'
_cell_volume   560.60119649
_cell_formula_units_Z   4
loop_
 _symmetry_equiv_pos_site_id
 _symmetry_equiv_pos_as_xyz
  1  'x, y, z'
loop_
 _atom_site_type_symbol
 _atom_site_label
 _atom_site_symmetry_multiplicity
 _atom_site_fract_x
 _atom_site_fract_y
 _atom_site_fract_z
 _atom_site_occupancy
  Cu  Cu0  1  0.738536  0.777186  0.430267  1
  Cu  Cu1  1  0.238536  0.222814  0.930267  1
  Cu  Cu2  1  0.761464  0.222814  0.930267  1
  Cu  Cu3  1  0.261464  0.777186  0.430267  1
  As  As4  1  0.500000  0.433580  0.580076  1
  As  As5  1  0.000000  0.002466  0.658559  1
  As  As6  1  0.500000  0.997534  0.158559  1
  As  As7  1  0.000000  0.566420  0.080076  1
  Pb  Pb8  1  0.500000  0.577601  0.003216  1
  Pb  Pb9  1  0.000000  0.422399  0.503216  1
  Pb  Pb10  1  0.000000  0.056509  0.193080  1
  Pb  Pb11  1  0.500000  0.943491  0.693080  1
  S  S12  1  0.500000  0.751349  0.281766  1
  S  S13  1  0.224570  0.054046  0.494991  1
  S  S14  1  0.724570  0.945954  0.994991  1
  S  S15  1  0.775430  0.054046  0.494991  1
  S  S16  1  0.772931  0.393358  0.138992  1
  S  S17  1  0.227069  0.393358  0.138992  1
  S  S18  1  0.272931  0.606642  0.638992  1
  S  S19  1  0.275430  0.945954  0.994991  1
  S  S20  1  0.000000  0.248651  0.781766  1
  S  S21  1  0.500000  0.279863  0.799959  1
  S  S22  1  0.000000  0.720137  0.299959  1
  S  S23  1  0.727069  0.606642  0.638992  1
