# generated using pymatgen
data_K2CoP2WO10
_symmetry_space_group_name_H-M   'P 1'
_cell_length_a   9.34917038
_cell_length_b   9.34917038
_cell_length_c   10.85535813
_cell_angle_alpha   90.00000000
_cell_angle_beta   90.00000000
_cell_angle_gamma   90.00000000
_symmetry_Int_Tables_number   1
_chemical_formula_structural   K2CoP2WO10
_chemical_formula_sum   'K8 Co4 P8 W4 O40'
_cell_volume   948.83414472
_cell_formula_units_Z   4
loop_
 _symmetry_equiv_pos_site_id
 _symmetry_equiv_pos_as_xyz
  1  'x, y, z'
loop_
 _atom_site_type_symbol
 _atom_site_label
 _atom_site_symmetry_multiplicity
 _atom_site_fract_x
 _atom_site_fract_y
 _atom_site_fract_z
 _atom_site_occupancy
  K  K0  1  0.202462  0.502906  0.928685  1
  K  K1  1  0.797538  0.497094  0.428685  1
  K  K2  1  0.297538  0.002906  0.321315  1
  K  K3  1  0.702462  0.997094  0.821315  1
  K  K4  1  0.497094  0.797538  0.571315  1
  K  K5  1  0.997094  0.702462  0.178685  1
  K  K6  1  0.502906  0.202462  0.071315  1
  K  K7  1  0.002906  0.297538  0.678685  1
  Co  Co8  1  0.362701  0.637299  0.250000  1
  Co  Co9  1  0.137299  0.137299  0.000000  1
  Co  Co10  1  0.862701  0.862701  0.500000  1
  Co  Co11  1  0.637299  0.362701  0.750000  1
  P  P12  1  0.176581  0.330027  0.252061  1
  P  P13  1  0.169973  0.676581  0.502061  1
  P  P14  1  0.323419  0.830027  0.997939  1
  P  P15  1  0.823419  0.669973  0.752061  1
  P  P16  1  0.330027  0.176581  0.747939  1
  P  P17  1  0.669973  0.823419  0.247939  1
  P  P18  1  0.830027  0.323419  0.002061  1
  P  P19  1  0.676581  0.169973  0.497939  1
  W  W20  1  0.888376  0.111624  0.250000  1
  W  W21  1  0.111624  0.888376  0.750000  1
  W  W22  1  0.388376  0.388376  0.500000  1
  W  W23  1  0.611624  0.611624  0.000000  1
  O  O24  1  0.282786  0.259183  0.628300  1
  O  O25  1  0.504751  0.456181  0.619637  1
  O  O26  1  0.759183  0.217214  0.378300  1
  O  O27  1  0.456181  0.504751  0.380363  1
  O  O28  1  0.717146  0.984568  0.221190  1
  O  O29  1  0.240817  0.782786  0.878300  1
  O  O30  1  0.043819  0.004751  0.869637  1
  O  O31  1  0.738274  0.256663  0.605871  1
  O  O32  1  0.484568  0.782854  0.971190  1
  O  O33  1  0.282854  0.015432  0.721190  1
  O  O34  1  0.818839  0.508934  0.731916  1
  O  O35  1  0.761726  0.756663  0.644129  1
  O  O36  1  0.782854  0.484568  0.028810  1
  O  O37  1  0.995249  0.956181  0.630363  1
  O  O38  1  0.217214  0.759183  0.621700  1
  O  O39  1  0.015432  0.282854  0.278810  1
  O  O40  1  0.991066  0.318839  0.981916  1
  O  O41  1  0.740817  0.717214  0.871700  1
  O  O42  1  0.717214  0.740817  0.128300  1
  O  O43  1  0.956181  0.995249  0.369637  1
  O  O44  1  0.543819  0.495249  0.880363  1
  O  O45  1  0.256663  0.738274  0.394129  1
  O  O46  1  0.681161  0.008934  0.518084  1
  O  O47  1  0.515432  0.217146  0.471190  1
  O  O48  1  0.756663  0.761726  0.355871  1
  O  O49  1  0.508934  0.818839  0.268084  1
  O  O50  1  0.217146  0.515432  0.528810  1
  O  O51  1  0.318839  0.991066  0.018084  1
  O  O52  1  0.181161  0.491066  0.231916  1
  O  O53  1  0.261726  0.743337  0.105871  1
  O  O54  1  0.259183  0.282786  0.371700  1
  O  O55  1  0.782786  0.240817  0.121700  1
  O  O56  1  0.491066  0.181161  0.768084  1
  O  O57  1  0.495249  0.543819  0.119637  1
  O  O58  1  0.743337  0.261726  0.894129  1
  O  O59  1  0.004751  0.043819  0.130363  1
  O  O60  1  0.243337  0.238274  0.855871  1
  O  O61  1  0.238274  0.243337  0.144129  1
  O  O62  1  0.008934  0.681161  0.481916  1
  O  O63  1  0.984568  0.717146  0.778810  1
