# generated using pymatgen
data_CaSi2(BO4)2
_symmetry_space_group_name_H-M   'P 1'
_cell_length_a   7.80844655
_cell_length_b   8.15174175
_cell_length_c   8.86151739
_cell_angle_alpha   90.00000000
_cell_angle_beta   90.00000000
_cell_angle_gamma   90.00000000
_symmetry_Int_Tables_number   1
_chemical_formula_structural   CaSi2(BO4)2
_chemical_formula_sum   'Ca4 Si8 B8 O32'
_cell_volume   564.05720171
_cell_formula_units_Z   4
loop_
 _symmetry_equiv_pos_site_id
 _symmetry_equiv_pos_as_xyz
  1  'x, y, z'
loop_
 _atom_site_type_symbol
 _atom_site_label
 _atom_site_symmetry_multiplicity
 _atom_site_fract_x
 _atom_site_fract_y
 _atom_site_fract_z
 _atom_site_occupancy
  Ca  Ca0  1  0.250000  0.111963  0.576117  1
  Ca  Ca1  1  0.750000  0.888037  0.423883  1
  Ca  Ca2  1  0.250000  0.611963  0.923883  1
  Ca  Ca3  1  0.750000  0.388037  0.076117  1
  Si  Si4  1  0.055209  0.554762  0.307988  1
  Si  Si5  1  0.555209  0.445238  0.692012  1
  Si  Si6  1  0.444791  0.054762  0.192012  1
  Si  Si7  1  0.944791  0.945238  0.807988  1
  Si  Si8  1  0.944791  0.445238  0.692012  1
  Si  Si9  1  0.444791  0.554762  0.307988  1
  Si  Si10  1  0.555209  0.945238  0.807988  1
  Si  Si11  1  0.055209  0.054762  0.192012  1
  B  B12  1  0.579486  0.260098  0.418297  1
  B  B13  1  0.579486  0.760098  0.081703  1
  B  B14  1  0.079486  0.239902  0.918297  1
  B  B15  1  0.920514  0.260098  0.418297  1
  B  B16  1  0.420514  0.739902  0.581703  1
  B  B17  1  0.079486  0.739902  0.581703  1
  B  B18  1  0.920514  0.760098  0.081703  1
  B  B19  1  0.420514  0.239902  0.918297  1
  O  O20  1  0.250000  0.313978  0.927444  1
  O  O21  1  0.750000  0.186022  0.427444  1
  O  O22  1  0.250000  0.813978  0.572556  1
  O  O23  1  0.750000  0.686022  0.072556  1
  O  O24  1  0.250000  0.988688  0.164993  1
  O  O25  1  0.750000  0.011312  0.835007  1
  O  O26  1  0.250000  0.488688  0.335007  1
  O  O27  1  0.750000  0.511312  0.664993  1
  O  O28  1  0.922186  0.900244  0.186846  1
  O  O29  1  0.422186  0.099756  0.813154  1
  O  O30  1  0.577814  0.400244  0.313154  1
  O  O31  1  0.077814  0.599756  0.686846  1
  O  O32  1  0.002712  0.193054  0.066516  1
  O  O33  1  0.502712  0.806946  0.933484  1
  O  O34  1  0.497288  0.693054  0.433484  1
  O  O35  1  0.997288  0.306946  0.566516  1
  O  O36  1  0.997288  0.806946  0.933484  1
  O  O37  1  0.497288  0.193054  0.066516  1
  O  O38  1  0.502712  0.306946  0.566516  1
  O  O39  1  0.002712  0.693054  0.433484  1
  O  O40  1  0.041163  0.128039  0.364322  1
  O  O41  1  0.541163  0.871961  0.635678  1
  O  O42  1  0.458837  0.628039  0.135678  1
  O  O43  1  0.958837  0.371961  0.864322  1
  O  O44  1  0.958837  0.871961  0.635678  1
  O  O45  1  0.458837  0.128039  0.364322  1
  O  O46  1  0.541163  0.371961  0.864322  1
  O  O47  1  0.041163  0.628039  0.135678  1
  O  O48  1  0.922186  0.400244  0.313154  1
  O  O49  1  0.422186  0.599756  0.686846  1
  O  O50  1  0.577814  0.900244  0.186846  1
  O  O51  1  0.077814  0.099756  0.813154  1
