# generated using pymatgen
data_In4(SnO4)3
_symmetry_space_group_name_H-M   'P 1'
_cell_length_a   6.29463520
_cell_length_b   6.33794193
_cell_length_c   12.67568138
_cell_angle_alpha   99.30582013
_cell_angle_beta   99.73676103
_cell_angle_gamma   99.39571878
_symmetry_Int_Tables_number   1
_chemical_formula_structural   In4(SnO4)3
_chemical_formula_sum   'In8 Sn6 O24'
_cell_volume   482.31623203
_cell_formula_units_Z   2
loop_
 _symmetry_equiv_pos_site_id
 _symmetry_equiv_pos_as_xyz
  1  'x, y, z'
loop_
 _atom_site_type_symbol
 _atom_site_label
 _atom_site_symmetry_multiplicity
 _atom_site_fract_x
 _atom_site_fract_y
 _atom_site_fract_z
 _atom_site_occupancy
  In  In0  1  0.397251  0.865536  0.094867  1
  In  In1  1  0.313300  0.604640  0.817658  1
  In  In2  1  0.305936  0.602969  0.316501  1
  In  In3  1  0.863889  0.686497  0.447686  1
  In  In4  1  0.686700  0.395360  0.182342  1
  In  In5  1  0.136111  0.313503  0.552314  1
  In  In6  1  0.602749  0.134464  0.905133  1
  In  In7  1  0.694064  0.397031  0.683499  1
  Sn  Sn8  1  0.995866  0.996283  0.248154  1
  Sn  Sn9  1  0.396169  0.860108  0.591813  1
  Sn  Sn10  1  0.004134  0.003717  0.751846  1
  Sn  Sn11  1  0.860996  0.681590  0.948240  1
  Sn  Sn12  1  0.139004  0.318410  0.051760  1
  Sn  Sn13  1  0.603831  0.139892  0.408187  1
  O  O14  1  0.315934  0.941316  0.795086  1
  O  O15  1  0.049343  0.898588  0.088940  1
  O  O16  1  0.319106  0.952367  0.299396  1
  O  O17  1  0.589645  0.819292  0.960420  1
  O  O18  1  0.068882  0.903802  0.595369  1
  O  O19  1  0.907482  0.695639  0.787140  1
  O  O20  1  0.585176  0.833900  0.462695  1
  O  O21  1  0.169432  0.575175  0.958427  1
  O  O22  1  0.405751  0.575024  0.158074  1
  O  O23  1  0.910721  0.685259  0.278744  1
  O  O24  1  0.187113  0.591446  0.462196  1
  O  O25  1  0.594249  0.424976  0.841926  1
  O  O26  1  0.420977  0.586996  0.658599  1
  O  O27  1  0.830568  0.424825  0.041573  1
  O  O28  1  0.092518  0.304361  0.212860  1
  O  O29  1  0.579023  0.413004  0.341401  1
  O  O30  1  0.812887  0.408554  0.537804  1
  O  O31  1  0.410355  0.180708  0.039580  1
  O  O32  1  0.089279  0.314741  0.721256  1
  O  O33  1  0.950657  0.101412  0.911060  1
  O  O34  1  0.414824  0.166100  0.537305  1
  O  O35  1  0.684066  0.058684  0.204914  1
  O  O36  1  0.931118  0.096198  0.404631  1
  O  O37  1  0.680894  0.047633  0.700604  1
