# generated using pymatgen
data_Ga2FeO4
_symmetry_space_group_name_H-M   'P 1'
_cell_length_a   6.00553562
_cell_length_b   6.00553562
_cell_length_c   6.00553562
_cell_angle_alpha   121.10408706
_cell_angle_beta   119.04914168
_cell_angle_gamma   89.87658498
_symmetry_Int_Tables_number   1
_chemical_formula_structural   Ga2FeO4
_chemical_formula_sum   'Ga4 Fe2 O8'
_cell_volume   152.91878717
_cell_formula_units_Z   2
loop_
 _symmetry_equiv_pos_site_id
 _symmetry_equiv_pos_as_xyz
  1  'x, y, z'
loop_
 _atom_site_type_symbol
 _atom_site_label
 _atom_site_symmetry_multiplicity
 _atom_site_fract_x
 _atom_site_fract_y
 _atom_site_fract_z
 _atom_site_occupancy
  Ga  Ga0  1  0.614323  0.864323  0.250000  1
  Ga  Ga1  1  0.385677  0.135677  0.750000  1
  Ga  Ga2  1  0.000000  0.500000  0.000000  1
  Ga  Ga3  1  0.500000  0.500000  0.500000  1
  Fe  Fe4  1  0.000000  0.000000  0.000000  1
  Fe  Fe5  1  0.000000  0.500000  0.500000  1
  O  O6  1  0.252002  0.266167  0.014165  1
  O  O7  1  0.766381  0.264662  0.001719  1
  O  O8  1  0.252002  0.737837  0.485835  1
  O  O9  1  0.262942  0.264662  0.498281  1
  O  O10  1  0.737058  0.735338  0.501719  1
  O  O11  1  0.747998  0.262163  0.514165  1
  O  O12  1  0.233619  0.735338  0.998281  1
  O  O13  1  0.747998  0.733833  0.985835  1
