# generated using pymatgen
data_Li9CrN5
_symmetry_space_group_name_H-M   'P 1'
_cell_length_a   5.85314493
_cell_length_b   6.79159772
_cell_length_c   7.62233478
_cell_angle_alpha   76.91324339
_cell_angle_beta   75.10067159
_cell_angle_gamma   73.41383008
_symmetry_Int_Tables_number   1
_chemical_formula_structural   Li9CrN5
_chemical_formula_sum   'Li18 Cr2 N10'
_cell_volume   276.77644864
_cell_formula_units_Z   2
loop_
 _symmetry_equiv_pos_site_id
 _symmetry_equiv_pos_as_xyz
  1  'x, y, z'
loop_
 _atom_site_type_symbol
 _atom_site_label
 _atom_site_symmetry_multiplicity
 _atom_site_fract_x
 _atom_site_fract_y
 _atom_site_fract_z
 _atom_site_occupancy
  Li  Li0  1  0.741575  0.256212  0.233628  1
  Li  Li1  1  0.625410  0.849377  0.940820  1
  Li  Li2  1  0.922512  0.046749  0.858677  1
  Li  Li3  1  0.838960  0.160596  0.546210  1
  Li  Li4  1  0.631302  0.368379  0.943752  1
  Li  Li5  1  0.147524  0.360237  0.430988  1
  Li  Li6  1  0.074181  0.441041  0.139505  1
  Li  Li7  1  0.925819  0.558959  0.860495  1
  Li  Li8  1  0.852476  0.639763  0.569012  1
  Li  Li9  1  0.368698  0.631621  0.056248  1
  Li  Li10  1  0.258425  0.743788  0.766372  1
  Li  Li11  1  0.077488  0.953251  0.141323  1
  Li  Li12  1  0.161040  0.839404  0.453790  1
  Li  Li13  1  0.555440  0.929749  0.643335  1
  Li  Li14  1  0.374590  0.150623  0.059180  1
  Li  Li15  1  0.446492  0.531034  0.351335  1
  Li  Li16  1  0.553508  0.468966  0.648665  1
  Li  Li17  1  0.444560  0.070251  0.356665  1
  Cr  Cr18  1  0.752730  0.751113  0.251865  1
  Cr  Cr19  1  0.247270  0.248887  0.748135  1
  N  N20  1  0.595540  0.653602  0.799999  1
  N  N21  1  0.551928  0.163288  0.782270  1
  N  N22  1  0.796942  0.492020  0.374860  1
  N  N23  1  0.957759  0.756540  0.037246  1
  N  N24  1  0.811117  0.922279  0.377009  1
  N  N25  1  0.188883  0.077721  0.622991  1
  N  N26  1  0.042241  0.243460  0.962754  1
  N  N27  1  0.404460  0.346398  0.200001  1
  N  N28  1  0.203058  0.507980  0.625140  1
  N  N29  1  0.448072  0.836712  0.217730  1
