# generated using pymatgen
data_H8W(S2N)2
_symmetry_space_group_name_H-M   'P 1'
_cell_length_a   7.12584738
_cell_length_b   9.78299120
_cell_length_c   12.46874789
_cell_angle_alpha   90.00000000
_cell_angle_beta   90.00000000
_cell_angle_gamma   90.00000000
_symmetry_Int_Tables_number   1
_chemical_formula_structural   H8W(S2N)2
_chemical_formula_sum   'H32 W4 S16 N8'
_cell_volume   869.22262735
_cell_formula_units_Z   4
loop_
 _symmetry_equiv_pos_site_id
 _symmetry_equiv_pos_as_xyz
  1  'x, y, z'
loop_
 _atom_site_type_symbol
 _atom_site_label
 _atom_site_symmetry_multiplicity
 _atom_site_fract_x
 _atom_site_fract_y
 _atom_site_fract_z
 _atom_site_occupancy
  H  H0  1  0.250000  0.008652  0.238679  1
  H  H1  1  0.250000  0.508652  0.261321  1
  H  H2  1  0.750000  0.991348  0.761321  1
  H  H3  1  0.750000  0.491348  0.738679  1
  H  H4  1  0.250000  0.969177  0.107884  1
  H  H5  1  0.250000  0.469177  0.392116  1
  H  H6  1  0.750000  0.030823  0.892116  1
  H  H7  1  0.750000  0.530823  0.607884  1
  H  H8  1  0.368485  0.109648  0.152456  1
  H  H9  1  0.131515  0.609648  0.347544  1
  H  H10  1  0.868485  0.890352  0.847544  1
  H  H11  1  0.631515  0.390352  0.652456  1
  H  H12  1  0.631515  0.890352  0.847544  1
  H  H13  1  0.868485  0.390352  0.652456  1
  H  H14  1  0.131515  0.109648  0.152456  1
  H  H15  1  0.368485  0.609648  0.347544  1
  H  H16  1  0.250000  0.255017  0.833985  1
  H  H17  1  0.250000  0.755017  0.666015  1
  H  H18  1  0.750000  0.744983  0.166015  1
  H  H19  1  0.750000  0.244983  0.333985  1
  H  H20  1  0.250000  0.426740  0.846746  1
  H  H21  1  0.250000  0.926740  0.653254  1
  H  H22  1  0.750000  0.573260  0.153254  1
  H  H23  1  0.750000  0.073260  0.346746  1
  H  H24  1  0.369214  0.329583  0.935472  1
  H  H25  1  0.130786  0.829583  0.564528  1
  H  H26  1  0.869214  0.670417  0.064528  1
  H  H27  1  0.630786  0.170417  0.435472  1
  H  H28  1  0.630786  0.670417  0.064528  1
  H  H29  1  0.869214  0.170417  0.435472  1
  H  H30  1  0.130786  0.329583  0.935472  1
  H  H31  1  0.369214  0.829583  0.564528  1
  W  W32  1  0.250000  0.747836  0.928447  1
  W  W33  1  0.250000  0.247836  0.571553  1
  W  W34  1  0.750000  0.252164  0.071553  1
  W  W35  1  0.750000  0.752164  0.428447  1
  S  S36  1  0.250000  0.968355  0.889829  1
  S  S37  1  0.250000  0.468355  0.610171  1
  S  S38  1  0.750000  0.031645  0.110171  1
  S  S39  1  0.750000  0.531645  0.389829  1
  S  S40  1  0.250000  0.718162  0.103759  1
  S  S41  1  0.250000  0.218162  0.396241  1
  S  S42  1  0.750000  0.281838  0.896241  1
  S  S43  1  0.750000  0.781838  0.603759  1
  S  S44  1  0.501414  0.650155  0.859507  1
  S  S45  1  0.998586  0.150155  0.640493  1
  S  S46  1  0.001414  0.349845  0.140493  1
  S  S47  1  0.498586  0.849845  0.359507  1
  S  S48  1  0.498586  0.349845  0.140493  1
  S  S49  1  0.001414  0.849845  0.359507  1
  S  S50  1  0.998586  0.650155  0.859507  1
  S  S51  1  0.501414  0.150155  0.640493  1
  N  N52  1  0.250000  0.049226  0.162381  1
  N  N53  1  0.250000  0.549226  0.337619  1
  N  N54  1  0.750000  0.950774  0.837619  1
  N  N55  1  0.750000  0.450774  0.662381  1
  N  N56  1  0.250000  0.334892  0.888057  1
  N  N57  1  0.250000  0.834892  0.611943  1
  N  N58  1  0.750000  0.665108  0.111943  1
  N  N59  1  0.750000  0.165108  0.388057  1
