# generated using pymatgen
data_LiMnPO4
_symmetry_space_group_name_H-M   'P 1'
_cell_length_a   8.01127618
_cell_length_b   4.91916716
_cell_length_c   8.58073624
_cell_angle_alpha   90.00000000
_cell_angle_beta   99.30264821
_cell_angle_gamma   90.00000000
_symmetry_Int_Tables_number   1
_chemical_formula_structural   LiMnPO4
_chemical_formula_sum   'Li4 Mn4 P4 O16'
_cell_volume   333.70922368
_cell_formula_units_Z   4
loop_
 _symmetry_equiv_pos_site_id
 _symmetry_equiv_pos_as_xyz
  1  'x, y, z'
loop_
 _atom_site_type_symbol
 _atom_site_label
 _atom_site_symmetry_multiplicity
 _atom_site_fract_x
 _atom_site_fract_y
 _atom_site_fract_z
 _atom_site_occupancy
  Li  Li0  1  0.167479  0.002173  0.076836  1
  Li  Li1  1  0.631925  0.015933  0.435890  1
  Li  Li2  1  0.368075  0.515933  0.564110  1
  Li  Li3  1  0.832521  0.502173  0.923164  1
  Mn  Mn4  1  0.477613  0.574867  0.215912  1
  Mn  Mn5  1  0.006435  0.008504  0.681634  1
  Mn  Mn6  1  0.993565  0.508504  0.318366  1
  Mn  Mn7  1  0.522387  0.074867  0.784088  1
  P  P8  1  0.221336  0.481147  0.887728  1
  P  P9  1  0.778664  0.981147  0.112272  1
  P  P10  1  0.262181  0.984575  0.431713  1
  P  P11  1  0.737819  0.484575  0.568287  1
  O  O12  1  0.118106  0.826323  0.494404  1
  O  O13  1  0.703817  0.885145  0.941800  1
  O  O14  1  0.952728  0.837402  0.155413  1
  O  O15  1  0.218324  0.288022  0.408159  1
  O  O16  1  0.574937  0.440773  0.443526  1
  O  O17  1  0.804258  0.294389  0.122234  1
  O  O18  1  0.654782  0.890984  0.224873  1
  O  O19  1  0.296183  0.385145  0.058200  1
  O  O20  1  0.781676  0.788022  0.591841  1
  O  O21  1  0.702011  0.357378  0.723973  1
  O  O22  1  0.297989  0.857378  0.276027  1
  O  O23  1  0.881894  0.326323  0.505596  1
  O  O24  1  0.047272  0.337402  0.844587  1
  O  O25  1  0.425063  0.940773  0.556474  1
  O  O26  1  0.345218  0.390984  0.775127  1
  O  O27  1  0.195742  0.794389  0.877766  1
