# generated using pymatgen
data_LiNbWO6
_symmetry_space_group_name_H-M   'P 1'
_cell_length_a   4.77535437
_cell_length_b   4.77535437
_cell_length_c   9.43008804
_cell_angle_alpha   90.00000000
_cell_angle_beta   90.00000000
_cell_angle_gamma   90.00000000
_symmetry_Int_Tables_number   1
_chemical_formula_structural   LiNbWO6
_chemical_formula_sum   'Li2 Nb2 W2 O12'
_cell_volume   215.04381592
_cell_formula_units_Z   2
loop_
 _symmetry_equiv_pos_site_id
 _symmetry_equiv_pos_as_xyz
  1  'x, y, z'
loop_
 _atom_site_type_symbol
 _atom_site_label
 _atom_site_symmetry_multiplicity
 _atom_site_fract_x
 _atom_site_fract_y
 _atom_site_fract_z
 _atom_site_occupancy
  Li  Li0  1  0.500000  0.000000  0.425301  1
  Li  Li1  1  0.000000  0.500000  0.574699  1
  Nb  Nb2  1  0.500000  0.000000  0.091939  1
  Nb  Nb3  1  0.000000  0.500000  0.908061  1
  W  W4  1  0.000000  0.500000  0.266401  1
  W  W5  1  0.500000  0.000000  0.733599  1
  O  O6  1  0.212421  0.287579  0.772869  1
  O  O7  1  0.799996  0.700004  0.391066  1
  O  O8  1  0.700004  0.200004  0.608934  1
  O  O9  1  0.299996  0.799996  0.608934  1
  O  O10  1  0.787579  0.712421  0.772869  1
  O  O11  1  0.287579  0.787579  0.227131  1
  O  O12  1  0.712421  0.212421  0.227131  1
  O  O13  1  0.194860  0.305140  0.080462  1
  O  O14  1  0.805140  0.694860  0.080462  1
  O  O15  1  0.305140  0.805140  0.919538  1
  O  O16  1  0.694860  0.194860  0.919538  1
  O  O17  1  0.200004  0.299996  0.391066  1
