# generated using pymatgen
data_H5BrO2
_symmetry_space_group_name_H-M   'P 1'
_cell_length_a   4.15756927
_cell_length_b   7.03511415
_cell_length_c   12.58211988
_cell_angle_alpha   90.30671435
_cell_angle_beta   90.52714228
_cell_angle_gamma   103.33754189
_symmetry_Int_Tables_number   1
_chemical_formula_structural   H5BrO2
_chemical_formula_sum   'H20 Br4 O8'
_cell_volume   358.06227538
_cell_formula_units_Z   4
loop_
 _symmetry_equiv_pos_site_id
 _symmetry_equiv_pos_as_xyz
  1  'x, y, z'
loop_
 _atom_site_type_symbol
 _atom_site_label
 _atom_site_symmetry_multiplicity
 _atom_site_fract_x
 _atom_site_fract_y
 _atom_site_fract_z
 _atom_site_occupancy
  H  H0  1  0.749287  0.574367  0.677814  1
  H  H1  1  0.463317  0.657019  0.593944  1
  H  H2  1  0.418364  0.416025  0.639040  1
  H  H3  1  0.240478  0.923474  0.175136  1
  H  H4  1  0.568182  0.084661  0.136897  1
  H  H5  1  0.526902  0.842009  0.095501  1
  H  H6  1  0.245244  0.424552  0.321350  1
  H  H7  1  0.577113  0.584659  0.362558  1
  H  H8  1  0.525079  0.345356  0.404928  1
  H  H9  1  0.415188  0.928458  0.869779  1
  H  H10  1  0.710722  0.087014  0.813818  1
  H  H11  1  0.302259  0.903915  0.606196  1
  H  H12  1  0.223835  0.800073  0.491547  1
  H  H13  1  0.693189  0.591094  0.107641  1
  H  H14  1  0.776349  0.698031  0.996277  1
  H  H15  1  0.711325  0.097558  0.392812  1
  H  H16  1  0.772436  0.196394  0.508654  1
  H  H17  1  0.294897  0.421594  0.895655  1
  H  H18  1  0.169004  0.291637  0.997638  1
  H  H19  1  0.457978  0.176746  0.905615  1
  Br  Br20  1  0.044049  0.662200  0.838837  1
  Br  Br21  1  0.963369  0.841590  0.337347  1
  Br  Br22  1  0.933327  0.338940  0.169394  1
  Br  Br23  1  0.024532  0.156949  0.667001  1
  O  O24  1  0.590312  0.535918  0.617361  1
  O  O25  1  0.396611  0.961477  0.114886  1
  O  O26  1  0.401876  0.464150  0.382961  1
  O  O27  1  0.585293  0.055393  0.881810  1
  O  O28  1  0.295032  0.782165  0.565806  1
  O  O29  1  0.698831  0.714656  0.068844  1
  O  O30  1  0.679146  0.208362  0.436839  1
  O  O31  1  0.342414  0.318129  0.942785  1
