# generated using pymatgen
data_Hg12SbBr(ClO3)2
_symmetry_space_group_name_H-M   'P 1'
_cell_length_a   14.36482556
_cell_length_b   14.36482556
_cell_length_c   9.94116292
_cell_angle_alpha   90.00000000
_cell_angle_beta   90.00000000
_cell_angle_gamma   120.00000000
_symmetry_Int_Tables_number   1
_chemical_formula_structural   Hg12SbBr(ClO3)2
_chemical_formula_sum   'Hg36 Sb3 Br3 Cl6 O18'
_cell_volume   1776.51359725
_cell_formula_units_Z   3
loop_
 _symmetry_equiv_pos_site_id
 _symmetry_equiv_pos_as_xyz
  1  'x, y, z'
loop_
 _atom_site_type_symbol
 _atom_site_label
 _atom_site_symmetry_multiplicity
 _atom_site_fract_x
 _atom_site_fract_y
 _atom_site_fract_z
 _atom_site_occupancy
  Hg  Hg0  1  0.838935  0.369751  0.273802  1
  Hg  Hg1  1  0.964215  0.502112  0.939721  1
  Hg  Hg2  1  0.292139  0.491207  0.607538  1
  Hg  Hg3  1  0.497888  0.462103  0.939721  1
  Hg  Hg4  1  0.875670  0.695578  0.600418  1
  Hg  Hg5  1  0.213217  0.844163  0.292287  1
  Hg  Hg6  1  0.458238  0.848223  0.065653  1
  Hg  Hg7  1  0.304422  0.180092  0.600418  1
  Hg  Hg8  1  0.367151  0.222739  0.055928  1
  Hg  Hg9  1  0.028841  0.486632  0.388080  1
  Hg  Hg10  1  0.151777  0.610015  0.065653  1
  Hg  Hg11  1  0.705829  0.865282  0.698443  1
  Hg  Hg12  1  0.389985  0.541762  0.065653  1
  Hg  Hg13  1  0.777261  0.144413  0.055928  1
  Hg  Hg14  1  0.185000  0.091491  0.924566  1
  Hg  Hg15  1  0.630946  0.786783  0.292287  1
  Hg  Hg16  1  0.819908  0.124330  0.600418  1
  Hg  Hg17  1  0.855587  0.632849  0.055928  1
  Hg  Hg18  1  0.530816  0.161065  0.273802  1
  Hg  Hg19  1  0.513368  0.542209  0.388080  1
  Hg  Hg20  1  0.537897  0.035785  0.939721  1
  Hg  Hg21  1  0.155837  0.369054  0.292287  1
  Hg  Hg22  1  0.747235  0.519865  0.738519  1
  Hg  Hg23  1  0.134718  0.840546  0.698443  1
  Hg  Hg24  1  0.199067  0.707861  0.607538  1
  Hg  Hg25  1  0.508793  0.800933  0.607538  1
  Hg  Hg26  1  0.136877  0.968266  0.384700  1
  Hg  Hg27  1  0.906491  0.815000  0.924566  1
  Hg  Hg28  1  0.031734  0.168610  0.384700  1
  Hg  Hg29  1  0.457791  0.971159  0.388080  1
  Hg  Hg30  1  0.630249  0.469184  0.273802  1
  Hg  Hg31  1  0.480135  0.227370  0.738519  1
  Hg  Hg32  1  0.831390  0.863123  0.384700  1
  Hg  Hg33  1  0.772630  0.252765  0.738519  1
  Hg  Hg34  1  0.159454  0.294171  0.698443  1
  Hg  Hg35  1  0.908509  0.093509  0.924566  1
  Sb  Sb36  1  0.333333  0.666667  0.326491  1
  Sb  Sb37  1  0.666667  0.333333  0.005358  1
  Sb  Sb38  1  0.000000  0.000000  0.660154  1
  Br  Br39  1  0.000000  0.000000  0.171940  1
  Br  Br40  1  0.333333  0.666667  0.822664  1
  Br  Br41  1  0.666667  0.333333  0.491285  1
  Cl  Cl42  1  0.761417  0.089802  0.330011  1
  Cl  Cl43  1  0.530940  0.539604  0.672058  1
  Cl  Cl44  1  0.910198  0.671615  0.330011  1
  Cl  Cl45  1  0.328385  0.238583  0.330011  1
  Cl  Cl46  1  0.460396  0.991336  0.672058  1
  Cl  Cl47  1  0.008664  0.469060  0.672058  1
  O  O48  1  0.465798  0.723532  0.201111  1
  O  O49  1  0.276468  0.742266  0.201111  1
  O  O50  1  0.614680  0.410064  0.878560  1
  O  O51  1  0.956570  0.871259  0.536348  1
  O  O52  1  0.868541  0.922604  0.786525  1
  O  O53  1  0.795384  0.385320  0.878560  1
  O  O54  1  0.589936  0.204616  0.878560  1
  O  O55  1  0.054063  0.131459  0.786525  1
  O  O56  1  0.402711  0.603850  0.448540  1
  O  O57  1  0.396150  0.798861  0.448540  1
  O  O58  1  0.712180  0.250502  0.131361  1
  O  O59  1  0.749498  0.461678  0.131361  1
  O  O60  1  0.257734  0.534202  0.201111  1
  O  O61  1  0.538322  0.287820  0.131361  1
  O  O62  1  0.128741  0.085311  0.536348  1
  O  O63  1  0.201139  0.597289  0.448540  1
  O  O64  1  0.914689  0.043430  0.536348  1
  O  O65  1  0.077396  0.945937  0.786525  1
