# generated using pymatgen
data_KNiPS4
_symmetry_space_group_name_H-M   'P 1'
_cell_length_a   8.41161279
_cell_length_b   8.41161279
_cell_length_c   10.95811555
_cell_angle_alpha   90.00000000
_cell_angle_beta   90.00000000
_cell_angle_gamma   90.00000000
_symmetry_Int_Tables_number   1
_chemical_formula_structural   KNiPS4
_chemical_formula_sum   'K4 Ni4 P4 S16'
_cell_volume   775.34398314
_cell_formula_units_Z   4
loop_
 _symmetry_equiv_pos_site_id
 _symmetry_equiv_pos_as_xyz
  1  'x, y, z'
loop_
 _atom_site_type_symbol
 _atom_site_label
 _atom_site_symmetry_multiplicity
 _atom_site_fract_x
 _atom_site_fract_y
 _atom_site_fract_z
 _atom_site_occupancy
  K  K0  1  0.000000  0.500000  0.250000  1
  K  K1  1  0.500000  0.000000  0.750000  1
  K  K2  1  0.500000  0.000000  0.250000  1
  K  K3  1  0.000000  0.500000  0.750000  1
  Ni  Ni4  1  0.500000  0.500000  0.500000  1
  Ni  Ni5  1  0.000000  0.000000  0.000000  1
  Ni  Ni6  1  0.000000  0.000000  0.500000  1
  Ni  Ni7  1  0.500000  0.500000  0.000000  1
  P  P8  1  0.249393  0.750607  0.500000  1
  P  P9  1  0.750607  0.249393  0.500000  1
  P  P10  1  0.250607  0.250607  0.000000  1
  P  P11  1  0.749393  0.749393  0.000000  1
  S  S12  1  0.262259  0.006188  0.000000  1
  S  S13  1  0.993812  0.737741  0.000000  1
  S  S14  1  0.506188  0.237741  0.500000  1
  S  S15  1  0.006188  0.262259  0.000000  1
  S  S16  1  0.493812  0.762259  0.500000  1
  S  S17  1  0.865404  0.134596  0.640005  1
  S  S18  1  0.737741  0.993812  0.000000  1
  S  S19  1  0.365404  0.365404  0.140005  1
  S  S20  1  0.237741  0.506188  0.500000  1
  S  S21  1  0.865404  0.134596  0.359995  1
  S  S22  1  0.762259  0.493812  0.500000  1
  S  S23  1  0.365404  0.365404  0.859995  1
  S  S24  1  0.634596  0.634596  0.859995  1
  S  S25  1  0.634596  0.634596  0.140005  1
  S  S26  1  0.134596  0.865404  0.359995  1
  S  S27  1  0.134596  0.865404  0.640005  1
