# generated using pymatgen
data_LuP2H4NO7
_symmetry_space_group_name_H-M   'P 1'
_cell_length_a   7.73401932
_cell_length_b   10.99371201
_cell_length_c   8.74928562
_cell_angle_alpha   90.00000000
_cell_angle_beta   106.15337231
_cell_angle_gamma   90.00000000
_symmetry_Int_Tables_number   1
_chemical_formula_structural   LuP2H4NO7
_chemical_formula_sum   'Lu4 P8 H16 N4 O28'
_cell_volume   714.54371178
_cell_formula_units_Z   4
loop_
 _symmetry_equiv_pos_site_id
 _symmetry_equiv_pos_as_xyz
  1  'x, y, z'
loop_
 _atom_site_type_symbol
 _atom_site_label
 _atom_site_symmetry_multiplicity
 _atom_site_fract_x
 _atom_site_fract_y
 _atom_site_fract_z
 _atom_site_occupancy
  Lu  Lu0  1  0.764348  0.399615  0.243593  1
  Lu  Lu1  1  0.235652  0.899615  0.256407  1
  Lu  Lu2  1  0.235652  0.600385  0.756407  1
  Lu  Lu3  1  0.764348  0.100385  0.743593  1
  P  P4  1  0.871986  0.400381  0.676090  1
  P  P5  1  0.128014  0.900381  0.823910  1
  P  P6  1  0.128014  0.599619  0.323910  1
  P  P7  1  0.871986  0.099619  0.176090  1
  P  P8  1  0.566267  0.365751  0.811646  1
  P  P9  1  0.433733  0.865751  0.688354  1
  P  P10  1  0.433733  0.634249  0.188354  1
  P  P11  1  0.566267  0.134249  0.311646  1
  H  H12  1  0.157937  0.297812  0.950711  1
  H  H13  1  0.842063  0.797812  0.549289  1
  H  H14  1  0.842063  0.702188  0.049289  1
  H  H15  1  0.157937  0.202188  0.450711  1
  H  H16  1  0.177487  0.415582  0.074335  1
  H  H17  1  0.822513  0.915582  0.425665  1
  H  H18  1  0.822513  0.584418  0.925665  1
  H  H19  1  0.177487  0.084418  0.574335  1
  H  H20  1  0.099120  0.283601  0.120581  1
  H  H21  1  0.900880  0.783601  0.379419  1
  H  H22  1  0.900880  0.716399  0.879419  1
  H  H23  1  0.099120  0.216399  0.620581  1
  H  H24  1  0.322671  0.297489  0.131839  1
  H  H25  1  0.677329  0.797489  0.368161  1
  H  H26  1  0.677329  0.702511  0.868161  1
  H  H27  1  0.322671  0.202511  0.631839  1
  N  N28  1  0.191178  0.322771  0.068855  1
  N  N29  1  0.808822  0.822771  0.431145  1
  N  N30  1  0.808822  0.677229  0.931145  1
  N  N31  1  0.191178  0.177229  0.568855  1
  O  O32  1  0.850420  0.407449  0.498761  1
  O  O33  1  0.149580  0.907449  0.001239  1
  O  O34  1  0.149580  0.592551  0.501239  1
  O  O35  1  0.850420  0.092551  0.998761  1
  O  O36  1  0.927841  0.228380  0.242952  1
  O  O37  1  0.072159  0.728380  0.257048  1
  O  O38  1  0.072159  0.771620  0.757048  1
  O  O39  1  0.927841  0.271620  0.742952  1
  O  O40  1  0.678119  0.385175  0.983342  1
  O  O41  1  0.321881  0.885175  0.516658  1
  O  O42  1  0.321881  0.614825  0.016658  1
  O  O43  1  0.678119  0.114825  0.483342  1
  O  O44  1  0.001397  0.502699  0.227304  1
  O  O45  1  0.998603  0.002699  0.272696  1
  O  O46  1  0.998603  0.497301  0.772696  1
  O  O47  1  0.001397  0.997301  0.727304  1
  O  O48  1  0.614973  0.569512  0.228512  1
  O  O49  1  0.385027  0.069512  0.271488  1
  O  O50  1  0.385027  0.430488  0.771488  1
  O  O51  1  0.614973  0.930488  0.728512  1
  O  O52  1  0.545785  0.268716  0.259812  1
  O  O53  1  0.454215  0.768716  0.240188  1
  O  O54  1  0.454215  0.731284  0.740188  1
  O  O55  1  0.545785  0.231284  0.759812  1
  O  O56  1  0.675581  0.431898  0.699621  1
  O  O57  1  0.324419  0.931898  0.800379  1
  O  O58  1  0.324419  0.568102  0.300379  1
  O  O59  1  0.675581  0.068102  0.199621  1
