# generated using pymatgen
data_K4CO6
_symmetry_space_group_name_H-M   'P 1'
_cell_length_a   5.37121561
_cell_length_b   5.80053785
_cell_length_c   7.39656877
_cell_angle_alpha   91.16341864
_cell_angle_beta   93.46136843
_cell_angle_gamma   109.97496653
_symmetry_Int_Tables_number   1
_chemical_formula_structural   K4CO6
_chemical_formula_sum   'K4 C1 O6'
_cell_volume   215.98285252
_cell_formula_units_Z   1
loop_
 _symmetry_equiv_pos_site_id
 _symmetry_equiv_pos_as_xyz
  1  'x, y, z'
loop_
 _atom_site_type_symbol
 _atom_site_label
 _atom_site_symmetry_multiplicity
 _atom_site_fract_x
 _atom_site_fract_y
 _atom_site_fract_z
 _atom_site_occupancy
  K  K0  1  0.651346  0.450142  0.769060  1
  K  K1  1  0.067928  0.057104  0.004561  1
  K  K2  1  0.035198  0.071666  0.480973  1
  K  K3  1  0.325911  0.684631  0.284929  1
  C  C4  1  0.720424  0.415423  0.247507  1
  O  O5  1  0.883753  0.301288  0.217055  1
  O  O6  1  0.426470  0.833271  0.647825  1
  O  O7  1  0.128771  0.378290  0.758052  1
  O  O8  1  0.797880  0.654983  0.233860  1
  O  O9  1  0.480502  0.293389  0.291460  1
  O  O10  1  0.644001  0.935508  0.759218  1
