# generated using pymatgen
data_Ge9(Sb5Te12)2
_symmetry_space_group_name_H-M   'P 1'
_cell_length_a   6.14296365
_cell_length_b   6.19640209
_cell_length_c   37.14435867
_cell_angle_alpha   91.06142976
_cell_angle_beta   90.53423179
_cell_angle_gamma   90.35435479
_symmetry_Int_Tables_number   1
_chemical_formula_structural   Ge9(Sb5Te12)2
_chemical_formula_sum   'Ge9 Sb10 Te24'
_cell_volume   1413.54036596
_cell_formula_units_Z   1
loop_
 _symmetry_equiv_pos_site_id
 _symmetry_equiv_pos_as_xyz
  1  'x, y, z'
loop_
 _atom_site_type_symbol
 _atom_site_label
 _atom_site_symmetry_multiplicity
 _atom_site_fract_x
 _atom_site_fract_y
 _atom_site_fract_z
 _atom_site_occupancy
  Ge  Ge0  1  0.538275  0.457496  0.912941  1
  Ge  Ge1  1  0.565083  0.459209  0.744508  1
  Ge  Ge2  1  0.528672  0.470556  0.584159  1
  Ge  Ge3  1  0.527149  0.472483  0.085169  1
  Ge  Ge4  1  0.008106  0.523922  0.825592  1
  Ge  Ge5  1  0.021757  0.959825  0.419209  1
  Ge  Ge6  1  0.003591  0.980739  0.592532  1
  Ge  Ge7  1  0.020974  0.959519  0.251495  1
  Ge  Ge8  1  0.009323  0.967728  0.080574  1
  Sb  Sb9  1  0.996445  0.489563  0.505891  1
  Sb  Sb10  1  0.973343  0.488788  0.341980  1
  Sb  Sb11  1  0.988762  0.490182  0.174763  1
  Sb  Sb12  1  0.994886  0.489231  0.991313  1
  Sb  Sb13  1  0.475610  0.972833  0.839069  1
  Sb  Sb14  1  0.495146  0.978435  0.503310  1
  Sb  Sb15  1  0.482722  0.951523  0.674037  1
  Sb  Sb16  1  0.490351  0.964836  0.341947  1
  Sb  Sb17  1  0.493265  0.983520  0.176574  1
  Sb  Sb18  1  0.501146  0.985473  0.000009  1
  Te  Te19  1  0.993536  0.992476  0.002610  1
  Te  Te20  1  0.012565  0.992870  0.831293  1
  Te  Te21  1  0.002716  0.008043  0.663777  1
  Te  Te22  1  0.994834  0.996653  0.332584  1
  Te  Te23  1  0.495027  0.492852  0.998995  1
  Te  Te24  1  0.506800  0.496048  0.832806  1
  Te  Te25  1  0.494585  0.490388  0.498590  1
  Te  Te26  1  0.506445  0.491543  0.664962  1
  Te  Te27  1  0.492442  0.498310  0.328073  1
  Te  Te28  1  0.492899  0.491869  0.163398  1
  Te  Te29  1  0.006428  0.502385  0.753564  1
  Te  Te30  1  0.992601  0.500891  0.916375  1
  Te  Te31  1  0.999419  0.500269  0.583208  1
  Te  Te32  1  0.000625  0.510838  0.417501  1
  Te  Te33  1  0.006027  0.512568  0.250763  1
  Te  Te34  1  0.990403  0.508854  0.084146  1
  Te  Te35  1  0.483678  0.006563  0.917689  1
  Te  Te36  1  0.484224  0.010865  0.749421  1
  Te  Te37  1  0.504546  0.006719  0.582141  1
  Te  Te38  1  0.488461  0.012744  0.417755  1
  Te  Te39  1  0.490386  0.010835  0.251382  1
  Te  Te40  1  0.494746  0.003671  0.082010  1
  Te  Te41  1  0.997602  0.988969  0.497881  1
  Te  Te42  1  0.992400  0.995920  0.167670  1
