# generated using pymatgen
data_H5IO6
_symmetry_space_group_name_H-M   'P 1'
_cell_length_a   4.92196303
_cell_length_b   18.46406237
_cell_length_c   5.51926830
_cell_angle_alpha   90.00000000
_cell_angle_beta   110.29835889
_cell_angle_gamma   90.00000000
_symmetry_Int_Tables_number   1
_chemical_formula_structural   H5IO6
_chemical_formula_sum   'H20 I4 O24'
_cell_volume   470.43879102
_cell_formula_units_Z   4
loop_
 _symmetry_equiv_pos_site_id
 _symmetry_equiv_pos_as_xyz
  1  'x, y, z'
loop_
 _atom_site_type_symbol
 _atom_site_label
 _atom_site_symmetry_multiplicity
 _atom_site_fract_x
 _atom_site_fract_y
 _atom_site_fract_z
 _atom_site_occupancy
  H  H0  1  0.638579  0.545465  0.977907  1
  H  H1  1  0.954635  0.993006  0.651587  1
  H  H2  1  0.045365  0.493006  0.348413  1
  H  H3  1  0.361421  0.045465  0.022093  1
  H  H4  1  0.196538  0.609630  0.511628  1
  H  H5  1  0.589957  0.979876  0.910538  1
  H  H6  1  0.410043  0.479876  0.089462  1
  H  H7  1  0.803462  0.109630  0.488372  1
  H  H8  1  0.355887  0.965264  0.397348  1
  H  H9  1  0.644113  0.465264  0.602652  1
  H  H10  1  0.789146  0.690244  0.110936  1
  H  H11  1  0.335544  0.800197  0.646035  1
  H  H12  1  0.664456  0.300197  0.353965  1
  H  H13  1  0.210854  0.190244  0.889064  1
  H  H14  1  0.758477  0.864127  0.159719  1
  H  H15  1  0.241523  0.364127  0.840281  1
  H  H16  1  0.491959  0.706944  0.335421  1
  H  H17  1  0.994977  0.773230  0.884217  1
  H  H18  1  0.005023  0.273230  0.115783  1
  H  H19  1  0.508041  0.206944  0.664579  1
  I  I20  1  0.172325  0.615715  0.026199  1
  I  I21  1  0.738022  0.872295  0.594671  1
  I  I22  1  0.261978  0.372295  0.405329  1
  I  I23  1  0.827675  0.115715  0.973801  1
  O  O24  1  0.460868  0.534904  0.047416  1
  O  O25  1  0.020727  0.944825  0.606264  1
  O  O26  1  0.979273  0.444825  0.393736  1
  O  O27  1  0.539132  0.034904  0.952584  1
  O  O28  1  0.185314  0.575110  0.352975  1
  O  O29  1  0.659463  0.909538  0.874764  1
  O  O30  1  0.340537  0.409538  0.125236  1
  O  O31  1  0.814686  0.075110  0.647025  1
  O  O32  1  0.855506  0.557837  0.871729  1
  O  O33  1  0.434268  0.923618  0.331552  1
  O  O34  1  0.565732  0.423618  0.668448  1
  O  O35  1  0.144494  0.057837  0.128271  1
  O  O36  1  0.970894  0.701792  0.070866  1
  O  O37  1  0.492381  0.788570  0.574980  1
  O  O38  1  0.507619  0.288570  0.425020  1
  O  O39  1  0.029106  0.201792  0.929134  1
  O  O40  1  0.215356  0.650507  0.734220  1
  O  O41  1  0.814920  0.829815  0.311591  1
  O  O42  1  0.185080  0.329815  0.688409  1
  O  O43  1  0.784644  0.150507  0.265780  1
  O  O44  1  0.530800  0.669449  0.222477  1
  O  O45  1  0.061640  0.815913  0.805922  1
  O  O46  1  0.938360  0.315913  0.194078  1
  O  O47  1  0.469200  0.169449  0.777523  1
