# generated using pymatgen
data_TlPbCl3
_symmetry_space_group_name_H-M   'P 1'
_cell_length_a   12.10245823
_cell_length_b   11.68587753
_cell_length_c   11.57326313
_cell_angle_alpha   62.70674582
_cell_angle_beta   59.10192164
_cell_angle_gamma   58.19133254
_symmetry_Int_Tables_number   1
_chemical_formula_structural   TlPbCl3
_chemical_formula_sum   'Tl8 Pb8 Cl24'
_cell_volume   1153.26007084
_cell_formula_units_Z   8
loop_
 _symmetry_equiv_pos_site_id
 _symmetry_equiv_pos_as_xyz
  1  'x, y, z'
loop_
 _atom_site_type_symbol
 _atom_site_label
 _atom_site_symmetry_multiplicity
 _atom_site_fract_x
 _atom_site_fract_y
 _atom_site_fract_z
 _atom_site_occupancy
  Tl  Tl0  1  0.844610  0.474252  0.155390  1
  Tl  Tl1  1  0.474252  0.844610  0.525748  1
  Tl  Tl2  1  0.026811  0.974915  0.649572  1
  Tl  Tl3  1  0.350428  0.651298  0.973189  1
  Tl  Tl4  1  0.502650  0.004042  0.995958  1
  Tl  Tl5  1  0.651298  0.350428  0.025085  1
  Tl  Tl6  1  0.974915  0.026811  0.348702  1
  Tl  Tl7  1  0.004042  0.502650  0.497350  1
  Pb  Pb8  1  0.752794  0.752794  0.747206  1
  Pb  Pb9  1  0.134249  0.134249  0.865751  1
  Pb  Pb10  1  0.657840  0.361413  0.638587  1
  Pb  Pb11  1  0.507643  0.160673  0.492357  1
  Pb  Pb12  1  0.361413  0.657840  0.342160  1
  Pb  Pb13  1  0.160673  0.507643  0.839327  1
  Pb  Pb14  1  0.850329  0.850329  0.149671  1
  Pb  Pb15  1  0.252794  0.252794  0.247206  1
  Cl  Cl16  1  0.936108  0.438674  0.839998  1
  Cl  Cl17  1  0.668091  0.573242  0.699668  1
  Cl  Cl18  1  0.686531  0.686531  0.313469  1
  Cl  Cl19  1  0.438674  0.936108  0.785221  1
  Cl  Cl20  1  0.214779  0.160002  0.561326  1
  Cl  Cl21  1  0.802599  0.185292  0.814708  1
  Cl  Cl22  1  0.573242  0.668091  0.058999  1
  Cl  Cl23  1  0.941001  0.300332  0.426758  1
  Cl  Cl24  1  0.109915  0.888968  0.890085  1
  Cl  Cl25  1  0.615798  0.363400  0.384202  1
  Cl  Cl26  1  0.160002  0.214779  0.063892  1
  Cl  Cl27  1  0.300332  0.941001  0.331909  1
  Cl  Cl28  1  0.693262  0.065561  0.655393  1
  Cl  Cl29  1  0.856608  0.782165  0.919781  1
  Cl  Cl30  1  0.888968  0.109915  0.111032  1
  Cl  Cl31  1  0.363400  0.615798  0.636600  1
  Cl  Cl32  1  0.065561  0.693262  0.585784  1
  Cl  Cl33  1  0.414216  0.344607  0.934439  1
  Cl  Cl34  1  0.185292  0.802599  0.197401  1
  Cl  Cl35  1  0.782165  0.856608  0.441446  1
  Cl  Cl36  1  0.558554  0.080219  0.217835  1
  Cl  Cl37  1  0.313334  0.313334  0.686666  1
  Cl  Cl38  1  0.344607  0.414216  0.306738  1
  Cl  Cl39  1  0.080219  0.558554  0.143392  1
