# generated using pymatgen
data_K10Co4O9
_symmetry_space_group_name_H-M   'P 1'
_cell_length_a   6.81673956
_cell_length_b   9.13905530
_cell_length_c   9.17122370
_cell_angle_alpha   119.18361092
_cell_angle_beta   109.64798746
_cell_angle_gamma   91.50392124
_symmetry_Int_Tables_number   1
_chemical_formula_structural   K10Co4O9
_chemical_formula_sum   'K10 Co4 O9'
_cell_volume   457.04179747
_cell_formula_units_Z   1
loop_
 _symmetry_equiv_pos_site_id
 _symmetry_equiv_pos_as_xyz
  1  'x, y, z'
loop_
 _atom_site_type_symbol
 _atom_site_label
 _atom_site_symmetry_multiplicity
 _atom_site_fract_x
 _atom_site_fract_y
 _atom_site_fract_z
 _atom_site_occupancy
  K  K0  1  0.088060  0.222295  0.938042  1
  K  K1  1  0.057686  0.599250  0.340324  1
  K  K2  1  0.262839  0.050389  0.510526  1
  K  K3  1  0.458041  0.490192  0.676188  1
  K  K4  1  0.556802  0.938415  0.814610  1
  K  K5  1  0.450029  0.070116  0.178173  1
  K  K6  1  0.550138  0.514946  0.328438  1
  K  K7  1  0.740384  0.932820  0.473850  1
  K  K8  1  0.923947  0.400995  0.654392  1
  K  K9  1  0.908553  0.778306  0.066436  1
  Co  Co10  1  0.037543  0.787892  0.742117  1
  Co  Co11  1  0.660311  0.347848  0.953958  1
  Co  Co12  1  0.372778  0.674757  0.065318  1
  Co  Co13  1  0.964133  0.214899  0.261115  1
  O  O14  1  0.135229  0.927681  0.682029  1
  O  O15  1  0.263211  0.706445  0.869163  1
  O  O16  1  0.227511  0.311878  0.300396  1
  O  O17  1  0.309597  0.748985  0.262041  1
  O  O18  1  0.672997  0.235711  0.733066  1
  O  O19  1  0.770905  0.689866  0.696504  1
  O  O20  1  0.623823  0.577715  0.075135  1
  O  O21  1  0.717056  0.267073  0.116829  1
  O  O22  1  0.874125  0.087228  0.337648  1
