# generated using pymatgen
data_Cd3H2CSeO8
_symmetry_space_group_name_H-M   'P 1'
_cell_length_a   6.68934242
_cell_length_b   10.57444066
_cell_length_c   10.65092034
_cell_angle_alpha   90.00000000
_cell_angle_beta   90.00000000
_cell_angle_gamma   90.00000000
_symmetry_Int_Tables_number   1
_chemical_formula_structural   Cd3H2CSeO8
_chemical_formula_sum   'Cd12 H8 C4 Se4 O32'
_cell_volume   753.40408138
_cell_formula_units_Z   4
loop_
 _symmetry_equiv_pos_site_id
 _symmetry_equiv_pos_as_xyz
  1  'x, y, z'
loop_
 _atom_site_type_symbol
 _atom_site_label
 _atom_site_symmetry_multiplicity
 _atom_site_fract_x
 _atom_site_fract_y
 _atom_site_fract_z
 _atom_site_occupancy
  Cd  Cd0  1  0.470462  0.667429  0.545495  1
  Cd  Cd1  1  0.970462  0.832571  0.954505  1
  Cd  Cd2  1  0.529538  0.332571  0.045495  1
  Cd  Cd3  1  0.029538  0.167429  0.454505  1
  Cd  Cd4  1  0.529538  0.332571  0.454505  1
  Cd  Cd5  1  0.029538  0.167429  0.045495  1
  Cd  Cd6  1  0.470462  0.667429  0.954505  1
  Cd  Cd7  1  0.970462  0.832571  0.545495  1
  Cd  Cd8  1  0.251202  0.873513  0.250000  1
  Cd  Cd9  1  0.751202  0.626487  0.250000  1
  Cd  Cd10  1  0.748798  0.126487  0.750000  1
  Cd  Cd11  1  0.248798  0.373513  0.750000  1
  H  H12  1  0.357860  0.903525  0.489878  1
  H  H13  1  0.857860  0.596475  0.010122  1
  H  H14  1  0.642140  0.096475  0.989878  1
  H  H15  1  0.142140  0.403525  0.510122  1
  H  H16  1  0.642140  0.096475  0.510122  1
  H  H17  1  0.142140  0.403525  0.989878  1
  H  H18  1  0.357860  0.903525  0.010122  1
  H  H19  1  0.857860  0.596475  0.489878  1
  C  C20  1  0.625471  0.851756  0.750000  1
  C  C21  1  0.125471  0.648244  0.750000  1
  C  C22  1  0.374529  0.148244  0.250000  1
  C  C23  1  0.874529  0.351756  0.250000  1
  Se  Se24  1  0.752378  0.974407  0.250000  1
  Se  Se25  1  0.252378  0.525593  0.250000  1
  Se  Se26  1  0.247622  0.025593  0.750000  1
  Se  Se27  1  0.747622  0.474407  0.750000  1
  O  O28  1  0.618993  0.835591  0.250000  1
  O  O29  1  0.118993  0.664409  0.250000  1
  O  O30  1  0.381007  0.164409  0.750000  1
  O  O31  1  0.881007  0.335591  0.750000  1
  O  O32  1  0.926153  0.960083  0.128881  1
  O  O33  1  0.426153  0.539917  0.371119  1
  O  O34  1  0.073847  0.039917  0.628881  1
  O  O35  1  0.573847  0.460083  0.871119  1
  O  O36  1  0.073847  0.039917  0.871119  1
  O  O37  1  0.573847  0.460083  0.628881  1
  O  O38  1  0.926153  0.960083  0.371119  1
  O  O39  1  0.426153  0.539917  0.128881  1
  O  O40  1  0.547159  0.738255  0.750000  1
  O  O41  1  0.047159  0.761745  0.750000  1
  O  O42  1  0.452841  0.261745  0.250000  1
  O  O43  1  0.952841  0.238255  0.250000  1
  O  O44  1  0.289412  0.826510  0.462821  1
  O  O45  1  0.789412  0.673490  0.037179  1
  O  O46  1  0.710588  0.173490  0.962821  1
  O  O47  1  0.210588  0.326510  0.537179  1
  O  O48  1  0.710588  0.173490  0.537179  1
  O  O49  1  0.210588  0.326510  0.962821  1
  O  O50  1  0.289412  0.826510  0.037179  1
  O  O51  1  0.789412  0.673490  0.462821  1
  O  O52  1  0.661953  0.908221  0.644121  1
  O  O53  1  0.161953  0.591779  0.855879  1
  O  O54  1  0.338047  0.091779  0.144121  1
  O  O55  1  0.838047  0.408221  0.355879  1
  O  O56  1  0.338047  0.091779  0.355879  1
  O  O57  1  0.838047  0.408221  0.144121  1
  O  O58  1  0.661953  0.908221  0.855879  1
  O  O59  1  0.161953  0.591779  0.644121  1
