# generated using pymatgen
data_Na2Al2Si3(HO3)4
_symmetry_space_group_name_H-M   'P 1'
_cell_length_a   8.07982240
_cell_length_b   8.46159432
_cell_length_c   8.94236953
_cell_angle_alpha   103.17896322
_cell_angle_beta   99.96410290
_cell_angle_gamma   96.66141605
_symmetry_Int_Tables_number   1
_chemical_formula_structural   Na2Al2Si3(HO3)4
_chemical_formula_sum   'Na4 Al4 Si6 H8 O24'
_cell_volume   578.53842634
_cell_formula_units_Z   2
loop_
 _symmetry_equiv_pos_site_id
 _symmetry_equiv_pos_as_xyz
  1  'x, y, z'
loop_
 _atom_site_type_symbol
 _atom_site_label
 _atom_site_symmetry_multiplicity
 _atom_site_fract_x
 _atom_site_fract_y
 _atom_site_fract_z
 _atom_site_occupancy
  Na  Na0  1  0.979868  0.746028  0.285995  1
  Na  Na1  1  0.601527  0.201780  0.595456  1
  Na  Na2  1  0.222556  0.976184  0.676760  1
  Na  Na3  1  0.981978  0.315387  0.797445  1
  Al  Al4  1  0.053339  0.135825  0.403261  1
  Al  Al5  1  0.859658  0.450491  0.422700  1
  Al  Al6  1  0.852130  0.857953  0.571944  1
  Al  Al7  1  0.552751  0.541764  0.211011  1
  Si  Si8  1  0.331582  0.945214  0.232827  1
  Si  Si9  1  0.404077  0.481054  0.830682  1
  Si  Si10  1  0.654900  0.178687  0.228536  1
  Si  Si11  1  0.694309  0.712573  0.971884  1
  Si  Si12  1  0.421121  0.747108  0.364707  1
  Si  Si13  1  0.917286  0.005010  0.901105  1
  H  H14  1  0.633635  0.106910  0.059793  1
  H  H15  1  0.199012  0.635125  0.879637  1
  H  H16  1  0.292233  0.374901  0.023458  1
  H  H17  1  0.823137  0.497761  0.676808  1
  H  H18  1  0.594429  0.852416  0.425539  1
  H  H19  1  0.078138  0.255084  0.169647  1
  H  H20  1  0.382653  0.710865  0.601275  1
  H  H21  1  0.393840  0.832208  0.992531  1
  O  O22  1  0.681415  0.681272  0.141490  1
  O  O23  1  0.039275  0.169617  0.007394  1
  O  O24  1  0.406071  0.421329  0.013459  1
  O  O25  1  0.044194  0.463542  0.331272  1
  O  O26  1  0.820309  0.881834  0.994488  1
  O  O27  1  0.124844  0.313023  0.295255  1
  O  O28  1  0.499369  0.097342  0.298905  1
  O  O29  1  0.969988  0.977499  0.482504  1
  O  O30  1  0.832851  0.399070  0.598531  1
  O  O31  1  0.762600  0.083307  0.799205  1
  O  O32  1  0.841539  0.193036  0.336992  1
  O  O33  1  0.160463  0.006766  0.275011  1
  O  O34  1  0.324527  0.757764  0.520969  1
  O  O35  1  0.650167  0.381105  0.266318  1
  O  O36  1  0.304753  0.883643  0.038547  1
  O  O37  1  0.183742  0.224858  0.611487  1
  O  O38  1  0.676860  0.955156  0.644361  1
  O  O39  1  0.496095  0.684683  0.866905  1
  O  O40  1  0.986283  0.884064  0.763992  1
  O  O41  1  0.767448  0.553210  0.869033  1
  O  O42  1  0.824849  0.656422  0.456356  1
  O  O43  1  0.360591  0.327177  0.660653  1
  O  O44  1  0.615101  0.420277  0.833636  1
  O  O45  1  0.202511  0.523674  0.820237  1
