# generated using pymatgen
data_LiNb(PO4)2
_symmetry_space_group_name_H-M   'P 1'
_cell_length_a   5.20257343
_cell_length_b   7.78605838
_cell_length_c   7.84919828
_cell_angle_alpha   90.00000000
_cell_angle_beta   93.89745390
_cell_angle_gamma   90.00000000
_symmetry_Int_Tables_number   1
_chemical_formula_structural   LiNb(PO4)2
_chemical_formula_sum   'Li2 Nb2 P4 O16'
_cell_volume   317.21638998
_cell_formula_units_Z   2
loop_
 _symmetry_equiv_pos_site_id
 _symmetry_equiv_pos_as_xyz
  1  'x, y, z'
loop_
 _atom_site_type_symbol
 _atom_site_label
 _atom_site_symmetry_multiplicity
 _atom_site_fract_x
 _atom_site_fract_y
 _atom_site_fract_z
 _atom_site_occupancy
  Li  Li0  1  0.339279  0.119882  0.829086  1
  Li  Li1  1  0.660721  0.619882  0.170914  1
  Nb  Nb2  1  0.749706  0.008833  0.254267  1
  Nb  Nb3  1  0.250294  0.508833  0.745733  1
  P  P4  1  0.790412  0.311607  0.952297  1
  P  P5  1  0.209588  0.811607  0.047703  1
  P  P6  1  0.716080  0.689967  0.541122  1
  P  P7  1  0.283920  0.189967  0.458878  1
  O  O8  1  0.474960  0.685017  0.652754  1
  O  O9  1  0.180841  0.935725  0.905025  1
  O  O10  1  0.236341  0.377972  0.521653  1
  O  O11  1  0.273755  0.624889  0.982795  1
  O  O12  1  0.447110  0.855289  0.178428  1
  O  O13  1  0.308692  0.065252  0.600683  1
  O  O14  1  0.691308  0.565252  0.399317  1
  O  O15  1  0.525040  0.185017  0.347246  1
  O  O16  1  0.552890  0.355289  0.821572  1
  O  O17  1  0.763659  0.877972  0.478347  1
  O  O18  1  0.726245  0.124889  0.017205  1
  O  O19  1  0.036291  0.310028  0.846317  1
  O  O20  1  0.963709  0.810028  0.153683  1
  O  O21  1  0.054814  0.141334  0.323614  1
  O  O22  1  0.819159  0.435725  0.094975  1
  O  O23  1  0.945186  0.641334  0.676386  1
