# generated using pymatgen
data_SbH3OF6
_symmetry_space_group_name_H-M   'P 1'
_cell_length_a   8.85682835
_cell_length_b   8.85682835
_cell_length_c   8.85682835
_cell_angle_alpha   109.47122063
_cell_angle_beta   109.47122063
_cell_angle_gamma   109.47122063
_symmetry_Int_Tables_number   1
_chemical_formula_structural   SbH3OF6
_chemical_formula_sum   'Sb4 H12 O4 F24'
_cell_volume   534.82634552
_cell_formula_units_Z   4
loop_
 _symmetry_equiv_pos_site_id
 _symmetry_equiv_pos_as_xyz
  1  'x, y, z'
loop_
 _atom_site_type_symbol
 _atom_site_label
 _atom_site_symmetry_multiplicity
 _atom_site_fract_x
 _atom_site_fract_y
 _atom_site_fract_z
 _atom_site_occupancy
  Sb  Sb0  1  0.500000  1.000000  0.014954  1
  Sb  Sb1  1  1.000000  0.014954  0.500000  1
  Sb  Sb2  1  0.014954  0.500000  0.000000  1
  Sb  Sb3  1  0.485046  0.485046  0.485046  1
  H  H4  1  0.375881  0.978965  0.489279  1
  H  H5  1  0.603084  0.124119  0.613398  1
  H  H6  1  0.521035  0.896916  0.510315  1
  H  H7  1  0.124119  0.613398  0.603084  1
  H  H8  1  0.896916  0.510315  0.521035  1
  H  H9  1  0.978965  0.489279  0.375881  1
  H  H10  1  0.510315  0.521035  0.896916  1
  H  H11  1  0.489279  0.375881  0.978965  1
  H  H12  1  0.613398  0.603084  0.124119  1
  H  H13  1  0.989685  0.886602  0.010721  1
  H  H14  1  0.010721  0.989685  0.886602  1
  H  H15  1  0.886602  0.010721  0.989685  1
  O  O16  1  0.500000  1.000000  0.506842  1
  O  O17  1  0.000000  0.506842  0.500000  1
  O  O18  1  0.506842  0.500000  0.000000  1
  O  O19  1  0.993158  0.993158  0.993158  1
  F  F20  1  0.665469  0.206063  0.257836  1
  F  F21  1  0.540595  0.834531  0.092367  1
  F  F22  1  0.293937  0.959405  0.051772  1
  F  F23  1  0.834531  0.092367  0.540595  1
  F  F24  1  0.959405  0.051772  0.293937  1
  F  F25  1  0.206063  0.257836  0.665469  1
  F  F26  1  0.051772  0.293937  0.959405  1
  F  F27  1  0.257836  0.665469  0.206063  1
  F  F28  1  0.092367  0.540595  0.834531  1
  F  F29  1  0.448228  0.407633  0.242164  1
  F  F30  1  0.242164  0.448228  0.407633  1
  F  F31  1  0.407633  0.242164  0.448228  1
  F  F32  1  0.331039  0.801810  0.760060  1
  F  F33  1  0.470771  0.168961  0.929021  1
  F  F34  1  0.698190  0.029229  0.958250  1
  F  F35  1  0.168961  0.929021  0.470771  1
  F  F36  1  0.029229  0.958250  0.698190  1
  F  F37  1  0.801810  0.760060  0.331039  1
  F  F38  1  0.958250  0.698190  0.029229  1
  F  F39  1  0.760060  0.331039  0.801810  1
  F  F40  1  0.929021  0.470771  0.168961  1
  F  F41  1  0.541750  0.570979  0.739940  1
  F  F42  1  0.739940  0.541750  0.570979  1
  F  F43  1  0.570979  0.739940  0.541750  1
