# generated using pymatgen
data_W6CCl16
_symmetry_space_group_name_H-M   'P 1'
_cell_length_a   10.10145503
_cell_length_b   13.17703680
_cell_length_c   17.15814563
_cell_angle_alpha   90.00000000
_cell_angle_beta   90.00000000
_cell_angle_gamma   90.00000000
_symmetry_Int_Tables_number   1
_chemical_formula_structural   W6CCl16
_chemical_formula_sum   'W24 C4 Cl64'
_cell_volume   2283.87348835
_cell_formula_units_Z   4
loop_
 _symmetry_equiv_pos_site_id
 _symmetry_equiv_pos_as_xyz
  1  'x, y, z'
loop_
 _atom_site_type_symbol
 _atom_site_label
 _atom_site_symmetry_multiplicity
 _atom_site_fract_x
 _atom_site_fract_y
 _atom_site_fract_z
 _atom_site_occupancy
  W  W0  1  0.882137  0.150253  0.728065  1
  W  W1  1  0.382137  0.650253  0.771935  1
  W  W2  1  0.157260  0.349776  0.655010  1
  W  W3  1  0.342740  0.150224  0.155010  1
  W  W4  1  0.342740  0.349776  0.155010  1
  W  W5  1  0.382137  0.849747  0.771935  1
  W  W6  1  0.286486  0.750000  0.894914  1
  W  W7  1  0.657260  0.650224  0.844990  1
  W  W8  1  0.157260  0.150224  0.655010  1
  W  W9  1  0.117863  0.849747  0.271935  1
  W  W10  1  0.617863  0.150253  0.228065  1
  W  W11  1  0.842740  0.849776  0.344990  1
  W  W12  1  0.213514  0.750000  0.394914  1
  W  W13  1  0.617863  0.349747  0.228065  1
  W  W14  1  0.842740  0.650224  0.344990  1
  W  W15  1  0.564473  0.750000  0.968940  1
  W  W16  1  0.435527  0.250000  0.031060  1
  W  W17  1  0.713514  0.250000  0.105086  1
  W  W18  1  0.935527  0.750000  0.468940  1
  W  W19  1  0.786486  0.250000  0.605086  1
  W  W20  1  0.117863  0.650253  0.271935  1
  W  W21  1  0.064473  0.250000  0.531060  1
  W  W22  1  0.657260  0.849776  0.844990  1
  W  W23  1  0.882137  0.349747  0.728065  1
  C  C24  1  0.989458  0.250000  0.651507  1
  C  C25  1  0.010542  0.750000  0.348493  1
  C  C26  1  0.489458  0.750000  0.848493  1
  C  C27  1  0.510542  0.250000  0.151507  1
  Cl  Cl28  1  0.900212  0.864942  0.205750  1
  Cl  Cl29  1  0.880041  0.130802  0.509178  1
  Cl  Cl30  1  0.619959  0.369198  0.009178  1
  Cl  Cl31  1  0.119959  0.869198  0.490822  1
  Cl  Cl32  1  0.741726  0.626634  0.975197  1
  Cl  Cl33  1  0.921155  0.750000  0.609178  1
  Cl  Cl34  1  0.777457  0.250000  0.827559  1
  Cl  Cl35  1  0.099788  0.364942  0.794250  1
  Cl  Cl36  1  0.578845  0.750000  0.109178  1
  Cl  Cl37  1  0.241726  0.126634  0.524803  1
  Cl  Cl38  1  0.676063  0.001103  0.322410  1
  Cl  Cl39  1  0.599788  0.864942  0.705750  1
  Cl  Cl40  1  0.488076  0.515252  0.850466  1
  Cl  Cl41  1  0.662881  0.375166  0.678612  1
  Cl  Cl42  1  0.852246  0.750000  0.822632  1
  Cl  Cl43  1  0.337119  0.875166  0.321388  1
  Cl  Cl44  1  0.162881  0.875166  0.821388  1
  Cl  Cl45  1  0.598861  0.250000  0.519560  1
  Cl  Cl46  1  0.880041  0.369198  0.509178  1
  Cl  Cl47  1  0.337119  0.624834  0.321388  1
  Cl  Cl48  1  0.011924  0.984748  0.350466  1
  Cl  Cl49  1  0.837119  0.124834  0.178612  1
  Cl  Cl50  1  0.258274  0.373366  0.024803  1
  Cl  Cl51  1  0.400212  0.135058  0.294250  1
  Cl  Cl52  1  0.176063  0.998897  0.177590  1
  Cl  Cl53  1  0.619959  0.130802  0.009178  1
  Cl  Cl54  1  0.380041  0.869198  0.990822  1
  Cl  Cl55  1  0.758274  0.873366  0.475197  1
  Cl  Cl56  1  0.241726  0.373366  0.524803  1
  Cl  Cl57  1  0.511924  0.484748  0.149534  1
  Cl  Cl58  1  0.988076  0.484748  0.649534  1
  Cl  Cl59  1  0.741726  0.873366  0.975197  1
  Cl  Cl60  1  0.421155  0.250000  0.890822  1
  Cl  Cl61  1  0.901139  0.250000  0.019560  1
  Cl  Cl62  1  0.258274  0.126634  0.024803  1
  Cl  Cl63  1  0.147754  0.250000  0.177368  1
  Cl  Cl64  1  0.823937  0.001103  0.822410  1
  Cl  Cl65  1  0.162881  0.624834  0.821388  1
  Cl  Cl66  1  0.758274  0.626634  0.475197  1
  Cl  Cl67  1  0.401139  0.750000  0.480440  1
  Cl  Cl68  1  0.511924  0.015252  0.149534  1
  Cl  Cl69  1  0.837119  0.375166  0.178612  1
  Cl  Cl70  1  0.488076  0.984748  0.850466  1
  Cl  Cl71  1  0.222543  0.750000  0.172441  1
  Cl  Cl72  1  0.662881  0.124834  0.678612  1
  Cl  Cl73  1  0.400212  0.364942  0.294250  1
  Cl  Cl74  1  0.599788  0.635058  0.705750  1
  Cl  Cl75  1  0.099788  0.135058  0.794250  1
  Cl  Cl76  1  0.647754  0.750000  0.322632  1
  Cl  Cl77  1  0.078845  0.250000  0.390822  1
  Cl  Cl78  1  0.823937  0.498897  0.822410  1
  Cl  Cl79  1  0.277457  0.750000  0.672441  1
  Cl  Cl80  1  0.352246  0.250000  0.677368  1
  Cl  Cl81  1  0.380041  0.630802  0.990822  1
  Cl  Cl82  1  0.323937  0.998897  0.677590  1
  Cl  Cl83  1  0.176063  0.501103  0.177590  1
  Cl  Cl84  1  0.119959  0.630802  0.490822  1
  Cl  Cl85  1  0.011924  0.515252  0.350466  1
  Cl  Cl86  1  0.098861  0.750000  0.980440  1
  Cl  Cl87  1  0.722543  0.250000  0.327559  1
  Cl  Cl88  1  0.676063  0.498897  0.322410  1
  Cl  Cl89  1  0.900212  0.635058  0.205750  1
  Cl  Cl90  1  0.323937  0.501103  0.677590  1
  Cl  Cl91  1  0.988076  0.015252  0.649534  1
