# generated using pymatgen
data_SF6
_symmetry_space_group_name_H-M   'P 1'
_cell_length_a   4.86664870
_cell_length_b   8.19580426
_cell_length_c   8.21407324
_cell_angle_alpha   60.91328921
_cell_angle_beta   85.50357121
_cell_angle_gamma   85.54885331
_symmetry_Int_Tables_number   1
_chemical_formula_structural   SF6
_chemical_formula_sum   'S3 F18'
_cell_volume   285.13393442
_cell_formula_units_Z   3
loop_
 _symmetry_equiv_pos_site_id
 _symmetry_equiv_pos_as_xyz
  1  'x, y, z'
loop_
 _atom_site_type_symbol
 _atom_site_label
 _atom_site_symmetry_multiplicity
 _atom_site_fract_x
 _atom_site_fract_y
 _atom_site_fract_z
 _atom_site_occupancy
  S  S0  1  0.000000  0.000000  0.000000  1
  S  S1  1  0.408903  0.668935  0.668444  1
  S  S2  1  0.591097  0.331065  0.331556  1
  F  F3  1  0.120301  0.902068  0.202375  1
  F  F4  1  0.879699  0.097932  0.797625  1
  F  F5  1  0.878246  0.807504  0.043161  1
  F  F6  1  0.121754  0.192496  0.956839  1
  F  F7  1  0.720819  0.053704  0.080455  1
  F  F8  1  0.279181  0.946296  0.919545  1
  F  F9  1  0.229451  0.587639  0.859978  1
  F  F10  1  0.770549  0.412361  0.140022  1
  F  F11  1  0.588037  0.750270  0.476976  1
  F  F12  1  0.411963  0.249730  0.523024  1
  F  F13  1  0.193549  0.596005  0.584431  1
  F  F14  1  0.806451  0.403995  0.415569  1
  F  F15  1  0.623721  0.740972  0.752968  1
  F  F16  1  0.376279  0.259028  0.247032  1
  F  F17  1  0.235968  0.862978  0.594037  1
  F  F18  1  0.764032  0.137022  0.405963  1
  F  F19  1  0.581118  0.474405  0.742925  1
  F  F20  1  0.418882  0.525595  0.257075  1
