# generated using pymatgen
data_Al2Cd(Si5O12)2
_symmetry_space_group_name_H-M   'P 1'
_cell_length_a   12.46796268
_cell_length_b   12.47639651
_cell_length_c   12.48803486
_cell_angle_alpha   108.69145950
_cell_angle_beta   109.58499983
_cell_angle_gamma   109.70024233
_symmetry_Int_Tables_number   1
_chemical_formula_structural   Al2Cd(Si5O12)2
_chemical_formula_sum   'Al4 Cd2 Si20 O48'
_cell_volume   1503.30374432
_cell_formula_units_Z   2
loop_
 _symmetry_equiv_pos_site_id
 _symmetry_equiv_pos_as_xyz
  1  'x, y, z'
loop_
 _atom_site_type_symbol
 _atom_site_label
 _atom_site_symmetry_multiplicity
 _atom_site_fract_x
 _atom_site_fract_y
 _atom_site_fract_z
 _atom_site_occupancy
  Al  Al0  1  0.146624  0.593434  0.297564  1
  Al  Al1  1  0.149905  0.297245  0.591635  1
  Al  Al2  1  0.453087  0.149511  0.851838  1
  Al  Al3  1  0.583539  0.149065  0.292259  1
  Cd  Cd4  1  0.348111  0.339986  0.903286  1
  Cd  Cd5  1  0.062289  0.421774  0.421606  1
  Si  Si6  1  0.703253  0.858293  0.307354  1
  Si  Si7  1  0.300674  0.846160  0.700333  1
  Si  Si8  1  0.395097  0.694636  0.549987  1
  Si  Si9  1  0.548597  0.700810  0.399257  1
  Si  Si10  1  0.452275  0.844986  0.147929  1
  Si  Si11  1  0.152913  0.846242  0.455929  1
  Si  Si12  1  0.303074  0.590546  0.148374  1
  Si  Si13  1  0.312447  0.699892  0.853759  1
  Si  Si14  1  0.859675  0.711446  0.316624  1
  Si  Si15  1  0.400472  0.549516  0.696206  1
  Si  Si16  1  0.699011  0.555798  0.405849  1
  Si  Si17  1  0.844481  0.452489  0.157455  1
  Si  Si18  1  0.156812  0.450091  0.852365  1
  Si  Si19  1  0.581172  0.309636  0.149242  1
  Si  Si20  1  0.709501  0.309543  0.861004  1
  Si  Si21  1  0.854357  0.308755  0.701978  1
  Si  Si22  1  0.547652  0.391748  0.695909  1
  Si  Si23  1  0.695374  0.398278  0.550058  1
  Si  Si24  1  0.840715  0.160946  0.441889  1
  Si  Si25  1  0.299736  0.146200  0.594003  1
  O  O26  1  0.371788  0.990832  0.817536  1
  O  O27  1  0.650794  0.828845  0.405268  1
  O  O28  1  0.400196  0.820919  0.648620  1
  O  O29  1  0.490635  0.986540  0.247282  1
  O  O30  1  0.261848  0.996396  0.510552  1
  O  O31  1  0.483302  0.742963  0.486645  1
  O  O32  1  0.169925  0.812815  0.576174  1
  O  O33  1  0.579201  0.821166  0.175128  1
  O  O34  1  0.341876  0.729943  0.151614  1
  O  O35  1  0.165294  0.747372  0.347985  1
  O  O36  1  0.240047  0.582796  0.435563  1
  O  O37  1  0.431653  0.595008  0.247633  1
  O  O38  1  0.007637  0.833320  0.397971  1
  O  O39  1  0.391240  0.820962  0.998566  1
  O  O40  1  0.183566  0.543387  0.175294  1
  O  O41  1  0.827368  0.657174  0.411682  1
  O  O42  1  0.410282  0.647226  0.827288  1
  O  O43  1  0.760176  0.762163  0.260604  1
  O  O44  1  0.249236  0.737107  0.744591  1
  O  O45  1  0.986675  0.473929  0.261393  1
  O  O46  1  0.260364  0.479208  0.998094  1
  O  O47  1  0.624676  0.629767  0.452573  1
  O  O48  1  0.456452  0.628309  0.628621  1
  O  O49  1  0.188784  0.578960  0.836368  1
  O  O50  1  0.844765  0.591259  0.197466  1
  O  O51  1  0.187943  0.349603  0.759396  1
  O  O52  1  0.726871  0.348745  0.161639  1
  O  O53  1  0.244012  0.439050  0.589779  1
  O  O54  1  0.594057  0.439554  0.254432  1
  O  O55  1  0.006890  0.381035  0.818904  1
  O  O56  1  0.830430  0.399954  0.013575  1
  O  O57  1  0.651455  0.402755  0.826145  1
  O  O58  1  0.827068  0.410379  0.657006  1
  O  O59  1  0.765487  0.260132  0.764659  1
  O  O60  1  0.994064  0.266738  0.483218  1
  O  O61  1  0.478674  0.275331  0.999847  1
  O  O62  1  0.483050  0.480710  0.742685  1
  O  O63  1  0.752269  0.503632  0.503747  1
  O  O64  1  0.622464  0.447875  0.626194  1
  O  O65  1  0.596109  0.185901  0.845220  1
  O  O66  1  0.834689  0.189949  0.577958  1
  O  O67  1  0.344279  0.183123  0.748371  1
  O  O68  1  0.748683  0.186246  0.341010  1
  O  O69  1  0.428422  0.241476  0.594956  1
  O  O70  1  0.594001  0.253996  0.432031  1
  O  O71  1  0.816612  0.011292  0.382773  1
  O  O72  1  0.179932  0.171932  0.540531  1
  O  O73  1  0.528916  0.185200  0.166720  1
