# generated using pymatgen
data_CeSb(SBr)2
_symmetry_space_group_name_H-M   'P 1'
_cell_length_a   8.86908714
_cell_length_b   9.42218419
_cell_length_c   18.02139742
_cell_angle_alpha   90.00000000
_cell_angle_beta   104.20778602
_cell_angle_gamma   90.00000000
_symmetry_Int_Tables_number   1
_chemical_formula_structural   CeSb(SBr)2
_chemical_formula_sum   'Ce8 Sb8 S16 Br16'
_cell_volume   1459.91432419
_cell_formula_units_Z   8
loop_
 _symmetry_equiv_pos_site_id
 _symmetry_equiv_pos_as_xyz
  1  'x, y, z'
loop_
 _atom_site_type_symbol
 _atom_site_label
 _atom_site_symmetry_multiplicity
 _atom_site_fract_x
 _atom_site_fract_y
 _atom_site_fract_z
 _atom_site_occupancy
  Ce  Ce0  1  0.122263  0.132055  0.243461  1
  Ce  Ce1  1  0.613145  0.136846  0.236727  1
  Ce  Ce2  1  0.386855  0.636846  0.263273  1
  Ce  Ce3  1  0.877737  0.632055  0.256539  1
  Ce  Ce4  1  0.122263  0.367945  0.743461  1
  Ce  Ce5  1  0.877737  0.867945  0.756539  1
  Ce  Ce6  1  0.386855  0.863154  0.763273  1
  Ce  Ce7  1  0.613145  0.363154  0.736727  1
  Sb  Sb8  1  0.728704  0.458660  0.450003  1
  Sb  Sb9  1  0.724075  0.660136  0.941937  1
  Sb  Sb10  1  0.275925  0.160136  0.558063  1
  Sb  Sb11  1  0.724075  0.839864  0.441937  1
  Sb  Sb12  1  0.271296  0.541340  0.549997  1
  Sb  Sb13  1  0.728704  0.041340  0.950003  1
  Sb  Sb14  1  0.271296  0.958660  0.049997  1
  Sb  Sb15  1  0.275925  0.339864  0.058063  1
  S  S16  1  0.662154  0.060692  0.809463  1
  S  S17  1  0.519583  0.849148  0.943851  1
  S  S18  1  0.337846  0.560692  0.690537  1
  S  S19  1  0.929834  0.849698  0.946069  1
  S  S20  1  0.929834  0.650302  0.446069  1
  S  S21  1  0.480417  0.150852  0.056149  1
  S  S22  1  0.659796  0.664562  0.802058  1
  S  S23  1  0.659796  0.835438  0.302058  1
  S  S24  1  0.340204  0.335438  0.197942  1
  S  S25  1  0.519583  0.650852  0.443851  1
  S  S26  1  0.662154  0.439308  0.309463  1
  S  S27  1  0.070166  0.349698  0.553931  1
  S  S28  1  0.480417  0.349148  0.556149  1
  S  S29  1  0.070166  0.150302  0.053931  1
  S  S30  1  0.337846  0.939308  0.190537  1
  S  S31  1  0.340204  0.164562  0.697942  1
  Br  Br32  1  0.161877  0.445883  0.337735  1
  Br  Br33  1  0.556963  0.871709  0.631822  1
  Br  Br34  1  0.556963  0.628291  0.131822  1
  Br  Br35  1  0.843239  0.174057  0.669161  1
  Br  Br36  1  0.919988  0.369805  0.863098  1
  Br  Br37  1  0.080012  0.630195  0.136902  1
  Br  Br38  1  0.443037  0.128291  0.368178  1
  Br  Br39  1  0.156761  0.825943  0.330839  1
  Br  Br40  1  0.161877  0.054117  0.837735  1
  Br  Br41  1  0.838123  0.554117  0.662265  1
  Br  Br42  1  0.443037  0.371709  0.868178  1
  Br  Br43  1  0.080012  0.869805  0.636902  1
  Br  Br44  1  0.156761  0.674057  0.830839  1
  Br  Br45  1  0.843239  0.325943  0.169161  1
  Br  Br46  1  0.919988  0.130195  0.363098  1
  Br  Br47  1  0.838123  0.945883  0.162265  1
