# generated using pymatgen
data_Li(FeGe)6
_symmetry_space_group_name_H-M   'P 1'
_cell_length_a   8.70096401
_cell_length_b   8.70096401
_cell_length_c   7.99278854
_cell_angle_alpha   90.00000000
_cell_angle_beta   90.00000000
_cell_angle_gamma   120.00000000
_symmetry_Int_Tables_number   1
_chemical_formula_structural   Li(FeGe)6
_chemical_formula_sum   'Li3 Fe18 Ge18'
_cell_volume   524.03910915
_cell_formula_units_Z   3
loop_
 _symmetry_equiv_pos_site_id
 _symmetry_equiv_pos_as_xyz
  1  'x, y, z'
loop_
 _atom_site_type_symbol
 _atom_site_label
 _atom_site_symmetry_multiplicity
 _atom_site_fract_x
 _atom_site_fract_y
 _atom_site_fract_z
 _atom_site_occupancy
  Li  Li0  1  0.000000  0.000000  0.500000  1
  Li  Li1  1  0.666667  0.333333  0.000000  1
  Li  Li2  1  0.333333  0.666667  0.000000  1
  Fe  Fe3  1  0.166859  0.333717  0.248250  1
  Fe  Fe4  1  0.833141  0.666283  0.751750  1
  Fe  Fe5  1  0.666283  0.833141  0.751750  1
  Fe  Fe6  1  0.833141  0.666283  0.248250  1
  Fe  Fe7  1  0.333717  0.166859  0.751750  1
  Fe  Fe8  1  0.500000  0.000000  0.252946  1
  Fe  Fe9  1  0.333717  0.166859  0.248250  1
  Fe  Fe10  1  0.166859  0.833141  0.248250  1
  Fe  Fe11  1  0.833141  0.166859  0.751750  1
  Fe  Fe12  1  0.500000  0.500000  0.747054  1
  Fe  Fe13  1  0.166859  0.333717  0.751750  1
  Fe  Fe14  1  0.666283  0.833141  0.248250  1
  Fe  Fe15  1  0.000000  0.500000  0.747054  1
  Fe  Fe16  1  0.833141  0.166859  0.248250  1
  Fe  Fe17  1  0.166859  0.833141  0.751750  1
  Fe  Fe18  1  0.500000  0.500000  0.252946  1
  Fe  Fe19  1  0.500000  0.000000  0.747054  1
  Fe  Fe20  1  0.000000  0.500000  0.252946  1
  Ge  Ge21  1  0.333333  0.666667  0.336971  1
  Ge  Ge22  1  0.666667  0.333333  0.336971  1
  Ge  Ge23  1  0.000000  0.671350  0.500000  1
  Ge  Ge24  1  0.661439  0.661439  0.000000  1
  Ge  Ge25  1  0.666667  0.333333  0.663029  1
  Ge  Ge26  1  0.328650  0.328650  0.500000  1
  Ge  Ge27  1  0.333333  0.666667  0.663029  1
  Ge  Ge28  1  0.000000  0.328650  0.500000  1
  Ge  Ge29  1  0.671350  0.000000  0.500000  1
  Ge  Ge30  1  0.000000  0.661439  0.000000  1
  Ge  Ge31  1  0.000000  0.000000  0.161876  1
  Ge  Ge32  1  0.338561  0.000000  0.000000  1
  Ge  Ge33  1  0.338561  0.338561  0.000000  1
  Ge  Ge34  1  0.661439  0.000000  0.000000  1
  Ge  Ge35  1  0.000000  0.000000  0.838124  1
  Ge  Ge36  1  0.671350  0.671350  0.500000  1
  Ge  Ge37  1  0.000000  0.338561  0.000000  1
  Ge  Ge38  1  0.328650  0.000000  0.500000  1
