# generated using pymatgen
data_Ba16Tb8Nb5(SnO16)3
_symmetry_space_group_name_H-M   'P 1'
_cell_length_a   6.08103912
_cell_length_b   6.08103912
_cell_length_c   34.54695964
_cell_angle_alpha   90.00000000
_cell_angle_beta   90.00000000
_cell_angle_gamma   90.00000000
_symmetry_Int_Tables_number   1
_chemical_formula_structural   Ba16Tb8Nb5(SnO16)3
_chemical_formula_sum   'Ba16 Tb8 Nb5 Sn3 O48'
_cell_volume   1277.51328928
_cell_formula_units_Z   1
loop_
 _symmetry_equiv_pos_site_id
 _symmetry_equiv_pos_as_xyz
  1  'x, y, z'
loop_
 _atom_site_type_symbol
 _atom_site_label
 _atom_site_symmetry_multiplicity
 _atom_site_fract_x
 _atom_site_fract_y
 _atom_site_fract_z
 _atom_site_occupancy
  Ba  Ba0  1  0.500000  0.000000  0.062360  1
  Ba  Ba1  1  0.000000  0.500000  0.187551  1
  Ba  Ba2  1  0.000000  0.500000  0.062360  1
  Ba  Ba3  1  0.500000  0.000000  0.312925  1
  Ba  Ba4  1  0.500000  0.000000  0.187551  1
  Ba  Ba5  1  0.000000  0.500000  0.438602  1
  Ba  Ba6  1  0.000000  0.500000  0.312925  1
  Ba  Ba7  1  0.500000  0.000000  0.561527  1
  Ba  Ba8  1  0.500000  0.000000  0.438602  1
  Ba  Ba9  1  0.000000  0.500000  0.687394  1
  Ba  Ba10  1  0.000000  0.500000  0.561527  1
  Ba  Ba11  1  0.500000  0.000000  0.811802  1
  Ba  Ba12  1  0.500000  0.000000  0.687394  1
  Ba  Ba13  1  0.000000  0.500000  0.937915  1
  Ba  Ba14  1  0.000000  0.500000  0.811802  1
  Ba  Ba15  1  0.500000  0.000000  0.937915  1
  Tb  Tb16  1  0.000000  0.000000  0.125970  1
  Tb  Tb17  1  0.500000  0.500000  0.250049  1
  Tb  Tb18  1  0.000000  0.000000  0.375478  1
  Tb  Tb19  1  0.500000  0.500000  0.499924  1
  Tb  Tb20  1  0.000000  0.000000  0.624533  1
  Tb  Tb21  1  0.500000  0.500000  0.749177  1
  Tb  Tb22  1  0.500000  0.500000  0.875947  1
  Tb  Tb23  1  0.000000  0.000000  0.999600  1
  Nb  Nb24  1  0.500000  0.500000  0.124651  1
  Nb  Nb25  1  0.000000  0.000000  0.250490  1
  Nb  Nb26  1  0.500000  0.500000  0.375161  1
  Nb  Nb27  1  0.500000  0.500000  0.624562  1
  Nb  Nb28  1  0.000000  0.000000  0.874347  1
  Sn  Sn29  1  0.000000  0.000000  0.499918  1
  Sn  Sn30  1  0.000000  0.000000  0.750066  1
  Sn  Sn31  1  0.500000  0.500000  0.000476  1
  O  O32  1  0.000000  0.000000  0.063120  1
  O  O33  1  0.726169  0.256495  0.125695  1
  O  O34  1  0.256495  0.273831  0.125695  1
  O  O35  1  0.500000  0.500000  0.183829  1
  O  O36  1  0.500000  0.500000  0.064608  1
  O  O37  1  0.743505  0.726169  0.125695  1
  O  O38  1  0.227082  0.755381  0.249917  1
  O  O39  1  0.273831  0.743505  0.125695  1
  O  O40  1  0.755381  0.772918  0.249917  1
  O  O41  1  0.000000  0.000000  0.309159  1
  O  O42  1  0.000000  0.000000  0.191848  1
  O  O43  1  0.244619  0.227082  0.249917  1
  O  O44  1  0.726598  0.255891  0.374273  1
  O  O45  1  0.772918  0.244619  0.249917  1
  O  O46  1  0.255891  0.273402  0.374273  1
  O  O47  1  0.500000  0.500000  0.433470  1
  O  O48  1  0.500000  0.500000  0.315455  1
  O  O49  1  0.744109  0.726598  0.374273  1
  O  O50  1  0.232600  0.750105  0.499883  1
  O  O51  1  0.273402  0.744109  0.374273  1
  O  O52  1  0.750105  0.767400  0.499883  1
  O  O53  1  0.000000  0.000000  0.560523  1
  O  O54  1  0.000000  0.000000  0.439205  1
  O  O55  1  0.249895  0.232600  0.499883  1
  O  O56  1  0.726798  0.255970  0.625048  1
  O  O57  1  0.767400  0.249895  0.499883  1
  O  O58  1  0.255970  0.273202  0.625048  1
  O  O59  1  0.500000  0.500000  0.682993  1
  O  O60  1  0.500000  0.500000  0.565945  1
  O  O61  1  0.744030  0.726798  0.625048  1
  O  O62  1  0.231176  0.752166  0.750154  1
  O  O63  1  0.273202  0.744030  0.625048  1
  O  O64  1  0.752166  0.768824  0.750154  1
  O  O65  1  0.000000  0.000000  0.814435  1
  O  O66  1  0.000000  0.000000  0.689454  1
  O  O67  1  0.247834  0.231176  0.750154  1
  O  O68  1  0.756297  0.226567  0.874620  1
  O  O69  1  0.768824  0.247834  0.750154  1
  O  O70  1  0.226567  0.243703  0.874620  1
  O  O71  1  0.500000  0.500000  0.940411  1
  O  O72  1  0.500000  0.500000  0.812400  1
  O  O73  1  0.773433  0.756297  0.874620  1
  O  O74  1  0.251258  0.732000  0.000497  1
  O  O75  1  0.243703  0.773433  0.874620  1
  O  O76  1  0.732000  0.748742  0.000497  1
  O  O77  1  0.000000  0.000000  0.932237  1
  O  O78  1  0.268000  0.251258  0.000497  1
  O  O79  1  0.748742  0.268000  0.000497  1
