# generated using pymatgen
data_Ba7(Fe3S7)2
_symmetry_space_group_name_H-M   'P 1'
_cell_length_a   13.57487653
_cell_length_b   13.57487653
_cell_length_c   15.04532990
_cell_angle_alpha   62.74701098
_cell_angle_beta   117.25298902
_cell_angle_gamma   144.40730935
_symmetry_Int_Tables_number   1
_chemical_formula_structural   Ba7(Fe3S7)2
_chemical_formula_sum   'Ba14 Fe12 S28'
_cell_volume   1414.78390531
_cell_formula_units_Z   2
loop_
 _symmetry_equiv_pos_site_id
 _symmetry_equiv_pos_as_xyz
  1  'x, y, z'
loop_
 _atom_site_type_symbol
 _atom_site_label
 _atom_site_symmetry_multiplicity
 _atom_site_fract_x
 _atom_site_fract_y
 _atom_site_fract_z
 _atom_site_occupancy
  Ba  Ba0  1  0.284614  0.634439  0.266072  1
  Ba  Ba1  1  0.677348  0.677348  0.750000  1
  Ba  Ba2  1  0.783836  0.147169  0.124247  1
  Ba  Ba3  1  0.216164  0.852831  0.875753  1
  Ba  Ba4  1  0.715386  0.365561  0.733928  1
  Ba  Ba5  1  0.634439  0.284614  0.233928  1
  Ba  Ba6  1  0.795981  0.776159  0.075151  1
  Ba  Ba7  1  0.204019  0.223841  0.924849  1
  Ba  Ba8  1  0.322652  0.322652  0.250000  1
  Ba  Ba9  1  0.147169  0.783836  0.375753  1
  Ba  Ba10  1  0.852831  0.216164  0.624247  1
  Ba  Ba11  1  0.365561  0.715386  0.766072  1
  Ba  Ba12  1  0.223841  0.204019  0.575151  1
  Ba  Ba13  1  0.776159  0.795981  0.424849  1
  Fe  Fe14  1  0.129986  0.400308  0.985121  1
  Fe  Fe15  1  0.813112  0.090540  0.911842  1
  Fe  Fe16  1  0.870014  0.599692  0.014879  1
  Fe  Fe17  1  0.435519  0.708515  0.049239  1
  Fe  Fe18  1  0.909460  0.186888  0.411842  1
  Fe  Fe19  1  0.186888  0.909460  0.088158  1
  Fe  Fe20  1  0.564481  0.291485  0.950761  1
  Fe  Fe21  1  0.400308  0.129986  0.514879  1
  Fe  Fe22  1  0.708515  0.435519  0.450761  1
  Fe  Fe23  1  0.291485  0.564481  0.549239  1
  Fe  Fe24  1  0.090540  0.813112  0.588158  1
  Fe  Fe25  1  0.599692  0.870014  0.485121  1
  S  S26  1  0.601317  0.459393  0.999434  1
  S  S27  1  0.959488  0.560605  0.570007  1
  S  S28  1  0.166724  0.552417  0.050394  1
  S  S29  1  0.055392  0.230636  0.334897  1
  S  S30  1  0.459393  0.601317  0.500566  1
  S  S31  1  0.977576  0.128808  0.074151  1
  S  S32  1  0.769364  0.944608  0.834897  1
  S  S33  1  0.022424  0.871192  0.925849  1
  S  S34  1  0.017248  0.632382  0.179044  1
  S  S35  1  0.128808  0.977576  0.425849  1
  S  S36  1  0.944608  0.769364  0.665103  1
  S  S37  1  0.439395  0.040512  0.070007  1
  S  S38  1  0.632382  0.017248  0.320956  1
  S  S39  1  0.447583  0.833276  0.550394  1
  S  S40  1  0.260147  0.432376  0.710427  1
  S  S41  1  0.982752  0.367618  0.820956  1
  S  S42  1  0.871192  0.022424  0.574151  1
  S  S43  1  0.833276  0.447583  0.949606  1
  S  S44  1  0.567624  0.739853  0.210427  1
  S  S45  1  0.398683  0.540607  0.000566  1
  S  S46  1  0.540607  0.398683  0.499434  1
  S  S47  1  0.432376  0.260147  0.789573  1
  S  S48  1  0.739853  0.567624  0.289573  1
  S  S49  1  0.367618  0.982752  0.679044  1
  S  S50  1  0.230636  0.055392  0.165103  1
  S  S51  1  0.040512  0.439395  0.429993  1
  S  S52  1  0.560605  0.959488  0.929993  1
  S  S53  1  0.552417  0.166724  0.449606  1
