# generated using pymatgen
data_Gd10S19
_symmetry_space_group_name_H-M   'P 1'
_cell_length_a   8.74634801
_cell_length_b   8.74634801
_cell_length_c   15.87897922
_cell_angle_alpha   90.00000000
_cell_angle_beta   90.00000000
_cell_angle_gamma   90.00000000
_symmetry_Int_Tables_number   1
_chemical_formula_structural   Gd10S19
_chemical_formula_sum   'Gd20 S38'
_cell_volume   1214.71973553
_cell_formula_units_Z   2
loop_
 _symmetry_equiv_pos_site_id
 _symmetry_equiv_pos_as_xyz
  1  'x, y, z'
loop_
 _atom_site_type_symbol
 _atom_site_label
 _atom_site_symmetry_multiplicity
 _atom_site_fract_x
 _atom_site_fract_y
 _atom_site_fract_z
 _atom_site_occupancy
  Gd  Gd0  1  0.304436  0.604444  0.147050  1
  Gd  Gd1  1  0.000000  0.500000  0.864209  1
  Gd  Gd2  1  0.901295  0.791002  0.128118  1
  Gd  Gd3  1  0.804436  0.104444  0.352950  1
  Gd  Gd4  1  0.708998  0.401295  0.628118  1
  Gd  Gd5  1  0.098705  0.208998  0.128118  1
  Gd  Gd6  1  0.598705  0.708998  0.371882  1
  Gd  Gd7  1  0.500000  0.000000  0.135791  1
  Gd  Gd8  1  0.401295  0.291002  0.371882  1
  Gd  Gd9  1  0.195564  0.895556  0.352950  1
  Gd  Gd10  1  0.208998  0.901295  0.871882  1
  Gd  Gd11  1  0.000000  0.500000  0.364209  1
  Gd  Gd12  1  0.500000  0.000000  0.635791  1
  Gd  Gd13  1  0.291002  0.598705  0.628118  1
  Gd  Gd14  1  0.791002  0.098705  0.871882  1
  Gd  Gd15  1  0.604444  0.695564  0.852950  1
  Gd  Gd16  1  0.395556  0.304436  0.852950  1
  Gd  Gd17  1  0.695564  0.395556  0.147050  1
  Gd  Gd18  1  0.895556  0.804436  0.647050  1
  Gd  Gd19  1  0.104444  0.195564  0.647050  1
  S  S20  1  0.298556  0.598435  0.323102  1
  S  S21  1  0.696206  0.398757  0.812155  1
  S  S22  1  0.598435  0.701444  0.676898  1
  S  S23  1  0.798556  0.098435  0.176898  1
  S  S24  1  0.865147  0.324299  0.999896  1
  S  S25  1  0.601243  0.696206  0.187845  1
  S  S26  1  0.134853  0.675701  0.999896  1
  S  S27  1  0.000000  0.500000  0.684286  1
  S  S28  1  0.898757  0.803794  0.312155  1
  S  S29  1  0.324299  0.134853  0.000104  1
  S  S30  1  0.675701  0.865147  0.000104  1
  S  S31  1  0.398757  0.303794  0.187845  1
  S  S32  1  0.445235  0.778407  0.000291  1
  S  S33  1  0.098435  0.201444  0.823102  1
  S  S34  1  0.278407  0.054765  0.500291  1
  S  S35  1  0.945235  0.278407  0.499709  1
  S  S36  1  0.554765  0.221593  0.000291  1
  S  S37  1  0.803794  0.101243  0.687845  1
  S  S38  1  0.778407  0.554765  0.999709  1
  S  S39  1  0.101243  0.196206  0.312155  1
  S  S40  1  0.303794  0.601243  0.812155  1
  S  S41  1  0.196206  0.898757  0.687845  1
  S  S42  1  0.901565  0.798556  0.823102  1
  S  S43  1  0.401565  0.298556  0.676898  1
  S  S44  1  0.054765  0.721593  0.499709  1
  S  S45  1  0.500000  0.500000  0.500000  1
  S  S46  1  0.500000  0.000000  0.315714  1
  S  S47  1  0.500000  0.000000  0.815714  1
  S  S48  1  0.365147  0.824299  0.500104  1
  S  S49  1  0.701444  0.401565  0.323102  1
  S  S50  1  0.634853  0.175701  0.500104  1
  S  S51  1  0.175701  0.365147  0.499896  1
  S  S52  1  0.824299  0.634853  0.499896  1
  S  S53  1  0.221593  0.445235  0.999709  1
  S  S54  1  0.721593  0.945235  0.500291  1
  S  S55  1  0.000000  0.500000  0.184286  1
  S  S56  1  0.201444  0.901565  0.176898  1
  S  S57  1  0.000000  0.000000  0.000000  1
