# generated using pymatgen
data_Sr6Mg7H26
_symmetry_space_group_name_H-M   'P 1'
_cell_length_a   9.55491883
_cell_length_b   9.55491883
_cell_length_c   11.56862424
_cell_angle_alpha   53.59571834
_cell_angle_beta   126.40428166
_cell_angle_gamma   145.69292570
_symmetry_Int_Tables_number   1
_chemical_formula_structural   Sr6Mg7H26
_chemical_formula_sum   'Sr6 Mg7 H26'
_cell_volume   466.54371859
_cell_formula_units_Z   1
loop_
 _symmetry_equiv_pos_site_id
 _symmetry_equiv_pos_as_xyz
  1  'x, y, z'
loop_
 _atom_site_type_symbol
 _atom_site_label
 _atom_site_symmetry_multiplicity
 _atom_site_fract_x
 _atom_site_fract_y
 _atom_site_fract_z
 _atom_site_occupancy
  Sr  Sr0  1  0.644466  0.355534  0.907269  1
  Sr  Sr1  1  0.355534  0.644466  0.092731  1
  Sr  Sr2  1  0.342088  0.657912  0.597848  1
  Sr  Sr3  1  0.657912  0.342088  0.402152  1
  Sr  Sr4  1  0.150220  0.849780  0.653164  1
  Sr  Sr5  1  0.849780  0.150220  0.346836  1
  Mg  Mg6  1  0.778735  0.221265  0.791406  1
  Mg  Mg7  1  0.221265  0.778735  0.208594  1
  Mg  Mg8  1  0.013121  0.986879  0.276163  1
  Mg  Mg9  1  0.986879  0.013121  0.723837  1
  Mg  Mg10  1  0.743077  0.743077  0.000000  1
  Mg  Mg11  1  0.256923  0.256923  0.000000  1
  Mg  Mg12  1  0.500000  0.500000  0.500000  1
  H  H13  1  0.511247  0.000139  0.880867  1
  H  H14  1  0.000139  0.511247  0.119133  1
  H  H15  1  0.488753  0.999861  0.119133  1
  H  H16  1  0.999861  0.488753  0.880867  1
  H  H17  1  0.012583  0.517795  0.353148  1
  H  H18  1  0.517795  0.012583  0.646852  1
  H  H19  1  0.987417  0.482205  0.646852  1
  H  H20  1  0.482205  0.987417  0.353148  1
  H  H21  1  0.779119  0.719417  0.418282  1
  H  H22  1  0.719417  0.779119  0.581718  1
  H  H23  1  0.220881  0.280583  0.581718  1
  H  H24  1  0.280583  0.220881  0.418282  1
  H  H25  1  0.731753  0.713752  0.176530  1
  H  H26  1  0.713752  0.731753  0.823470  1
  H  H27  1  0.268247  0.286248  0.823470  1
  H  H28  1  0.286248  0.268247  0.176530  1
  H  H29  1  0.882641  0.117359  0.169467  1
  H  H30  1  0.117359  0.882641  0.830533  1
  H  H31  1  0.146522  0.853478  0.422742  1
  H  H32  1  0.853478  0.146522  0.577258  1
  H  H33  1  0.406549  0.593451  0.919506  1
  H  H34  1  0.593451  0.406549  0.080494  1
  H  H35  1  0.912184  0.087816  0.917626  1
  H  H36  1  0.087816  0.912184  0.082374  1
  H  H37  1  0.629318  0.370682  0.671902  1
  H  H38  1  0.370682  0.629318  0.328098  1
