# generated using pymatgen
data_Co(NiS2)2
_symmetry_space_group_name_H-M   'P 1'
_cell_length_a   6.62617142
_cell_length_b   6.62617142
_cell_length_c   6.62617142
_cell_angle_alpha   120.18071315
_cell_angle_beta   119.81402875
_cell_angle_gamma   90.00484703
_symmetry_Int_Tables_number   1
_chemical_formula_structural   Co(NiS2)2
_chemical_formula_sum   'Co2 Ni4 S8'
_cell_volume   205.72387688
_cell_formula_units_Z   2
loop_
 _symmetry_equiv_pos_site_id
 _symmetry_equiv_pos_as_xyz
  1  'x, y, z'
loop_
 _atom_site_type_symbol
 _atom_site_label
 _atom_site_symmetry_multiplicity
 _atom_site_fract_x
 _atom_site_fract_y
 _atom_site_fract_z
 _atom_site_occupancy
  Co  Co0  1  0.500000  0.000000  0.500000  1
  Co  Co1  1  0.500000  0.500000  0.000000  1
  Ni  Ni2  1  0.875618  0.125618  0.250000  1
  Ni  Ni3  1  0.500000  0.500000  0.500000  1
  Ni  Ni4  1  0.000000  0.500000  0.000000  1
  Ni  Ni5  1  0.124382  0.874382  0.750000  1
  S  S6  1  0.739312  0.254896  0.515584  1
  S  S7  1  0.739312  0.723727  0.984416  1
  S  S8  1  0.279052  0.257577  0.521475  1
  S  S9  1  0.736102  0.257577  0.978525  1
  S  S10  1  0.263898  0.742423  0.021475  1
  S  S11  1  0.720948  0.742423  0.478525  1
  S  S12  1  0.260688  0.276273  0.015584  1
  S  S13  1  0.260688  0.745104  0.484416  1
