# generated using pymatgen
data_AlH4NF4
_symmetry_space_group_name_H-M   'P 1'
_cell_length_a   5.11482397
_cell_length_b   5.11482397
_cell_length_c   12.92595120
_cell_angle_alpha   90.00000000
_cell_angle_beta   90.00000000
_cell_angle_gamma   90.00000000
_symmetry_Int_Tables_number   1
_chemical_formula_structural   AlH4NF4
_chemical_formula_sum   'Al4 H16 N4 F16'
_cell_volume   338.16129310
_cell_formula_units_Z   4
loop_
 _symmetry_equiv_pos_site_id
 _symmetry_equiv_pos_as_xyz
  1  'x, y, z'
loop_
 _atom_site_type_symbol
 _atom_site_label
 _atom_site_symmetry_multiplicity
 _atom_site_fract_x
 _atom_site_fract_y
 _atom_site_fract_z
 _atom_site_occupancy
  Al  Al0  1  0.000000  0.500000  0.500000  1
  Al  Al1  1  0.500000  0.000000  0.000000  1
  Al  Al2  1  0.500000  0.000000  0.500000  1
  Al  Al3  1  0.000000  0.500000  0.000000  1
  H  H4  1  0.665528  0.498503  0.703568  1
  H  H5  1  0.498503  0.334472  0.203568  1
  H  H6  1  0.834472  0.998503  0.703568  1
  H  H7  1  0.998503  0.165528  0.203568  1
  H  H8  1  0.665528  0.498503  0.296432  1
  H  H9  1  0.498503  0.334472  0.796432  1
  H  H10  1  0.834472  0.998503  0.296432  1
  H  H11  1  0.998503  0.165528  0.796432  1
  H  H12  1  0.334472  0.501497  0.296432  1
  H  H13  1  0.501497  0.665528  0.796432  1
  H  H14  1  0.165528  0.001497  0.296432  1
  H  H15  1  0.001497  0.834472  0.796432  1
  H  H16  1  0.334472  0.501497  0.703568  1
  H  H17  1  0.501497  0.665528  0.203568  1
  H  H18  1  0.165528  0.001497  0.703568  1
  H  H19  1  0.001497  0.834472  0.203568  1
  N  N20  1  0.500000  0.500000  0.750000  1
  N  N21  1  0.500000  0.500000  0.250000  1
  N  N22  1  0.000000  0.000000  0.750000  1
  N  N23  1  0.000000  0.000000  0.250000  1
  F  F24  1  0.000000  0.500000  0.639758  1
  F  F25  1  0.500000  0.000000  0.139758  1
  F  F26  1  0.500000  0.000000  0.639758  1
  F  F27  1  0.000000  0.500000  0.139758  1
  F  F28  1  0.000000  0.500000  0.360242  1
  F  F29  1  0.500000  0.000000  0.860242  1
  F  F30  1  0.500000  0.000000  0.360242  1
  F  F31  1  0.000000  0.500000  0.860242  1
  F  F32  1  0.202737  0.203048  0.500000  1
  F  F33  1  0.203048  0.797263  0.000000  1
  F  F34  1  0.297263  0.703048  0.500000  1
  F  F35  1  0.703048  0.702737  0.000000  1
  F  F36  1  0.797263  0.796952  0.500000  1
  F  F37  1  0.796952  0.202737  0.000000  1
  F  F38  1  0.702737  0.296952  0.500000  1
  F  F39  1  0.296952  0.297263  0.000000  1
