# generated using pymatgen
data_Rb2CuCl3
_symmetry_space_group_name_H-M   'P 1'
_cell_length_a   4.26646298
_cell_length_b   12.68873775
_cell_length_c   13.12384199
_cell_angle_alpha   90.00000000
_cell_angle_beta   90.00000000
_cell_angle_gamma   90.00000000
_symmetry_Int_Tables_number   1
_chemical_formula_structural   Rb2CuCl3
_chemical_formula_sum   'Rb8 Cu4 Cl12'
_cell_volume   710.47270202
_cell_formula_units_Z   4
loop_
 _symmetry_equiv_pos_site_id
 _symmetry_equiv_pos_as_xyz
  1  'x, y, z'
loop_
 _atom_site_type_symbol
 _atom_site_label
 _atom_site_symmetry_multiplicity
 _atom_site_fract_x
 _atom_site_fract_y
 _atom_site_fract_z
 _atom_site_occupancy
  Rb  Rb0  1  0.750000  0.827853  0.024749  1
  Rb  Rb1  1  0.250000  0.672147  0.524749  1
  Rb  Rb2  1  0.750000  0.327853  0.475251  1
  Rb  Rb3  1  0.250000  0.013026  0.326550  1
  Rb  Rb4  1  0.750000  0.486974  0.826550  1
  Rb  Rb5  1  0.250000  0.172147  0.975251  1
  Rb  Rb6  1  0.750000  0.986974  0.673450  1
  Rb  Rb7  1  0.250000  0.513026  0.173450  1
  Cu  Cu8  1  0.750000  0.743332  0.309917  1
  Cu  Cu9  1  0.250000  0.256668  0.690083  1
  Cu  Cu10  1  0.750000  0.243332  0.190083  1
  Cu  Cu11  1  0.250000  0.756668  0.809917  1
  Cl  Cl12  1  0.250000  0.433525  0.641108  1
  Cl  Cl13  1  0.750000  0.860387  0.446765  1
  Cl  Cl14  1  0.250000  0.139613  0.553235  1
  Cl  Cl15  1  0.250000  0.272739  0.278227  1
  Cl  Cl16  1  0.250000  0.933525  0.858892  1
  Cl  Cl17  1  0.750000  0.360387  0.053235  1
  Cl  Cl18  1  0.750000  0.566475  0.358892  1
  Cl  Cl19  1  0.250000  0.772739  0.221773  1
  Cl  Cl20  1  0.750000  0.227261  0.778227  1
  Cl  Cl21  1  0.750000  0.727261  0.721773  1
  Cl  Cl22  1  0.250000  0.639613  0.946765  1
  Cl  Cl23  1  0.750000  0.066475  0.141108  1
