# generated using pymatgen
data_H9BrO4
_symmetry_space_group_name_H-M   'P 1'
_cell_length_a   7.19766749
_cell_length_b   7.66115733
_cell_length_c   11.57502391
_cell_angle_alpha   90.29426470
_cell_angle_beta   89.91641969
_cell_angle_gamma   110.81243127
_symmetry_Int_Tables_number   1
_chemical_formula_structural   H9BrO4
_chemical_formula_sum   'H36 Br4 O16'
_cell_volume   596.61906026
_cell_formula_units_Z   4
loop_
 _symmetry_equiv_pos_site_id
 _symmetry_equiv_pos_as_xyz
  1  'x, y, z'
loop_
 _atom_site_type_symbol
 _atom_site_label
 _atom_site_symmetry_multiplicity
 _atom_site_fract_x
 _atom_site_fract_y
 _atom_site_fract_z
 _atom_site_occupancy
  H  H0  1  0.735571  0.047299  0.672628  1
  H  H1  1  0.689806  0.003690  0.803432  1
  H  H2  1  0.285734  0.965728  0.168771  1
  H  H3  1  0.321770  0.003787  0.301296  1
  H  H4  1  0.069444  0.868077  0.828847  1
  H  H5  1  0.954075  0.954578  0.741086  1
  H  H6  1  0.931940  0.132060  0.328702  1
  H  H7  1  0.044477  0.042987  0.240046  1
  H  H8  1  0.450844  0.217975  0.828065  1
  H  H9  1  0.217652  0.063798  0.750868  1
  H  H10  1  0.358749  0.333726  0.744801  1
  H  H11  1  0.548637  0.782509  0.328689  1
  H  H12  1  0.639074  0.666878  0.243258  1
  H  H13  1  0.779950  0.934955  0.251094  1
  H  H14  1  0.176999  0.499867  0.761698  1
  H  H15  1  0.349142  0.632096  0.683377  1
  H  H16  1  0.814887  0.497722  0.262114  1
  H  H17  1  0.645527  0.371705  0.179830  1
  H  H18  1  0.864222  0.459130  0.715130  1
  H  H19  1  0.866639  0.395555  0.844060  1
  H  H20  1  0.132397  0.534172  0.215558  1
  H  H21  1  0.139196  0.617804  0.341489  1
  H  H22  1  0.646306  0.613919  0.650224  1
  H  H23  1  0.637640  0.454630  0.551873  1
  H  H24  1  0.353336  0.390888  0.149394  1
  H  H25  1  0.365858  0.549021  0.047441  1
  H  H26  1  0.376749  0.288608  0.476711  1
  H  H27  1  0.559174  0.354905  0.387605  1
  H  H28  1  0.623674  0.708663  0.975031  1
  H  H29  1  0.437208  0.645623  0.887272  1
  H  H30  1  0.970214  0.930040  0.497421  1
  H  H31  1  0.101133  0.794425  0.495004  1
  H  H32  1  0.855995  0.691554  0.544667  1
  H  H33  1  0.031854  0.069246  0.997571  1
  H  H34  1  0.900731  0.202776  0.995095  1
  H  H35  1  0.151049  0.314562  0.046571  1
  Br  Br36  1  0.025151  0.213673  0.503198  1
  Br  Br37  1  0.971234  0.776776  0.000155  1
  Br  Br38  1  0.391089  0.792730  0.491048  1
  Br  Br39  1  0.606073  0.204958  0.992361  1
  O  O40  1  0.732991  0.957063  0.733030  1
  O  O41  1  0.272428  0.046178  0.231961  1
  O  O42  1  0.083858  0.929231  0.750148  1
  O  O43  1  0.916273  0.069481  0.250089  1
  O  O44  1  0.381360  0.212644  0.752797  1
  O  O45  1  0.617008  0.788574  0.252782  1
  O  O46  1  0.327017  0.549830  0.751296  1
  O  O47  1  0.665974  0.452962  0.248833  1
  O  O48  1  0.935627  0.406927  0.769708  1
  O  O49  1  0.054844  0.574585  0.272803  1
  O  O50  1  0.730500  0.558221  0.609402  1
  O  O51  1  0.270179  0.444339  0.106171  1
  O  O52  1  0.521267  0.316620  0.468711  1
  O  O53  1  0.478942  0.682198  0.968573  1
  O  O54  1  0.961034  0.794610  0.484824  1
  O  O55  1  0.040568  0.203251  0.985568  1
