# generated using pymatgen
data_Sc3NbO7
_symmetry_space_group_name_H-M   'P 1'
_cell_length_a   7.18714688
_cell_length_b   5.10589990
_cell_length_c   7.76296468
_cell_angle_alpha   90.00000000
_cell_angle_beta   117.38834117
_cell_angle_gamma   90.00000000
_symmetry_Int_Tables_number   1
_chemical_formula_structural   Sc3NbO7
_chemical_formula_sum   'Sc6 Nb2 O14'
_cell_volume   252.94429563
_cell_formula_units_Z   2
loop_
 _symmetry_equiv_pos_site_id
 _symmetry_equiv_pos_as_xyz
  1  'x, y, z'
loop_
 _atom_site_type_symbol
 _atom_site_label
 _atom_site_symmetry_multiplicity
 _atom_site_fract_x
 _atom_site_fract_y
 _atom_site_fract_z
 _atom_site_occupancy
  Sc  Sc0  1  0.000000  0.000000  0.000000  1
  Sc  Sc1  1  0.500000  0.000000  0.000000  1
  Sc  Sc2  1  0.622483  0.472553  0.755000  1
  Sc  Sc3  1  0.122483  0.527447  0.755000  1
  Sc  Sc4  1  0.877517  0.472553  0.245000  1
  Sc  Sc5  1  0.377517  0.527447  0.245000  1
  Nb  Nb6  1  0.750000  0.997970  0.500000  1
  Nb  Nb7  1  0.250000  0.002030  0.500000  1
  O  O8  1  0.750000  0.236499  0.000000  1
  O  O9  1  0.831829  0.752009  0.765595  1
  O  O10  1  0.250000  0.763501  0.000000  1
  O  O11  1  0.988015  0.223069  0.457048  1
  O  O12  1  0.417202  0.762496  0.747476  1
  O  O13  1  0.331829  0.247991  0.765595  1
  O  O14  1  0.082798  0.762496  0.252524  1
  O  O15  1  0.511985  0.223069  0.542952  1
  O  O16  1  0.488015  0.776931  0.457048  1
  O  O17  1  0.917202  0.237504  0.747476  1
  O  O18  1  0.668171  0.752009  0.234405  1
  O  O19  1  0.582798  0.237504  0.252524  1
  O  O20  1  0.011985  0.776931  0.542952  1
  O  O21  1  0.168171  0.247991  0.234405  1
