# generated using pymatgen
data_KHgSbS3
_symmetry_space_group_name_H-M   'P 1'
_cell_length_a   6.43663914
_cell_length_b   6.43663914
_cell_length_c   17.62289396
_cell_angle_alpha   79.66283191
_cell_angle_beta   100.33716809
_cell_angle_gamma   89.25417929
_symmetry_Int_Tables_number   1
_chemical_formula_structural   KHgSbS3
_chemical_formula_sum   'K4 Hg4 Sb4 S12'
_cell_volume   705.84148985
_cell_formula_units_Z   4
loop_
 _symmetry_equiv_pos_site_id
 _symmetry_equiv_pos_as_xyz
  1  'x, y, z'
loop_
 _atom_site_type_symbol
 _atom_site_label
 _atom_site_symmetry_multiplicity
 _atom_site_fract_x
 _atom_site_fract_y
 _atom_site_fract_z
 _atom_site_occupancy
  K  K0  1  0.765457  0.408712  0.084441  1
  K  K1  1  0.234543  0.591288  0.915559  1
  K  K2  1  0.408712  0.765457  0.415559  1
  K  K3  1  0.591288  0.234543  0.584441  1
  Hg  Hg4  1  0.636632  0.636632  0.750000  1
  Hg  Hg5  1  0.363368  0.363368  0.250000  1
  Hg  Hg6  1  0.162771  0.162771  0.750000  1
  Hg  Hg7  1  0.837229  0.837229  0.250000  1
  Sb  Sb8  1  0.943301  0.289966  0.401007  1
  Sb  Sb9  1  0.289966  0.943301  0.098993  1
  Sb  Sb10  1  0.056699  0.710034  0.598993  1
  Sb  Sb11  1  0.710034  0.056699  0.901007  1
  S  S12  1  0.891911  0.677015  0.391817  1
  S  S13  1  0.733422  0.676932  0.892920  1
  S  S14  1  0.323068  0.266578  0.392920  1
  S  S15  1  0.266578  0.323068  0.107080  1
  S  S16  1  0.322985  0.108089  0.891817  1
  S  S17  1  0.108089  0.322985  0.608183  1
  S  S18  1  0.677015  0.891911  0.108183  1
  S  S19  1  0.266859  0.789414  0.233070  1
  S  S20  1  0.789414  0.266859  0.266930  1
  S  S21  1  0.733141  0.210586  0.766930  1
  S  S22  1  0.210586  0.733141  0.733070  1
  S  S23  1  0.676932  0.733422  0.607080  1
