# generated using pymatgen
data_In7Cu10
_symmetry_space_group_name_H-M   'P 1'
_cell_length_a   9.20080066
_cell_length_b   9.20080066
_cell_length_c   6.78188226
_cell_angle_alpha   89.21138593
_cell_angle_beta   90.78861407
_cell_angle_gamma   98.75828959
_symmetry_Int_Tables_number   1
_chemical_formula_structural   In7Cu10
_chemical_formula_sum   'In14 Cu20'
_cell_volume   567.33062480
_cell_formula_units_Z   2
loop_
 _symmetry_equiv_pos_site_id
 _symmetry_equiv_pos_as_xyz
  1  'x, y, z'
loop_
 _atom_site_type_symbol
 _atom_site_label
 _atom_site_symmetry_multiplicity
 _atom_site_fract_x
 _atom_site_fract_y
 _atom_site_fract_z
 _atom_site_occupancy
  In  In0  1  0.431468  0.120047  0.612972  1
  In  In1  1  0.465166  0.534834  0.716028  1
  In  In2  1  0.705201  0.842608  0.801648  1
  In  In3  1  0.568532  0.879953  0.387028  1
  In  In4  1  0.763079  0.236921  0.933248  1
  In  In5  1  0.842608  0.705201  0.198352  1
  In  In6  1  0.833517  0.166483  0.502840  1
  In  In7  1  0.294799  0.157392  0.198352  1
  In  In8  1  0.120047  0.431468  0.387028  1
  In  In9  1  0.166483  0.833517  0.497160  1
  In  In10  1  0.157392  0.294799  0.801648  1
  In  In11  1  0.534834  0.465166  0.283972  1
  In  In12  1  0.236921  0.763079  0.066752  1
  In  In13  1  0.879953  0.568532  0.612972  1
  Cu  Cu14  1  0.004139  0.218205  0.152823  1
  Cu  Cu15  1  0.518933  0.707575  0.060926  1
  Cu  Cu16  1  0.111242  0.111242  0.500000  1
  Cu  Cu17  1  0.408165  0.817536  0.725514  1
  Cu  Cu18  1  0.995861  0.781795  0.847177  1
  Cu  Cu19  1  0.292425  0.481067  0.060926  1
  Cu  Cu20  1  0.817536  0.408165  0.274486  1
  Cu  Cu21  1  0.888758  0.888758  0.500000  1
  Cu  Cu22  1  0.481067  0.292425  0.939074  1
  Cu  Cu23  1  0.218205  0.004139  0.847177  1
  Cu  Cu24  1  0.591835  0.182464  0.274486  1
  Cu  Cu25  1  0.048768  0.951232  0.166673  1
  Cu  Cu26  1  0.500000  0.000000  0.000000  1
  Cu  Cu27  1  0.351258  0.648742  0.392429  1
  Cu  Cu28  1  0.182464  0.591835  0.725514  1
  Cu  Cu29  1  0.781795  0.995861  0.152823  1
  Cu  Cu30  1  0.707575  0.518933  0.939074  1
  Cu  Cu31  1  0.951232  0.048768  0.833327  1
  Cu  Cu32  1  1.000000  0.500000  0.000000  1
  Cu  Cu33  1  0.648742  0.351258  0.607571  1
