# generated using pymatgen
data_Na2Hf(HO)6
_symmetry_space_group_name_H-M   'P 1'
_cell_length_a   5.90927771
_cell_length_b   5.90927771
_cell_length_c   5.90927771
_cell_angle_alpha   62.08286396
_cell_angle_beta   62.08286396
_cell_angle_gamma   62.08286396
_symmetry_Int_Tables_number   1
_chemical_formula_structural   Na2Hf(HO)6
_chemical_formula_sum   'Na2 Hf1 H6 O6'
_cell_volume   152.70475463
_cell_formula_units_Z   1
loop_
 _symmetry_equiv_pos_site_id
 _symmetry_equiv_pos_as_xyz
  1  'x, y, z'
loop_
 _atom_site_type_symbol
 _atom_site_label
 _atom_site_symmetry_multiplicity
 _atom_site_fract_x
 _atom_site_fract_y
 _atom_site_fract_z
 _atom_site_occupancy
  Na  Na0  1  0.835180  0.835180  0.835180  1
  Na  Na1  1  0.164820  0.164820  0.164820  1
  Hf  Hf2  1  0.500000  0.500000  0.500000  1
  H  H3  1  0.652284  0.937587  0.356684  1
  H  H4  1  0.937587  0.356684  0.652284  1
  H  H5  1  0.356684  0.652284  0.937587  1
  H  H6  1  0.347716  0.062413  0.643316  1
  H  H7  1  0.062413  0.643316  0.347716  1
  H  H8  1  0.643316  0.347716  0.062413  1
  O  O9  1  0.579210  0.868514  0.293653  1
  O  O10  1  0.868514  0.293653  0.579210  1
  O  O11  1  0.293653  0.579210  0.868514  1
  O  O12  1  0.420790  0.131486  0.706347  1
  O  O13  1  0.131486  0.706347  0.420790  1
  O  O14  1  0.706347  0.420790  0.131486  1
