# generated using pymatgen
data_ZnSnSb2
_symmetry_space_group_name_H-M   'P 1'
_cell_length_a   4.53518547
_cell_length_b   4.53518547
_cell_length_c   41.87199989
_cell_angle_alpha   89.53311641
_cell_angle_beta   90.46688359
_cell_angle_gamma   120.80850690
_symmetry_Int_Tables_number   1
_chemical_formula_structural   ZnSnSb2
_chemical_formula_sum   'Zn6 Sn6 Sb12'
_cell_volume   739.65497273
_cell_formula_units_Z   6
loop_
 _symmetry_equiv_pos_site_id
 _symmetry_equiv_pos_as_xyz
  1  'x, y, z'
loop_
 _atom_site_type_symbol
 _atom_site_label
 _atom_site_symmetry_multiplicity
 _atom_site_fract_x
 _atom_site_fract_y
 _atom_site_fract_z
 _atom_site_occupancy
  Zn  Zn0  1  0.066076  0.933924  0.030500  1
  Zn  Zn1  1  0.540665  0.459335  0.102301  1
  Zn  Zn2  1  0.026823  0.973177  0.174957  1
  Zn  Zn3  1  0.516396  0.483604  0.248108  1
  Zn  Zn4  1  0.998165  0.001835  0.322195  1
  Zn  Zn5  1  0.478386  0.521614  0.395365  1
  Sn  Sn6  1  0.916384  0.083616  0.472608  1
  Sn  Sn7  1  0.498074  0.501926  0.562444  1
  Sn  Sn8  1  0.999633  0.000367  0.657660  1
  Sn  Sn9  1  0.535620  0.464380  0.750079  1
  Sn  Sn10  1  0.615204  0.384796  0.935203  1
  Sn  Sn11  1  0.060103  0.939897  0.843011  1
  Sb  Sb12  1  0.394245  0.605755  0.042007  1
  Sb  Sb13  1  0.870388  0.129612  0.115325  1
  Sb  Sb14  1  0.353023  0.646977  0.186908  1
  Sb  Sb15  1  0.844010  0.155990  0.259454  1
  Sb  Sb16  1  0.329899  0.670101  0.329843  1
  Sb  Sb17  1  0.813702  0.186298  0.405627  1
  Sb  Sb18  1  0.253957  0.746043  0.505275  1
  Sb  Sb19  1  0.835450  0.164550  0.595387  1
  Sb  Sb20  1  0.335214  0.664786  0.689871  1
  Sb  Sb21  1  0.872078  0.127922  0.782618  1
  Sb  Sb22  1  0.395951  0.604049  0.875855  1
  Sb  Sb23  1  0.950561  0.049439  0.967401  1
