# generated using pymatgen
data_EuIn2Au
_symmetry_space_group_name_H-M   'P 1'
_cell_length_a   6.05867036
_cell_length_b   6.05867036
_cell_length_c   7.68697693
_cell_angle_alpha   90.00000000
_cell_angle_beta   90.00000000
_cell_angle_gamma   134.27330002
_symmetry_Int_Tables_number   1
_chemical_formula_structural   EuIn2Au
_chemical_formula_sum   'Eu2 In4 Au2'
_cell_volume   202.03854742
_cell_formula_units_Z   2
loop_
 _symmetry_equiv_pos_site_id
 _symmetry_equiv_pos_as_xyz
  1  'x, y, z'
loop_
 _atom_site_type_symbol
 _atom_site_label
 _atom_site_symmetry_multiplicity
 _atom_site_fract_x
 _atom_site_fract_y
 _atom_site_fract_z
 _atom_site_occupancy
  Eu  Eu0  1  0.576123  0.423877  0.250000  1
  Eu  Eu1  1  0.423877  0.576123  0.750000  1
  In  In2  1  0.133703  0.866297  0.550940  1
  In  In3  1  0.866297  0.133703  0.449060  1
  In  In4  1  0.133703  0.866297  0.949060  1
  In  In5  1  0.866297  0.133703  0.050940  1
  Au  Au6  1  0.288587  0.711413  0.250000  1
  Au  Au7  1  0.711413  0.288587  0.750000  1
