# generated using pymatgen
data_CdI2
_symmetry_space_group_name_H-M   'P 1'
_cell_length_a   4.34250436
_cell_length_b   4.34250436
_cell_length_c   146.80123298
_cell_angle_alpha   90.00000000
_cell_angle_beta   90.00000000
_cell_angle_gamma   120.00000000
_symmetry_Int_Tables_number   1
_chemical_formula_structural   CdI2
_chemical_formula_sum   'Cd20 I40'
_cell_volume   2397.40199235
_cell_formula_units_Z   20
loop_
 _symmetry_equiv_pos_site_id
 _symmetry_equiv_pos_as_xyz
  1  'x, y, z'
loop_
 _atom_site_type_symbol
 _atom_site_label
 _atom_site_symmetry_multiplicity
 _atom_site_fract_x
 _atom_site_fract_y
 _atom_site_fract_z
 _atom_site_occupancy
  Cd  Cd0  1  0.000000  0.000000  0.012500  1
  Cd  Cd1  1  0.666667  0.333333  0.812492  1
  Cd  Cd2  1  0.666667  0.333333  0.112499  1
  Cd  Cd3  1  0.666667  0.333333  0.412507  1
  Cd  Cd4  1  0.666667  0.333333  0.612499  1
  Cd  Cd5  1  0.666667  0.333333  0.962499  1
  Cd  Cd6  1  0.333333  0.666667  0.662492  1
  Cd  Cd7  1  0.666667  0.333333  0.062497  1
  Cd  Cd8  1  0.666667  0.333333  0.162509  1
  Cd  Cd9  1  0.666667  0.333333  0.512497  1
  Cd  Cd10  1  0.333333  0.666667  0.462498  1
  Cd  Cd11  1  0.333333  0.666667  0.362503  1
  Cd  Cd12  1  0.333333  0.666667  0.262489  1
  Cd  Cd13  1  0.333333  0.666667  0.762489  1
  Cd  Cd14  1  0.333333  0.666667  0.862502  1
  Cd  Cd15  1  0.666667  0.333333  0.312493  1
  Cd  Cd16  1  0.666667  0.333333  0.712498  1
  Cd  Cd17  1  0.666667  0.333333  0.212497  1
  Cd  Cd18  1  0.666667  0.333333  0.912508  1
  Cd  Cd19  1  0.333333  0.666667  0.562497  1
  I  I20  1  0.333333  0.666667  0.050716  1
  I  I21  1  0.666667  0.333333  0.750702  1
  I  I22  1  0.000000  0.000000  0.524287  1
  I  I23  1  0.333333  0.666667  0.950721  1
  I  I24  1  0.000000  0.000000  0.224283  1
  I  I25  1  0.666667  0.333333  0.450709  1
  I  I26  1  0.333333  0.666667  0.800714  1
  I  I27  1  0.333333  0.666667  0.150727  1
  I  I28  1  0.000000  0.000000  0.824274  1
  I  I29  1  0.000000  0.000000  0.674284  1
  I  I30  1  0.000000  0.000000  0.324275  1
  I  I31  1  0.666667  0.333333  0.350714  1
  I  I32  1  0.333333  0.666667  0.300714  1
  I  I33  1  0.000000  0.000000  0.974285  1
  I  I34  1  0.000000  0.000000  0.474284  1
  I  I35  1  0.333333  0.666667  0.100724  1
  I  I36  1  0.000000  0.000000  0.774274  1
  I  I37  1  0.000000  0.000000  0.724283  1
  I  I38  1  0.333333  0.666667  0.400726  1
  I  I39  1  0.000000  0.000000  0.874291  1
  I  I40  1  0.000000  0.000000  0.374291  1
  I  I41  1  0.000000  0.000000  0.174292  1
  I  I42  1  0.000000  0.000000  0.274278  1
  I  I43  1  0.333333  0.666667  0.900727  1
  I  I44  1  0.666667  0.333333  0.024290  1
  I  I45  1  0.000000  0.000000  0.424291  1
  I  I46  1  0.333333  0.666667  0.000724  1
  I  I47  1  0.000000  0.000000  0.624286  1
  I  I48  1  0.333333  0.666667  0.200722  1
  I  I49  1  0.666667  0.333333  0.550711  1
  I  I50  1  0.333333  0.666667  0.600723  1
  I  I51  1  0.000000  0.000000  0.074278  1
  I  I52  1  0.666667  0.333333  0.850714  1
  I  I53  1  0.000000  0.000000  0.574282  1
  I  I54  1  0.333333  0.666667  0.500722  1
  I  I55  1  0.333333  0.666667  0.700721  1
  I  I56  1  0.000000  0.000000  0.124288  1
  I  I57  1  0.666667  0.333333  0.650709  1
  I  I58  1  0.000000  0.000000  0.924292  1
  I  I59  1  0.666667  0.333333  0.250703  1
