# generated using pymatgen
data_Ni3(PO4)4
_symmetry_space_group_name_H-M   'P 1'
_cell_length_a   9.94079519
_cell_length_b   9.94079519
_cell_length_c   10.65030628
_cell_angle_alpha   88.58141640
_cell_angle_beta   91.41858360
_cell_angle_gamma   142.61742368
_symmetry_Int_Tables_number   1
_chemical_formula_structural   Ni3(PO4)4
_chemical_formula_sum   'Ni6 P8 O32'
_cell_volume   638.76439440
_cell_formula_units_Z   2
loop_
 _symmetry_equiv_pos_site_id
 _symmetry_equiv_pos_as_xyz
  1  'x, y, z'
loop_
 _atom_site_type_symbol
 _atom_site_label
 _atom_site_symmetry_multiplicity
 _atom_site_fract_x
 _atom_site_fract_y
 _atom_site_fract_z
 _atom_site_occupancy
  Ni  Ni0  1  0.365615  0.672804  0.748439  1
  Ni  Ni1  1  0.672804  0.365615  0.751561  1
  Ni  Ni2  1  0.327196  0.634385  0.248439  1
  Ni  Ni3  1  0.634385  0.327196  0.251561  1
  Ni  Ni4  1  0.500000  0.000000  0.000000  1
  Ni  Ni5  1  0.000000  0.500000  0.500000  1
  P  P6  1  0.183749  0.780789  0.245778  1
  P  P7  1  0.816251  0.219211  0.754222  1
  P  P8  1  0.247079  0.414704  0.506302  1
  P  P9  1  0.585296  0.752921  0.006302  1
  P  P10  1  0.219211  0.816251  0.745778  1
  P  P11  1  0.752921  0.585296  0.493698  1
  P  P12  1  0.780789  0.183749  0.254222  1
  P  P13  1  0.414704  0.247079  0.993698  1
  O  O14  1  0.034337  0.331337  0.507104  1
  O  O15  1  0.788502  0.307541  0.643883  1
  O  O16  1  0.525397  0.365888  0.121125  1
  O  O17  1  0.985939  0.679555  0.775163  1
  O  O18  1  0.775635  0.804740  0.035811  1
  O  O19  1  0.634112  0.474603  0.621125  1
  O  O20  1  0.668663  0.965663  0.007104  1
  O  O21  1  0.588598  0.413743  0.387486  1
  O  O22  1  0.014061  0.320445  0.224837  1
  O  O23  1  0.761583  0.274271  0.362381  1
  O  O24  1  0.725729  0.238417  0.862381  1
  O  O25  1  0.965663  0.668663  0.492896  1
  O  O26  1  0.052986  0.359394  0.781428  1
  O  O27  1  0.195260  0.224365  0.535811  1
  O  O28  1  0.586257  0.411402  0.887486  1
  O  O29  1  0.474603  0.634112  0.878875  1
  O  O30  1  0.692459  0.211498  0.143883  1
  O  O31  1  0.640606  0.947014  0.281428  1
  O  O32  1  0.359394  0.052986  0.718572  1
  O  O33  1  0.274271  0.761583  0.137619  1
  O  O34  1  0.320445  0.014061  0.275163  1
  O  O35  1  0.411402  0.586257  0.612514  1
  O  O36  1  0.679555  0.985939  0.724837  1
  O  O37  1  0.238417  0.725729  0.637619  1
  O  O38  1  0.365888  0.525397  0.378875  1
  O  O39  1  0.413743  0.588598  0.112514  1
  O  O40  1  0.211498  0.692459  0.356117  1
  O  O41  1  0.947014  0.640606  0.218572  1
  O  O42  1  0.331337  0.034337  0.992896  1
  O  O43  1  0.224365  0.195260  0.964189  1
  O  O44  1  0.804740  0.775635  0.464189  1
  O  O45  1  0.307541  0.788502  0.856117  1
