# generated using pymatgen
data_NaB9Se8
_symmetry_space_group_name_H-M   'P 1'
_cell_length_a   17.23554694
_cell_length_b   17.23554694
_cell_length_c   9.03849655
_cell_angle_alpha   90.00000000
_cell_angle_beta   90.00000000
_cell_angle_gamma   120.00000000
_symmetry_Int_Tables_number   1
_chemical_formula_structural   NaB9Se8
_chemical_formula_sum   'Na6 B54 Se48'
_cell_volume   2325.28916086
_cell_formula_units_Z   6
loop_
 _symmetry_equiv_pos_site_id
 _symmetry_equiv_pos_as_xyz
  1  'x, y, z'
loop_
 _atom_site_type_symbol
 _atom_site_label
 _atom_site_symmetry_multiplicity
 _atom_site_fract_x
 _atom_site_fract_y
 _atom_site_fract_z
 _atom_site_occupancy
  Na  Na0  1  0.340707  0.146967  0.800979  1
  Na  Na1  1  0.806261  0.659293  0.800979  1
  Na  Na2  1  0.146967  0.806261  0.199021  1
  Na  Na3  1  0.193739  0.340707  0.199021  1
  Na  Na4  1  0.853033  0.193739  0.800979  1
  Na  Na5  1  0.659293  0.853033  0.199021  1
  B  B6  1  0.985078  0.934391  0.851033  1
  B  B7  1  0.328780  0.568258  0.982404  1
  B  B8  1  0.568258  0.239478  0.017596  1
  B  B9  1  0.025151  0.105966  0.963997  1
  B  B10  1  0.562563  0.797247  0.747647  1
  B  B11  1  0.273952  0.667895  0.167483  1
  B  B12  1  0.235441  0.572645  0.054392  1
  B  B13  1  0.014922  0.065609  0.148967  1
  B  B14  1  0.232064  0.094516  0.266752  1
  B  B15  1  0.335522  0.727355  0.869560  1
  B  B16  1  0.726048  0.332105  0.832517  1
  B  B17  1  0.424486  0.897625  0.289204  1
  B  B18  1  0.065609  0.050687  0.851033  1
  B  B19  1  0.919185  0.025151  0.036003  1
  B  B20  1  0.727355  0.391833  0.130440  1
  B  B21  1  0.575514  0.102375  0.710796  1
  B  B22  1  0.272645  0.608167  0.869560  1
  B  B23  1  0.526861  0.424486  0.710796  1
  B  B24  1  0.137548  0.232064  0.733248  1
  B  B25  1  0.664478  0.272645  0.130440  1
  B  B26  1  0.202753  0.765316  0.747647  1
  B  B27  1  0.606057  0.273952  0.832517  1
  B  B28  1  0.765316  0.562563  0.252353  1
  B  B29  1  0.572645  0.337204  0.945608  1
  B  B30  1  0.797247  0.234684  0.252353  1
  B  B31  1  0.239478  0.671220  0.982404  1
  B  B32  1  0.102375  0.526861  0.289204  1
  B  B33  1  0.934391  0.949313  0.148967  1
  B  B34  1  0.974849  0.894034  0.036003  1
  B  B35  1  0.473139  0.575514  0.289204  1
  B  B36  1  0.393943  0.726048  0.167483  1
  B  B37  1  0.337204  0.764559  0.054392  1
  B  B38  1  0.760522  0.328780  0.017596  1
  B  B39  1  0.234684  0.437437  0.747647  1
  B  B40  1  0.050687  0.985078  0.148967  1
  B  B41  1  0.862452  0.767936  0.266752  1
  B  B42  1  0.391833  0.664478  0.869560  1
  B  B43  1  0.437437  0.202753  0.252353  1
  B  B44  1  0.671220  0.431742  0.017596  1
  B  B45  1  0.894034  0.919185  0.963997  1
  B  B46  1  0.332105  0.606057  0.167483  1
  B  B47  1  0.431742  0.760522  0.982404  1
  B  B48  1  0.897625  0.473139  0.710796  1
  B  B49  1  0.949313  0.014922  0.851033  1
  B  B50  1  0.905484  0.137548  0.266752  1
  B  B51  1  0.080815  0.974849  0.963997  1
  B  B52  1  0.608167  0.335522  0.130440  1
  B  B53  1  0.427355  0.662796  0.054392  1
  B  B54  1  0.764559  0.427355  0.945608  1
  B  B55  1  0.667895  0.393943  0.832517  1
  B  B56  1  0.094516  0.862452  0.733248  1
  B  B57  1  0.105966  0.080815  0.036003  1
  B  B58  1  0.767936  0.905484  0.733248  1
  B  B59  1  0.662796  0.235441  0.945608  1
  Se  Se60  1  0.466076  0.348604  0.884723  1
  Se  Se61  1  0.874029  0.020213  0.684660  1
  Se  Se62  1  0.652622  0.464022  0.666050  1
  Se  Se63  1  0.979787  0.853816  0.684660  1
  Se  Se64  1  0.232138  0.168766  0.100450  1
  Se  Se65  1  0.527470  0.323566  0.301105  1
  Se  Se66  1  0.125971  0.979787  0.315340  1
  Se  Se67  1  0.198651  0.336585  0.602909  1
  Se  Se68  1  0.882527  0.533924  0.884723  1
  Se  Se69  1  0.146184  0.125971  0.684660  1
  Se  Se70  1  0.347378  0.535978  0.333950  1
  Se  Se71  1  0.551159  0.549427  0.409015  1
  Se  Se72  1  0.853816  0.874029  0.315340  1
  Se  Se73  1  0.862066  0.198651  0.397091  1
  Se  Se74  1  0.448841  0.450573  0.590985  1
  Se  Se75  1  0.811399  0.347378  0.666050  1
  Se  Se76  1  0.310353  0.447809  0.917777  1
  Se  Se77  1  0.137457  0.689647  0.917777  1
  Se  Se78  1  0.137934  0.801349  0.602909  1
  Se  Se79  1  0.689647  0.552191  0.082223  1
  Se  Se80  1  0.936628  0.767862  0.100450  1
  Se  Se81  1  0.447809  0.137457  0.082223  1
  Se  Se82  1  0.464022  0.811399  0.333950  1
  Se  Se83  1  0.336585  0.137934  0.397091  1
  Se  Se84  1  0.203904  0.527470  0.698895  1
  Se  Se85  1  0.535978  0.188601  0.666050  1
  Se  Se86  1  0.472530  0.676434  0.698895  1
  Se  Se87  1  0.676434  0.203904  0.301105  1
  Se  Se88  1  0.063372  0.232138  0.899550  1
  Se  Se89  1  0.862543  0.310353  0.082223  1
  Se  Se90  1  0.348604  0.882527  0.115277  1
  Se  Se91  1  0.001732  0.551159  0.590985  1
  Se  Se92  1  0.020213  0.146184  0.315340  1
  Se  Se93  1  0.767862  0.831234  0.899550  1
  Se  Se94  1  0.998268  0.448841  0.409015  1
  Se  Se95  1  0.450573  0.001732  0.409015  1
  Se  Se96  1  0.651396  0.117473  0.884723  1
  Se  Se97  1  0.801349  0.663415  0.397091  1
  Se  Se98  1  0.663415  0.862066  0.602909  1
  Se  Se99  1  0.188601  0.652622  0.333950  1
  Se  Se100  1  0.168766  0.936628  0.899550  1
  Se  Se101  1  0.117473  0.466076  0.115277  1
  Se  Se102  1  0.796096  0.472530  0.301105  1
  Se  Se103  1  0.549427  0.998268  0.590985  1
  Se  Se104  1  0.552191  0.862543  0.917777  1
  Se  Se105  1  0.831234  0.063372  0.100450  1
  Se  Se106  1  0.533924  0.651396  0.115277  1
  Se  Se107  1  0.323566  0.796096  0.698895  1
