# generated using pymatgen
data_Ba5Re3O16
_symmetry_space_group_name_H-M   'P 1'
_cell_length_a   11.07861897
_cell_length_b   11.07861897
_cell_length_c   7.96378935
_cell_angle_alpha   90.00000000
_cell_angle_beta   90.00000000
_cell_angle_gamma   120.00000000
_symmetry_Int_Tables_number   1
_chemical_formula_structural   Ba5Re3O16
_chemical_formula_sum   'Ba10 Re6 O32'
_cell_volume   846.48963971
_cell_formula_units_Z   2
loop_
 _symmetry_equiv_pos_site_id
 _symmetry_equiv_pos_as_xyz
  1  'x, y, z'
loop_
 _atom_site_type_symbol
 _atom_site_label
 _atom_site_symmetry_multiplicity
 _atom_site_fract_x
 _atom_site_fract_y
 _atom_site_fract_z
 _atom_site_occupancy
  Ba  Ba0  1  0.666667  0.333333  0.502939  1
  Ba  Ba1  1  0.333333  0.666667  0.502939  1
  Ba  Ba2  1  0.333333  0.666667  0.002939  1
  Ba  Ba3  1  0.666667  0.333333  0.002939  1
  Ba  Ba4  1  0.260238  0.260238  0.239571  1
  Ba  Ba5  1  0.739762  0.000000  0.239571  1
  Ba  Ba6  1  0.000000  0.739762  0.239571  1
  Ba  Ba7  1  0.739762  0.739762  0.739571  1
  Ba  Ba8  1  0.260238  0.000000  0.739571  1
  Ba  Ba9  1  0.000000  0.260238  0.739571  1
  Re  Re10  1  0.390017  0.390017  0.794903  1
  Re  Re11  1  0.609983  0.000000  0.794903  1
  Re  Re12  1  0.000000  0.609983  0.794903  1
  Re  Re13  1  0.609983  0.609983  0.294903  1
  Re  Re14  1  0.390017  0.000000  0.294903  1
  Re  Re15  1  0.000000  0.390017  0.294903  1
  O  O16  1  0.000000  0.000000  0.179350  1
  O  O17  1  0.000000  0.000000  0.679350  1
  O  O18  1  0.296944  0.296944  0.615679  1
  O  O19  1  0.703056  0.000000  0.615679  1
  O  O20  1  0.000000  0.703056  0.615679  1
  O  O21  1  0.703056  0.703056  0.115679  1
  O  O22  1  0.296944  0.000000  0.115679  1
  O  O23  1  0.000000  0.296944  0.115679  1
  O  O24  1  0.576904  0.446243  0.759131  1
  O  O25  1  0.553757  0.130661  0.759131  1
  O  O26  1  0.869339  0.423096  0.759131  1
  O  O27  1  0.446243  0.576904  0.759131  1
  O  O28  1  0.130661  0.553757  0.759131  1
  O  O29  1  0.423096  0.869339  0.759131  1
  O  O30  1  0.423096  0.553757  0.259131  1
  O  O31  1  0.446243  0.869339  0.259131  1
  O  O32  1  0.130661  0.576904  0.259131  1
  O  O33  1  0.553757  0.423096  0.259131  1
  O  O34  1  0.869339  0.446243  0.259131  1
  O  O35  1  0.576904  0.130661  0.259131  1
  O  O36  1  0.385805  0.254440  0.935425  1
  O  O37  1  0.745560  0.131365  0.935425  1
  O  O38  1  0.868635  0.614195  0.935425  1
  O  O39  1  0.254440  0.385805  0.935425  1
  O  O40  1  0.131365  0.745560  0.935425  1
  O  O41  1  0.614195  0.868635  0.935425  1
  O  O42  1  0.614195  0.745560  0.435425  1
  O  O43  1  0.254440  0.868635  0.435425  1
  O  O44  1  0.131365  0.385805  0.435425  1
  O  O45  1  0.745560  0.614195  0.435425  1
  O  O46  1  0.868635  0.254440  0.435425  1
  O  O47  1  0.385805  0.131365  0.435425  1
