# generated using pymatgen
data_Zn(HO)2
_symmetry_space_group_name_H-M   'P 1'
_cell_length_a   4.96287017
_cell_length_b   5.26895857
_cell_length_c   8.26997420
_cell_angle_alpha   90.00000000
_cell_angle_beta   90.00000000
_cell_angle_gamma   90.00000000
_symmetry_Int_Tables_number   1
_chemical_formula_structural   Zn(HO)2
_chemical_formula_sum   'Zn4 H8 O8'
_cell_volume   216.25285634
_cell_formula_units_Z   4
loop_
 _symmetry_equiv_pos_site_id
 _symmetry_equiv_pos_as_xyz
  1  'x, y, z'
loop_
 _atom_site_type_symbol
 _atom_site_label
 _atom_site_symmetry_multiplicity
 _atom_site_fract_x
 _atom_site_fract_y
 _atom_site_fract_z
 _atom_site_occupancy
  Zn  Zn0  1  0.947594  0.190293  0.869370  1
  Zn  Zn1  1  0.552406  0.809707  0.369370  1
  Zn  Zn2  1  0.447594  0.309707  0.130630  1
  Zn  Zn3  1  0.052406  0.690293  0.630630  1
  H  H4  1  0.631857  0.909280  0.709494  1
  H  H5  1  0.868143  0.090720  0.209494  1
  H  H6  1  0.131857  0.590720  0.290506  1
  H  H7  1  0.368143  0.409280  0.790506  1
  H  H8  1  0.808231  0.403109  0.414112  1
  H  H9  1  0.691769  0.596891  0.914112  1
  H  H10  1  0.308231  0.096891  0.585888  1
  H  H11  1  0.191769  0.903109  0.085888  1
  O  O12  1  0.859202  0.582768  0.428703  1
  O  O13  1  0.640798  0.417232  0.928703  1
  O  O14  1  0.359202  0.917232  0.571297  1
  O  O15  1  0.140798  0.082768  0.071297  1
  O  O16  1  0.799165  0.878841  0.773634  1
  O  O17  1  0.700835  0.121159  0.273634  1
  O  O18  1  0.299165  0.621159  0.226366  1
  O  O19  1  0.200835  0.378841  0.726366  1
