# generated using pymatgen
data_Ti20H2N17
_symmetry_space_group_name_H-M   'P 1'
_cell_length_a   7.95396694
_cell_length_b   7.95396694
_cell_length_c   16.93981923
_cell_angle_alpha   74.45691914
_cell_angle_beta   105.54308086
_cell_angle_gamma   158.19906612
_symmetry_Int_Tables_number   1
_chemical_formula_structural   Ti20H2N17
_chemical_formula_sum   'Ti20 H2 N17'
_cell_volume   382.90784357
_cell_formula_units_Z   1
loop_
 _symmetry_equiv_pos_site_id
 _symmetry_equiv_pos_as_xyz
  1  'x, y, z'
loop_
 _atom_site_type_symbol
 _atom_site_label
 _atom_site_symmetry_multiplicity
 _atom_site_fract_x
 _atom_site_fract_y
 _atom_site_fract_z
 _atom_site_occupancy
  Ti  Ti0  1  0.199797  0.800203  0.423475  1
  Ti  Ti1  1  0.604583  0.395417  0.526329  1
  Ti  Ti2  1  0.000504  0.999496  0.629358  1
  Ti  Ti3  1  0.399470  0.600530  0.721162  1
  Ti  Ti4  1  0.796288  0.203712  0.823886  1
  Ti  Ti5  1  0.003675  0.996325  0.876239  1
  Ti  Ti6  1  0.400864  0.599136  0.976892  1
  Ti  Ti7  1  0.201131  0.798869  0.926657  1
  Ti  Ti8  1  0.798869  0.201131  0.073343  1
  Ti  Ti9  1  0.599136  0.400864  0.023108  1
  Ti  Ti10  1  0.996325  0.003675  0.123761  1
  Ti  Ti11  1  0.203712  0.796288  0.176114  1
  Ti  Ti12  1  0.399964  0.600036  0.226554  1
  Ti  Ti13  1  0.600530  0.399470  0.278838  1
  Ti  Ti14  1  0.999496  0.000504  0.370642  1
  Ti  Ti15  1  0.800408  0.199592  0.325262  1
  Ti  Ti16  1  0.395417  0.604583  0.473671  1
  Ti  Ti17  1  0.800203  0.199797  0.576525  1
  Ti  Ti18  1  0.199592  0.800408  0.674738  1
  Ti  Ti19  1  0.600036  0.399964  0.773446  1
  H  H20  1  0.399740  0.600260  0.850149  1
  H  H21  1  0.600260  0.399740  0.149851  1
  N  N22  1  0.400783  0.599217  0.100165  1
  N  N23  1  0.799353  0.200647  0.199212  1
  N  N24  1  0.199321  0.800679  0.298874  1
  N  N25  1  0.599207  0.400793  0.400831  1
  N  N26  1  0.400793  0.599207  0.599169  1
  N  N27  1  0.800679  0.199321  0.701126  1
  N  N28  1  0.598962  0.401038  0.648622  1
  N  N29  1  0.200647  0.799353  0.800788  1
  N  N30  1  0.999928  0.000072  0.750927  1
  N  N31  1  0.599217  0.400783  0.899835  1
  N  N32  1  0.800237  0.199763  0.949585  1
  N  N33  1  0.199763  0.800237  0.050415  1
  N  N34  1  0.000000  0.000000  0.000000  1
  N  N35  1  0.000072  0.999928  0.249073  1
  N  N36  1  0.401038  0.598962  0.351378  1
  N  N37  1  0.801816  0.198184  0.451048  1
  N  N38  1  0.198184  0.801816  0.548952  1
