# generated using pymatgen
data_SiO2
_symmetry_space_group_name_H-M   'P 1'
_cell_length_a   13.37837944
_cell_length_b   13.37837944
_cell_length_c   16.94002071
_cell_angle_alpha   61.58270949
_cell_angle_beta   118.41729051
_cell_angle_gamma   142.33693334
_symmetry_Int_Tables_number   1
_chemical_formula_structural   SiO2
_chemical_formula_sum   'Si28 O56'
_cell_volume   1601.36080190
_cell_formula_units_Z   28
loop_
 _symmetry_equiv_pos_site_id
 _symmetry_equiv_pos_as_xyz
  1  'x, y, z'
loop_
 _atom_site_type_symbol
 _atom_site_label
 _atom_site_symmetry_multiplicity
 _atom_site_fract_x
 _atom_site_fract_y
 _atom_site_fract_z
 _atom_site_occupancy
  Si  Si0  1  0.758384  0.872444  0.786730  1
  Si  Si1  1  0.440984  0.190366  0.112498  1
  Si  Si2  1  0.759096  0.609138  0.901860  1
  Si  Si3  1  0.555999  0.078935  0.779476  1
  Si  Si4  1  0.842558  0.529403  0.401907  1
  Si  Si5  1  0.559016  0.809634  0.887502  1
  Si  Si6  1  0.470597  0.157442  0.401907  1
  Si  Si7  1  0.078935  0.555999  0.220524  1
  Si  Si8  1  0.595705  0.034739  0.402123  1
  Si  Si9  1  0.241616  0.127556  0.213270  1
  Si  Si10  1  0.444001  0.921065  0.220524  1
  Si  Si11  1  0.965261  0.404295  0.402123  1
  Si  Si12  1  0.190366  0.440984  0.887502  1
  Si  Si13  1  0.127556  0.241616  0.786730  1
  Si  Si14  1  0.529403  0.842558  0.598093  1
  Si  Si15  1  0.404295  0.965261  0.597877  1
  Si  Si16  1  0.809634  0.559016  0.112498  1
  Si  Si17  1  0.622650  0.008824  0.093950  1
  Si  Si18  1  0.609138  0.759096  0.098140  1
  Si  Si19  1  0.240904  0.390862  0.098140  1
  Si  Si20  1  0.034739  0.595705  0.597877  1
  Si  Si21  1  0.008824  0.622650  0.906050  1
  Si  Si22  1  0.872444  0.758384  0.213270  1
  Si  Si23  1  0.991176  0.377350  0.093950  1
  Si  Si24  1  0.390862  0.240904  0.901860  1
  Si  Si25  1  0.377350  0.991176  0.906050  1
  Si  Si26  1  0.157442  0.470597  0.598093  1
  Si  Si27  1  0.921065  0.444001  0.779476  1
  O  O28  1  0.484531  0.068452  0.671490  1
  O  O29  1  0.068038  0.401710  0.504295  1
  O  O30  1  0.518179  0.944163  0.614603  1
  O  O31  1  0.347325  0.652675  0.590071  1
  O  O32  1  0.639089  0.821445  0.995030  1
  O  O33  1  0.784004  0.215996  0.388799  1
  O  O34  1  0.155634  0.342242  0.682380  1
  O  O35  1  0.515469  0.931548  0.328510  1
  O  O36  1  0.844366  0.657758  0.317620  1
  O  O37  1  0.141612  0.404167  0.113790  1
  O  O38  1  0.404167  0.141612  0.886210  1
  O  O39  1  0.931708  0.068292  0.786882  1
  O  O40  1  0.419563  0.010249  0.821356  1
  O  O41  1  0.353055  0.191293  0.152127  1
  O  O42  1  0.204238  0.234645  0.170833  1
  O  O43  1  0.409002  0.031535  0.167302  1
  O  O44  1  0.215996  0.784004  0.611201  1
  O  O45  1  0.068452  0.484531  0.328510  1
  O  O46  1  0.598290  0.931962  0.504295  1
  O  O47  1  0.595833  0.858388  0.113790  1
  O  O48  1  0.359594  0.640406  0.874420  1
  O  O49  1  0.055837  0.481821  0.614603  1
  O  O50  1  0.858388  0.595833  0.886210  1
  O  O51  1  0.234645  0.204238  0.829167  1
  O  O52  1  0.989751  0.580437  0.821356  1
  O  O53  1  0.191293  0.353055  0.847873  1
  O  O54  1  0.646945  0.808707  0.847873  1
  O  O55  1  0.652675  0.347325  0.409929  1
  O  O56  1  0.439030  0.560970  0.115084  1
  O  O57  1  0.765355  0.795762  0.170833  1
  O  O58  1  0.560970  0.439030  0.884916  1
  O  O59  1  0.401710  0.068038  0.495705  1
  O  O60  1  0.728915  0.271085  0.791500  1
  O  O61  1  0.590998  0.968465  0.832698  1
  O  O62  1  0.821445  0.639089  0.004970  1
  O  O63  1  0.968465  0.590998  0.167302  1
  O  O64  1  0.814294  0.185706  0.084072  1
  O  O65  1  0.068292  0.931708  0.213118  1
  O  O66  1  0.185706  0.814294  0.915928  1
  O  O67  1  0.000000  0.500000  0.000000  1
  O  O68  1  0.931548  0.515469  0.671490  1
  O  O69  1  0.342242  0.155634  0.317620  1
  O  O70  1  0.580437  0.989751  0.178644  1
  O  O71  1  0.010249  0.419563  0.178644  1
  O  O72  1  0.640406  0.359594  0.125580  1
  O  O73  1  0.271085  0.728915  0.208500  1
  O  O74  1  0.481821  0.055837  0.385397  1
  O  O75  1  0.360911  0.178555  0.004970  1
  O  O76  1  0.500000  1.000000  0.000000  1
  O  O77  1  0.178555  0.360911  0.995030  1
  O  O78  1  0.931962  0.598290  0.495705  1
  O  O79  1  0.808707  0.646945  0.152127  1
  O  O80  1  0.795762  0.765355  0.829167  1
  O  O81  1  0.657758  0.844366  0.682380  1
  O  O82  1  0.031535  0.409002  0.832698  1
  O  O83  1  0.944163  0.518179  0.385397  1
