# generated using pymatgen
data_PHN2
_symmetry_space_group_name_H-M   'P 1'
_cell_length_a   4.67225473
_cell_length_b   4.71372041
_cell_length_c   7.10841084
_cell_angle_alpha   90.00000000
_cell_angle_beta   90.00000000
_cell_angle_gamma   90.00000000
_symmetry_Int_Tables_number   1
_chemical_formula_structural   PHN2
_chemical_formula_sum   'P4 H4 N8'
_cell_volume   156.55352546
_cell_formula_units_Z   4
loop_
 _symmetry_equiv_pos_site_id
 _symmetry_equiv_pos_as_xyz
  1  'x, y, z'
loop_
 _atom_site_type_symbol
 _atom_site_label
 _atom_site_symmetry_multiplicity
 _atom_site_fract_x
 _atom_site_fract_y
 _atom_site_fract_z
 _atom_site_occupancy
  P  P0  1  0.984937  0.762533  0.384862  1
  P  P1  1  0.515063  0.237467  0.884862  1
  P  P2  1  0.484937  0.737467  0.615138  1
  P  P3  1  0.015063  0.262533  0.115138  1
  H  H4  1  0.642886  0.557217  0.193272  1
  H  H5  1  0.857114  0.442783  0.693272  1
  H  H6  1  0.142886  0.942783  0.806728  1
  H  H7  1  0.357114  0.057217  0.306728  1
  N  N8  1  0.849321  0.520993  0.236456  1
  N  N9  1  0.650679  0.479007  0.736456  1
  N  N10  1  0.349321  0.979007  0.763544  1
  N  N11  1  0.150679  0.020993  0.263544  1
  N  N12  1  0.721821  0.902720  0.495079  1
  N  N13  1  0.778179  0.097280  0.995079  1
  N  N14  1  0.221821  0.597280  0.504921  1
  N  N15  1  0.278179  0.402720  0.004921  1
