# generated using pymatgen
data_Ce3(AlI)2
_symmetry_space_group_name_H-M   'P 1'
_cell_length_a   9.97708306
_cell_length_b   9.97708306
_cell_length_c   12.14969769
_cell_angle_alpha   59.17530367
_cell_angle_beta   120.82469633
_cell_angle_gamma   155.60055163
_symmetry_Int_Tables_number   1
_chemical_formula_structural   Ce3(AlI)2
_chemical_formula_sum   'Ce6 Al4 I4'
_cell_volume   425.44170672
_cell_formula_units_Z   2
loop_
 _symmetry_equiv_pos_site_id
 _symmetry_equiv_pos_as_xyz
  1  'x, y, z'
loop_
 _atom_site_type_symbol
 _atom_site_label
 _atom_site_symmetry_multiplicity
 _atom_site_fract_x
 _atom_site_fract_y
 _atom_site_fract_z
 _atom_site_occupancy
  Ce  Ce0  1  0.171952  0.828048  0.397670  1
  Ce  Ce1  1  0.465382  0.534618  0.309062  1
  Ce  Ce2  1  0.245094  0.754906  0.805142  1
  Ce  Ce3  1  0.754906  0.245094  0.194858  1
  Ce  Ce4  1  0.534618  0.465382  0.690938  1
  Ce  Ce5  1  0.828048  0.171952  0.602330  1
  Al  Al6  1  0.926199  0.073801  0.467481  1
  Al  Al7  1  0.073801  0.926199  0.532519  1
  Al  Al8  1  0.659572  0.340428  0.584361  1
  Al  Al9  1  0.340428  0.659572  0.415639  1
  I  I10  1  0.858540  0.141460  0.060094  1
  I  I11  1  0.576407  0.423593  0.170923  1
  I  I12  1  0.141460  0.858540  0.939906  1
  I  I13  1  0.423593  0.576407  0.829077  1
