# generated using pymatgen
data_Li2NbP4O13
_symmetry_space_group_name_H-M   'P 1'
_cell_length_a   5.24119358
_cell_length_b   8.08707716
_cell_length_c   13.36586559
_cell_angle_alpha   77.53704988
_cell_angle_beta   84.72794797
_cell_angle_gamma   79.75802762
_symmetry_Int_Tables_number   1
_chemical_formula_structural   Li2NbP4O13
_chemical_formula_sum   'Li4 Nb2 P8 O26'
_cell_volume   543.51566790
_cell_formula_units_Z   2
loop_
 _symmetry_equiv_pos_site_id
 _symmetry_equiv_pos_as_xyz
  1  'x, y, z'
loop_
 _atom_site_type_symbol
 _atom_site_label
 _atom_site_symmetry_multiplicity
 _atom_site_fract_x
 _atom_site_fract_y
 _atom_site_fract_z
 _atom_site_occupancy
  Li  Li0  1  0.930438  0.680094  0.487036  1
  Li  Li1  1  0.069562  0.319906  0.512964  1
  Li  Li2  1  0.604630  0.666253  0.005815  1
  Li  Li3  1  0.395370  0.333747  0.994185  1
  Nb  Nb4  1  0.447025  0.051112  0.759777  1
  Nb  Nb5  1  0.552975  0.948888  0.240223  1
  P  P6  1  0.985572  0.099894  0.355454  1
  P  P7  1  0.319139  0.656226  0.803746  1
  P  P8  1  0.657615  0.429004  0.676821  1
  P  P9  1  0.342385  0.570996  0.323179  1
  P  P10  1  0.878852  0.205569  0.868080  1
  P  P11  1  0.014428  0.900106  0.644546  1
  P  P12  1  0.680861  0.343774  0.196254  1
  P  P13  1  0.121148  0.794431  0.131920  1
  O  O14  1  0.829660  0.959158  0.344008  1
  O  O15  1  0.863690  0.352003  0.761726  1
  O  O16  1  0.466416  0.305182  0.681317  1
  O  O17  1  0.767380  0.287280  0.955423  1
  O  O18  1  0.940161  0.249051  0.249678  1
  O  O19  1  0.059839  0.750949  0.750322  1
  O  O20  1  0.279146  0.031151  0.340922  1
  O  O21  1  0.720854  0.968849  0.659078  1
  O  O22  1  0.824083  0.863470  0.133406  1
  O  O23  1  0.136310  0.647997  0.238274  1
  O  O24  1  0.504440  0.601114  0.708404  1
  O  O25  1  0.547801  0.209855  0.163851  1
  O  O26  1  0.734907  0.491781  0.114964  1
  O  O27  1  0.265093  0.508219  0.885036  1
  O  O28  1  0.232620  0.712720  0.044577  1
  O  O29  1  0.735793  0.061868  0.852349  1
  O  O30  1  0.916105  0.183025  0.445420  1
  O  O31  1  0.533584  0.694818  0.318683  1
  O  O32  1  0.170340  0.040842  0.655992  1
  O  O33  1  0.264207  0.938132  0.147651  1
  O  O34  1  0.083895  0.816975  0.554580  1
  O  O35  1  0.804346  0.479308  0.576645  1
  O  O36  1  0.495560  0.398886  0.291596  1
  O  O37  1  0.175917  0.136530  0.866594  1
  O  O38  1  0.452199  0.790145  0.836149  1
  O  O39  1  0.195654  0.520692  0.423355  1
