# generated using pymatgen
data_FeSCl7
_symmetry_space_group_name_H-M   'P 1'
_cell_length_a   6.52797152
_cell_length_b   12.55943705
_cell_length_c   13.63464905
_cell_angle_alpha   90.00000000
_cell_angle_beta   101.76217513
_cell_angle_gamma   90.00000000
_symmetry_Int_Tables_number   1
_chemical_formula_structural   FeSCl7
_chemical_formula_sum   'Fe4 S4 Cl28'
_cell_volume   1094.39990346
_cell_formula_units_Z   4
loop_
 _symmetry_equiv_pos_site_id
 _symmetry_equiv_pos_as_xyz
  1  'x, y, z'
loop_
 _atom_site_type_symbol
 _atom_site_label
 _atom_site_symmetry_multiplicity
 _atom_site_fract_x
 _atom_site_fract_y
 _atom_site_fract_z
 _atom_site_occupancy
  Fe  Fe0  1  0.610555  0.517840  0.232325  1
  Fe  Fe1  1  0.389445  0.017840  0.267675  1
  Fe  Fe2  1  0.389445  0.482160  0.767675  1
  Fe  Fe3  1  0.610555  0.982160  0.732325  1
  S  S4  1  0.971420  0.253197  0.917996  1
  S  S5  1  0.028580  0.753197  0.582004  1
  S  S6  1  0.028580  0.746803  0.082004  1
  S  S7  1  0.971420  0.246803  0.417996  1
  Cl  Cl8  1  0.147470  0.349069  0.020672  1
  Cl  Cl9  1  0.816451  0.853227  0.112605  1
  Cl  Cl10  1  0.390705  0.922963  0.596800  1
  Cl  Cl11  1  0.390705  0.577037  0.096800  1
  Cl  Cl12  1  0.183549  0.146773  0.887395  1
  Cl  Cl13  1  0.495493  0.946824  0.870774  1
  Cl  Cl14  1  0.504507  0.053176  0.129226  1
  Cl  Cl15  1  0.504507  0.446824  0.629226  1
  Cl  Cl16  1  0.078344  0.407490  0.757177  1
  Cl  Cl17  1  0.609295  0.077037  0.403200  1
  Cl  Cl18  1  0.814311  0.166086  0.003727  1
  Cl  Cl19  1  0.640539  0.157103  0.722430  1
  Cl  Cl20  1  0.816451  0.646773  0.612605  1
  Cl  Cl21  1  0.640539  0.342897  0.222430  1
  Cl  Cl22  1  0.609295  0.422963  0.903200  1
  Cl  Cl23  1  0.921656  0.907490  0.742823  1
  Cl  Cl24  1  0.147470  0.150931  0.520672  1
  Cl  Cl25  1  0.078344  0.092510  0.257177  1
  Cl  Cl26  1  0.495493  0.553176  0.370774  1
  Cl  Cl27  1  0.185689  0.833914  0.996273  1
  Cl  Cl28  1  0.359461  0.842897  0.277570  1
  Cl  Cl29  1  0.814311  0.333914  0.503727  1
  Cl  Cl30  1  0.183549  0.353227  0.387395  1
  Cl  Cl31  1  0.185689  0.666086  0.496273  1
  Cl  Cl32  1  0.359461  0.657103  0.777570  1
  Cl  Cl33  1  0.852530  0.650931  0.979328  1
  Cl  Cl34  1  0.852530  0.849069  0.479328  1
  Cl  Cl35  1  0.921656  0.592510  0.242823  1
