# generated using pymatgen
data_BaH4O3
_symmetry_space_group_name_H-M   'P 1'
_cell_length_a   4.17621312
_cell_length_b   6.43950420
_cell_length_c   7.20690645
_cell_angle_alpha   70.63075122
_cell_angle_beta   89.39181518
_cell_angle_gamma   89.31600837
_symmetry_Int_Tables_number   1
_chemical_formula_structural   BaH4O3
_chemical_formula_sum   'Ba2 H8 O6'
_cell_volume   182.82620751
_cell_formula_units_Z   2
loop_
 _symmetry_equiv_pos_site_id
 _symmetry_equiv_pos_as_xyz
  1  'x, y, z'
loop_
 _atom_site_type_symbol
 _atom_site_label
 _atom_site_symmetry_multiplicity
 _atom_site_fract_x
 _atom_site_fract_y
 _atom_site_fract_z
 _atom_site_occupancy
  Ba  Ba0  1  0.748847  0.134892  0.717987  1
  Ba  Ba1  1  0.251153  0.865108  0.282013  1
  H  H2  1  0.248164  0.350703  0.937435  1
  H  H3  1  0.751836  0.649297  0.062565  1
  H  H4  1  0.249907  0.767493  0.832258  1
  H  H5  1  0.750093  0.232507  0.167742  1
  H  H6  1  0.440626  0.315083  0.338798  1
  H  H7  1  0.056337  0.319421  0.338208  1
  H  H8  1  0.949321  0.659714  0.658901  1
  H  H9  1  0.559374  0.684917  0.661202  1
  O  O10  1  0.248051  0.389256  0.378609  1
  O  O11  1  0.756223  0.598186  0.613853  1
  O  O12  1  0.242579  0.200376  0.936128  1
  O  O13  1  0.757421  0.799624  0.063872  1
  O  O14  1  0.266992  0.818879  0.688848  1
  O  O15  1  0.750587  0.171102  0.306521  1
