# generated using pymatgen
data_ZnSiO3
_symmetry_space_group_name_H-M   'P 1'
_cell_length_a   5.33636132
_cell_length_b   9.30085266
_cell_length_c   18.49296809
_cell_angle_alpha   90.00000000
_cell_angle_beta   90.00000000
_cell_angle_gamma   90.00000000
_symmetry_Int_Tables_number   1
_chemical_formula_structural   ZnSiO3
_chemical_formula_sum   'Zn16 Si16 O48'
_cell_volume   917.85612924
_cell_formula_units_Z   16
loop_
 _symmetry_equiv_pos_site_id
 _symmetry_equiv_pos_as_xyz
  1  'x, y, z'
loop_
 _atom_site_type_symbol
 _atom_site_label
 _atom_site_symmetry_multiplicity
 _atom_site_fract_x
 _atom_site_fract_y
 _atom_site_fract_z
 _atom_site_occupancy
  Zn  Zn0  1  0.596606  0.144277  0.374664  1
  Zn  Zn1  1  0.599734  0.490204  0.375852  1
  Zn  Zn2  1  0.903394  0.644277  0.625336  1
  Zn  Zn3  1  0.099734  0.009796  0.375852  1
  Zn  Zn4  1  0.903394  0.144277  0.874664  1
  Zn  Zn5  1  0.096606  0.855723  0.125336  1
  Zn  Zn6  1  0.400266  0.009796  0.875852  1
  Zn  Zn7  1  0.599734  0.990204  0.124148  1
  Zn  Zn8  1  0.400266  0.509796  0.624148  1
  Zn  Zn9  1  0.900266  0.490204  0.875852  1
  Zn  Zn10  1  0.403394  0.355723  0.874664  1
  Zn  Zn11  1  0.596606  0.644277  0.125336  1
  Zn  Zn12  1  0.096606  0.355723  0.374664  1
  Zn  Zn13  1  0.900266  0.990204  0.624148  1
  Zn  Zn14  1  0.099734  0.509796  0.124148  1
  Zn  Zn15  1  0.403394  0.855723  0.625336  1
  Si  Si16  1  0.281956  0.166359  0.526969  1
  Si  Si17  1  0.218044  0.666359  0.473031  1
  Si  Si18  1  0.913048  0.663659  0.274461  1
  Si  Si19  1  0.281956  0.666359  0.973031  1
  Si  Si20  1  0.086952  0.336341  0.725539  1
  Si  Si21  1  0.913048  0.163659  0.225539  1
  Si  Si22  1  0.413048  0.836341  0.274461  1
  Si  Si23  1  0.413048  0.336341  0.225539  1
  Si  Si24  1  0.586952  0.663659  0.774461  1
  Si  Si25  1  0.218044  0.166359  0.026969  1
  Si  Si26  1  0.586952  0.163659  0.725539  1
  Si  Si27  1  0.781956  0.333641  0.526969  1
  Si  Si28  1  0.086952  0.836341  0.774461  1
  Si  Si29  1  0.718044  0.333641  0.026969  1
  Si  Si30  1  0.781956  0.833641  0.973031  1
  Si  Si31  1  0.718044  0.833641  0.473031  1
  O  O32  1  0.584803  0.665251  0.685360  1
  O  O33  1  0.717684  0.838941  0.562252  1
  O  O34  1  0.915197  0.665251  0.185360  1
  O  O35  1  0.084803  0.334749  0.814640  1
  O  O36  1  0.660008  0.748431  0.303257  1
  O  O37  1  0.084803  0.834749  0.685360  1
  O  O38  1  0.204040  0.017483  0.567480  1
  O  O39  1  0.782316  0.338941  0.437748  1
  O  O40  1  0.429949  0.288561  0.051291  1
  O  O41  1  0.795960  0.982517  0.432520  1
  O  O42  1  0.892080  0.005228  0.188547  1
  O  O43  1  0.217684  0.161059  0.937748  1
  O  O44  1  0.782316  0.838941  0.062252  1
  O  O45  1  0.795960  0.482517  0.067480  1
  O  O46  1  0.584803  0.165251  0.814640  1
  O  O47  1  0.392080  0.994772  0.311453  1
  O  O48  1  0.217684  0.661059  0.562252  1
  O  O49  1  0.295960  0.017483  0.067480  1
  O  O50  1  0.929949  0.711439  0.448709  1
  O  O51  1  0.570051  0.711439  0.948709  1
  O  O52  1  0.929949  0.211439  0.051291  1
  O  O53  1  0.107920  0.994772  0.811453  1
  O  O54  1  0.429949  0.788561  0.448709  1
  O  O55  1  0.160008  0.751569  0.303257  1
  O  O56  1  0.570051  0.211439  0.551291  1
  O  O57  1  0.339992  0.751569  0.803257  1
  O  O58  1  0.607920  0.005228  0.688547  1
  O  O59  1  0.415197  0.334749  0.314640  1
  O  O60  1  0.392080  0.494772  0.188547  1
  O  O61  1  0.607920  0.505228  0.811453  1
  O  O62  1  0.282316  0.161059  0.437748  1
  O  O63  1  0.704040  0.482517  0.567480  1
  O  O64  1  0.107920  0.494772  0.688547  1
  O  O65  1  0.160008  0.251569  0.196743  1
  O  O66  1  0.070051  0.288561  0.551291  1
  O  O67  1  0.282316  0.661059  0.062252  1
  O  O68  1  0.892080  0.505228  0.311453  1
  O  O69  1  0.915197  0.165251  0.314640  1
  O  O70  1  0.070051  0.788561  0.948709  1
  O  O71  1  0.660008  0.248431  0.196743  1
  O  O72  1  0.839992  0.248431  0.696743  1
  O  O73  1  0.704040  0.982517  0.932520  1
  O  O74  1  0.415197  0.834749  0.185360  1
  O  O75  1  0.204040  0.517483  0.932520  1
  O  O76  1  0.295960  0.517483  0.432520  1
  O  O77  1  0.339992  0.251569  0.696743  1
  O  O78  1  0.839992  0.748431  0.803257  1
  O  O79  1  0.717684  0.338941  0.937748  1
