# generated using pymatgen
data_CdSnAs2
_symmetry_space_group_name_H-M   'P 1'
_cell_length_a   4.67930230
_cell_length_b   4.67930230
_cell_length_c   39.89633965
_cell_angle_alpha   89.45558468
_cell_angle_beta   90.54441532
_cell_angle_gamma   123.69356111
_symmetry_Int_Tables_number   1
_chemical_formula_structural   CdSnAs2
_chemical_formula_sum   'Cd6 Sn6 As12'
_cell_volume   726.77831740
_cell_formula_units_Z   6
loop_
 _symmetry_equiv_pos_site_id
 _symmetry_equiv_pos_as_xyz
  1  'x, y, z'
loop_
 _atom_site_type_symbol
 _atom_site_label
 _atom_site_symmetry_multiplicity
 _atom_site_fract_x
 _atom_site_fract_y
 _atom_site_fract_z
 _atom_site_occupancy
  Cd  Cd0  1  0.339288  0.660712  0.588000  1
  Cd  Cd1  1  0.006812  0.993188  0.512309  1
  Cd  Cd2  1  0.006161  0.993839  0.753425  1
  Cd  Cd3  1  0.672455  0.327545  0.670990  1
  Cd  Cd4  1  0.338227  0.661773  0.835346  1
  Cd  Cd5  1  0.670083  0.329917  0.916606  1
  Sn  Sn6  1  0.001440  0.998560  0.995580  1
  Sn  Sn7  1  0.339128  0.660872  0.087831  1
  Sn  Sn8  1  0.671353  0.328647  0.169654  1
  Sn  Sn9  1  0.003889  0.996111  0.252897  1
  Sn  Sn10  1  0.338081  0.661919  0.335256  1
  Sn  Sn11  1  0.670837  0.329163  0.417914  1
  As  As12  1  0.330798  0.669202  0.019601  1
  As  As13  1  0.661124  0.338876  0.101517  1
  As  As14  1  0.994293  0.005707  0.184468  1
  As  As15  1  0.327113  0.672887  0.266917  1
  As  As16  1  0.660926  0.339074  0.349104  1
  As  As17  1  0.998579  0.001421  0.440623  1
  As  As18  1  0.327966  0.672034  0.519262  1
  As  As19  1  0.661999  0.338001  0.602796  1
  As  As20  1  0.995012  0.004988  0.684851  1
  As  As21  1  0.328815  0.671185  0.766336  1
  As  As22  1  0.660981  0.339019  0.848580  1
  As  As23  1  0.994487  0.005513  0.930140  1
