# generated using pymatgen
data_CoCu2(BO3)2
_symmetry_space_group_name_H-M   'P 1'
_cell_length_a   3.27059181
_cell_length_b   14.94114887
_cell_length_c   9.27057690
_cell_angle_alpha   90.00000000
_cell_angle_beta   94.50943371
_cell_angle_gamma   90.00000000
_symmetry_Int_Tables_number   1
_chemical_formula_structural   CoCu2(BO3)2
_chemical_formula_sum   'Co4 Cu8 B8 O24'
_cell_volume   451.61734427
_cell_formula_units_Z   4
loop_
 _symmetry_equiv_pos_site_id
 _symmetry_equiv_pos_as_xyz
  1  'x, y, z'
loop_
 _atom_site_type_symbol
 _atom_site_label
 _atom_site_symmetry_multiplicity
 _atom_site_fract_x
 _atom_site_fract_y
 _atom_site_fract_z
 _atom_site_occupancy
  Co  Co0  1  0.195245  0.862990  0.378128  1
  Co  Co1  1  0.804755  0.362990  0.121872  1
  Co  Co2  1  0.195245  0.637010  0.878128  1
  Co  Co3  1  0.804755  0.137010  0.621872  1
  Cu  Cu4  1  0.689436  0.543176  0.636946  1
  Cu  Cu5  1  0.689436  0.956824  0.136946  1
  Cu  Cu6  1  0.310564  0.456824  0.363054  1
  Cu  Cu7  1  0.310564  0.043176  0.863054  1
  Cu  Cu8  1  0.332911  0.257588  0.875263  1
  Cu  Cu9  1  0.667089  0.757588  0.624737  1
  Cu  Cu10  1  0.332911  0.242412  0.375263  1
  Cu  Cu11  1  0.667089  0.742412  0.124737  1
  B  B12  1  0.186572  0.652198  0.404949  1
  B  B13  1  0.136513  0.079743  0.334828  1
  B  B14  1  0.813428  0.347802  0.595051  1
  B  B15  1  0.863487  0.579743  0.165172  1
  B  B16  1  0.186572  0.847802  0.904949  1
  B  B17  1  0.136513  0.420257  0.834828  1
  B  B18  1  0.863487  0.920257  0.665172  1
  B  B19  1  0.813428  0.152198  0.095051  1
  O  O20  1  0.230944  0.733485  0.469902  1
  O  O21  1  0.230944  0.766515  0.969902  1
  O  O22  1  0.301833  0.383766  0.962427  1
  O  O23  1  0.698167  0.616234  0.037573  1
  O  O24  1  0.910109  0.006238  0.702554  1
  O  O25  1  0.335573  0.346140  0.259864  1
  O  O26  1  0.335573  0.153860  0.759864  1
  O  O27  1  0.910109  0.493762  0.202554  1
  O  O28  1  0.320354  0.573235  0.463521  1
  O  O29  1  0.698167  0.883766  0.537573  1
  O  O30  1  0.089891  0.506238  0.797446  1
  O  O31  1  0.984752  0.848615  0.763613  1
  O  O32  1  0.679646  0.073235  0.036479  1
  O  O33  1  0.664427  0.846140  0.240136  1
  O  O34  1  0.015248  0.151385  0.236387  1
  O  O35  1  0.769056  0.266515  0.530098  1
  O  O36  1  0.679646  0.426765  0.536479  1
  O  O37  1  0.984752  0.651385  0.263613  1
  O  O38  1  0.301833  0.116234  0.462427  1
  O  O39  1  0.769056  0.233485  0.030098  1
  O  O40  1  0.015248  0.348615  0.736387  1
  O  O41  1  0.089891  0.993762  0.297446  1
  O  O42  1  0.664427  0.653860  0.740136  1
  O  O43  1  0.320354  0.926765  0.963521  1
