# generated using pymatgen
data_Ag2Te
_symmetry_space_group_name_H-M   'P 1'
_cell_length_a   4.78229167
_cell_length_b   9.63144123
_cell_length_c   8.31854829
_cell_angle_alpha   90.00000000
_cell_angle_beta   124.62623138
_cell_angle_gamma   90.00000000
_symmetry_Int_Tables_number   1
_chemical_formula_structural   Ag2Te
_chemical_formula_sum   'Ag8 Te4'
_cell_volume   315.28945069
_cell_formula_units_Z   4
loop_
 _symmetry_equiv_pos_site_id
 _symmetry_equiv_pos_as_xyz
  1  'x, y, z'
loop_
 _atom_site_type_symbol
 _atom_site_label
 _atom_site_symmetry_multiplicity
 _atom_site_fract_x
 _atom_site_fract_y
 _atom_site_fract_z
 _atom_site_occupancy
  Ag  Ag0  1  0.331821  0.375292  0.667208  1
  Ag  Ag1  1  0.331821  0.624708  0.167208  1
  Ag  Ag2  1  0.752880  0.373056  0.244030  1
  Ag  Ag3  1  0.252641  0.875287  0.749339  1
  Ag  Ag4  1  0.752880  0.626944  0.744030  1
  Ag  Ag5  1  0.252641  0.124713  0.249339  1
  Ag  Ag6  1  0.753444  0.876413  0.249987  1
  Ag  Ag7  1  0.753444  0.123587  0.749987  1
  Te  Te8  1  0.001379  0.369936  0.005913  1
  Te  Te9  1  0.001379  0.630064  0.505913  1
  Te  Te10  1  0.991134  0.879631  0.000223  1
  Te  Te11  1  0.991134  0.120369  0.500223  1
