# generated using pymatgen
data_Na4H6Ru
_symmetry_space_group_name_H-M   'P 1'
_cell_length_a   6.50171025
_cell_length_b   6.50171025
_cell_length_c   6.50171025
_cell_angle_alpha   89.18745872
_cell_angle_beta   89.18745872
_cell_angle_gamma   89.18745872
_symmetry_Int_Tables_number   1
_chemical_formula_structural   Na4H6Ru
_chemical_formula_sum   'Na8 H12 Ru2'
_cell_volume   274.75969649
_cell_formula_units_Z   2
loop_
 _symmetry_equiv_pos_site_id
 _symmetry_equiv_pos_as_xyz
  1  'x, y, z'
loop_
 _atom_site_type_symbol
 _atom_site_label
 _atom_site_symmetry_multiplicity
 _atom_site_fract_x
 _atom_site_fract_y
 _atom_site_fract_z
 _atom_site_occupancy
  Na  Na0  1  0.750000  0.750000  0.750000  1
  Na  Na1  1  0.250000  0.250000  0.250000  1
  Na  Na2  1  0.750000  0.362392  0.137608  1
  Na  Na3  1  0.362392  0.137608  0.750000  1
  Na  Na4  1  0.137608  0.750000  0.362392  1
  Na  Na5  1  0.637608  0.862392  0.250000  1
  Na  Na6  1  0.862392  0.250000  0.637608  1
  Na  Na7  1  0.250000  0.637608  0.862392  1
  H  H8  1  0.554143  0.449880  0.757792  1
  H  H9  1  0.449880  0.757792  0.554143  1
  H  H10  1  0.757792  0.554143  0.449880  1
  H  H11  1  0.257792  0.949880  0.054143  1
  H  H12  1  0.949880  0.054143  0.257792  1
  H  H13  1  0.054143  0.257792  0.949880  1
  H  H14  1  0.445857  0.550120  0.242208  1
  H  H15  1  0.550120  0.242208  0.445857  1
  H  H16  1  0.242208  0.445857  0.550120  1
  H  H17  1  0.742208  0.050120  0.945857  1
  H  H18  1  0.050120  0.945857  0.742208  1
  H  H19  1  0.945857  0.742208  0.050120  1
  Ru  Ru20  1  0.500000  0.500000  0.500000  1
  Ru  Ru21  1  0.000000  0.000000  0.000000  1
