# generated using pymatgen
data_PH3O4
_symmetry_space_group_name_H-M   'P 1'
_cell_length_a   5.81129441
_cell_length_b   4.91044566
_cell_length_c   11.31021698
_cell_angle_alpha   90.00000000
_cell_angle_beta   94.70908977
_cell_angle_gamma   90.00000000
_symmetry_Int_Tables_number   1
_chemical_formula_structural   PH3O4
_chemical_formula_sum   'P4 H12 O16'
_cell_volume   321.65938641
_cell_formula_units_Z   4
loop_
 _symmetry_equiv_pos_site_id
 _symmetry_equiv_pos_as_xyz
  1  'x, y, z'
loop_
 _atom_site_type_symbol
 _atom_site_label
 _atom_site_symmetry_multiplicity
 _atom_site_fract_x
 _atom_site_fract_y
 _atom_site_fract_z
 _atom_site_occupancy
  P  P0  1  0.211527  0.045029  0.638750  1
  P  P1  1  0.792396  0.542732  0.859487  1
  P  P2  1  0.792396  0.457268  0.359487  1
  P  P3  1  0.211527  0.954971  0.138750  1
  H  H4  1  0.308459  0.704361  0.527327  1
  H  H5  1  0.804436  0.230103  0.000592  1
  H  H6  1  0.804436  0.769897  0.500592  1
  H  H7  1  0.308459  0.295639  0.027327  1
  H  H8  1  0.861236  0.198930  0.674224  1
  H  H9  1  0.138712  0.701903  0.825150  1
  H  H10  1  0.138712  0.298097  0.325150  1
  H  H11  1  0.861236  0.801070  0.174224  1
  H  H12  1  0.470300  0.368883  0.681958  1
  H  H13  1  0.532931  0.870180  0.820131  1
  H  H14  1  0.532931  0.129820  0.320131  1
  H  H15  1  0.470300  0.631117  0.181958  1
  O  O16  1  0.279880  0.901373  0.521782  1
  O  O17  1  0.717727  0.393675  0.974062  1
  O  O18  1  0.717727  0.606325  0.474062  1
  O  O19  1  0.279880  0.098627  0.021782  1
  O  O20  1  0.941417  0.066546  0.619813  1
  O  O21  1  0.061494  0.569457  0.879248  1
  O  O22  1  0.061494  0.430543  0.379248  1
  O  O23  1  0.941417  0.933454  0.119813  1
  O  O24  1  0.291006  0.892995  0.750690  1
  O  O25  1  0.715258  0.395115  0.745167  1
  O  O26  1  0.715258  0.604885  0.245167  1
  O  O27  1  0.291006  0.107005  0.250690  1
  O  O28  1  0.312058  0.340872  0.634564  1
  O  O29  1  0.687806  0.833285  0.867306  1
  O  O30  1  0.687806  0.166715  0.367306  1
  O  O31  1  0.312058  0.659128  0.134564  1
