# generated using pymatgen
data_Cs3Mn3V4O16
_symmetry_space_group_name_H-M   'P 1'
_cell_length_a   5.28381538
_cell_length_b   7.62534985
_cell_length_c   11.63993948
_cell_angle_alpha   102.21418974
_cell_angle_beta   89.76748258
_cell_angle_gamma   97.45168396
_symmetry_Int_Tables_number   1
_chemical_formula_structural   Cs3Mn3V4O16
_chemical_formula_sum   'Cs3 Mn3 V4 O16'
_cell_volume   454.36457245
_cell_formula_units_Z   1
loop_
 _symmetry_equiv_pos_site_id
 _symmetry_equiv_pos_as_xyz
  1  'x, y, z'
loop_
 _atom_site_type_symbol
 _atom_site_label
 _atom_site_symmetry_multiplicity
 _atom_site_fract_x
 _atom_site_fract_y
 _atom_site_fract_z
 _atom_site_occupancy
  Cs  Cs0  1  0.885889  0.259746  0.514596  1
  Cs  Cs1  1  0.000000  0.000000  0.000000  1
  Cs  Cs2  1  0.114111  0.740254  0.485404  1
  Mn  Mn3  1  0.008461  0.559931  0.132498  1
  Mn  Mn4  1  0.991539  0.440069  0.867502  1
  Mn  Mn5  1  0.500000  0.500000  0.000000  1
  V  V6  1  0.473750  0.672689  0.761876  1
  V  V7  1  0.527032  0.866153  0.233211  1
  V  V8  1  0.526250  0.327311  0.238124  1
  V  V9  1  0.472968  0.133847  0.766789  1
  O  O10  1  0.659837  0.603807  0.868217  1
  O  O11  1  0.789983  0.235326  0.764562  1
  O  O12  1  0.340163  0.396193  0.131783  1
  O  O13  1  0.385746  0.360247  0.367212  1
  O  O14  1  0.305614  0.273049  0.870593  1
  O  O15  1  0.614254  0.639753  0.632788  1
  O  O16  1  0.830644  0.452146  0.256449  1
  O  O17  1  0.346385  0.105050  0.631921  1
  O  O18  1  0.694386  0.726951  0.129407  1
  O  O19  1  0.454208  0.915276  0.811663  1
  O  O20  1  0.195155  0.613221  0.992253  1
  O  O21  1  0.653615  0.894950  0.368079  1
  O  O22  1  0.210017  0.764674  0.235438  1
  O  O23  1  0.545792  0.084724  0.188337  1
  O  O24  1  0.804845  0.386779  0.007747  1
  O  O25  1  0.169356  0.547854  0.743551  1
