# generated using pymatgen
data_NaYb3Ti2(SbO7)2
_symmetry_space_group_name_H-M   'P 1'
_cell_length_a   7.34188847
_cell_length_b   7.27301541
_cell_length_c   12.64255398
_cell_angle_alpha   90.00000000
_cell_angle_beta   125.11486725
_cell_angle_gamma   90.00000000
_symmetry_Int_Tables_number   1
_chemical_formula_structural   NaYb3Ti2(SbO7)2
_chemical_formula_sum   'Na2 Yb6 Ti4 Sb4 O28'
_cell_volume   552.21814066
_cell_formula_units_Z   2
loop_
 _symmetry_equiv_pos_site_id
 _symmetry_equiv_pos_as_xyz
  1  'x, y, z'
loop_
 _atom_site_type_symbol
 _atom_site_label
 _atom_site_symmetry_multiplicity
 _atom_site_fract_x
 _atom_site_fract_y
 _atom_site_fract_z
 _atom_site_occupancy
  Na  Na0  1  0.500000  0.000000  0.500000  1
  Na  Na1  1  0.500000  0.000000  0.000000  1
  Yb  Yb2  1  0.000000  0.248323  0.250000  1
  Yb  Yb3  1  0.500000  0.249992  0.250000  1
  Yb  Yb4  1  0.000000  0.751677  0.750000  1
  Yb  Yb5  1  0.500000  0.750008  0.750000  1
  Yb  Yb6  1  0.500000  0.500000  0.500000  1
  Yb  Yb7  1  0.500000  0.500000  0.000000  1
  Ti  Ti8  1  0.000000  0.259731  0.750000  1
  Ti  Ti9  1  0.000000  0.740269  0.250000  1
  Ti  Ti10  1  0.000000  0.500000  0.000000  1
  Ti  Ti11  1  0.000000  0.500000  0.500000  1
  Sb  Sb12  1  0.000000  0.000000  0.500000  1
  Sb  Sb13  1  0.500000  0.253289  0.750000  1
  Sb  Sb14  1  0.000000  0.000000  0.000000  1
  Sb  Sb15  1  0.500000  0.746711  0.250000  1
  O  O16  1  0.370630  0.263450  0.369811  1
  O  O17  1  0.939444  0.049181  0.630595  1
  O  O18  1  0.927208  0.251226  0.423576  1
  O  O19  1  0.370630  0.736550  0.869811  1
  O  O20  1  0.332279  0.043688  0.628838  1
  O  O21  1  0.931510  0.554271  0.123280  1
  O  O22  1  0.667721  0.043688  0.871162  1
  O  O23  1  0.939444  0.950819  0.130595  1
  O  O24  1  0.680712  0.260751  0.676216  1
  O  O25  1  0.927208  0.748774  0.923576  1
  O  O26  1  0.319288  0.739249  0.323784  1
  O  O27  1  0.327146  0.545864  0.123642  1
  O  O28  1  0.060556  0.049181  0.869405  1
  O  O29  1  0.332279  0.956312  0.128838  1
  O  O30  1  0.672854  0.545864  0.376358  1
  O  O31  1  0.667721  0.956312  0.371162  1
  O  O32  1  0.931510  0.445729  0.623280  1
  O  O33  1  0.629370  0.263450  0.130189  1
  O  O34  1  0.680712  0.739249  0.176216  1
  O  O35  1  0.072792  0.748774  0.576424  1
  O  O36  1  0.319288  0.260751  0.823784  1
  O  O37  1  0.060556  0.950819  0.369405  1
  O  O38  1  0.068490  0.554271  0.376720  1
  O  O39  1  0.327146  0.454136  0.623642  1
  O  O40  1  0.672854  0.454136  0.876358  1
  O  O41  1  0.629370  0.736550  0.630189  1
  O  O42  1  0.072792  0.251226  0.076424  1
  O  O43  1  0.068490  0.445729  0.876720  1
