# generated using pymatgen
data_K3Nd(Si2O5)3
_symmetry_space_group_name_H-M   'P 1'
_cell_length_a   7.38990243
_cell_length_b   14.81145252
_cell_length_c   16.03808190
_cell_angle_alpha   90.00000000
_cell_angle_beta   90.00000000
_cell_angle_gamma   90.00000000
_symmetry_Int_Tables_number   1
_chemical_formula_structural   K3Nd(Si2O5)3
_chemical_formula_sum   'K12 Nd4 Si24 O60'
_cell_volume   1755.45128507
_cell_formula_units_Z   4
loop_
 _symmetry_equiv_pos_site_id
 _symmetry_equiv_pos_as_xyz
  1  'x, y, z'
loop_
 _atom_site_type_symbol
 _atom_site_label
 _atom_site_symmetry_multiplicity
 _atom_site_fract_x
 _atom_site_fract_y
 _atom_site_fract_z
 _atom_site_occupancy
  K  K0  1  0.500000  0.535961  0.382852  1
  K  K1  1  0.500000  0.593753  0.938073  1
  K  K2  1  0.500000  0.406247  0.061927  1
  K  K3  1  0.500000  0.093753  0.561927  1
  K  K4  1  0.000000  0.621842  0.710524  1
  K  K5  1  0.000000  0.378158  0.289476  1
  K  K6  1  0.000000  0.121842  0.789476  1
  K  K7  1  0.000000  0.878158  0.210524  1
  K  K8  1  0.500000  0.906247  0.438073  1
  K  K9  1  0.500000  0.035961  0.117148  1
  K  K10  1  0.500000  0.464039  0.617148  1
  K  K11  1  0.500000  0.964039  0.882852  1
  Nd  Nd12  1  0.000000  0.500000  0.000000  1
  Nd  Nd13  1  0.000000  0.000000  0.500000  1
  Nd  Nd14  1  0.000000  0.500000  0.500000  1
  Nd  Nd15  1  0.000000  0.000000  0.000000  1
  Si  Si16  1  0.714024  0.199198  0.961225  1
  Si  Si17  1  0.714024  0.800802  0.038775  1
  Si  Si18  1  0.285976  0.699198  0.538775  1
  Si  Si19  1  0.285976  0.300802  0.461225  1
  Si  Si20  1  0.285976  0.800802  0.038775  1
  Si  Si21  1  0.285976  0.199198  0.961225  1
  Si  Si22  1  0.714024  0.300802  0.461225  1
  Si  Si23  1  0.714024  0.699198  0.538775  1
  Si  Si24  1  0.000000  0.779755  0.409168  1
  Si  Si25  1  0.000000  0.220245  0.590832  1
  Si  Si26  1  0.000000  0.279755  0.090832  1
  Si  Si27  1  0.000000  0.720245  0.909168  1
  Si  Si28  1  0.710703  0.365333  0.853707  1
  Si  Si29  1  0.710703  0.634667  0.146293  1
  Si  Si30  1  0.289297  0.865333  0.646293  1
  Si  Si31  1  0.000000  0.876728  0.788776  1
  Si  Si32  1  0.289297  0.134667  0.353707  1
  Si  Si33  1  0.000000  0.123272  0.211224  1
  Si  Si34  1  0.289297  0.365333  0.853707  1
  Si  Si35  1  0.710703  0.134667  0.353707  1
  Si  Si36  1  0.289297  0.634667  0.146293  1
  Si  Si37  1  0.000000  0.623272  0.288776  1
  Si  Si38  1  0.000000  0.376728  0.711224  1
  Si  Si39  1  0.710703  0.865333  0.646293  1
  O  O40  1  0.759805  0.257795  0.875619  1
  O  O41  1  0.500000  0.783266  0.013540  1
  O  O42  1  0.500000  0.216734  0.986460  1
  O  O43  1  0.500000  0.283266  0.486460  1
  O  O44  1  0.500000  0.716734  0.513540  1
  O  O45  1  0.760375  0.094492  0.947307  1
  O  O46  1  0.760375  0.905508  0.052693  1
  O  O47  1  0.239625  0.594492  0.552693  1
  O  O48  1  0.239625  0.405508  0.447307  1
  O  O49  1  0.239625  0.905508  0.052693  1
  O  O50  1  0.239625  0.094492  0.947307  1
  O  O51  1  0.760375  0.405508  0.447307  1
  O  O52  1  0.760375  0.594492  0.552693  1
  O  O53  1  0.759805  0.742205  0.124381  1
  O  O54  1  0.240195  0.757795  0.624381  1
  O  O55  1  0.240195  0.242205  0.375619  1
  O  O56  1  0.240195  0.742205  0.124381  1
  O  O57  1  0.500000  0.630173  0.178602  1
  O  O58  1  0.759805  0.242205  0.375619  1
  O  O59  1  0.759805  0.757795  0.624381  1
  O  O60  1  0.748344  0.430713  0.931209  1
  O  O61  1  0.748344  0.569287  0.068791  1
  O  O62  1  0.251656  0.930713  0.568791  1
  O  O63  1  0.251656  0.069287  0.431209  1
  O  O64  1  0.251656  0.569287  0.068791  1
  O  O65  1  0.240195  0.257795  0.875619  1
  O  O66  1  0.748344  0.069287  0.431209  1
  O  O67  1  0.748344  0.930713  0.568791  1
  O  O68  1  0.818641  0.756360  0.958461  1
  O  O69  1  0.818641  0.243640  0.041539  1
  O  O70  1  0.181359  0.256360  0.541539  1
  O  O71  1  0.181359  0.743640  0.458461  1
  O  O72  1  0.181359  0.243640  0.041539  1
  O  O73  1  0.181359  0.756360  0.958461  1
  O  O74  1  0.818641  0.743640  0.458461  1
  O  O75  1  0.818641  0.256360  0.541539  1
  O  O76  1  0.000000  0.613610  0.895382  1
  O  O77  1  0.000000  0.386390  0.104618  1
  O  O78  1  0.000000  0.113610  0.604618  1
  O  O79  1  0.000000  0.886390  0.395382  1
  O  O80  1  0.000000  0.769187  0.816254  1
  O  O81  1  0.000000  0.230813  0.183746  1
  O  O82  1  0.000000  0.269187  0.683746  1
  O  O83  1  0.000000  0.730813  0.316254  1
  O  O84  1  0.000000  0.945271  0.865297  1
  O  O85  1  0.000000  0.054729  0.134703  1
  O  O86  1  0.000000  0.445271  0.634703  1
  O  O87  1  0.000000  0.554729  0.365297  1
  O  O88  1  0.819825  0.893832  0.731310  1
  O  O89  1  0.819825  0.106168  0.268690  1
  O  O90  1  0.180175  0.393832  0.768690  1
  O  O91  1  0.180175  0.606168  0.231310  1
  O  O92  1  0.180175  0.106168  0.268690  1
  O  O93  1  0.180175  0.893832  0.731310  1
  O  O94  1  0.819825  0.606168  0.231310  1
  O  O95  1  0.819825  0.393832  0.768690  1
  O  O96  1  0.500000  0.869827  0.678602  1
  O  O97  1  0.500000  0.130173  0.321398  1
  O  O98  1  0.500000  0.369827  0.821398  1
  O  O99  1  0.251656  0.430713  0.931209  1
