# generated using pymatgen
data_Re(TeBr2)2
_symmetry_space_group_name_H-M   'P 1'
_cell_length_a   11.05656088
_cell_length_b   11.05656088
_cell_length_c   11.05656088
_cell_angle_alpha   116.12580907
_cell_angle_beta   116.12580907
_cell_angle_gamma   96.85243883
_symmetry_Int_Tables_number   1
_chemical_formula_structural   Re(TeBr2)2
_chemical_formula_sum   'Re4 Te8 Br16'
_cell_volume   1003.93937248
_cell_formula_units_Z   4
loop_
 _symmetry_equiv_pos_site_id
 _symmetry_equiv_pos_as_xyz
  1  'x, y, z'
loop_
 _atom_site_type_symbol
 _atom_site_label
 _atom_site_symmetry_multiplicity
 _atom_site_fract_x
 _atom_site_fract_y
 _atom_site_fract_z
 _atom_site_occupancy
  Re  Re0  1  0.188184  0.037567  0.083224  1
  Re  Re1  1  0.962433  0.045657  0.150617  1
  Re  Re2  1  0.954343  0.104960  0.916776  1
  Re  Re3  1  0.895040  0.811816  0.849383  1
  Te  Te4  1  0.849628  0.321732  0.919616  1
  Te  Te5  1  0.049148  0.921081  0.767860  1
  Te  Te6  1  0.678268  0.597884  0.527896  1
  Te  Te7  1  0.153221  0.281288  0.232140  1
  Te  Te8  1  0.402116  0.930012  0.080384  1
  Te  Te9  1  0.078919  0.846779  0.128068  1
  Te  Te10  1  0.069988  0.150372  0.472104  1
  Te  Te11  1  0.718712  0.950852  0.871932  1
  Br  Br12  1  0.212167  0.998499  0.553924  1
  Br  Br13  1  0.954205  0.579939  0.711593  1
  Br  Br14  1  0.803068  0.892642  0.198581  1
  Br  Br15  1  0.001501  0.555425  0.213669  1
  Br  Br16  1  0.734811  0.639345  0.342132  1
  Br  Br17  1  0.607321  0.265189  0.904535  1
  Br  Br18  1  0.420061  0.131655  0.374266  1
  Br  Br19  1  0.694061  0.604487  0.801419  1
  Br  Br20  1  0.444575  0.658243  0.446076  1
  Br  Br21  1  0.107358  0.305939  0.910426  1
  Br  Br22  1  0.868345  0.242612  0.288407  1
  Br  Br23  1  0.395513  0.196932  0.089574  1
  Br  Br24  1  0.757388  0.045795  0.625734  1
  Br  Br25  1  0.341757  0.787833  0.786331  1
  Br  Br26  1  0.360655  0.702787  0.095465  1
  Br  Br27  1  0.297213  0.392679  0.657868  1
