# generated using pymatgen
data_H4SO5
_symmetry_space_group_name_H-M   'P 1'
_cell_length_a   7.66924954
_cell_length_b   6.96571432
_cell_length_c   8.83197212
_cell_angle_alpha   90.00000000
_cell_angle_beta   108.69469056
_cell_angle_gamma   90.00000000
_symmetry_Int_Tables_number   1
_chemical_formula_structural   H4SO5
_chemical_formula_sum   'H16 S4 O20'
_cell_volume   446.92663673
_cell_formula_units_Z   4
loop_
 _symmetry_equiv_pos_site_id
 _symmetry_equiv_pos_as_xyz
  1  'x, y, z'
loop_
 _atom_site_type_symbol
 _atom_site_label
 _atom_site_symmetry_multiplicity
 _atom_site_fract_x
 _atom_site_fract_y
 _atom_site_fract_z
 _atom_site_occupancy
  H  H0  1  0.609733  0.563012  0.119113  1
  H  H1  1  0.609733  0.436988  0.619113  1
  H  H2  1  0.035286  0.590776  0.056482  1
  H  H3  1  0.035286  0.409224  0.556482  1
  H  H4  1  0.639971  0.940536  0.721869  1
  H  H5  1  0.769066  0.803916  0.877747  1
  H  H6  1  0.633727  0.980117  0.906071  1
  H  H7  1  0.265056  0.681878  0.647962  1
  H  H8  1  0.224851  0.292095  0.576813  1
  H  H9  1  0.192868  0.354437  0.737625  1
  H  H10  1  0.192868  0.645563  0.237625  1
  H  H11  1  0.265056  0.318122  0.147962  1
  H  H12  1  0.224851  0.707905  0.076813  1
  H  H13  1  0.769066  0.196084  0.377747  1
  H  H14  1  0.639971  0.059464  0.221869  1
  H  H15  1  0.633727  0.019883  0.406071  1
  S  S16  1  0.314904  0.917641  0.510649  1
  S  S17  1  0.733725  0.439025  0.953375  1
  S  S18  1  0.733725  0.560975  0.453375  1
  S  S19  1  0.314904  0.082359  0.010649  1
  O  O20  1  0.226751  0.213921  0.881426  1
  O  O21  1  0.837341  0.694936  0.572608  1
  O  O22  1  0.837341  0.305064  0.072608  1
  O  O23  1  0.226751  0.786079  0.381426  1
  O  O24  1  0.314317  0.813722  0.671993  1
  O  O25  1  0.645152  0.363057  0.792850  1
  O  O26  1  0.645152  0.636943  0.292850  1
  O  O27  1  0.314317  0.186278  0.171993  1
  O  O28  1  0.513855  0.952073  0.536426  1
  O  O29  1  0.568740  0.525785  0.000829  1
  O  O30  1  0.568740  0.474215  0.500829  1
  O  O31  1  0.513855  0.047927  0.036426  1
  O  O32  1  0.214255  0.096744  0.501301  1
  O  O33  1  0.854840  0.611111  0.947800  1
  O  O34  1  0.854840  0.388889  0.447800  1
  O  O35  1  0.214255  0.903256  0.001301  1
  O  O36  1  0.712942  0.937797  0.841147  1
  O  O37  1  0.179019  0.408335  0.627099  1
  O  O38  1  0.179019  0.591665  0.127099  1
  O  O39  1  0.712942  0.062203  0.341147  1
