# generated using pymatgen
data_NiP2O7
_symmetry_space_group_name_H-M   'P 1'
_cell_length_a   6.38004871
_cell_length_b   9.60450053
_cell_length_c   10.80494869
_cell_angle_alpha   64.30793164
_cell_angle_beta   80.94067041
_cell_angle_gamma   74.41585196
_symmetry_Int_Tables_number   1
_chemical_formula_structural   NiP2O7
_chemical_formula_sum   'Ni4 P8 O28'
_cell_volume   574.06458250
_cell_formula_units_Z   4
loop_
 _symmetry_equiv_pos_site_id
 _symmetry_equiv_pos_as_xyz
  1  'x, y, z'
loop_
 _atom_site_type_symbol
 _atom_site_label
 _atom_site_symmetry_multiplicity
 _atom_site_fract_x
 _atom_site_fract_y
 _atom_site_fract_z
 _atom_site_occupancy
  Ni  Ni0  1  0.369087  0.248485  0.253018  1
  Ni  Ni1  1  0.711337  0.117375  0.776084  1
  Ni  Ni2  1  0.294080  0.885999  0.225718  1
  Ni  Ni3  1  0.637476  0.763201  0.750634  1
  P  P4  1  0.096617  0.611092  0.209092  1
  P  P5  1  0.900033  0.397784  0.791137  1
  P  P6  1  0.275905  0.229949  0.968273  1
  P  P7  1  0.883891  0.146263  0.306861  1
  P  P8  1  0.579343  0.152624  0.543836  1
  P  P9  1  0.116202  0.855238  0.704237  1
  P  P10  1  0.723659  0.778618  0.032032  1
  P  P11  1  0.414963  0.852170  0.465074  1
  O  O12  1  0.139091  0.771656  0.174369  1
  O  O13  1  0.016675  0.463273  0.649284  1
  O  O14  1  0.942005  0.644412  0.088257  1
  O  O15  1  0.991765  0.990698  0.293475  1
  O  O16  1  0.692002  0.238370  0.213755  1
  O  O17  1  0.196365  0.908009  0.543380  1
  O  O18  1  0.046002  0.245321  0.285676  1
  O  O19  1  0.851753  0.237559  0.829565  1
  O  O20  1  0.626318  0.725466  0.944875  1
  O  O21  1  0.792362  0.091825  0.464348  1
  O  O22  1  0.208266  0.069119  0.049325  1
  O  O23  1  0.425742  0.992632  0.320499  1
  O  O24  1  0.953753  0.750799  0.731491  1
  O  O25  1  0.793487  0.938580  0.952041  1
  O  O26  1  0.014292  0.011141  0.718018  1
  O  O27  1  0.414910  0.210784  0.845553  1
  O  O28  1  0.583932  0.791420  0.155835  1
  O  O29  1  0.294990  0.482333  0.206882  1
  O  O30  1  0.320409  0.758457  0.786267  1
  O  O31  1  0.573015  0.010513  0.688540  1
  O  O32  1  0.386459  0.206313  0.457587  1
  O  O33  1  0.630918  0.272215  0.588836  1
  O  O34  1  0.978818  0.538749  0.349713  1
  O  O35  1  0.057864  0.362962  0.910647  1
  O  O36  1  0.705701  0.529065  0.794172  1
  O  O37  1  0.374006  0.730970  0.418326  1
  O  O38  1  0.371715  0.280737  0.055732  1
  O  O39  1  0.605386  0.803570  0.553717  1
