# generated using pymatgen
data_HPbIO
_symmetry_space_group_name_H-M   'P 1'
_cell_length_a   4.25988649
_cell_length_b   7.94516074
_cell_length_c   10.64273282
_cell_angle_alpha   90.00000000
_cell_angle_beta   90.00000000
_cell_angle_gamma   90.00000000
_symmetry_Int_Tables_number   1
_chemical_formula_structural   HPbIO
_chemical_formula_sum   'H4 Pb4 I4 O4'
_cell_volume   360.20843164
_cell_formula_units_Z   4
loop_
 _symmetry_equiv_pos_site_id
 _symmetry_equiv_pos_as_xyz
  1  'x, y, z'
loop_
 _atom_site_type_symbol
 _atom_site_label
 _atom_site_symmetry_multiplicity
 _atom_site_fract_x
 _atom_site_fract_y
 _atom_site_fract_z
 _atom_site_occupancy
  H  H0  1  0.750000  0.188857  0.109416  1
  H  H1  1  0.750000  0.688857  0.390584  1
  H  H2  1  0.250000  0.811143  0.890584  1
  H  H3  1  0.250000  0.311143  0.609416  1
  Pb  Pb4  1  0.750000  0.318211  0.419093  1
  Pb  Pb5  1  0.750000  0.818211  0.080907  1
  Pb  Pb6  1  0.250000  0.681789  0.580907  1
  Pb  Pb7  1  0.250000  0.181789  0.919093  1
  I  I8  1  0.250000  0.452785  0.179061  1
  I  I9  1  0.250000  0.952785  0.320939  1
  I  I10  1  0.750000  0.547215  0.820939  1
  I  I11  1  0.750000  0.047215  0.679061  1
  O  O12  1  0.750000  0.116813  0.035045  1
  O  O13  1  0.750000  0.616813  0.464955  1
  O  O14  1  0.250000  0.883187  0.964955  1
  O  O15  1  0.250000  0.383187  0.535045  1
