# generated using pymatgen
data_Al(SeCl)4
_symmetry_space_group_name_H-M   'P 1'
_cell_length_a   10.90011049
_cell_length_b   13.89044526
_cell_length_c   15.25667541
_cell_angle_alpha   90.00000000
_cell_angle_beta   90.00000000
_cell_angle_gamma   90.00000000
_symmetry_Int_Tables_number   1
_chemical_formula_structural   Al(SeCl)4
_chemical_formula_sum   'Al8 Se32 Cl32'
_cell_volume   2309.97337475
_cell_formula_units_Z   8
loop_
 _symmetry_equiv_pos_site_id
 _symmetry_equiv_pos_as_xyz
  1  'x, y, z'
loop_
 _atom_site_type_symbol
 _atom_site_label
 _atom_site_symmetry_multiplicity
 _atom_site_fract_x
 _atom_site_fract_y
 _atom_site_fract_z
 _atom_site_occupancy
  Al  Al0  1  0.265852  0.818801  0.112412  1
  Al  Al1  1  0.236721  0.008989  0.734838  1
  Al  Al2  1  0.763279  0.008989  0.234838  1
  Al  Al3  1  0.763279  0.508989  0.265162  1
  Al  Al4  1  0.236721  0.508989  0.765162  1
  Al  Al5  1  0.734148  0.318801  0.887588  1
  Al  Al6  1  0.265852  0.318801  0.387588  1
  Al  Al7  1  0.734148  0.818801  0.612412  1
  Se  Se8  1  0.272302  0.128028  0.998931  1
  Se  Se9  1  0.466365  0.227902  0.601585  1
  Se  Se10  1  0.913066  0.874347  0.958048  1
  Se  Se11  1  0.272302  0.628028  0.501069  1
  Se  Se12  1  0.398681  0.356469  0.128956  1
  Se  Se13  1  0.936565  0.131631  0.541562  1
  Se  Se14  1  0.086934  0.874347  0.458048  1
  Se  Se15  1  0.913066  0.374347  0.541952  1
  Se  Se16  1  0.727698  0.128028  0.498931  1
  Se  Se17  1  0.069667  0.752940  0.351919  1
  Se  Se18  1  0.376217  0.616096  0.366284  1
  Se  Se19  1  0.398681  0.856469  0.371044  1
  Se  Se20  1  0.727698  0.628028  0.001069  1
  Se  Se21  1  0.466365  0.727902  0.898415  1
  Se  Se22  1  0.601319  0.856469  0.871044  1
  Se  Se23  1  0.069667  0.252940  0.148081  1
  Se  Se24  1  0.930333  0.252940  0.648081  1
  Se  Se25  1  0.707989  0.351792  0.495063  1
  Se  Se26  1  0.063435  0.631631  0.458438  1
  Se  Se27  1  0.930333  0.752940  0.851919  1
  Se  Se28  1  0.533635  0.727902  0.398415  1
  Se  Se29  1  0.601319  0.356469  0.628956  1
  Se  Se30  1  0.936565  0.631631  0.958438  1
  Se  Se31  1  0.623783  0.116096  0.633716  1
  Se  Se32  1  0.623783  0.616096  0.866284  1
  Se  Se33  1  0.292011  0.851792  0.504937  1
  Se  Se34  1  0.707989  0.851792  0.004937  1
  Se  Se35  1  0.376217  0.116096  0.133716  1
  Se  Se36  1  0.063435  0.131631  0.041562  1
  Se  Se37  1  0.292011  0.351792  0.995063  1
  Se  Se38  1  0.533635  0.227902  0.101585  1
  Se  Se39  1  0.086934  0.374347  0.041952  1
  Cl  Cl40  1  0.760240  0.363715  0.022785  1
  Cl  Cl41  1  0.784662  0.856106  0.221049  1
  Cl  Cl42  1  0.590221  0.547958  0.206188  1
  Cl  Cl43  1  0.213310  0.172138  0.369663  1
  Cl  Cl44  1  0.767021  0.573153  0.395817  1
  Cl  Cl45  1  0.239760  0.363715  0.522785  1
  Cl  Cl46  1  0.456802  0.337917  0.354384  1
  Cl  Cl47  1  0.786690  0.672138  0.630337  1
  Cl  Cl48  1  0.543198  0.837917  0.645616  1
  Cl  Cl49  1  0.213310  0.672138  0.130337  1
  Cl  Cl50  1  0.839321  0.915924  0.693839  1
  Cl  Cl51  1  0.093761  0.572393  0.686907  1
  Cl  Cl52  1  0.839321  0.415924  0.806161  1
  Cl  Cl53  1  0.784662  0.356106  0.278951  1
  Cl  Cl54  1  0.215338  0.356106  0.778951  1
  Cl  Cl55  1  0.409779  0.047958  0.793812  1
  Cl  Cl56  1  0.093761  0.072393  0.813093  1
  Cl  Cl57  1  0.232979  0.573153  0.895817  1
  Cl  Cl58  1  0.786690  0.172138  0.869663  1
  Cl  Cl59  1  0.160679  0.415924  0.306161  1
  Cl  Cl60  1  0.906239  0.572393  0.186907  1
  Cl  Cl61  1  0.456802  0.837917  0.145616  1
  Cl  Cl62  1  0.906239  0.072393  0.313093  1
  Cl  Cl63  1  0.232979  0.073153  0.604183  1
  Cl  Cl64  1  0.239760  0.863715  0.977215  1
  Cl  Cl65  1  0.409779  0.547958  0.706188  1
  Cl  Cl66  1  0.767021  0.073153  0.104183  1
  Cl  Cl67  1  0.590221  0.047958  0.293812  1
  Cl  Cl68  1  0.160679  0.915924  0.193839  1
  Cl  Cl69  1  0.543198  0.337917  0.854384  1
  Cl  Cl70  1  0.760240  0.863715  0.477215  1
  Cl  Cl71  1  0.215338  0.856106  0.721049  1
