# generated using pymatgen
data_Sr(H8O5)2
_symmetry_space_group_name_H-M   'P 1'
_cell_length_a   6.25605732
_cell_length_b   6.51819286
_cell_length_c   11.20786732
_cell_angle_alpha   89.45231038
_cell_angle_beta   89.53021474
_cell_angle_gamma   87.90665562
_symmetry_Int_Tables_number   1
_chemical_formula_structural   Sr(H8O5)2
_chemical_formula_sum   'Sr2 H32 O20'
_cell_volume   456.69655683
_cell_formula_units_Z   2
loop_
 _symmetry_equiv_pos_site_id
 _symmetry_equiv_pos_as_xyz
  1  'x, y, z'
loop_
 _atom_site_type_symbol
 _atom_site_label
 _atom_site_symmetry_multiplicity
 _atom_site_fract_x
 _atom_site_fract_y
 _atom_site_fract_z
 _atom_site_occupancy
  Sr  Sr0  1  0.006819  0.997982  0.749002  1
  Sr  Sr1  1  0.996652  0.997437  0.249171  1
  H  H2  1  0.445580  0.077992  0.632590  1
  H  H3  1  0.294546  0.131458  0.524957  1
  H  H4  1  0.635349  0.754154  0.646986  1
  H  H5  1  0.689004  0.887867  0.531497  1
  H  H6  1  0.282324  0.591073  0.643764  1
  H  H7  1  0.129038  0.683447  0.544335  1
  H  H8  1  0.971059  0.429128  0.634265  1
  H  H9  1  0.662313  0.426468  0.661073  1
  H  H10  1  0.867815  0.319962  0.523901  1
  H  H11  1  0.398841  0.726665  0.149379  1
  H  H12  1  0.457266  0.960844  0.129909  1
  H  H13  1  0.610607  0.269201  0.146146  1
  H  H14  1  0.679942  0.137079  0.030503  1
  H  H15  1  0.040511  0.453049  0.127865  1
  H  H16  1  0.278677  0.378315  0.149795  1
  H  H17  1  0.737775  0.608524  0.147300  1
  H  H18  1  0.870136  0.686982  0.034110  1
  H  H19  1  0.615241  0.751451  0.359172  1
  H  H20  1  0.508767  0.979558  0.376982  1
  H  H21  1  0.377343  0.249443  0.359776  1
  H  H22  1  0.690831  0.423748  0.338083  1
  H  H23  1  0.056258  0.273336  0.394986  1
  H  H24  1  0.028471  0.553911  0.383580  1
  H  H25  1  0.265851  0.629502  0.368021  1
  H  H26  1  0.547636  0.034128  0.870329  1
  H  H27  1  0.610423  0.269392  0.852764  1
  H  H28  1  0.398368  0.722916  0.855050  1
  H  H29  1  0.324400  0.857838  0.967661  1
  H  H30  1  0.970180  0.553517  0.871774  1
  H  H31  1  0.725752  0.614711  0.861413  1
  H  H32  1  0.273321  0.385070  0.845515  1
  H  H33  1  0.145268  0.316465  0.962134  1
  O  O34  1  0.535112  0.526626  0.686920  1
  O  O35  1  0.520493  0.494959  0.190491  1
  O  O36  1  0.542961  0.493189  0.322409  1
  O  O37  1  0.511676  0.498783  0.817478  1
  O  O38  1  0.300550  0.133258  0.616047  1
  O  O39  1  0.693023  0.889154  0.620897  1
  O  O40  1  0.134794  0.652360  0.631483  1
  O  O41  1  0.863774  0.322805  0.618943  1
  O  O42  1  0.337169  0.863779  0.122165  1
  O  O43  1  0.667136  0.129025  0.119762  1
  O  O44  1  0.139571  0.328572  0.120250  1
  O  O45  1  0.878033  0.671043  0.123242  1
  O  O46  1  0.652307  0.893552  0.378698  1
  O  O47  1  0.300112  0.125027  0.379358  1
  O  O48  1  0.909991  0.340575  0.393564  1
  O  O49  1  0.120329  0.682656  0.384759  1
  O  O50  1  0.668942  0.128862  0.878622  1
  O  O51  1  0.338109  0.863426  0.878614  1
  O  O52  1  0.868316  0.674294  0.882160  1
  O  O53  1  0.132893  0.329410  0.873487  1
