# generated using pymatgen
data_Mg3V2O6
_symmetry_space_group_name_H-M   'P 1'
_cell_length_a   5.94293057
_cell_length_b   6.08008570
_cell_length_c   15.15351425
_cell_angle_alpha   90.91192276
_cell_angle_beta   90.58694832
_cell_angle_gamma   118.94754521
_symmetry_Int_Tables_number   1
_chemical_formula_structural   Mg3V2O6
_chemical_formula_sum   'Mg12 V8 O24'
_cell_volume   478.97929345
_cell_formula_units_Z   4
loop_
 _symmetry_equiv_pos_site_id
 _symmetry_equiv_pos_as_xyz
  1  'x, y, z'
loop_
 _atom_site_type_symbol
 _atom_site_label
 _atom_site_symmetry_multiplicity
 _atom_site_fract_x
 _atom_site_fract_y
 _atom_site_fract_z
 _atom_site_occupancy
  Mg  Mg0  1  0.685885  0.866737  0.859766  1
  Mg  Mg1  1  0.544736  0.579094  0.008715  1
  Mg  Mg2  1  0.009117  0.507747  0.624246  1
  Mg  Mg3  1  0.674452  0.341926  0.828377  1
  Mg  Mg4  1  0.357623  0.211973  0.194879  1
  Mg  Mg5  1  0.199916  0.903804  0.335686  1
  Mg  Mg6  1  0.995050  0.995412  0.503253  1
  Mg  Mg7  1  0.652591  0.816519  0.688143  1
  Mg  Mg8  1  0.332506  0.673382  0.170552  1
  Mg  Mg9  1  0.960570  0.426004  0.369147  1
  Mg  Mg10  1  0.838477  0.671954  0.170867  1
  Mg  Mg11  1  0.274870  0.070016  0.019200  1
  V  V12  1  0.172394  0.345549  0.828359  1
  V  V13  1  0.490855  0.990852  0.501692  1
  V  V14  1  0.343323  0.170892  0.665024  1
  V  V15  1  0.170502  0.833730  0.830519  1
  V  V16  1  0.657611  0.817960  0.331880  1
  V  V17  1  0.490880  0.488041  0.494769  1
  V  V18  1  0.994065  0.482482  0.000896  1
  V  V19  1  0.829450  0.160630  0.167026  1
  O  O20  1  0.332286  0.669093  0.916157  1
  O  O21  1  0.840830  0.663344  0.919421  1
  O  O22  1  0.011952  0.514293  0.759067  1
  O  O23  1  0.870241  0.213462  0.907676  1
  O  O24  1  0.641583  0.321190  0.583912  1
  O  O25  1  0.491426  0.490518  0.753997  1
  O  O26  1  0.337896  0.179158  0.899677  1
  O  O27  1  0.193438  0.331464  0.580289  1
  O  O28  1  0.501584  0.996553  0.758372  1
  O  O29  1  0.328589  0.155333  0.432230  1
  O  O30  1  0.187435  0.865205  0.586319  1
  O  O31  1  0.002785  0.996543  0.756336  1
  O  O32  1  0.791413  0.105867  0.421617  1
  O  O33  1  0.001374  0.006716  0.247241  1
  O  O34  1  0.654253  0.814416  0.563411  1
  O  O35  1  0.829391  0.672257  0.410001  1
  O  O36  1  0.499792  0.999287  0.250503  1
  O  O37  1  0.668266  0.843467  0.098977  1
  O  O38  1  0.329288  0.676405  0.410744  1
  O  O39  1  0.522718  0.543037  0.245178  1
  O  O40  1  0.132842  0.773567  0.086386  1
  O  O41  1  0.997690  0.493382  0.240078  1
  O  O42  1  0.177870  0.330602  0.079247  1
  O  O43  1  0.646852  0.323469  0.083497  1
