# generated using pymatgen
data_Li(Mo3S4)2
_symmetry_space_group_name_H-M   'P 1'
_cell_length_a   6.53171573
_cell_length_b   9.05160911
_cell_length_c   9.44187214
_cell_angle_alpha   89.82814600
_cell_angle_beta   89.57265542
_cell_angle_gamma   86.36190721
_symmetry_Int_Tables_number   1
_chemical_formula_structural   Li(Mo3S4)2
_chemical_formula_sum   'Li2 Mo12 S16'
_cell_volume   557.08519910
_cell_formula_units_Z   2
loop_
 _symmetry_equiv_pos_site_id
 _symmetry_equiv_pos_as_xyz
  1  'x, y, z'
loop_
 _atom_site_type_symbol
 _atom_site_label
 _atom_site_symmetry_multiplicity
 _atom_site_fract_x
 _atom_site_fract_y
 _atom_site_fract_z
 _atom_site_occupancy
  Li  Li0  1  0.099947  0.303267  0.263174  1
  Li  Li1  1  0.900053  0.696733  0.736826  1
  Mo  Mo2  1  0.216167  0.270654  0.678165  1
  Mo  Mo3  1  0.217181  0.772472  0.176920  1
  Mo  Mo4  1  0.404496  0.867803  0.417099  1
  Mo  Mo5  1  0.453214  0.566506  0.343332  1
  Mo  Mo6  1  0.404836  0.365278  0.915015  1
  Mo  Mo7  1  0.450057  0.060859  0.844248  1
  Mo  Mo8  1  0.546786  0.433494  0.656668  1
  Mo  Mo9  1  0.595504  0.132197  0.582901  1
  Mo  Mo10  1  0.549943  0.939141  0.155752  1
  Mo  Mo11  1  0.595164  0.634722  0.084985  1
  Mo  Mo12  1  0.783833  0.729346  0.321835  1
  Mo  Mo13  1  0.782819  0.227528  0.823080  1
  S  S14  1  0.133835  0.693686  0.420526  1
  S  S15  1  0.131399  0.192813  0.922467  1
  S  S16  1  0.273069  0.010150  0.623892  1
  S  S17  1  0.215089  0.031421  0.250348  1
  S  S18  1  0.269330  0.509210  0.123871  1
  S  S19  1  0.215077  0.529475  0.750711  1
  S  S20  1  0.386470  0.318184  0.449570  1
  S  S21  1  0.389547  0.819404  0.952704  1
  S  S22  1  0.613530  0.681816  0.550430  1
  S  S23  1  0.610453  0.180596  0.047296  1
  S  S24  1  0.784911  0.968579  0.749652  1
  S  S25  1  0.726931  0.989850  0.376108  1
  S  S26  1  0.784923  0.470525  0.249289  1
  S  S27  1  0.730670  0.490790  0.876129  1
  S  S28  1  0.866165  0.306314  0.579474  1
  S  S29  1  0.868601  0.807187  0.077533  1
