# generated using pymatgen
data_Li3In2(PO4)3
_symmetry_space_group_name_H-M   'P 1'
_cell_length_a   9.30945014
_cell_length_b   9.30945014
_cell_length_c   9.30945014
_cell_angle_alpha   55.37587453
_cell_angle_beta   55.37587453
_cell_angle_gamma   55.37587453
_symmetry_Int_Tables_number   1
_chemical_formula_structural   Li3In2(PO4)3
_chemical_formula_sum   'Li6 In4 P6 O24'
_cell_volume   509.21806697
_cell_formula_units_Z   2
loop_
 _symmetry_equiv_pos_site_id
 _symmetry_equiv_pos_as_xyz
  1  'x, y, z'
loop_
 _atom_site_type_symbol
 _atom_site_label
 _atom_site_symmetry_multiplicity
 _atom_site_fract_x
 _atom_site_fract_y
 _atom_site_fract_z
 _atom_site_occupancy
  Li  Li0  1  0.335824  0.732826  0.072484  1
  Li  Li1  1  0.732826  0.072484  0.335824  1
  Li  Li2  1  0.072484  0.335824  0.732826  1
  Li  Li3  1  0.664176  0.267174  0.927516  1
  Li  Li4  1  0.267174  0.927516  0.664176  1
  Li  Li5  1  0.927516  0.664176  0.267174  1
  In  In6  1  0.654487  0.654487  0.654487  1
  In  In7  1  0.345513  0.345513  0.345513  1
  In  In8  1  0.146581  0.146581  0.146581  1
  In  In9  1  0.853419  0.853419  0.853419  1
  P  P10  1  0.250420  0.548623  0.953968  1
  P  P11  1  0.548623  0.953968  0.250420  1
  P  P12  1  0.953968  0.250420  0.548623  1
  P  P13  1  0.749580  0.451377  0.046032  1
  P  P14  1  0.451377  0.046032  0.749580  1
  P  P15  1  0.046032  0.749580  0.451377  1
  O  O16  1  0.862067  0.250196  0.152092  1
  O  O17  1  0.250196  0.152092  0.862067  1
  O  O18  1  0.152092  0.862067  0.250196  1
  O  O19  1  0.137933  0.749804  0.847908  1
  O  O20  1  0.004658  0.807788  0.596865  1
  O  O21  1  0.596865  0.004658  0.807788  1
  O  O22  1  0.807788  0.596865  0.004658  1
  O  O23  1  0.995342  0.192212  0.403135  1
  O  O24  1  0.403135  0.995342  0.192212  1
  O  O25  1  0.192212  0.403135  0.995342  1
  O  O26  1  0.142908  0.204285  0.557169  1
  O  O27  1  0.557169  0.142908  0.204285  1
  O  O28  1  0.204285  0.557169  0.142908  1
  O  O29  1  0.857092  0.795715  0.442831  1
  O  O30  1  0.442831  0.857092  0.795715  1
  O  O31  1  0.795715  0.442831  0.857092  1
  O  O32  1  0.157362  0.535541  0.497326  1
  O  O33  1  0.497326  0.157362  0.535541  1
  O  O34  1  0.535541  0.497326  0.157362  1
  O  O35  1  0.842638  0.464459  0.502674  1
  O  O36  1  0.502674  0.842638  0.464459  1
  O  O37  1  0.464459  0.502674  0.842638  1
  O  O38  1  0.847908  0.137933  0.749804  1
  O  O39  1  0.749804  0.847908  0.137933  1
