# generated using pymatgen
data_Sm2Th3O9
_symmetry_space_group_name_H-M   'P 1'
_cell_length_a   14.28631090
_cell_length_b   14.28631090
_cell_length_c   14.28631090
_cell_angle_alpha   164.06615855
_cell_angle_beta   164.06615855
_cell_angle_gamma   22.60768579
_symmetry_Int_Tables_number   1
_chemical_formula_structural   Sm2Th3O9
_chemical_formula_sum   'Sm2 Th3 O9'
_cell_volume   219.70897010
_cell_formula_units_Z   1
loop_
 _symmetry_equiv_pos_site_id
 _symmetry_equiv_pos_as_xyz
  1  'x, y, z'
loop_
 _atom_site_type_symbol
 _atom_site_label
 _atom_site_symmetry_multiplicity
 _atom_site_fract_x
 _atom_site_fract_y
 _atom_site_fract_z
 _atom_site_occupancy
  Sm  Sm0  1  0.194277  0.194277  0.000000  1
  Sm  Sm1  1  0.805723  0.805723  0.000000  1
  Th  Th2  1  0.600304  0.600304  0.000000  1
  Th  Th3  1  0.000000  0.000000  0.000000  1
  Th  Th4  1  0.399696  0.399696  0.000000  1
  O  O5  1  0.446750  0.946750  0.500000  1
  O  O6  1  0.854412  0.354412  0.500000  1
  O  O7  1  0.645588  0.145588  0.500000  1
  O  O8  1  0.156479  0.656479  0.500000  1
  O  O9  1  0.053250  0.553250  0.500000  1
  O  O10  1  0.546987  0.046987  0.500000  1
  O  O11  1  0.953013  0.453013  0.500000  1
  O  O12  1  0.343521  0.843521  0.500000  1
  O  O13  1  0.750000  0.250000  0.500000  1
