# generated using pymatgen
data_Li2Co3(SeO3)4
_symmetry_space_group_name_H-M   'P 1'
_cell_length_a   7.86681941
_cell_length_b   9.34648593
_cell_length_c   8.28138418
_cell_angle_alpha   90.00000000
_cell_angle_beta   115.45986609
_cell_angle_gamma   90.00000000
_symmetry_Int_Tables_number   1
_chemical_formula_structural   Li2Co3(SeO3)4
_chemical_formula_sum   'Li4 Co6 Se8 O24'
_cell_volume   549.77335553
_cell_formula_units_Z   2
loop_
 _symmetry_equiv_pos_site_id
 _symmetry_equiv_pos_as_xyz
  1  'x, y, z'
loop_
 _atom_site_type_symbol
 _atom_site_label
 _atom_site_symmetry_multiplicity
 _atom_site_fract_x
 _atom_site_fract_y
 _atom_site_fract_z
 _atom_site_occupancy
  Li  Li0  1  0.075289  0.639058  0.900663  1
  Li  Li1  1  0.924711  0.360942  0.099337  1
  Li  Li2  1  0.575289  0.860942  0.900663  1
  Li  Li3  1  0.424711  0.139058  0.099337  1
  Co  Co4  1  0.171421  0.993682  0.703453  1
  Co  Co5  1  0.828579  0.006318  0.296547  1
  Co  Co6  1  0.328579  0.493682  0.296547  1
  Co  Co7  1  0.000000  0.000000  0.000000  1
  Co  Co8  1  0.500000  0.500000  0.000000  1
  Co  Co9  1  0.671421  0.506318  0.703453  1
  Se  Se10  1  0.735613  0.827477  0.598807  1
  Se  Se11  1  0.874686  0.684006  0.175913  1
  Se  Se12  1  0.625314  0.184006  0.824087  1
  Se  Se13  1  0.125314  0.315994  0.824087  1
  Se  Se14  1  0.235613  0.672523  0.598807  1
  Se  Se15  1  0.764387  0.327477  0.401193  1
  Se  Se16  1  0.264387  0.172523  0.401193  1
  Se  Se17  1  0.374686  0.815994  0.175913  1
  O  O18  1  0.815448  0.152775  0.032304  1
  O  O19  1  0.262763  0.581810  0.788959  1
  O  O20  1  0.762763  0.918190  0.788959  1
  O  O21  1  0.921467  0.868247  0.164899  1
  O  O22  1  0.553082  0.896328  0.141656  1
  O  O23  1  0.836721  0.662212  0.678226  1
  O  O24  1  0.578533  0.368247  0.835101  1
  O  O25  1  0.163279  0.337788  0.321774  1
  O  O26  1  0.237237  0.081810  0.211041  1
  O  O27  1  0.663279  0.162212  0.321774  1
  O  O28  1  0.946918  0.396328  0.858344  1
  O  O29  1  0.908708  0.900561  0.544077  1
  O  O30  1  0.446918  0.103672  0.858344  1
  O  O31  1  0.408708  0.599439  0.544077  1
  O  O32  1  0.421467  0.631753  0.164899  1
  O  O33  1  0.737237  0.418190  0.211041  1
  O  O34  1  0.315448  0.347225  0.032304  1
  O  O35  1  0.078533  0.131753  0.835101  1
  O  O36  1  0.184552  0.847225  0.967696  1
  O  O37  1  0.591292  0.400561  0.455923  1
  O  O38  1  0.053082  0.603672  0.141656  1
  O  O39  1  0.336721  0.837788  0.678226  1
  O  O40  1  0.684552  0.652775  0.967696  1
  O  O41  1  0.091292  0.099439  0.455923  1
