# generated using pymatgen
data_Na5Gd(MoO4)4
_symmetry_space_group_name_H-M   'P 1'
_cell_length_a   10.05847823
_cell_length_b   10.05847823
_cell_length_c   10.05847823
_cell_angle_alpha   109.43631748
_cell_angle_beta   109.43631748
_cell_angle_gamma   109.54104952
_symmetry_Int_Tables_number   1
_chemical_formula_structural   Na5Gd(MoO4)4
_chemical_formula_sum   'Na10 Gd2 Mo8 O32'
_cell_volume   783.38358256
_cell_formula_units_Z   2
loop_
 _symmetry_equiv_pos_site_id
 _symmetry_equiv_pos_as_xyz
  1  'x, y, z'
loop_
 _atom_site_type_symbol
 _atom_site_label
 _atom_site_symmetry_multiplicity
 _atom_site_fract_x
 _atom_site_fract_y
 _atom_site_fract_z
 _atom_site_occupancy
  Na  Na0  1  0.736721  0.153976  0.825696  1
  Na  Na1  1  0.513279  0.596024  0.674304  1
  Na  Na2  1  0.000000  0.000000  0.000000  1
  Na  Na3  1  0.088975  0.263279  0.417255  1
  Na  Na4  1  0.161025  0.486721  0.082745  1
  Na  Na5  1  0.328280  0.911025  0.174304  1
  Na  Na6  1  0.403976  0.078280  0.917255  1
  Na  Na7  1  0.921720  0.838975  0.325696  1
  Na  Na8  1  0.846024  0.671720  0.582745  1
  Na  Na9  1  0.250000  0.750000  0.500000  1
  Gd  Gd10  1  0.750000  0.250000  0.500000  1
  Gd  Gd11  1  0.500000  0.500000  0.000000  1
  Mo  Mo12  1  0.392075  0.166535  0.586522  1
  Mo  Mo13  1  0.833465  0.419987  0.225539  1
  Mo  Mo14  1  0.857925  0.583465  0.913478  1
  Mo  Mo15  1  0.194448  0.607925  0.774461  1
  Mo  Mo16  1  0.669987  0.944448  0.086522  1
  Mo  Mo17  1  0.580013  0.805552  0.413478  1
  Mo  Mo18  1  0.055552  0.142075  0.725539  1
  Mo  Mo19  1  0.416535  0.330013  0.274461  1
  O  O20  1  0.178062  0.070557  0.460545  1
  O  O21  1  0.553852  0.726086  0.949687  1
  O  O22  1  0.821159  0.702859  0.822086  1
  O  O23  1  0.604874  0.008374  0.234678  1
  O  O24  1  0.297141  0.119227  0.118300  1
  O  O25  1  0.428841  0.047141  0.677914  1
  O  O26  1  0.629804  0.395126  0.403501  1
  O  O27  1  0.071938  0.679443  0.039455  1
  O  O28  1  0.696148  0.023914  0.550313  1
  O  O29  1  0.773697  0.370196  0.765322  1
  O  O30  1  0.991626  0.226303  0.596499  1
  O  O31  1  0.258374  0.523697  0.903501  1
  O  O32  1  0.645126  0.741626  0.265322  1
  O  O33  1  0.476303  0.379804  0.734678  1
  O  O34  1  0.395835  0.446148  0.172234  1
  O  O35  1  0.249073  0.571159  0.618300  1
  O  O36  1  0.320557  0.360012  0.392495  1
  O  O37  1  0.273914  0.223601  0.827766  1
  O  O38  1  0.976086  0.526399  0.672234  1
  O  O39  1  0.473601  0.145835  0.449687  1
  O  O40  1  0.000927  0.178841  0.881700  1
  O  O41  1  0.967517  0.928062  0.607505  1
  O  O42  1  0.952859  0.630773  0.381700  1
  O  O43  1  0.854165  0.303852  0.327766  1
  O  O44  1  0.369227  0.750927  0.322086  1
  O  O45  1  0.282483  0.821938  0.892495  1
  O  O46  1  0.620196  0.354874  0.096499  1
  O  O47  1  0.639988  0.032483  0.960545  1
  O  O48  1  0.610012  0.717517  0.539455  1
  O  O49  1  0.929443  0.389988  0.107505  1
  O  O50  1  0.880773  0.999073  0.177914  1
  O  O51  1  0.776399  0.604165  0.050313  1
