# generated using pymatgen
data_DyGaCo
_symmetry_space_group_name_H-M   'P 1'
_cell_length_a   4.39394970
_cell_length_b   6.90190359
_cell_length_c   7.01129964
_cell_angle_alpha   90.00000000
_cell_angle_beta   90.00000000
_cell_angle_gamma   90.00000000
_symmetry_Int_Tables_number   1
_chemical_formula_structural   DyGaCo
_chemical_formula_sum   'Dy4 Ga4 Co4'
_cell_volume   212.62900063
_cell_formula_units_Z   4
loop_
 _symmetry_equiv_pos_site_id
 _symmetry_equiv_pos_as_xyz
  1  'x, y, z'
loop_
 _atom_site_type_symbol
 _atom_site_label
 _atom_site_symmetry_multiplicity
 _atom_site_fract_x
 _atom_site_fract_y
 _atom_site_fract_z
 _atom_site_occupancy
  Dy  Dy0  1  0.250000  0.196447  0.519191  1
  Dy  Dy1  1  0.250000  0.303553  0.019191  1
  Dy  Dy2  1  0.750000  0.696447  0.980809  1
  Dy  Dy3  1  0.750000  0.803553  0.480809  1
  Ga  Ga4  1  0.250000  0.895633  0.194627  1
  Ga  Ga5  1  0.750000  0.395633  0.305373  1
  Ga  Ga6  1  0.250000  0.604367  0.694627  1
  Ga  Ga7  1  0.750000  0.104367  0.805373  1
  Co  Co8  1  0.250000  0.933918  0.842462  1
  Co  Co9  1  0.250000  0.566082  0.342462  1
  Co  Co10  1  0.750000  0.066082  0.157538  1
  Co  Co11  1  0.750000  0.433918  0.657538  1
