# generated using pymatgen
data_RbLiH4S2(NO3)2
_symmetry_space_group_name_H-M   'P 1'
_cell_length_a   7.94745901
_cell_length_b   9.97796596
_cell_length_c   10.95440199
_cell_angle_alpha   108.93108331
_cell_angle_beta   93.68290322
_cell_angle_gamma   98.14552330
_symmetry_Int_Tables_number   1
_chemical_formula_structural   RbLiH4S2(NO3)2
_chemical_formula_sum   'Rb4 Li4 H16 S8 N8 O24'
_cell_volume   807.74838946
_cell_formula_units_Z   4
loop_
 _symmetry_equiv_pos_site_id
 _symmetry_equiv_pos_as_xyz
  1  'x, y, z'
loop_
 _atom_site_type_symbol
 _atom_site_label
 _atom_site_symmetry_multiplicity
 _atom_site_fract_x
 _atom_site_fract_y
 _atom_site_fract_z
 _atom_site_occupancy
  Rb  Rb0  1  0.759320  0.102051  0.145117  1
  Rb  Rb1  1  0.240680  0.897949  0.854883  1
  Rb  Rb2  1  0.223190  0.904574  0.339829  1
  Rb  Rb3  1  0.776810  0.095426  0.660171  1
  Li  Li4  1  0.889862  0.723600  0.052370  1
  Li  Li5  1  0.110138  0.276400  0.947630  1
  Li  Li6  1  0.115655  0.289721  0.457257  1
  Li  Li7  1  0.884345  0.710279  0.542743  1
  H  H8  1  0.548721  0.656538  0.849731  1
  H  H9  1  0.451279  0.343462  0.150269  1
  H  H10  1  0.690804  0.583926  0.751675  1
  H  H11  1  0.309196  0.416074  0.248325  1
  H  H12  1  0.534939  0.656395  0.326340  1
  H  H13  1  0.465061  0.343605  0.673660  1
  H  H14  1  0.542884  0.662146  0.173215  1
  H  H15  1  0.457116  0.337854  0.826785  1
  H  H16  1  0.501981  0.319961  0.387358  1
  H  H17  1  0.498019  0.680039  0.612642  1
  H  H18  1  0.557274  0.186758  0.435253  1
  H  H19  1  0.442726  0.813242  0.564747  1
  H  H20  1  0.223690  0.508211  0.783299  1
  H  H21  1  0.776310  0.491789  0.216701  1
  H  H22  1  0.026616  0.525710  0.825336  1
  H  H23  1  0.973384  0.474290  0.174664  1
  S  S24  1  0.746338  0.825528  0.826847  1
  S  S25  1  0.253662  0.174472  0.173153  1
  S  S26  1  0.732030  0.834150  0.322721  1
  S  S27  1  0.267970  0.165850  0.677279  1
  S  S28  1  0.759354  0.381037  0.508894  1
  S  S29  1  0.240646  0.618963  0.491106  1
  S  S30  1  0.233667  0.609250  0.996709  1
  S  S31  1  0.766333  0.390750  0.003291  1
  N  N32  1  0.619243  0.665477  0.775886  1
  N  N33  1  0.380757  0.334523  0.224114  1
  N  N34  1  0.613483  0.671248  0.258834  1
  N  N35  1  0.386517  0.328752  0.741166  1
  N  N36  1  0.557059  0.295365  0.464099  1
  N  N37  1  0.442941  0.704635  0.535901  1
  N  N38  1  0.152822  0.574655  0.843382  1
  N  N39  1  0.847178  0.425345  0.156618  1
  O  O40  1  0.630957  0.930709  0.856381  1
  O  O41  1  0.369043  0.069291  0.143619  1
  O  O42  1  0.842759  0.828656  0.717218  1
  O  O43  1  0.157241  0.171344  0.282782  1
  O  O44  1  0.864259  0.839566  0.942114  1
  O  O45  1  0.135741  0.160434  0.057886  1
  O  O46  1  0.623380  0.945235  0.359883  1
  O  O47  1  0.376620  0.054765  0.640117  1
  O  O48  1  0.836165  0.829551  0.437102  1
  O  O49  1  0.163835  0.170449  0.562898  1
  O  O50  1  0.836707  0.849468  0.220139  1
  O  O51  1  0.163293  0.150532  0.779861  1
  O  O52  1  0.761887  0.515156  0.480860  1
  O  O53  1  0.238113  0.484844  0.519140  1
  O  O54  1  0.869406  0.286330  0.431794  1
  O  O55  1  0.130594  0.713670  0.568206  1
  O  O56  1  0.792542  0.401372  0.648173  1
  O  O57  1  0.207458  0.598628  0.351827  1
  O  O58  1  0.412329  0.675752  0.002657  1
  O  O59  1  0.587671  0.324248  0.997343  1
  O  O60  1  0.131767  0.710440  0.074976  1
  O  O61  1  0.868233  0.289560  0.925024  1
  O  O62  1  0.220215  0.476573  0.030085  1
  O  O63  1  0.779785  0.523427  0.969915  1
