# generated using pymatgen
data_Sr7SmFe4(MoO6)4
_symmetry_space_group_name_H-M   'P 1'
_cell_length_a   5.63251593
_cell_length_b   5.67799012
_cell_length_c   18.74907436
_cell_angle_alpha   97.57095716
_cell_angle_beta   90.43684504
_cell_angle_gamma   119.53525915
_symmetry_Int_Tables_number   1
_chemical_formula_structural   Sr7SmFe4(MoO6)4
_chemical_formula_sum   'Sr7 Sm1 Fe4 Mo4 O24'
_cell_volume   515.31972035
_cell_formula_units_Z   1
loop_
 _symmetry_equiv_pos_site_id
 _symmetry_equiv_pos_as_xyz
  1  'x, y, z'
loop_
 _atom_site_type_symbol
 _atom_site_label
 _atom_site_symmetry_multiplicity
 _atom_site_fract_x
 _atom_site_fract_y
 _atom_site_fract_z
 _atom_site_occupancy
  Sr  Sr0  1  0.125997  0.063952  0.808742  1
  Sr  Sr1  1  0.623518  0.813746  0.563554  1
  Sr  Sr2  1  0.135407  0.565439  0.303831  1
  Sr  Sr3  1  0.619583  0.308752  0.074991  1
  Sr  Sr4  1  0.868855  0.438559  0.686654  1
  Sr  Sr5  1  0.372434  0.681371  0.936297  1
  Sr  Sr6  1  0.380195  0.189440  0.438720  1
  Sm  Sm7  1  0.857754  0.938704  0.186735  1
  Fe  Fe8  1  0.502503  0.748881  0.750803  1
  Fe  Fe9  1  0.998946  0.504001  0.500193  1
  Fe  Fe10  1  0.502588  0.249110  0.249243  1
  Fe  Fe11  1  0.248512  0.617540  0.129360  1
  Mo  Mo12  1  0.998088  0.994792  0.002659  1
  Mo  Mo13  1  0.748248  0.373705  0.873381  1
  Mo  Mo14  1  0.247086  0.127527  0.624181  1
  Mo  Mo15  1  0.752706  0.877007  0.374805  1
  O  O16  1  0.865034  0.678446  0.940272  1
  O  O17  1  0.369080  0.442848  0.684621  1
  O  O18  1  0.870767  0.182768  0.435136  1
  O  O19  1  0.441522  0.927967  0.188418  1
  O  O20  1  0.144490  0.532764  0.823509  1
  O  O21  1  0.645745  0.282512  0.569658  1
  O  O22  1  0.129840  0.012465  0.329684  1
  O  O23  1  0.660234  0.773108  0.077757  1
  O  O24  1  0.812054  0.141369  0.952376  1
  O  O25  1  0.313070  0.917850  0.692089  1
  O  O26  1  0.802546  0.657700  0.447494  1
  O  O27  1  0.266017  0.345814  0.195365  1
  O  O28  1  0.615669  0.063513  0.812016  1
  O  O29  1  0.123525  0.813671  0.559765  1
  O  O30  1  0.621110  0.581420  0.315061  1
  O  O31  1  0.104308  0.301023  0.065768  1
  O  O32  1  0.696712  0.604420  0.798215  1
  O  O33  1  0.186884  0.336026  0.550493  1
  O  O34  1  0.704665  0.093869  0.303639  1
  O  O35  1  0.200748  0.858733  0.048044  1
  O  O36  1  0.346627  0.218146  0.924959  1
  O  O37  1  0.852995  0.977331  0.675139  1
  O  O38  1  0.363370  0.724048  0.426076  1
  O  O39  1  0.880567  0.539663  0.180298  1
