# generated using pymatgen
data_Ba4Na(BO3)3
_symmetry_space_group_name_H-M   'P 1'
_cell_length_a   13.88969696
_cell_length_b   13.88969696
_cell_length_c   13.88969696
_cell_angle_alpha   109.47122063
_cell_angle_beta   109.47122063
_cell_angle_gamma   109.47122063
_symmetry_Int_Tables_number   1
_chemical_formula_structural   Ba4Na(BO3)3
_chemical_formula_sum   'Ba32 Na8 B24 O72'
_cell_volume   2062.79666734
_cell_formula_units_Z   8
loop_
 _symmetry_equiv_pos_site_id
 _symmetry_equiv_pos_as_xyz
  1  'x, y, z'
loop_
 _atom_site_type_symbol
 _atom_site_label
 _atom_site_symmetry_multiplicity
 _atom_site_fract_x
 _atom_site_fract_y
 _atom_site_fract_z
 _atom_site_occupancy
  Ba  Ba0  1  0.748639  0.498639  0.250000  1
  Ba  Ba1  1  0.498639  0.748639  0.750000  1
  Ba  Ba2  1  0.750000  0.751361  0.001361  1
  Ba  Ba3  1  0.498639  0.250000  0.748639  1
  Ba  Ba4  1  0.250000  0.748639  0.498639  1
  Ba  Ba5  1  0.001361  0.750000  0.751361  1
  Ba  Ba6  1  0.751361  0.250000  0.001361  1
  Ba  Ba7  1  0.748639  0.750000  0.498639  1
  Ba  Ba8  1  0.750000  0.498639  0.748639  1
  Ba  Ba9  1  0.250000  0.001361  0.751361  1
  Ba  Ba10  1  0.001361  0.751361  0.250000  1
  Ba  Ba11  1  0.751361  0.001361  0.750000  1
  Ba  Ba12  1  0.251361  0.501361  0.750000  1
  Ba  Ba13  1  0.501361  0.251361  0.250000  1
  Ba  Ba14  1  0.250000  0.248639  0.998639  1
  Ba  Ba15  1  0.501361  0.750000  0.251361  1
  Ba  Ba16  1  0.750000  0.251361  0.501361  1
  Ba  Ba17  1  0.998639  0.250000  0.248639  1
  Ba  Ba18  1  0.248639  0.750000  0.998639  1
  Ba  Ba19  1  0.251361  0.250000  0.501361  1
  Ba  Ba20  1  0.250000  0.501361  0.251361  1
  Ba  Ba21  1  0.750000  0.998639  0.248639  1
  Ba  Ba22  1  0.998639  0.248639  0.750000  1
  Ba  Ba23  1  0.248639  0.998639  0.250000  1
  Ba  Ba24  1  0.500000  0.500000  0.500000  1
  Ba  Ba25  1  0.500000  0.500000  0.000000  1
  Ba  Ba26  1  0.500000  1.000000  0.500000  1
  Ba  Ba27  1  0.000000  0.500000  0.500000  1
  Ba  Ba28  1  0.500000  0.000000  0.000000  1
  Ba  Ba29  1  0.000000  0.000000  0.500000  1
  Ba  Ba30  1  1.000000  0.500000  1.000000  1
  Ba  Ba31  1  0.000000  0.000000  0.000000  1
  Na  Na32  1  0.250000  0.250000  0.250000  1
  Na  Na33  1  0.250000  0.500000  1.000000  1
  Na  Na34  1  0.000000  0.250000  0.500000  1
  Na  Na35  1  0.500000  0.000000  0.250000  1
  Na  Na36  1  0.750000  0.750000  0.750000  1
  Na  Na37  1  0.750000  0.500000  0.000000  1
  Na  Na38  1  1.000000  0.750000  0.500000  1
  Na  Na39  1  0.500000  1.000000  0.750000  1
  B  B40  1  0.733592  0.983592  0.967184  1
  B  B41  1  0.483592  0.233592  0.467184  1
  B  B42  1  0.233592  0.266408  0.750000  1
  B  B43  1  0.016408  0.483592  0.750000  1
  B  B44  1  0.750000  0.016408  0.483592  1
  B  B45  1  0.467184  0.483592  0.233592  1
  B  B46  1  0.233592  0.467184  0.483592  1
  B  B47  1  0.266408  0.750000  0.233592  1
  B  B48  1  0.016408  0.032816  0.266408  1
  B  B49  1  0.967184  0.733592  0.983592  1
  B  B50  1  0.516408  0.250000  0.983592  1
  B  B51  1  0.250000  0.766408  0.733592  1
  B  B52  1  0.983592  0.967184  0.733592  1
  B  B53  1  0.733592  0.250000  0.766408  1
  B  B54  1  0.766408  0.532816  0.516408  1
  B  B55  1  0.532816  0.516408  0.766408  1
  B  B56  1  0.250000  0.983592  0.516408  1
  B  B57  1  0.983592  0.516408  0.250000  1
  B  B58  1  0.766408  0.733592  0.250000  1
  B  B59  1  0.516408  0.766408  0.532816  1
  B  B60  1  0.266408  0.016408  0.032816  1
  B  B61  1  0.032816  0.266408  0.016408  1
  B  B62  1  0.483592  0.750000  0.016408  1
  B  B63  1  0.750000  0.233592  0.266408  1
  O  O64  1  0.743013  0.597617  0.598611  1
  O  O65  1  0.411129  0.455564  0.705564  1
  O  O66  1  0.705564  0.411129  0.455564  1
  O  O67  1  0.794436  0.250000  0.705564  1
  O  O68  1  0.044436  0.088871  0.794436  1
  O  O69  1  0.250000  0.705564  0.794436  1
  O  O70  1  0.455564  0.250000  0.044436  1
  O  O71  1  0.794436  0.044436  0.088871  1
  O  O72  1  0.401389  0.256987  0.402383  1
  O  O73  1  0.256987  0.354605  0.855599  1
  O  O74  1  0.999006  0.401389  0.644401  1
  O  O75  1  0.644401  0.999006  0.401389  1
  O  O76  1  0.402383  0.500994  0.145395  1
  O  O77  1  0.145395  0.402383  0.500994  1
  O  O78  1  0.354605  0.855599  0.256987  1
  O  O79  1  0.999006  0.097617  0.354605  1
  O  O80  1  0.644401  0.145395  0.243013  1
  O  O81  1  0.500994  0.855599  0.098611  1
  O  O82  1  0.097617  0.354605  0.999006  1
  O  O83  1  0.243013  0.644401  0.145395  1
  O  O84  1  0.855599  0.098611  0.500994  1
  O  O85  1  0.402383  0.401389  0.256987  1
  O  O86  1  0.256987  0.402383  0.401389  1
  O  O87  1  0.354605  0.999006  0.097617  1
  O  O88  1  0.243013  0.098611  0.097617  1
  O  O89  1  0.145395  0.243013  0.644401  1
  O  O90  1  0.097617  0.243013  0.098611  1
  O  O91  1  0.098611  0.500994  0.855599  1
  O  O92  1  0.098611  0.097617  0.243013  1
  O  O93  1  0.500994  0.145395  0.402383  1
  O  O94  1  0.855599  0.256987  0.354605  1
  O  O95  1  0.401389  0.644401  0.999006  1
  O  O96  1  0.598611  0.743013  0.597617  1
  O  O97  1  0.743013  0.645395  0.144401  1
  O  O98  1  0.000994  0.598611  0.355599  1
  O  O99  1  0.355599  0.000994  0.598611  1
  O  O100  1  0.597617  0.499006  0.854605  1
  O  O101  1  0.854605  0.597617  0.499006  1
  O  O102  1  0.645395  0.144401  0.743013  1
  O  O103  1  0.000994  0.902383  0.645395  1
  O  O104  1  0.355599  0.854605  0.756987  1
  O  O105  1  0.499006  0.144401  0.901389  1
  O  O106  1  0.902383  0.645395  0.000994  1
  O  O107  1  0.756987  0.355599  0.854605  1
  O  O108  1  0.144401  0.901389  0.499006  1
  O  O109  1  0.597617  0.598611  0.743013  1
  O  O110  1  0.088871  0.794436  0.044436  1
  O  O111  1  0.645395  0.000994  0.902383  1
  O  O112  1  0.756987  0.901389  0.902383  1
  O  O113  1  0.854605  0.756987  0.355599  1
  O  O114  1  0.902383  0.756987  0.901389  1
  O  O115  1  0.901389  0.499006  0.144401  1
  O  O116  1  0.250000  0.044436  0.455564  1
  O  O117  1  0.499006  0.854605  0.597617  1
  O  O118  1  0.144401  0.743013  0.645395  1
  O  O119  1  0.598611  0.355599  0.000994  1
  O  O120  1  0.544436  0.294436  0.588871  1
  O  O121  1  0.294436  0.205564  0.750000  1
  O  O122  1  0.955564  0.544436  0.750000  1
  O  O123  1  0.750000  0.955564  0.544436  1
  O  O124  1  0.588871  0.544436  0.294436  1
  O  O125  1  0.294436  0.588871  0.544436  1
  O  O126  1  0.205564  0.750000  0.294436  1
  O  O127  1  0.955564  0.911129  0.205564  1
  O  O128  1  0.750000  0.294436  0.205564  1
  O  O129  1  0.544436  0.750000  0.955564  1
  O  O130  1  0.911129  0.205564  0.955564  1
  O  O131  1  0.205564  0.955564  0.911129  1
  O  O132  1  0.455564  0.705564  0.411129  1
  O  O133  1  0.705564  0.794436  0.250000  1
  O  O134  1  0.044436  0.455564  0.250000  1
  O  O135  1  0.901389  0.902383  0.756987  1
