# generated using pymatgen
data_Nb2Tl4Se11
_symmetry_space_group_name_H-M   'P 1'
_cell_length_a   8.18334928
_cell_length_b   9.35549231
_cell_length_c   14.06412496
_cell_angle_alpha   107.06908370
_cell_angle_beta   89.24175223
_cell_angle_gamma   94.32811730
_symmetry_Int_Tables_number   1
_chemical_formula_structural   Nb2Tl4Se11
_chemical_formula_sum   'Nb4 Tl8 Se22'
_cell_volume   1026.33002903
_cell_formula_units_Z   2
loop_
 _symmetry_equiv_pos_site_id
 _symmetry_equiv_pos_as_xyz
  1  'x, y, z'
loop_
 _atom_site_type_symbol
 _atom_site_label
 _atom_site_symmetry_multiplicity
 _atom_site_fract_x
 _atom_site_fract_y
 _atom_site_fract_z
 _atom_site_occupancy
  Nb  Nb0  1  0.121729  0.633099  0.303937  1
  Nb  Nb1  1  0.878271  0.366901  0.696063  1
  Nb  Nb2  1  0.337612  0.892541  0.188439  1
  Nb  Nb3  1  0.662388  0.107459  0.811561  1
  Tl  Tl4  1  0.509389  0.719810  0.884973  1
  Tl  Tl5  1  0.758322  0.416925  0.418203  1
  Tl  Tl6  1  0.787787  0.975434  0.428568  1
  Tl  Tl7  1  0.212213  0.024566  0.571432  1
  Tl  Tl8  1  0.490611  0.280190  0.115027  1
  Tl  Tl9  1  0.241678  0.583075  0.581797  1
  Tl  Tl10  1  0.052371  0.239095  0.982035  1
  Tl  Tl11  1  0.947629  0.760905  0.017965  1
  Se  Se12  1  0.052163  0.343125  0.247902  1
  Se  Se13  1  0.601578  0.077863  0.248958  1
  Se  Se14  1  0.391088  0.817648  0.371928  1
  Se  Se15  1  0.545940  0.692192  0.119571  1
  Se  Se16  1  0.349720  0.142973  0.333464  1
  Se  Se17  1  0.454060  0.307808  0.880429  1
  Se  Se18  1  0.263845  0.600223  0.111235  1
  Se  Se19  1  0.602411  0.446273  0.648368  1
  Se  Se20  1  0.273158  0.963706  0.039857  1
  Se  Se21  1  0.119982  0.506933  0.814741  1
  Se  Se22  1  0.030238  0.868282  0.249482  1
  Se  Se23  1  0.969762  0.131718  0.750518  1
  Se  Se24  1  0.736155  0.399777  0.888765  1
  Se  Se25  1  0.726842  0.036294  0.960143  1
  Se  Se26  1  0.947837  0.656875  0.752098  1
  Se  Se27  1  0.398422  0.922137  0.751042  1
  Se  Se28  1  0.608912  0.182352  0.628072  1
  Se  Se29  1  0.650280  0.857027  0.666536  1
  Se  Se30  1  0.397589  0.553727  0.351632  1
  Se  Se31  1  0.880018  0.493067  0.185259  1
  Se  Se32  1  0.983084  0.709757  0.466610  1
  Se  Se33  1  0.016916  0.290243  0.533390  1
