# generated using pymatgen
data_Tm(CuTe)3
_symmetry_space_group_name_H-M   'P 1'
_cell_length_a   6.90612391
_cell_length_b   7.59751142
_cell_length_c   12.72601254
_cell_angle_alpha   90.00000000
_cell_angle_beta   90.00000000
_cell_angle_gamma   90.00000000
_symmetry_Int_Tables_number   1
_chemical_formula_structural   Tm(CuTe)3
_chemical_formula_sum   'Tm4 Cu12 Te12'
_cell_volume   667.72567318
_cell_formula_units_Z   4
loop_
 _symmetry_equiv_pos_site_id
 _symmetry_equiv_pos_as_xyz
  1  'x, y, z'
loop_
 _atom_site_type_symbol
 _atom_site_label
 _atom_site_symmetry_multiplicity
 _atom_site_fract_x
 _atom_site_fract_y
 _atom_site_fract_z
 _atom_site_occupancy
  Tm  Tm0  1  0.234886  0.751511  0.837009  1
  Tm  Tm1  1  0.734886  0.248489  0.662991  1
  Tm  Tm2  1  0.734886  0.248489  0.337009  1
  Tm  Tm3  1  0.234886  0.751511  0.162991  1
  Cu  Cu4  1  0.371274  0.118798  0.833388  1
  Cu  Cu5  1  0.623187  0.616538  0.000000  1
  Cu  Cu6  1  0.123517  0.380463  0.177894  1
  Cu  Cu7  1  0.123187  0.383462  0.500000  1
  Cu  Cu8  1  0.872681  0.882724  0.000000  1
  Cu  Cu9  1  0.372681  0.117276  0.500000  1
  Cu  Cu10  1  0.623517  0.619537  0.677894  1
  Cu  Cu11  1  0.871274  0.881202  0.666612  1
  Cu  Cu12  1  0.123517  0.380463  0.822106  1
  Cu  Cu13  1  0.371274  0.118798  0.166612  1
  Cu  Cu14  1  0.871274  0.881202  0.333388  1
  Cu  Cu15  1  0.623517  0.619537  0.322106  1
  Te  Te16  1  0.977405  0.067417  0.834314  1
  Te  Te17  1  0.004758  0.563986  0.661878  1
  Te  Te18  1  0.977405  0.067417  0.165686  1
  Te  Te19  1  0.989753  0.060024  0.500000  1
  Te  Te20  1  0.504758  0.436014  0.838122  1
  Te  Te21  1  0.497499  0.447577  0.500000  1
  Te  Te22  1  0.997499  0.552423  0.000000  1
  Te  Te23  1  0.477405  0.932583  0.665686  1
  Te  Te24  1  0.489753  0.939976  0.000000  1
  Te  Te25  1  0.004758  0.563986  0.338122  1
  Te  Te26  1  0.504758  0.436014  0.161878  1
  Te  Te27  1  0.477405  0.932583  0.334314  1
