# generated using pymatgen
data_Sb6Pb6S17
_symmetry_space_group_name_H-M   'P 1'
_cell_length_a   3.99170623
_cell_length_b   15.64545883
_cell_length_c   23.37396507
_cell_angle_alpha   90.00000000
_cell_angle_beta   90.00000000
_cell_angle_gamma   90.00000000
_symmetry_Int_Tables_number   1
_chemical_formula_structural   Sb6Pb6S17
_chemical_formula_sum   'Sb12 Pb12 S34'
_cell_volume   1459.75263089
_cell_formula_units_Z   2
loop_
 _symmetry_equiv_pos_site_id
 _symmetry_equiv_pos_as_xyz
  1  'x, y, z'
loop_
 _atom_site_type_symbol
 _atom_site_label
 _atom_site_symmetry_multiplicity
 _atom_site_fract_x
 _atom_site_fract_y
 _atom_site_fract_z
 _atom_site_occupancy
  Sb  Sb0  1  0.501207  0.824278  0.398147  1
  Sb  Sb1  1  0.525885  0.434588  0.930117  1
  Sb  Sb2  1  0.474115  0.934588  0.569883  1
  Sb  Sb3  1  0.511920  0.557787  0.758047  1
  Sb  Sb4  1  0.474115  0.065412  0.430117  1
  Sb  Sb5  1  0.525885  0.565412  0.069883  1
  Sb  Sb6  1  0.498793  0.324278  0.101853  1
  Sb  Sb7  1  0.498793  0.675722  0.898147  1
  Sb  Sb8  1  0.488080  0.057787  0.741953  1
  Sb  Sb9  1  0.511920  0.442213  0.241953  1
  Sb  Sb10  1  0.488080  0.942213  0.258047  1
  Sb  Sb11  1  0.501207  0.175722  0.601853  1
  Pb  Pb12  1  0.995939  0.178724  0.295901  1
  Pb  Pb13  1  0.001405  0.079460  0.125321  1
  Pb  Pb14  1  0.995939  0.821276  0.704099  1
  Pb  Pb15  1  0.002116  0.798391  0.037689  1
  Pb  Pb16  1  0.997884  0.701609  0.537689  1
  Pb  Pb17  1  0.998595  0.420540  0.625321  1
  Pb  Pb18  1  0.001405  0.920540  0.874679  1
  Pb  Pb19  1  0.004061  0.678724  0.204099  1
  Pb  Pb20  1  0.997884  0.298391  0.462311  1
  Pb  Pb21  1  0.998595  0.579460  0.374679  1
  Pb  Pb22  1  0.002116  0.201609  0.962311  1
  Pb  Pb23  1  0.004061  0.321276  0.795901  1
  S  S24  1  0.991471  0.480087  0.850771  1
  S  S25  1  0.499464  0.290952  0.885847  1
  S  S26  1  0.776865  0.000000  0.000000  1
  S  S27  1  0.500536  0.790952  0.614153  1
  S  S28  1  0.993750  0.623639  0.996417  1
  S  S29  1  0.223135  0.500000  0.500000  1
  S  S30  1  0.500536  0.209048  0.385847  1
  S  S31  1  0.494536  0.186004  0.053332  1
  S  S32  1  0.503414  0.409505  0.721427  1
  S  S33  1  0.006250  0.123639  0.503583  1
  S  S34  1  0.497078  0.955393  0.068752  1
  S  S35  1  0.002702  0.098672  0.808221  1
  S  S36  1  0.004172  0.774429  0.334657  1
  S  S37  1  0.006250  0.876361  0.496417  1
  S  S38  1  0.494536  0.813996  0.946668  1
  S  S39  1  0.497078  0.044607  0.931248  1
  S  S40  1  0.004172  0.225571  0.665343  1
  S  S41  1  0.505464  0.686004  0.446668  1
  S  S42  1  0.008529  0.019913  0.350771  1
  S  S43  1  0.503414  0.590495  0.278573  1
  S  S44  1  0.502922  0.544607  0.568752  1
  S  S45  1  0.496586  0.090495  0.221427  1
  S  S46  1  0.995828  0.274429  0.165343  1
  S  S47  1  0.008529  0.980087  0.649229  1
  S  S48  1  0.997298  0.598672  0.691779  1
  S  S49  1  0.993750  0.376361  0.003583  1
  S  S50  1  0.499464  0.709048  0.114153  1
  S  S51  1  0.002702  0.901328  0.191779  1
  S  S52  1  0.997298  0.401328  0.308221  1
  S  S53  1  0.505464  0.313996  0.553332  1
  S  S54  1  0.995828  0.725571  0.834657  1
  S  S55  1  0.502922  0.455393  0.431248  1
  S  S56  1  0.496586  0.909505  0.778573  1
  S  S57  1  0.991471  0.519913  0.149229  1
