# generated using pymatgen
data_Na3SrTiNb3O12
_symmetry_space_group_name_H-M   'P 1'
_cell_length_a   7.92616207
_cell_length_b   8.01393431
_cell_length_c   11.19535836
_cell_angle_alpha   90.00000000
_cell_angle_beta   134.91244190
_cell_angle_gamma   90.00000000
_symmetry_Int_Tables_number   1
_chemical_formula_structural   Na3SrTiNb3O12
_chemical_formula_sum   'Na6 Sr2 Ti2 Nb6 O24'
_cell_volume   503.61005705
_cell_formula_units_Z   2
loop_
 _symmetry_equiv_pos_site_id
 _symmetry_equiv_pos_as_xyz
  1  'x, y, z'
loop_
 _atom_site_type_symbol
 _atom_site_label
 _atom_site_symmetry_multiplicity
 _atom_site_fract_x
 _atom_site_fract_y
 _atom_site_fract_z
 _atom_site_occupancy
  Na  Na0  1  0.000000  0.236336  0.250000  1
  Na  Na1  1  0.500000  0.232155  0.750000  1
  Na  Na2  1  0.500000  0.767525  0.750000  1
  Na  Na3  1  0.500000  0.232475  0.250000  1
  Na  Na4  1  0.500000  0.767845  0.250000  1
  Na  Na5  1  0.000000  0.763664  0.750000  1
  Sr  Sr6  1  0.000000  0.761367  0.250000  1
  Sr  Sr7  1  0.000000  0.238633  0.750000  1
  Ti  Ti8  1  0.000000  0.000000  0.500000  1
  Ti  Ti9  1  0.000000  0.000000  0.000000  1
  Nb  Nb10  1  0.500000  0.000000  0.000000  1
  Nb  Nb11  1  0.500000  0.500000  0.000000  1
  Nb  Nb12  1  0.000000  0.500000  0.500000  1
  Nb  Nb13  1  0.000000  0.500000  0.000000  1
  Nb  Nb14  1  0.500000  0.000000  0.500000  1
  Nb  Nb15  1  0.500000  0.500000  0.500000  1
  O  O16  1  0.727221  0.002222  0.975407  1
  O  O17  1  0.272779  0.002222  0.524593  1
  O  O18  1  0.796666  0.491841  0.047363  1
  O  O19  1  0.780672  0.004582  0.251927  1
  O  O20  1  0.293166  0.499275  0.750620  1
  O  O21  1  0.518080  0.749022  0.007501  1
  O  O22  1  0.002982  0.750454  0.492926  1
  O  O23  1  0.481920  0.250978  0.992499  1
  O  O24  1  0.997018  0.249546  0.507074  1
  O  O25  1  0.706834  0.500725  0.249380  1
  O  O26  1  0.219328  0.995418  0.748073  1
  O  O27  1  0.272779  0.997778  0.024593  1
  O  O28  1  0.203334  0.508159  0.952637  1
  O  O29  1  0.727221  0.997778  0.475407  1
  O  O30  1  0.796666  0.508159  0.547363  1
  O  O31  1  0.780672  0.995418  0.751927  1
  O  O32  1  0.293166  0.500725  0.250620  1
  O  O33  1  0.002982  0.249546  0.992926  1
  O  O34  1  0.518080  0.250978  0.507501  1
  O  O35  1  0.997018  0.750454  0.007074  1
  O  O36  1  0.481920  0.749022  0.492499  1
  O  O37  1  0.706834  0.499275  0.749380  1
  O  O38  1  0.219328  0.004582  0.248073  1
  O  O39  1  0.203334  0.491841  0.452637  1
