# generated using pymatgen
data_CoPO4
_symmetry_space_group_name_H-M   'P 1'
_cell_length_a   5.10946249
_cell_length_b   6.71682543
_cell_length_c   10.45000541
_cell_angle_alpha   90.00000000
_cell_angle_beta   90.00000000
_cell_angle_gamma   90.00000000
_symmetry_Int_Tables_number   1
_chemical_formula_structural   CoPO4
_chemical_formula_sum   'Co4 P4 O16'
_cell_volume   358.63757695
_cell_formula_units_Z   4
loop_
 _symmetry_equiv_pos_site_id
 _symmetry_equiv_pos_as_xyz
  1  'x, y, z'
loop_
 _atom_site_type_symbol
 _atom_site_label
 _atom_site_symmetry_multiplicity
 _atom_site_fract_x
 _atom_site_fract_y
 _atom_site_fract_z
 _atom_site_occupancy
  Co  Co0  1  0.814867  0.283585  0.657553  1
  Co  Co1  1  0.685133  0.283585  0.157553  1
  Co  Co2  1  0.185133  0.783585  0.342447  1
  Co  Co3  1  0.314867  0.783585  0.842447  1
  P  P4  1  0.313580  0.537603  0.594994  1
  P  P5  1  0.186420  0.537603  0.094994  1
  P  P6  1  0.813580  0.037603  0.905006  1
  P  P7  1  0.686420  0.037603  0.405006  1
  O  O8  1  0.751660  0.073454  0.047740  1
  O  O9  1  0.388961  0.001346  0.388737  1
  O  O10  1  0.736845  0.225421  0.827168  1
  O  O11  1  0.166560  0.350060  0.642212  1
  O  O12  1  0.111039  0.001346  0.888737  1
  O  O13  1  0.263155  0.725421  0.172832  1
  O  O14  1  0.748340  0.073454  0.547740  1
  O  O15  1  0.833440  0.850060  0.357788  1
  O  O16  1  0.888961  0.501346  0.111263  1
  O  O17  1  0.666560  0.850060  0.857788  1
  O  O18  1  0.763155  0.225421  0.327168  1
  O  O19  1  0.248340  0.573454  0.952260  1
  O  O20  1  0.236845  0.725421  0.672832  1
  O  O21  1  0.611039  0.501346  0.611263  1
  O  O22  1  0.333440  0.350060  0.142212  1
  O  O23  1  0.251660  0.573454  0.452260  1
