# generated using pymatgen
data_K3Co(CN)6
_symmetry_space_group_name_H-M   'P 1'
_cell_length_a   8.34906421
_cell_length_b   10.36524711
_cell_length_c   26.71204372
_cell_angle_alpha   90.00000000
_cell_angle_beta   90.00000000
_cell_angle_gamma   90.00000000
_symmetry_Int_Tables_number   1
_chemical_formula_structural   K3Co(CN)6
_chemical_formula_sum   'K24 Co8 C48 N48'
_cell_volume   2311.66329999
_cell_formula_units_Z   8
loop_
 _symmetry_equiv_pos_site_id
 _symmetry_equiv_pos_as_xyz
  1  'x, y, z'
loop_
 _atom_site_type_symbol
 _atom_site_label
 _atom_site_symmetry_multiplicity
 _atom_site_fract_x
 _atom_site_fract_y
 _atom_site_fract_z
 _atom_site_occupancy
  K  K0  1  0.253675  0.243817  0.628382  1
  K  K1  1  0.748468  0.499151  0.249514  1
  K  K2  1  0.253675  0.756183  0.371618  1
  K  K3  1  0.009822  0.500000  0.000000  1
  K  K4  1  0.248468  0.999151  0.750486  1
  K  K5  1  0.992709  0.735618  0.628530  1
  K  K6  1  0.994821  0.291145  0.872783  1
  K  K7  1  0.492709  0.235618  0.371470  1
  K  K8  1  0.494821  0.208855  0.872783  1
  K  K9  1  0.492709  0.764382  0.628530  1
  K  K10  1  0.753675  0.256183  0.628382  1
  K  K11  1  0.992709  0.264382  0.371470  1
  K  K12  1  0.248468  0.000849  0.249514  1
  K  K13  1  0.503450  0.000000  0.500000  1
  K  K14  1  0.748468  0.500849  0.750486  1
  K  K15  1  0.509822  0.000000  0.000000  1
  K  K16  1  0.256077  0.226418  0.125157  1
  K  K17  1  0.256077  0.773582  0.874843  1
  K  K18  1  0.756077  0.273582  0.125157  1
  K  K19  1  0.756077  0.726418  0.874843  1
  K  K20  1  0.994821  0.708855  0.127217  1
  K  K21  1  0.753675  0.743817  0.371618  1
  K  K22  1  0.003450  0.500000  0.500000  1
  K  K23  1  0.494821  0.791145  0.127217  1
  Co  Co24  1  0.750281  0.000613  0.249505  1
  Co  Co25  1  0.750281  0.999387  0.750495  1
  Co  Co26  1  0.499852  0.500000  0.000000  1
  Co  Co27  1  0.250281  0.500613  0.750495  1
  Co  Co28  1  0.496418  0.500000  0.500000  1
  Co  Co29  1  0.250281  0.499387  0.249505  1
  Co  Co30  1  0.996418  0.000000  0.500000  1
  Co  Co31  1  0.999852  0.000000  0.000000  1
  C  C32  1  0.244174  0.665640  0.722141  1
  C  C33  1  0.597798  0.948268  0.296291  1
  C  C34  1  0.097798  0.551732  0.296291  1
  C  C35  1  0.407884  0.548621  0.297476  1
  C  C36  1  0.498746  0.332364  0.028763  1
  C  C37  1  0.844056  0.949804  0.047019  1
  C  C38  1  0.907884  0.048621  0.702524  1
  C  C39  1  0.904931  0.948395  0.797386  1
  C  C40  1  0.342717  0.447697  0.452043  1
  C  C41  1  0.154828  0.948747  0.047325  1
  C  C42  1  0.590717  0.951704  0.797748  1
  C  C43  1  0.090717  0.548296  0.797748  1
  C  C44  1  0.755361  0.165202  0.777745  1
  C  C45  1  0.255361  0.665202  0.222255  1
  C  C46  1  0.090717  0.451704  0.202252  1
  C  C47  1  0.342717  0.552303  0.547957  1
  C  C48  1  0.097798  0.448268  0.703709  1
  C  C49  1  0.755361  0.834798  0.222255  1
  C  C50  1  0.407884  0.451379  0.702524  1
  C  C51  1  0.344056  0.550196  0.047019  1
  C  C52  1  0.404931  0.448395  0.202614  1
  C  C53  1  0.653508  0.449482  0.453762  1
  C  C54  1  0.498746  0.667636  0.971237  1
  C  C55  1  0.344056  0.449804  0.952981  1
  C  C56  1  0.153508  0.949482  0.546238  1
  C  C57  1  0.842717  0.947697  0.547957  1
  C  C58  1  0.842717  0.052303  0.452043  1
  C  C59  1  0.654828  0.551253  0.047325  1
  C  C60  1  0.998746  0.832364  0.971237  1
  C  C61  1  0.255361  0.334798  0.777745  1
  C  C62  1  0.153508  0.050518  0.453762  1
  C  C63  1  0.844056  0.050196  0.952981  1
  C  C64  1  0.744174  0.165640  0.277859  1
  C  C65  1  0.499872  0.333019  0.529047  1
  C  C66  1  0.597798  0.051732  0.703709  1
  C  C67  1  0.590717  0.048296  0.202252  1
  C  C68  1  0.244174  0.334360  0.277859  1
  C  C69  1  0.653508  0.550518  0.546238  1
  C  C70  1  0.904931  0.051605  0.202614  1
  C  C71  1  0.154828  0.051253  0.952675  1
  C  C72  1  0.744174  0.834360  0.722141  1
  C  C73  1  0.999872  0.833019  0.470953  1
  C  C74  1  0.999872  0.166981  0.529047  1
  C  C75  1  0.654828  0.448747  0.952675  1
  C  C76  1  0.499872  0.666981  0.470953  1
  C  C77  1  0.404931  0.551605  0.797386  1
  C  C78  1  0.998746  0.167636  0.028763  1
  C  C79  1  0.907884  0.951379  0.297476  1
  N  N80  1  0.497921  0.770081  0.952234  1
  N  N81  1  0.751188  0.582719  0.575239  1
  N  N82  1  0.748794  0.919180  0.077142  1
  N  N83  1  0.498370  0.083575  0.675241  1
  N  N84  1  0.500966  0.230210  0.547719  1
  N  N85  1  0.003642  0.921941  0.327693  1
  N  N86  1  0.758292  0.268031  0.796089  1
  N  N87  1  0.751188  0.417281  0.424761  1
  N  N88  1  0.997921  0.270081  0.047766  1
  N  N89  1  0.248794  0.580820  0.077142  1
  N  N90  1  0.498370  0.916425  0.324759  1
  N  N91  1  0.258292  0.768031  0.203911  1
  N  N92  1  0.993327  0.421534  0.172643  1
  N  N93  1  0.500966  0.769790  0.452281  1
  N  N94  1  0.998370  0.583575  0.324759  1
  N  N95  1  0.006760  0.082063  0.174809  1
  N  N96  1  0.503642  0.578059  0.327693  1
  N  N97  1  0.000966  0.730210  0.452281  1
  N  N98  1  0.251077  0.083821  0.923161  1
  N  N99  1  0.248794  0.419180  0.922858  1
  N  N100  1  0.240263  0.768968  0.704313  1
  N  N101  1  0.746955  0.914160  0.577524  1
  N  N102  1  0.506760  0.417937  0.174809  1
  N  N103  1  0.751077  0.583821  0.076839  1
  N  N104  1  0.740263  0.731032  0.704313  1
  N  N105  1  0.993327  0.578466  0.827357  1
  N  N106  1  0.251077  0.916179  0.076839  1
  N  N107  1  0.503642  0.421941  0.672307  1
  N  N108  1  0.251188  0.917281  0.575239  1
  N  N109  1  0.240263  0.231032  0.295687  1
  N  N110  1  0.000966  0.269790  0.547719  1
  N  N111  1  0.493327  0.921534  0.827357  1
  N  N112  1  0.998370  0.416425  0.675241  1
  N  N113  1  0.748794  0.080820  0.922858  1
  N  N114  1  0.497921  0.229919  0.047766  1
  N  N115  1  0.003642  0.078059  0.672307  1
  N  N116  1  0.258292  0.231969  0.796089  1
  N  N117  1  0.997921  0.729919  0.952234  1
  N  N118  1  0.251188  0.082719  0.424761  1
  N  N119  1  0.246955  0.414160  0.422476  1
  N  N120  1  0.740263  0.268968  0.295687  1
  N  N121  1  0.006760  0.917937  0.825191  1
  N  N122  1  0.506760  0.582063  0.825191  1
  N  N123  1  0.751077  0.416179  0.923161  1
  N  N124  1  0.746955  0.085840  0.422476  1
  N  N125  1  0.493327  0.078466  0.172643  1
  N  N126  1  0.246955  0.585840  0.577524  1
  N  N127  1  0.758292  0.731969  0.203911  1
