# generated using pymatgen
data_Li7Mn11O24
_symmetry_space_group_name_H-M   'P 1'
_cell_length_a   10.04194739
_cell_length_b   10.04194739
_cell_length_c   8.56348454
_cell_angle_alpha   66.43920658
_cell_angle_beta   113.56079342
_cell_angle_gamma   146.48257287
_symmetry_Int_Tables_number   1
_chemical_formula_structural   Li7Mn11O24
_chemical_formula_sum   'Li7 Mn11 O24'
_cell_volume   433.30671597
_cell_formula_units_Z   1
loop_
 _symmetry_equiv_pos_site_id
 _symmetry_equiv_pos_as_xyz
  1  'x, y, z'
loop_
 _atom_site_type_symbol
 _atom_site_label
 _atom_site_symmetry_multiplicity
 _atom_site_fract_x
 _atom_site_fract_y
 _atom_site_fract_z
 _atom_site_occupancy
  Li  Li0  1  0.734759  0.937816  0.264289  1
  Li  Li1  1  0.080879  0.587252  0.616691  1
  Li  Li2  1  0.412264  0.255213  0.956884  1
  Li  Li3  1  0.255213  0.412264  0.043116  1
  Li  Li4  1  0.587252  0.080879  0.383309  1
  Li  Li5  1  0.937816  0.734759  0.735711  1
  Li  Li6  1  0.825062  0.825062  0.500000  1
  Mn  Mn7  1  0.170522  0.498204  0.341321  1
  Mn  Mn8  1  0.006228  0.170273  0.658571  1
  Mn  Mn9  1  0.833862  0.334395  0.999760  1
  Mn  Mn10  1  0.665022  0.003669  0.817231  1
  Mn  Mn11  1  0.498204  0.170522  0.658679  1
  Mn  Mn12  1  0.497895  0.662299  0.658802  1
  Mn  Mn13  1  0.334395  0.833862  0.000240  1
  Mn  Mn14  1  0.170273  0.006228  0.341429  1
  Mn  Mn15  1  0.003669  0.665022  0.182769  1
  Mn  Mn16  1  0.833775  0.833775  0.000000  1
  Mn  Mn17  1  0.662299  0.497895  0.341198  1
  O  O18  1  0.489138  0.673699  0.430155  1
  O  O19  1  0.175959  0.492329  0.576645  1
  O  O20  1  0.995762  0.180100  0.430128  1
  O  O21  1  0.803801  0.305255  0.744701  1
  O  O22  1  0.676430  0.992494  0.606411  1
  O  O23  1  0.657570  0.011528  0.040083  1
  O  O24  1  0.503990  0.161352  0.895969  1
  O  O25  1  0.363456  0.864620  0.744193  1
  O  O26  1  0.305255  0.803801  0.255299  1
  O  O27  1  0.142065  0.973441  0.108049  1
  O  O28  1  0.011528  0.657570  0.959917  1
  O  O29  1  0.161352  0.503990  0.104031  1
  O  O30  1  0.992494  0.676430  0.393589  1
  O  O31  1  0.841972  0.825240  0.273790  1
  O  O32  1  0.864620  0.363456  0.255807  1
  O  O33  1  0.694000  0.525245  0.107956  1
  O  O34  1  0.673699  0.489138  0.569845  1
  O  O35  1  0.347019  0.320525  0.260807  1
  O  O36  1  0.320525  0.347019  0.739193  1
  O  O37  1  0.492329  0.175959  0.423355  1
  O  O38  1  0.180100  0.995762  0.569872  1
  O  O39  1  0.973441  0.142065  0.891951  1
  O  O40  1  0.825240  0.841972  0.726210  1
  O  O41  1  0.525245  0.694000  0.892044  1
