# generated using pymatgen
data_Ba8Bi4O17
_symmetry_space_group_name_H-M   'P 1'
_cell_length_a   6.42356176
_cell_length_b   6.42507412
_cell_length_c   14.47282714
_cell_angle_alpha   102.54376058
_cell_angle_beta   102.70844718
_cell_angle_gamma   90.11407874
_symmetry_Int_Tables_number   1
_chemical_formula_structural   Ba8Bi4O17
_chemical_formula_sum   'Ba8 Bi4 O17'
_cell_volume   568.00146802
_cell_formula_units_Z   1
loop_
 _symmetry_equiv_pos_site_id
 _symmetry_equiv_pos_as_xyz
  1  'x, y, z'
loop_
 _atom_site_type_symbol
 _atom_site_label
 _atom_site_symmetry_multiplicity
 _atom_site_fract_x
 _atom_site_fract_y
 _atom_site_fract_z
 _atom_site_occupancy
  Ba  Ba0  1  0.754219  0.270179  0.509929  1
  Ba  Ba1  1  0.842942  0.841241  0.671342  1
  Ba  Ba2  1  0.445411  0.947644  0.881064  1
  Ba  Ba3  1  0.941012  0.436134  0.881073  1
  Ba  Ba4  1  0.093643  0.602686  0.194868  1
  Ba  Ba5  1  0.584102  0.092694  0.194624  1
  Ba  Ba6  1  0.173275  0.180521  0.357441  1
  Ba  Ba7  1  0.271754  0.758072  0.510181  1
  Bi  Bi8  1  0.006676  0.006646  0.012132  1
  Bi  Bi9  1  0.663942  0.666551  0.336190  1
  Bi  Bi10  1  0.333983  0.334615  0.667757  1
  Bi  Bi11  1  0.507905  0.512109  0.017644  1
  O  O12  1  0.415876  0.431157  0.316512  1
  O  O13  1  0.085671  0.091297  0.611215  1
  O  O14  1  0.434194  0.903180  0.329164  1
  O  O15  1  0.922008  0.947135  0.856560  1
  O  O16  1  0.720334  0.715538  0.486930  1
  O  O17  1  0.756140  0.757018  0.997385  1
  O  O18  1  0.240031  0.755709  0.994310  1
  O  O19  1  0.094980  0.538550  0.619658  1
  O  O20  1  0.400630  0.401950  0.819883  1
  O  O21  1  0.579812  0.611637  0.170279  1
  O  O22  1  0.881413  0.420853  0.319189  1
  O  O23  1  0.246418  0.244381  0.002107  1
  O  O24  1  0.760826  0.248921  0.005726  1
  O  O25  1  0.094437  0.067783  0.163388  1
  O  O26  1  0.534968  0.089749  0.623016  1
  O  O27  1  0.900507  0.888798  0.329358  1
  O  O28  1  0.539647  0.533410  0.624715  1
