# generated using pymatgen
data_Gd4Au2O9
_symmetry_space_group_name_H-M   'P 1'
_cell_length_a   6.02102234
_cell_length_b   11.89697354
_cell_length_c   11.91201831
_cell_angle_alpha   90.00000000
_cell_angle_beta   90.00000000
_cell_angle_gamma   90.00000000
_symmetry_Int_Tables_number   1
_chemical_formula_structural   Gd4Au2O9
_chemical_formula_sum   'Gd16 Au8 O36'
_cell_volume   853.28102211
_cell_formula_units_Z   4
loop_
 _symmetry_equiv_pos_site_id
 _symmetry_equiv_pos_as_xyz
  1  'x, y, z'
loop_
 _atom_site_type_symbol
 _atom_site_label
 _atom_site_symmetry_multiplicity
 _atom_site_fract_x
 _atom_site_fract_y
 _atom_site_fract_z
 _atom_site_occupancy
  Gd  Gd0  1  0.240510  0.410170  0.510711  1
  Gd  Gd1  1  0.740510  0.089830  0.010711  1
  Gd  Gd2  1  0.259490  0.589830  0.010711  1
  Gd  Gd3  1  0.759490  0.910170  0.510711  1
  Gd  Gd4  1  0.303237  0.264088  0.159334  1
  Gd  Gd5  1  0.740510  0.410170  0.989289  1
  Gd  Gd6  1  0.696763  0.764088  0.159334  1
  Gd  Gd7  1  0.696763  0.735912  0.840666  1
  Gd  Gd8  1  0.759490  0.589830  0.489289  1
  Gd  Gd9  1  0.303237  0.235912  0.840666  1
  Gd  Gd10  1  0.259490  0.910170  0.989289  1
  Gd  Gd11  1  0.196763  0.764088  0.340666  1
  Gd  Gd12  1  0.196763  0.735912  0.659334  1
  Gd  Gd13  1  0.803237  0.264088  0.340666  1
  Gd  Gd14  1  0.240510  0.089830  0.489289  1
  Gd  Gd15  1  0.803237  0.235912  0.659334  1
  Au  Au16  1  0.078382  0.488910  0.771074  1
  Au  Au17  1  0.921618  0.988910  0.771074  1
  Au  Au18  1  0.421618  0.988910  0.728926  1
  Au  Au19  1  0.578382  0.488910  0.728926  1
  Au  Au20  1  0.921618  0.511090  0.228926  1
  Au  Au21  1  0.078382  0.011090  0.228926  1
  Au  Au22  1  0.421618  0.511090  0.271074  1
  Au  Au23  1  0.578382  0.011090  0.271074  1
  O  O24  1  0.940422  0.350813  0.162875  1
  O  O25  1  0.124633  0.160887  0.303690  1
  O  O26  1  0.439702  0.054894  0.886855  1
  O  O27  1  0.939702  0.054894  0.613145  1
  O  O28  1  0.624633  0.160887  0.196310  1
  O  O29  1  0.060298  0.554894  0.613145  1
  O  O30  1  0.110880  0.088875  0.075950  1
  O  O31  1  0.610880  0.088875  0.424050  1
  O  O32  1  0.940422  0.149187  0.837125  1
  O  O33  1  0.375367  0.839113  0.803690  1
  O  O34  1  0.889120  0.588875  0.075950  1
  O  O35  1  0.875367  0.660887  0.303690  1
  O  O36  1  0.610880  0.411125  0.575950  1
  O  O37  1  0.389120  0.588875  0.424050  1
  O  O38  1  0.559578  0.850813  0.337125  1
  O  O39  1  0.440422  0.149187  0.662875  1
  O  O40  1  0.476519  0.750000  0.000000  1
  O  O41  1  0.560298  0.945106  0.113145  1
  O  O42  1  0.889120  0.911125  0.924050  1
  O  O43  1  0.976519  0.750000  0.500000  1
  O  O44  1  0.439702  0.445106  0.113145  1
  O  O45  1  0.440422  0.350813  0.337125  1
  O  O46  1  0.124633  0.339113  0.696310  1
  O  O47  1  0.023481  0.250000  0.500000  1
  O  O48  1  0.059578  0.649187  0.837125  1
  O  O49  1  0.375367  0.660887  0.196310  1
  O  O50  1  0.875367  0.839113  0.696310  1
  O  O51  1  0.110880  0.411125  0.924050  1
  O  O52  1  0.059578  0.850813  0.162875  1
  O  O53  1  0.560298  0.554894  0.886855  1
  O  O54  1  0.624633  0.339113  0.803690  1
  O  O55  1  0.939702  0.445106  0.386855  1
  O  O56  1  0.559578  0.649187  0.662875  1
  O  O57  1  0.523481  0.250000  0.000000  1
  O  O58  1  0.389120  0.911125  0.575950  1
  O  O59  1  0.060298  0.945106  0.386855  1
