# generated using pymatgen
data_CdI2
_symmetry_space_group_name_H-M   'P 1'
_cell_length_a   4.34589617
_cell_length_b   4.34589617
_cell_length_c   66.08729037
_cell_angle_alpha   90.00000000
_cell_angle_beta   90.00000000
_cell_angle_gamma   120.00000000
_symmetry_Int_Tables_number   1
_chemical_formula_structural   CdI2
_chemical_formula_sum   'Cd9 I18'
_cell_volume   1080.95414311
_cell_formula_units_Z   9
loop_
 _symmetry_equiv_pos_site_id
 _symmetry_equiv_pos_as_xyz
  1  'x, y, z'
loop_
 _atom_site_type_symbol
 _atom_site_label
 _atom_site_symmetry_multiplicity
 _atom_site_fract_x
 _atom_site_fract_y
 _atom_site_fract_z
 _atom_site_occupancy
  Cd  Cd0  1  0.000000  0.000000  0.805578  1
  Cd  Cd1  1  0.000000  0.000000  0.916659  1
  Cd  Cd2  1  0.000000  0.000000  0.583330  1
  Cd  Cd3  1  0.333333  0.666667  0.694413  1
  Cd  Cd4  1  0.666667  0.333333  0.027780  1
  Cd  Cd5  1  0.000000  0.000000  0.138909  1
  Cd  Cd6  1  0.000000  0.000000  0.361080  1
  Cd  Cd7  1  0.666667  0.333333  0.472245  1
  Cd  Cd8  1  0.666667  0.333333  0.249992  1
  I  I9  1  0.000000  0.000000  0.223870  1
  I  I10  1  0.666667  0.333333  0.334961  1
  I  I11  1  0.666667  0.333333  0.557206  1
  I  I12  1  0.000000  0.000000  0.720548  1
  I  I13  1  0.000000  0.000000  0.446118  1
  I  I14  1  0.333333  0.666667  0.276120  1
  I  I15  1  0.333333  0.666667  0.053910  1
  I  I16  1  0.333333  0.666667  0.609449  1
  I  I17  1  0.666667  0.333333  0.890540  1
  I  I18  1  0.333333  0.666667  0.942782  1
  I  I19  1  0.666667  0.333333  0.112797  1
  I  I20  1  0.000000  0.000000  0.001678  1
  I  I21  1  0.333333  0.666667  0.165029  1
  I  I22  1  0.666667  0.333333  0.779441  1
  I  I23  1  0.333333  0.666667  0.387197  1
  I  I24  1  0.333333  0.666667  0.831715  1
  I  I25  1  0.666667  0.333333  0.668278  1
  I  I26  1  0.333333  0.666667  0.498374  1
