# generated using pymatgen
data_Ta8Pb6O25
_symmetry_space_group_name_H-M   'P 1'
_cell_length_a   7.55087547
_cell_length_b   7.55087547
_cell_length_c   10.61819527
_cell_angle_alpha   89.92665952
_cell_angle_beta   90.07334048
_cell_angle_gamma   89.72048203
_symmetry_Int_Tables_number   1
_chemical_formula_structural   Ta8Pb6O25
_chemical_formula_sum   'Ta8 Pb6 O25'
_cell_volume   605.39585205
_cell_formula_units_Z   1
loop_
 _symmetry_equiv_pos_site_id
 _symmetry_equiv_pos_as_xyz
  1  'x, y, z'
loop_
 _atom_site_type_symbol
 _atom_site_label
 _atom_site_symmetry_multiplicity
 _atom_site_fract_x
 _atom_site_fract_y
 _atom_site_fract_z
 _atom_site_occupancy
  Ta  Ta0  1  0.998989  0.246410  0.373826  1
  Ta  Ta1  1  0.742516  0.995963  0.123006  1
  Ta  Ta2  1  0.496777  0.248156  0.373170  1
  Ta  Ta3  1  0.497357  0.740426  0.876794  1
  Ta  Ta4  1  0.246410  0.998989  0.626174  1
  Ta  Ta5  1  0.248156  0.496777  0.626830  1
  Ta  Ta6  1  0.995963  0.742516  0.876994  1
  Ta  Ta7  1  0.740426  0.497357  0.123206  1
  Pb  Pb8  1  0.239946  0.013454  0.107890  1
  Pb  Pb9  1  0.013454  0.239946  0.892110  1
  Pb  Pb10  1  0.999286  0.744259  0.366818  1
  Pb  Pb11  1  0.744259  0.999286  0.633182  1
  Pb  Pb12  1  0.744439  0.493237  0.631655  1
  Pb  Pb13  1  0.493237  0.744439  0.368345  1
  O  O14  1  0.559207  0.927909  0.003958  1
  O  O15  1  0.248865  0.236446  0.316050  1
  O  O16  1  0.236446  0.248865  0.683950  1
  O  O17  1  0.060695  0.932683  0.750580  1
  O  O18  1  0.054340  0.054340  0.500000  1
  O  O19  1  0.058723  0.435944  0.500341  1
  O  O20  1  0.930588  0.930588  0.000000  1
  O  O21  1  0.751199  0.746976  0.805921  1
  O  O22  1  0.747889  0.242087  0.443005  1
  O  O23  1  0.746976  0.751199  0.194079  1
  O  O24  1  0.747102  0.747102  0.500000  1
  O  O25  1  0.562559  0.057454  0.251167  1
  O  O26  1  0.563890  0.433050  0.252464  1
  O  O27  1  0.566463  0.566463  0.000000  1
  O  O28  1  0.435944  0.058723  0.499659  1
  O  O29  1  0.440986  0.927806  0.745046  1
  O  O30  1  0.436739  0.436739  0.500000  1
  O  O31  1  0.249267  0.754208  0.935309  1
  O  O32  1  0.242087  0.747889  0.556995  1
  O  O33  1  0.057454  0.562559  0.748833  1
  O  O34  1  0.932683  0.060695  0.249420  1
  O  O35  1  0.927806  0.440986  0.254954  1
  O  O36  1  0.927909  0.559207  0.996042  1
  O  O37  1  0.754208  0.249267  0.064691  1
  O  O38  1  0.433050  0.563890  0.747536  1
