# generated using pymatgen
data_Ba3Na7Ti3Nb7O30
_symmetry_space_group_name_H-M   'P 1'
_cell_length_a   8.03527965
_cell_length_b   4.01785473
_cell_length_c   21.65185581
_cell_angle_alpha   90.00000000
_cell_angle_beta   111.78629103
_cell_angle_gamma   90.00000000
_symmetry_Int_Tables_number   1
_chemical_formula_structural   Ba3Na7Ti3Nb7O30
_chemical_formula_sum   'Ba3 Na7 Ti3 Nb7 O30'
_cell_volume   649.09337865
_cell_formula_units_Z   1
loop_
 _symmetry_equiv_pos_site_id
 _symmetry_equiv_pos_as_xyz
  1  'x, y, z'
loop_
 _atom_site_type_symbol
 _atom_site_label
 _atom_site_symmetry_multiplicity
 _atom_site_fract_x
 _atom_site_fract_y
 _atom_site_fract_z
 _atom_site_occupancy
  Ba  Ba0  1  0.505170  0.000000  0.003898  1
  Ba  Ba1  1  0.703595  0.000000  0.198510  1
  Ba  Ba2  1  0.193589  0.000000  0.198515  1
  Na  Na3  1  0.002084  0.000000  0.002801  1
  Na  Na4  1  0.903956  0.000000  0.399503  1
  Na  Na5  1  0.395015  0.000000  0.399486  1
  Na  Na6  1  0.101361  0.000000  0.599708  1
  Na  Na7  1  0.299895  0.000000  0.798901  1
  Na  Na8  1  0.598082  0.000000  0.599723  1
  Na  Na9  1  0.797792  0.000000  0.798825  1
  Ti  Ti10  1  0.855953  0.500000  0.099997  1
  Ti  Ti11  1  0.052937  0.500000  0.302866  1
  Ti  Ti12  1  0.340728  0.500000  0.097798  1
  Nb  Nb13  1  0.552869  0.500000  0.302955  1
  Nb  Nb14  1  0.246799  0.500000  0.496795  1
  Nb  Nb15  1  0.950336  0.500000  0.700336  1
  Nb  Nb16  1  0.448019  0.500000  0.698023  1
  Nb  Nb17  1  0.751362  0.500000  0.501369  1
  Nb  Nb18  1  0.652528  0.500000  0.898886  1
  Nb  Nb19  1  0.145592  0.500000  0.899147  1
  O  O20  1  0.748906  0.500000  0.999091  1
  O  O21  1  0.950522  0.500000  0.199588  1
  O  O22  1  0.249324  0.500000  0.999326  1
  O  O23  1  0.598940  0.500000  0.099148  1
  O  O24  1  0.449675  0.500000  0.200415  1
  O  O25  1  0.651008  0.500000  0.401022  1
  O  O26  1  0.150195  0.500000  0.400193  1
  O  O27  1  0.350420  0.500000  0.600462  1
  O  O28  1  0.801404  0.500000  0.300648  1
  O  O29  1  0.100429  0.500000  0.099841  1
  O  O30  1  0.000257  0.500000  0.500337  1
  O  O31  1  0.850125  0.500000  0.600099  1
  O  O32  1  0.049418  0.500000  0.799867  1
  O  O33  1  0.299890  0.500000  0.300633  1
  O  O34  1  0.550593  0.500000  0.800125  1
  O  O35  1  0.199696  0.500000  0.700499  1
  O  O36  1  0.500410  0.500000  0.500340  1
  O  O37  1  0.398946  0.500000  0.899799  1
  O  O38  1  0.701251  0.500000  0.700455  1
  O  O39  1  0.900150  0.500000  0.899321  1
  O  O40  1  0.850569  0.000000  0.099327  1
  O  O41  1  0.050806  0.000000  0.300724  1
  O  O42  1  0.250633  0.000000  0.500632  1
  O  O43  1  0.348456  0.000000  0.099593  1
  O  O44  1  0.450689  0.000000  0.700716  1
  O  O45  1  0.649792  0.000000  0.899601  1
  O  O46  1  0.550509  0.000000  0.300554  1
  O  O47  1  0.749891  0.000000  0.499901  1
  O  O48  1  0.950188  0.000000  0.700166  1
  O  O49  1  0.149244  0.000000  0.899534  1
