# generated using pymatgen
data_La7P12Pd17
_symmetry_space_group_name_H-M   'P 1'
_cell_length_a   12.55279591
_cell_length_b   12.55279591
_cell_length_c   13.77475476
_cell_angle_alpha   68.03725707
_cell_angle_beta   111.96274293
_cell_angle_gamma   161.09341754
_symmetry_Int_Tables_number   1
_chemical_formula_structural   La7P12Pd17
_chemical_formula_sum   'La7 P12 Pd17'
_cell_volume   650.79381509
_cell_formula_units_Z   1
loop_
 _symmetry_equiv_pos_site_id
 _symmetry_equiv_pos_as_xyz
  1  'x, y, z'
loop_
 _atom_site_type_symbol
 _atom_site_label
 _atom_site_symmetry_multiplicity
 _atom_site_fract_x
 _atom_site_fract_y
 _atom_site_fract_z
 _atom_site_occupancy
  La  La0  1  0.500000  0.500000  0.500000  1
  La  La1  1  0.365078  0.634922  0.999614  1
  La  La2  1  0.634922  0.365078  0.000386  1
  La  La3  1  0.233489  0.766511  0.686322  1
  La  La4  1  0.766511  0.233489  0.313678  1
  La  La5  1  0.417490  0.582510  0.737512  1
  La  La6  1  0.582510  0.417490  0.262488  1
  P  P7  1  0.060176  0.939824  0.073765  1
  P  P8  1  0.939824  0.060176  0.926235  1
  P  P9  1  0.887189  0.112811  0.172604  1
  P  P10  1  0.112811  0.887189  0.827396  1
  P  P11  1  0.187966  0.812034  0.381044  1
  P  P12  1  0.812034  0.187966  0.618956  1
  P  P13  1  0.364471  0.635529  0.420615  1
  P  P14  1  0.635529  0.364471  0.579385  1
  P  P15  1  0.010732  0.989268  0.327669  1
  P  P16  1  0.989268  0.010732  0.672331  1
  P  P17  1  0.233582  0.766418  0.118000  1
  P  P18  1  0.766418  0.233582  0.882000  1
  Pd  Pd19  1  0.838825  0.161175  0.806926  1
  Pd  Pd20  1  0.161175  0.838825  0.193074  1
  Pd  Pd21  1  0.025941  0.974059  0.874738  1
  Pd  Pd22  1  0.974059  0.025941  0.125262  1
  Pd  Pd23  1  0.890433  0.109567  0.541757  1
  Pd  Pd24  1  0.109567  0.890433  0.458243  1
  Pd  Pd25  1  0.500000  0.500000  0.000000  1
  Pd  Pd26  1  0.547758  0.452242  0.745780  1
  Pd  Pd27  1  0.452242  0.547758  0.254220  1
  Pd  Pd28  1  0.296933  0.703067  0.513290  1
  Pd  Pd29  1  0.703067  0.296933  0.486710  1
  Pd  Pd30  1  0.665609  0.334391  0.777866  1
  Pd  Pd31  1  0.334391  0.665609  0.222134  1
  Pd  Pd32  1  0.906278  0.093722  0.354820  1
  Pd  Pd33  1  0.093722  0.906278  0.645180  1
  Pd  Pd34  1  0.218208  0.781792  0.929222  1
  Pd  Pd35  1  0.781792  0.218208  0.070778  1
