# generated using pymatgen
data_La2Ge5Ru3
_symmetry_space_group_name_H-M   'P 1'
_cell_length_a   8.59982049
_cell_length_b   8.59982049
_cell_length_c   8.59982049
_cell_angle_alpha   139.51197824
_cell_angle_beta   108.36665803
_cell_angle_gamma   85.66208845
_symmetry_Int_Tables_number   1
_chemical_formula_structural   La2Ge5Ru3
_chemical_formula_sum   'La4 Ge10 Ru6'
_cell_volume   377.78599493
_cell_formula_units_Z   2
loop_
 _symmetry_equiv_pos_site_id
 _symmetry_equiv_pos_as_xyz
  1  'x, y, z'
loop_
 _atom_site_type_symbol
 _atom_site_label
 _atom_site_symmetry_multiplicity
 _atom_site_fract_x
 _atom_site_fract_y
 _atom_site_fract_z
 _atom_site_occupancy
  La  La0  1  0.096191  0.364411  0.731780  1
  La  La1  1  0.632631  0.864411  0.768220  1
  La  La2  1  0.367369  0.135589  0.231780  1
  La  La3  1  0.903809  0.635589  0.268220  1
  Ge  Ge4  1  0.576260  0.407949  0.168311  1
  Ge  Ge5  1  0.288262  0.538262  0.250000  1
  Ge  Ge6  1  0.711738  0.961738  0.250000  1
  Ge  Ge7  1  0.760362  0.092051  0.668311  1
  Ge  Ge8  1  1.000000  0.750000  0.750000  1
  Ge  Ge9  1  0.423740  0.592051  0.831689  1
  Ge  Ge10  1  0.239638  0.907949  0.331689  1
  Ge  Ge11  1  0.288262  0.038262  0.750000  1
  Ge  Ge12  1  0.711738  0.461738  0.750000  1
  Ge  Ge13  1  1.000000  0.250000  0.250000  1
  Ru  Ru14  1  0.760541  0.354799  0.405741  1
  Ru  Ru15  1  0.050942  0.145201  0.905741  1
  Ru  Ru16  1  0.239459  0.645201  0.594259  1
  Ru  Ru17  1  0.949058  0.854799  0.094259  1
  Ru  Ru18  1  0.500000  0.250000  0.750000  1
  Ru  Ru19  1  0.500000  0.750000  0.250000  1
