# generated using pymatgen
data_Cu(Mo3S4)2
_symmetry_space_group_name_H-M   'P 1'
_cell_length_a   6.47256494
_cell_length_b   6.48808214
_cell_length_c   12.99815885
_cell_angle_alpha   94.03848913
_cell_angle_beta   94.66392258
_cell_angle_gamma   93.65097418
_symmetry_Int_Tables_number   1
_chemical_formula_structural   Cu(Mo3S4)2
_chemical_formula_sum   'Cu2 Mo12 S16'
_cell_volume   541.36933802
_cell_formula_units_Z   2
loop_
 _symmetry_equiv_pos_site_id
 _symmetry_equiv_pos_as_xyz
  1  'x, y, z'
loop_
 _atom_site_type_symbol
 _atom_site_label
 _atom_site_symmetry_multiplicity
 _atom_site_fract_x
 _atom_site_fract_y
 _atom_site_fract_z
 _atom_site_occupancy
  Cu  Cu0  1  0.103423  0.934924  0.981571  1
  Cu  Cu1  1  0.961271  0.103082  0.467745  1
  Mo  Mo2  1  0.592721  0.787957  0.226316  1
  Mo  Mo3  1  0.597107  0.785700  0.728751  1
  Mo  Mo4  1  0.456307  0.594943  0.394239  1
  Mo  Mo5  1  0.217802  0.541497  0.202606  1
  Mo  Mo6  1  0.456681  0.596546  0.893463  1
  Mo  Mo7  1  0.213642  0.548183  0.702771  1
  Mo  Mo8  1  0.782499  0.457350  0.297134  1
  Mo  Mo9  1  0.546378  0.404612  0.106730  1
  Mo  Mo10  1  0.786120  0.453497  0.797753  1
  Mo  Mo11  1  0.542791  0.404932  0.607344  1
  Mo  Mo12  1  0.408372  0.211144  0.272464  1
  Mo  Mo13  1  0.403348  0.216412  0.772370  1
  S  S14  1  0.275225  0.861506  0.310353  1
  S  S15  1  0.271245  0.869603  0.811515  1
  S  S16  1  0.371895  0.726000  0.066729  1
  S  S17  1  0.792223  0.800265  0.394747  1
  S  S18  1  0.379136  0.726467  0.568558  1
  S  S19  1  0.799983  0.789882  0.897830  1
  S  S20  1  0.864456  0.622905  0.138335  1
  S  S21  1  0.862889  0.620526  0.638507  1
  S  S22  1  0.136967  0.372265  0.363611  1
  S  S23  1  0.136806  0.381519  0.862118  1
  S  S24  1  0.212823  0.200104  0.102129  1
  S  S25  1  0.624077  0.271098  0.434695  1
  S  S26  1  0.202083  0.213408  0.601005  1
  S  S27  1  0.621874  0.275951  0.932114  1
  S  S28  1  0.726160  0.136649  0.189493  1
  S  S29  1  0.722797  0.133473  0.690356  1
