# generated using pymatgen
data_Pr7Mn8O24
_symmetry_space_group_name_H-M   'P 1'
_cell_length_a   9.56846165
_cell_length_b   9.56846165
_cell_length_c   7.79020707
_cell_angle_alpha   65.94621058
_cell_angle_beta   114.05378942
_cell_angle_gamma   70.57360865
_symmetry_Int_Tables_number   1
_chemical_formula_structural   Pr7Mn8O24
_chemical_formula_sum   'Pr7 Mn8 O24'
_cell_volume   476.64452408
_cell_formula_units_Z   1
loop_
 _symmetry_equiv_pos_site_id
 _symmetry_equiv_pos_as_xyz
  1  'x, y, z'
loop_
 _atom_site_type_symbol
 _atom_site_label
 _atom_site_symmetry_multiplicity
 _atom_site_fract_x
 _atom_site_fract_y
 _atom_site_fract_z
 _atom_site_occupancy
  Pr  Pr0  1  0.392702  0.101040  0.032231  1
  Pr  Pr1  1  0.112743  0.887257  0.462096  1
  Pr  Pr2  1  0.386363  0.110359  0.525080  1
  Pr  Pr3  1  0.898960  0.607298  0.032231  1
  Pr  Pr4  1  0.616769  0.383231  0.474812  1
  Pr  Pr5  1  0.889641  0.613637  0.525080  1
  Pr  Pr6  1  0.611210  0.388790  0.985775  1
  Mn  Mn7  1  0.752185  0.999257  0.997081  1
  Mn  Mn8  1  0.499375  0.747424  0.500605  1
  Mn  Mn9  1  0.757294  0.996781  0.509229  1
  Mn  Mn10  1  0.250655  0.504119  0.001627  1
  Mn  Mn11  1  0.000743  0.247815  0.997081  1
  Mn  Mn12  1  0.003219  0.242706  0.509229  1
  Mn  Mn13  1  0.252576  0.500625  0.500605  1
  Mn  Mn14  1  0.495881  0.749345  0.001627  1
  O  O15  1  0.749744  0.959413  0.270843  1
  O  O16  1  0.588968  0.910236  0.493304  1
  O  O17  1  0.240509  0.989603  0.246934  1
  O  O18  1  0.010397  0.759491  0.246934  1
  O  O19  1  0.455090  0.752488  0.727214  1
  O  O20  1  0.655323  0.844123  0.987519  1
  O  O21  1  0.842772  0.157228  0.011255  1
  O  O22  1  0.257899  0.447139  0.281712  1
  O  O23  1  0.040587  0.250256  0.270843  1
  O  O24  1  0.481206  0.227571  0.782707  1
  O  O25  1  0.278155  0.022118  0.766693  1
  O  O26  1  0.897164  0.102836  0.468741  1
  O  O27  1  0.089764  0.411032  0.493304  1
  O  O28  1  0.734839  0.483685  0.224612  1
  O  O29  1  0.516315  0.265161  0.224612  1
  O  O30  1  0.942006  0.286573  0.703043  1
  O  O31  1  0.713427  0.057994  0.703043  1
  O  O32  1  0.155877  0.344677  0.987519  1
  O  O33  1  0.370034  0.629966  0.029808  1
  O  O34  1  0.552861  0.742101  0.281712  1
  O  O35  1  0.977882  0.721845  0.766693  1
  O  O36  1  0.772429  0.518794  0.782707  1
  O  O37  1  0.433287  0.566713  0.537945  1
  O  O38  1  0.247512  0.544910  0.727214  1
