# generated using pymatgen
data_Dy2TiO5
_symmetry_space_group_name_H-M   'P 1'
_cell_length_a   7.37524195
_cell_length_b   7.48686153
_cell_length_c   12.47705277
_cell_angle_alpha   91.14452956
_cell_angle_beta   106.43428918
_cell_angle_gamma   118.27356829
_symmetry_Int_Tables_number   1
_chemical_formula_structural   Dy2TiO5
_chemical_formula_sum   'Dy10 Ti5 O25'
_cell_volume   572.21550294
_cell_formula_units_Z   5
loop_
 _symmetry_equiv_pos_site_id
 _symmetry_equiv_pos_as_xyz
  1  'x, y, z'
loop_
 _atom_site_type_symbol
 _atom_site_label
 _atom_site_symmetry_multiplicity
 _atom_site_fract_x
 _atom_site_fract_y
 _atom_site_fract_z
 _atom_site_occupancy
  Dy  Dy0  1  0.869590  0.639299  0.051431  1
  Dy  Dy1  1  0.875070  0.431179  0.342877  1
  Dy  Dy2  1  0.895262  0.136791  0.057941  1
  Dy  Dy3  1  0.889075  0.965314  0.331173  1
  Dy  Dy4  1  0.411884  0.694045  0.067419  1
  Dy  Dy5  1  0.385913  0.945080  0.304666  1
  Dy  Dy6  1  0.360670  0.452123  0.304419  1
  Dy  Dy7  1  0.448289  0.240140  0.566664  1
  Dy  Dy8  1  0.400783  0.471533  0.806291  1
  Dy  Dy9  1  0.389867  0.931829  0.795182  1
  Ti  Ti10  1  0.856762  0.179418  0.550509  1
  Ti  Ti11  1  0.391955  0.196459  0.058820  1
  Ti  Ti12  1  0.847634  0.896205  0.819935  1
  Ti  Ti13  1  0.897303  0.718726  0.560401  1
  Ti  Ti14  1  0.368126  0.670586  0.561316  1
  O  O15  1  0.980044  0.277399  0.241979  1
  O  O16  1  0.509525  0.433616  0.000086  1
  O  O17  1  0.550760  0.087021  0.024175  1
  O  O18  1  0.519455  0.272063  0.222861  1
  O  O19  1  0.809490  0.850203  0.130137  1
  O  O20  1  0.746121  0.136891  0.393076  1
  O  O21  1  0.969375  0.008667  0.529205  1
  O  O22  1  0.216453  0.825573  0.122935  1
  O  O23  1  0.527303  0.762203  0.259785  1
  O  O24  1  0.950964  0.843681  0.712056  1
  O  O25  1  0.817073  0.669315  0.393837  1
  O  O26  1  0.599004  0.018725  0.573998  1
  O  O27  1  0.541735  0.570886  0.522602  1
  O  O28  1  0.528533  0.746812  0.721418  1
  O  O29  1  0.805254  0.418377  0.556430  1
  O  O30  1  0.763727  0.663077  0.884165  1
  O  O31  1  0.239741  0.662592  0.394284  1
  O  O32  1  0.227735  0.387261  0.107250  1
  O  O33  1  0.180861  0.412602  0.589601  1
  O  O34  1  0.429396  0.221886  0.736213  1
  O  O35  1  0.759652  0.076188  0.868502  1
  O  O36  1  0.264075  0.130212  0.379054  1
  O  O37  1  0.117087  0.048296  0.947247  1
  O  O38  1  0.189472  0.788065  0.599471  1
  O  O39  1  0.292582  0.657462  0.881189  1
