# generated using pymatgen
data_Co8(BiO4)5
_symmetry_space_group_name_H-M   'P 1'
_cell_length_a   7.93542088
_cell_length_b   7.98130936
_cell_length_c   8.29262083
_cell_angle_alpha   108.69689984
_cell_angle_beta   109.46911391
_cell_angle_gamma   107.22316158
_symmetry_Int_Tables_number   1
_chemical_formula_structural   Co8(BiO4)5
_chemical_formula_sum   'Co8 Bi5 O20'
_cell_volume   418.59530666
_cell_formula_units_Z   1
loop_
 _symmetry_equiv_pos_site_id
 _symmetry_equiv_pos_as_xyz
  1  'x, y, z'
loop_
 _atom_site_type_symbol
 _atom_site_label
 _atom_site_symmetry_multiplicity
 _atom_site_fract_x
 _atom_site_fract_y
 _atom_site_fract_z
 _atom_site_occupancy
  Co  Co0  1  0.422828  0.757512  0.593861  1
  Co  Co1  1  0.109394  0.774806  0.271260  1
  Co  Co2  1  0.784238  0.280937  0.111889  1
  Co  Co3  1  0.295732  0.099863  0.775399  1
  Co  Co4  1  0.004190  0.020272  0.020887  1
  Co  Co5  1  0.718336  0.889433  0.215400  1
  Co  Co6  1  0.228125  0.732459  0.893686  1
  Co  Co7  1  0.887692  0.219223  0.727828  1
  Bi  Bi8  1  0.653115  0.526418  0.855955  1
  Bi  Bi9  1  0.100049  0.292946  0.464834  1
  Bi  Bi10  1  0.847545  0.680747  0.529593  1
  Bi  Bi11  1  0.321484  0.461668  0.115256  1
  Bi  Bi12  1  0.487004  0.132739  0.334712  1
  O  O13  1  0.323469  0.691161  0.334731  1
  O  O14  1  0.565534  0.260417  0.919857  1
  O  O15  1  0.931293  0.244972  0.972432  1
  O  O16  1  0.057306  0.775905  0.018382  1
  O  O17  1  0.331708  0.281376  0.673504  1
  O  O18  1  0.266497  0.890443  0.569342  1
  O  O19  1  0.914714  0.550827  0.213242  1
  O  O20  1  0.343280  0.658223  0.735476  1
  O  O21  1  0.000758  0.965982  0.301906  1
  O  O22  1  0.032167  0.059353  0.752225  1
  O  O23  1  0.116678  0.466641  0.824241  1
  O  O24  1  0.678652  0.347587  0.295973  1
  O  O25  1  0.764667  0.036546  0.085699  1
  O  O26  1  0.663024  0.688588  0.285173  1
  O  O27  1  0.796298  0.108764  0.462496  1
  O  O28  1  0.263644  0.270553  0.270564  1
  O  O29  1  0.710014  0.343017  0.657615  1
  O  O30  1  0.442294  0.805249  0.120982  1
  O  O31  1  0.293798  0.985037  0.939704  1
  O  O32  1  0.644474  0.700336  0.655896  1
