# generated using pymatgen
data_Ce2Dy2O7
_symmetry_space_group_name_H-M   'P 1'
_cell_length_a   3.76034004
_cell_length_b   7.79039813
_cell_length_c   10.90326112
_cell_angle_alpha   90.00000000
_cell_angle_beta   90.00000000
_cell_angle_gamma   90.00000000
_symmetry_Int_Tables_number   1
_chemical_formula_structural   Ce2Dy2O7
_chemical_formula_sum   'Ce4 Dy4 O14'
_cell_volume   319.40608457
_cell_formula_units_Z   2
loop_
 _symmetry_equiv_pos_site_id
 _symmetry_equiv_pos_as_xyz
  1  'x, y, z'
loop_
 _atom_site_type_symbol
 _atom_site_label
 _atom_site_symmetry_multiplicity
 _atom_site_fract_x
 _atom_site_fract_y
 _atom_site_fract_z
 _atom_site_occupancy
  Ce  Ce0  1  0.000000  0.750000  0.745844  1
  Ce  Ce1  1  0.000000  0.250000  0.254156  1
  Ce  Ce2  1  0.500000  0.000000  0.000000  1
  Ce  Ce3  1  0.500000  0.500000  0.000000  1
  Dy  Dy4  1  0.000000  0.750000  0.231771  1
  Dy  Dy5  1  0.500000  0.000000  0.500000  1
  Dy  Dy6  1  0.000000  0.250000  0.768229  1
  Dy  Dy7  1  0.500000  0.500000  0.500000  1
  O  O8  1  0.500000  0.750000  0.608223  1
  O  O9  1  0.000000  0.957585  0.374676  1
  O  O10  1  0.500000  0.750000  0.128862  1
  O  O11  1  0.500000  0.250000  0.133107  1
  O  O12  1  0.000000  0.010794  0.122526  1
  O  O13  1  0.000000  0.989206  0.877474  1
  O  O14  1  0.000000  0.510794  0.877474  1
  O  O15  1  0.500000  0.250000  0.871138  1
  O  O16  1  0.500000  0.750000  0.866893  1
  O  O17  1  0.000000  0.457585  0.625324  1
  O  O18  1  0.000000  0.542415  0.374676  1
  O  O19  1  0.000000  0.042415  0.625324  1
  O  O20  1  0.500000  0.250000  0.391777  1
  O  O21  1  0.000000  0.489206  0.122526  1
