# generated using pymatgen
data_LiCr2(PO4)3
_symmetry_space_group_name_H-M   'P 1'
_cell_length_a   8.50931636
_cell_length_b   8.50931636
_cell_length_c   8.60979886
_cell_angle_alpha   60.99221967
_cell_angle_beta   119.00778033
_cell_angle_gamma   120.02076584
_symmetry_Int_Tables_number   1
_chemical_formula_structural   LiCr2(PO4)3
_chemical_formula_sum   'Li2 Cr4 P6 O24'
_cell_volume   447.24984765
_cell_formula_units_Z   2
loop_
 _symmetry_equiv_pos_site_id
 _symmetry_equiv_pos_as_xyz
  1  'x, y, z'
loop_
 _atom_site_type_symbol
 _atom_site_label
 _atom_site_symmetry_multiplicity
 _atom_site_fract_x
 _atom_site_fract_y
 _atom_site_fract_z
 _atom_site_occupancy
  Li  Li0  1  0.354216  0.968884  0.555637  1
  Li  Li1  1  0.031116  0.645784  0.055637  1
  Cr  Cr2  1  0.849128  0.639763  0.575545  1
  Cr  Cr3  1  0.360237  0.150872  0.075545  1
  Cr  Cr4  1  0.648691  0.849383  0.931277  1
  Cr  Cr5  1  0.150617  0.351309  0.431277  1
  P  P6  1  0.751472  0.471202  0.242884  1
  P  P7  1  0.528798  0.248528  0.742884  1
  P  P8  1  0.473750  0.751100  0.259309  1
  P  P9  1  0.248900  0.526250  0.759309  1
  P  P10  1  0.038377  0.038595  0.253072  1
  P  P11  1  0.961405  0.961623  0.753072  1
  O  O12  1  0.945327  0.765339  0.766067  1
  O  O13  1  0.586390  0.277323  0.237934  1
  O  O14  1  0.057258  0.231611  0.249618  1
  O  O15  1  0.938608  0.453721  0.279235  1
  O  O16  1  0.011274  0.878900  0.440167  1
  O  O17  1  0.879284  0.000859  0.076488  1
  O  O18  1  0.241285  0.478135  0.604307  1
  O  O19  1  0.999141  0.120716  0.576488  1
  O  O20  1  0.722677  0.413610  0.737934  1
  O  O21  1  0.757789  0.520304  0.393869  1
  O  O22  1  0.768389  0.942742  0.749618  1
  O  O23  1  0.407048  0.725034  0.758583  1
  O  O24  1  0.274966  0.592952  0.258583  1
  O  O25  1  0.061048  0.546173  0.712363  1
  O  O26  1  0.282921  0.371264  0.951711  1
  O  O27  1  0.628736  0.717079  0.451711  1
  O  O28  1  0.234661  0.054673  0.266067  1
  O  O29  1  0.546279  0.061392  0.779235  1
  O  O30  1  0.726781  0.629733  0.050331  1
  O  O31  1  0.370267  0.273219  0.550331  1
  O  O32  1  0.453827  0.938952  0.212363  1
  O  O33  1  0.521865  0.758715  0.104307  1
  O  O34  1  0.479696  0.242211  0.893869  1
  O  O35  1  0.121100  0.988726  0.940167  1
