# generated using pymatgen
data_Ba5(Ga3H)2
_symmetry_space_group_name_H-M   'P 1'
_cell_length_a   7.80747843
_cell_length_b   7.80747843
_cell_length_c   14.46809772
_cell_angle_alpha   90.00000000
_cell_angle_beta   90.00000000
_cell_angle_gamma   120.00000000
_symmetry_Int_Tables_number   1
_chemical_formula_structural   Ba5(Ga3H)2
_chemical_formula_sum   'Ba10 Ga12 H4'
_cell_volume   763.77185580
_cell_formula_units_Z   2
loop_
 _symmetry_equiv_pos_site_id
 _symmetry_equiv_pos_as_xyz
  1  'x, y, z'
loop_
 _atom_site_type_symbol
 _atom_site_label
 _atom_site_symmetry_multiplicity
 _atom_site_fract_x
 _atom_site_fract_y
 _atom_site_fract_z
 _atom_site_occupancy
  Ba  Ba0  1  0.690837  0.022841  0.763084  1
  Ba  Ba1  1  0.977159  0.667996  0.763084  1
  Ba  Ba2  1  0.332004  0.309163  0.763084  1
  Ba  Ba3  1  0.977159  0.309163  0.263084  1
  Ba  Ba4  1  0.332004  0.022841  0.263084  1
  Ba  Ba5  1  0.690837  0.667996  0.263084  1
  Ba  Ba6  1  0.666667  0.333333  0.530886  1
  Ba  Ba7  1  0.666667  0.333333  0.030886  1
  Ba  Ba8  1  0.000000  0.000000  0.498386  1
  Ba  Ba9  1  0.000000  0.000000  0.998386  1
  Ga  Ga10  1  0.141451  0.458883  0.589409  1
  Ga  Ga11  1  0.541117  0.682568  0.589409  1
  Ga  Ga12  1  0.317432  0.858549  0.589409  1
  Ga  Ga13  1  0.541117  0.858549  0.089409  1
  Ga  Ga14  1  0.317432  0.458883  0.089409  1
  Ga  Ga15  1  0.141451  0.682568  0.089409  1
  Ga  Ga16  1  0.125605  0.473826  0.934005  1
  Ga  Ga17  1  0.526174  0.651779  0.934005  1
  Ga  Ga18  1  0.348221  0.874395  0.934005  1
  Ga  Ga19  1  0.526174  0.874395  0.434005  1
  Ga  Ga20  1  0.348221  0.473826  0.434005  1
  Ga  Ga21  1  0.125605  0.651779  0.434005  1
  H  H22  1  0.000000  0.000000  0.816367  1
  H  H23  1  0.000000  0.000000  0.316367  1
  H  H24  1  0.666667  0.333333  0.718704  1
  H  H25  1  0.666667  0.333333  0.218704  1
