# generated using pymatgen
data_Re6Pb5O19
_symmetry_space_group_name_H-M   'P 1'
_cell_length_a   9.39546720
_cell_length_b   9.40070552
_cell_length_c   13.30340418
_cell_angle_alpha   90.00000000
_cell_angle_beta   134.98103651
_cell_angle_gamma   90.00000000
_symmetry_Int_Tables_number   1
_chemical_formula_structural   Re6Pb5O19
_chemical_formula_sum   'Re12 Pb10 O38'
_cell_volume   831.13258743
_cell_formula_units_Z   2
loop_
 _symmetry_equiv_pos_site_id
 _symmetry_equiv_pos_as_xyz
  1  'x, y, z'
loop_
 _atom_site_type_symbol
 _atom_site_label
 _atom_site_symmetry_multiplicity
 _atom_site_fract_x
 _atom_site_fract_y
 _atom_site_fract_z
 _atom_site_occupancy
  Re  Re0  1  0.500000  0.115441  0.250000  1
  Re  Re1  1  0.861016  0.247488  0.244416  1
  Re  Re2  1  0.632160  0.246378  0.883206  1
  Re  Re3  1  0.367840  0.246378  0.616794  1
  Re  Re4  1  0.138984  0.247488  0.255584  1
  Re  Re5  1  0.500000  0.381588  0.250000  1
  Re  Re6  1  0.500000  0.618412  0.750000  1
  Re  Re7  1  0.861016  0.752512  0.744416  1
  Re  Re8  1  0.632160  0.753622  0.383206  1
  Re  Re9  1  0.367840  0.753622  0.116794  1
  Re  Re10  1  0.138984  0.752512  0.755584  1
  Re  Re11  1  0.500000  0.884559  0.750000  1
  Pb  Pb12  1  0.001080  0.101847  0.607474  1
  Pb  Pb13  1  0.998920  0.101847  0.892526  1
  Pb  Pb14  1  0.291888  0.390697  0.896528  1
  Pb  Pb15  1  0.708112  0.390697  0.603472  1
  Pb  Pb16  1  0.000000  0.500000  0.500000  1
  Pb  Pb17  1  0.000000  0.500000  0.000000  1
  Pb  Pb18  1  0.291888  0.609303  0.396528  1
  Pb  Pb19  1  0.708112  0.609303  0.103472  1
  Pb  Pb20  1  0.001080  0.898153  0.107474  1
  Pb  Pb21  1  0.998920  0.898153  0.392526  1
  O  O22  1  0.645126  0.040166  0.891989  1
  O  O23  1  0.354874  0.040166  0.608011  1
  O  O24  1  0.000000  0.078901  0.250000  1
  O  O25  1  0.713210  0.108068  0.253404  1
  O  O26  1  0.286790  0.108068  0.246596  1
  O  O27  1  0.934549  0.249892  0.039297  1
  O  O28  1  0.065451  0.249892  0.460703  1
  O  O29  1  0.000000  0.251342  0.750000  1
  O  O30  1  0.671749  0.250114  0.752113  1
  O  O31  1  0.330199  0.250856  0.080408  1
  O  O32  1  0.669801  0.250856  0.419592  1
  O  O33  1  0.328251  0.250114  0.747887  1
  O  O34  1  0.353583  0.252568  0.461282  1
  O  O35  1  0.646417  0.252568  0.038718  1
  O  O36  1  0.288749  0.394998  0.250022  1
  O  O37  1  0.711251  0.394998  0.249978  1
  O  O38  1  0.000000  0.417620  0.250000  1
  O  O39  1  0.645395  0.461367  0.895302  1
  O  O40  1  0.354605  0.461367  0.604698  1
  O  O41  1  0.645395  0.538633  0.395302  1
  O  O42  1  0.354605  0.538633  0.104698  1
  O  O43  1  0.000000  0.582380  0.750000  1
  O  O44  1  0.288749  0.605002  0.750022  1
  O  O45  1  0.711251  0.605002  0.749978  1
  O  O46  1  0.353583  0.747432  0.961282  1
  O  O47  1  0.646417  0.747432  0.538718  1
  O  O48  1  0.330199  0.749144  0.580408  1
  O  O49  1  0.671749  0.749886  0.252113  1
  O  O50  1  0.669801  0.749144  0.919592  1
  O  O51  1  0.328251  0.749886  0.247887  1
  O  O52  1  0.000000  0.748658  0.250000  1
  O  O53  1  0.934549  0.750108  0.539297  1
  O  O54  1  0.065451  0.750108  0.960703  1
  O  O55  1  0.713210  0.891932  0.753404  1
  O  O56  1  0.286790  0.891932  0.746596  1
  O  O57  1  0.000000  0.921099  0.750000  1
  O  O58  1  0.645126  0.959834  0.391989  1
  O  O59  1  0.354874  0.959834  0.108011  1
