# generated using pymatgen
data_Ca4Zn2Cu3P5
_symmetry_space_group_name_H-M   'P 1'
_cell_length_a   4.04387240
_cell_length_b   4.04387240
_cell_length_c   37.25649596
_cell_angle_alpha   90.00000000
_cell_angle_beta   90.00000000
_cell_angle_gamma   120.00000000
_symmetry_Int_Tables_number   1
_chemical_formula_structural   Ca4Zn2Cu3P5
_chemical_formula_sum   'Ca8 Zn4 Cu6 P10'
_cell_volume   527.62762368
_cell_formula_units_Z   2
loop_
 _symmetry_equiv_pos_site_id
 _symmetry_equiv_pos_as_xyz
  1  'x, y, z'
loop_
 _atom_site_type_symbol
 _atom_site_label
 _atom_site_symmetry_multiplicity
 _atom_site_fract_x
 _atom_site_fract_y
 _atom_site_fract_z
 _atom_site_occupancy
  Ca  Ca0  1  0.000000  0.000000  0.802899  1
  Ca  Ca1  1  0.000000  0.000000  0.302899  1
  Ca  Ca2  1  0.000000  0.000000  0.908555  1
  Ca  Ca3  1  0.000000  0.000000  0.091445  1
  Ca  Ca4  1  0.000000  0.000000  0.408555  1
  Ca  Ca5  1  0.000000  0.000000  0.591445  1
  Ca  Ca6  1  0.000000  0.000000  0.697101  1
  Ca  Ca7  1  0.000000  0.000000  0.197101  1
  Zn  Zn8  1  0.666667  0.333333  0.475674  1
  Zn  Zn9  1  0.333333  0.666667  0.975674  1
  Zn  Zn10  1  0.333333  0.666667  0.524326  1
  Zn  Zn11  1  0.666667  0.333333  0.024326  1
  Cu  Cu12  1  0.333333  0.666667  0.750000  1
  Cu  Cu13  1  0.666667  0.333333  0.643856  1
  Cu  Cu14  1  0.333333  0.666667  0.356144  1
  Cu  Cu15  1  0.666667  0.333333  0.250000  1
  Cu  Cu16  1  0.333333  0.666667  0.143856  1
  Cu  Cu17  1  0.666667  0.333333  0.856144  1
  P  P18  1  0.666667  0.333333  0.355590  1
  P  P19  1  0.666667  0.333333  0.543817  1
  P  P20  1  0.333333  0.666667  0.855590  1
  P  P21  1  0.333333  0.666667  0.456183  1
  P  P22  1  0.666667  0.333333  0.956183  1
  P  P23  1  0.666667  0.333333  0.144410  1
  P  P24  1  0.333333  0.666667  0.043817  1
  P  P25  1  0.666667  0.333333  0.750000  1
  P  P26  1  0.333333  0.666667  0.644410  1
  P  P27  1  0.333333  0.666667  0.250000  1
