# generated using pymatgen
data_Ca5Al12Si12(AgO24)2
_symmetry_space_group_name_H-M   'P 1'
_cell_length_a   12.17451976
_cell_length_b   12.18118788
_cell_length_c   12.92924803
_cell_angle_alpha   89.52801142
_cell_angle_beta   89.46363154
_cell_angle_gamma   89.80216295
_symmetry_Int_Tables_number   1
_chemical_formula_structural   Ca5Al12Si12(AgO24)2
_chemical_formula_sum   'Ca5 Al12 Si12 Ag2 O48'
_cell_volume   1917.24894054
_cell_formula_units_Z   1
loop_
 _symmetry_equiv_pos_site_id
 _symmetry_equiv_pos_as_xyz
  1  'x, y, z'
loop_
 _atom_site_type_symbol
 _atom_site_label
 _atom_site_symmetry_multiplicity
 _atom_site_fract_x
 _atom_site_fract_y
 _atom_site_fract_z
 _atom_site_occupancy
  Ca  Ca0  1  0.803804  0.801314  0.770740  1
  Ca  Ca1  1  0.186560  0.815989  0.216765  1
  Ca  Ca2  1  0.816008  0.813803  0.222414  1
  Ca  Ca3  1  0.816989  0.183950  0.217832  1
  Ca  Ca4  1  0.180133  0.179130  0.216290  1
  Al  Al5  1  0.999604  0.638564  0.822791  1
  Al  Al6  1  0.636963  0.997044  0.823912  1
  Al  Al7  1  0.196442  0.995401  0.626424  1
  Al  Al8  1  0.001113  0.196556  0.623725  1
  Al  Al9  1  0.804386  0.000270  0.388574  1
  Al  Al10  1  0.999783  0.804157  0.389048  1
  Al  Al11  1  0.194411  0.997558  0.388214  1
  Al  Al12  1  0.998298  0.195508  0.387955  1
  Al  Al13  1  0.364438  0.001180  0.165636  1
  Al  Al14  1  0.002502  0.635827  0.167831  1
  Al  Al15  1  0.001507  0.363833  0.165637  1
  Al  Al16  1  0.636340  0.001471  0.167681  1
  Si  Si17  1  0.369111  0.814689  0.996136  1
  Si  Si18  1  0.813922  0.371572  0.998866  1
  Si  Si19  1  0.633951  0.189446  0.994193  1
  Si  Si20  1  0.187325  0.371561  0.991839  1
  Si  Si21  1  0.370054  0.187293  0.991708  1
  Si  Si22  1  0.372006  0.996791  0.822044  1
  Si  Si23  1  0.998039  0.374947  0.821854  1
  Si  Si24  1  0.810831  0.002980  0.621804  1
  Si  Si25  1  0.006745  0.811325  0.623508  1
  Si  Si26  1  0.633121  0.811530  0.000198  1
  Si  Si27  1  0.812021  0.634786  0.999345  1
  Si  Si28  1  0.188615  0.634786  0.994395  1
  Ag  Ag29  1  0.196721  0.190490  0.784566  1
  Ag  Ag30  1  0.806524  0.200732  0.789575  1
  O  O31  1  0.689183  0.689402  0.999771  1
  O  O32  1  0.308424  0.696002  0.989023  1
  O  O33  1  0.696073  0.308900  0.987753  1
  O  O34  1  0.214546  0.501760  0.000717  1
  O  O35  1  0.501777  0.213554  0.998187  1
  O  O36  1  0.339863  0.892745  0.898523  1
  O  O37  1  0.890139  0.341997  0.898006  1
  O  O38  1  0.110867  0.346061  0.890309  1
  O  O39  1  0.343867  0.111494  0.891098  1
  O  O40  1  0.676613  0.875579  0.895346  1
  O  O41  1  0.873783  0.674764  0.892895  1
  O  O42  1  0.113327  0.665620  0.897410  1
  O  O43  1  0.669823  0.118838  0.891893  1
  O  O44  1  0.500920  0.994884  0.796047  1
  O  O45  1  0.992796  0.501483  0.791605  1
  O  O46  1  0.726317  0.973102  0.719501  1
  O  O47  1  0.970305  0.725643  0.718225  1
  O  O48  1  0.990070  0.291459  0.727907  1
  O  O49  1  0.296449  0.000877  0.724130  1
  O  O50  1  0.892991  0.893177  0.634190  1
  O  O51  1  0.114554  0.877065  0.649635  1
  O  O52  1  0.875693  0.116157  0.646470  1
  O  O53  1  0.112143  0.111569  0.653991  1
  O  O54  1  0.002229  0.748718  0.513655  1
  O  O55  1  0.256783  0.995768  0.505059  1
  O  O56  1  0.997491  0.259886  0.504666  1
  O  O57  1  0.747480  0.001771  0.513314  1
  O  O58  1  0.875840  0.876471  0.370843  1
  O  O59  1  0.119845  0.876508  0.362370  1
  O  O60  1  0.876024  0.121664  0.365654  1
  O  O61  1  0.115605  0.115966  0.362689  1
  O  O62  1  0.732867  0.999360  0.266854  1
  O  O63  1  0.995383  0.730571  0.268578  1
  O  O64  1  0.999480  0.263102  0.261612  1
  O  O65  1  0.263659  0.000238  0.261976  1
  O  O66  1  0.001953  0.499509  0.189691  1
  O  O67  1  0.500009  0.004287  0.190215  1
  O  O68  1  0.326134  0.874903  0.102473  1
  O  O69  1  0.874353  0.324804  0.102493  1
  O  O70  1  0.124724  0.322872  0.095372  1
  O  O71  1  0.324208  0.125926  0.096693  1
  O  O72  1  0.677283  0.876118  0.102794  1
  O  O73  1  0.877947  0.678182  0.101050  1
  O  O74  1  0.127861  0.677382  0.102386  1
  O  O75  1  0.678215  0.125763  0.098664  1
  O  O76  1  0.501603  0.792735  0.001272  1
  O  O77  1  0.791810  0.502660  0.003203  1
  O  O78  1  0.302820  0.303225  0.976490  1
