# generated using pymatgen
data_Cs2MgH4
_symmetry_space_group_name_H-M   'P 1'
_cell_length_a   6.63419727
_cell_length_b   8.65690776
_cell_length_c   11.70448524
_cell_angle_alpha   90.00000000
_cell_angle_beta   90.00000000
_cell_angle_gamma   90.00000000
_symmetry_Int_Tables_number   1
_chemical_formula_structural   Cs2MgH4
_chemical_formula_sum   'Cs8 Mg4 H16'
_cell_volume   672.20771045
_cell_formula_units_Z   4
loop_
 _symmetry_equiv_pos_site_id
 _symmetry_equiv_pos_as_xyz
  1  'x, y, z'
loop_
 _atom_site_type_symbol
 _atom_site_label
 _atom_site_symmetry_multiplicity
 _atom_site_fract_x
 _atom_site_fract_y
 _atom_site_fract_z
 _atom_site_occupancy
  Cs  Cs0  1  0.250000  0.158884  0.918094  1
  Cs  Cs1  1  0.250000  0.658884  0.581906  1
  Cs  Cs2  1  0.750000  0.841116  0.081906  1
  Cs  Cs3  1  0.750000  0.341116  0.418094  1
  Cs  Cs4  1  0.250000  0.491624  0.190599  1
  Cs  Cs5  1  0.250000  0.991624  0.309401  1
  Cs  Cs6  1  0.750000  0.508376  0.809401  1
  Cs  Cs7  1  0.750000  0.008376  0.690599  1
  Mg  Mg8  1  0.250000  0.735810  0.911509  1
  Mg  Mg9  1  0.250000  0.235810  0.588491  1
  Mg  Mg10  1  0.750000  0.264190  0.088491  1
  Mg  Mg11  1  0.750000  0.764190  0.411509  1
  H  H12  1  0.250000  0.521853  0.912713  1
  H  H13  1  0.250000  0.021853  0.587287  1
  H  H14  1  0.750000  0.478147  0.087287  1
  H  H15  1  0.750000  0.978147  0.412713  1
  H  H16  1  0.250000  0.818151  0.059647  1
  H  H17  1  0.250000  0.318151  0.440353  1
  H  H18  1  0.750000  0.181849  0.940353  1
  H  H19  1  0.750000  0.681849  0.559647  1
  H  H20  1  0.020534  0.812809  0.840628  1
  H  H21  1  0.479466  0.312809  0.659372  1
  H  H22  1  0.520534  0.187191  0.159372  1
  H  H23  1  0.979466  0.687191  0.340628  1
  H  H24  1  0.979466  0.187191  0.159372  1
  H  H25  1  0.520534  0.687191  0.340628  1
  H  H26  1  0.479466  0.812809  0.840628  1
  H  H27  1  0.020534  0.312809  0.659372  1
