# generated using pymatgen
data_Ba3La7Ti3Cr7O30
_symmetry_space_group_name_H-M   'P 1'
_cell_length_a   5.60867126
_cell_length_b   7.95282551
_cell_length_c   14.82252668
_cell_angle_alpha   105.43657773
_cell_angle_beta   100.80292833
_cell_angle_gamma   90.46305178
_symmetry_Int_Tables_number   1
_chemical_formula_structural   Ba3La7Ti3Cr7O30
_chemical_formula_sum   'Ba3 La7 Ti3 Cr7 O30'
_cell_volume   624.83592287
_cell_formula_units_Z   1
loop_
 _symmetry_equiv_pos_site_id
 _symmetry_equiv_pos_as_xyz
  1  'x, y, z'
loop_
 _atom_site_type_symbol
 _atom_site_label
 _atom_site_symmetry_multiplicity
 _atom_site_fract_x
 _atom_site_fract_y
 _atom_site_fract_z
 _atom_site_occupancy
  Ba  Ba0  1  0.502521  0.751886  0.001435  1
  Ba  Ba1  1  0.501866  0.248552  0.001729  1
  Ba  Ba2  1  0.899778  0.649179  0.796539  1
  La  La3  1  0.898522  0.144854  0.799755  1
  La  La4  1  0.303595  0.549499  0.596710  1
  La  La5  1  0.698974  0.950165  0.396770  1
  La  La6  1  0.100792  0.350524  0.205480  1
  La  La7  1  0.296100  0.045929  0.599134  1
  La  La8  1  0.704196  0.451784  0.404233  1
  La  La9  1  0.109634  0.852973  0.201684  1
  Ti  Ti10  1  0.998494  0.001271  0.000346  1
  Ti  Ti11  1  0.006019  0.498900  0.003899  1
  Ti  Ti12  1  0.402933  0.392888  0.797325  1
  Cr  Cr13  1  0.394897  0.900449  0.797174  1
  Cr  Cr14  1  0.797546  0.296846  0.596813  1
  Cr  Cr15  1  0.800832  0.798789  0.596523  1
  Cr  Cr16  1  0.200489  0.700322  0.400466  1
  Cr  Cr17  1  0.201365  0.199956  0.401151  1
  Cr  Cr18  1  0.606565  0.101048  0.203323  1
  Cr  Cr19  1  0.599477  0.602592  0.203763  1
  O  O20  1  0.182916  0.445411  0.891675  1
  O  O21  1  0.994407  0.247108  0.990691  1
  O  O22  1  0.716051  0.946879  0.893322  1
  O  O23  1  0.558332  0.868384  0.683807  1
  O  O24  1  0.695749  0.457571  0.902958  1
  O  O25  1  0.389529  0.633027  0.777957  1
  O  O26  1  0.403890  0.154451  0.805508  1
  O  O27  1  0.122095  0.317422  0.687668  1
  O  O28  1  0.206034  0.948637  0.905686  1
  O  O29  1  0.956963  0.269648  0.484398  1
  O  O30  1  0.075714  0.895906  0.707650  1
  O  O31  1  0.788469  0.035711  0.571230  1
  O  O32  1  0.803070  0.553737  0.607831  1
  O  O33  1  0.530357  0.712512  0.482548  1
  O  O34  1  0.624041  0.316556  0.706472  1
  O  O35  1  0.347845  0.664337  0.285047  1
  O  O36  1  0.467899  0.288872  0.514124  1
  O  O37  1  0.182490  0.437903  0.376593  1
  O  O38  1  0.217849  0.961622  0.423762  1
  O  O39  1  0.934977  0.111719  0.287567  1
  O  O40  1  0.053269  0.728910  0.515627  1
  O  O41  1  0.798073  0.061145  0.097596  1
  O  O42  1  0.868757  0.686375  0.317378  1
  O  O43  1  0.581373  0.847385  0.194899  1
  O  O44  1  0.624977  0.362861  0.225545  1
  O  O45  1  0.303242  0.531892  0.096100  1
  O  O46  1  0.446097  0.137698  0.316680  1
  O  O47  1  0.277053  0.075146  0.114364  1
  O  O48  1  0.010111  0.756377  0.014212  1
  O  O49  1  0.838138  0.543526  0.113468  1
