# generated using pymatgen
data_PbWO4
_symmetry_space_group_name_H-M   'P 1'
_cell_length_a   7.49582432
_cell_length_b   7.18063340
_cell_length_c   14.83947487
_cell_angle_alpha   90.00000000
_cell_angle_beta   119.98860014
_cell_angle_gamma   90.00000000
_symmetry_Int_Tables_number   1
_chemical_formula_structural   PbWO4
_chemical_formula_sum   'Pb8 W8 O32'
_cell_volume   691.80101592
_cell_formula_units_Z   8
loop_
 _symmetry_equiv_pos_site_id
 _symmetry_equiv_pos_as_xyz
  1  'x, y, z'
loop_
 _atom_site_type_symbol
 _atom_site_label
 _atom_site_symmetry_multiplicity
 _atom_site_fract_x
 _atom_site_fract_y
 _atom_site_fract_z
 _atom_site_occupancy
  Pb  Pb0  1  0.984856  0.796834  0.653987  1
  Pb  Pb1  1  0.984856  0.703166  0.153987  1
  Pb  Pb2  1  0.015144  0.203166  0.346013  1
  Pb  Pb3  1  0.015144  0.296834  0.846013  1
  Pb  Pb4  1  0.519534  0.539277  0.645601  1
  Pb  Pb5  1  0.519534  0.960723  0.145601  1
  Pb  Pb6  1  0.480466  0.460723  0.354399  1
  Pb  Pb7  1  0.480466  0.039277  0.854399  1
  W  W8  1  0.997578  0.332694  0.581250  1
  W  W9  1  0.997578  0.167306  0.081250  1
  W  W10  1  0.002422  0.667306  0.418750  1
  W  W11  1  0.002422  0.832694  0.918750  1
  W  W12  1  0.433783  0.042195  0.586750  1
  W  W13  1  0.433783  0.457805  0.086750  1
  W  W14  1  0.566217  0.957805  0.413250  1
  W  W15  1  0.566217  0.542195  0.913250  1
  O  O16  1  0.821458  0.484092  0.603508  1
  O  O17  1  0.821458  0.015908  0.103508  1
  O  O18  1  0.178542  0.515908  0.396492  1
  O  O19  1  0.178542  0.984092  0.896492  1
  O  O20  1  0.409899  0.915717  0.687425  1
  O  O21  1  0.409899  0.584283  0.187425  1
  O  O22  1  0.590101  0.084283  0.312575  1
  O  O23  1  0.590101  0.415717  0.812575  1
  O  O24  1  0.587185  0.858127  0.555716  1
  O  O25  1  0.587185  0.641873  0.055716  1
  O  O26  1  0.412815  0.141873  0.444284  1
  O  O27  1  0.412815  0.358127  0.944284  1
  O  O28  1  0.152226  0.247993  0.715553  1
  O  O29  1  0.152226  0.252007  0.215553  1
  O  O30  1  0.847774  0.752007  0.284447  1
  O  O31  1  0.847774  0.747993  0.784447  1
  O  O32  1  0.222781  0.229903  0.551065  1
  O  O33  1  0.222781  0.270097  0.051065  1
  O  O34  1  0.777219  0.770097  0.448935  1
  O  O35  1  0.777219  0.729903  0.948935  1
  O  O36  1  0.647616  0.191316  0.669513  1
  O  O37  1  0.647616  0.308684  0.169513  1
  O  O38  1  0.352384  0.808684  0.330487  1
  O  O39  1  0.352384  0.691316  0.830487  1
  O  O40  1  0.832625  0.121708  0.523651  1
  O  O41  1  0.832625  0.378292  0.023651  1
  O  O42  1  0.167375  0.878292  0.476349  1
  O  O43  1  0.167375  0.621708  0.976349  1
  O  O44  1  0.139409  0.576717  0.581418  1
  O  O45  1  0.139409  0.923283  0.081418  1
  O  O46  1  0.860591  0.423283  0.418582  1
  O  O47  1  0.860591  0.076717  0.918582  1
