# generated using pymatgen
data_Ho2Si4CN6
_symmetry_space_group_name_H-M   'P 1'
_cell_length_a   5.93784917
_cell_length_b   9.98531374
_cell_length_c   11.91406060
_cell_angle_alpha   90.00000000
_cell_angle_beta   119.62977070
_cell_angle_gamma   90.00000000
_symmetry_Int_Tables_number   1
_chemical_formula_structural   Ho2Si4CN6
_chemical_formula_sum   'Ho8 Si16 C4 N24'
_cell_volume   614.02982467
_cell_formula_units_Z   4
loop_
 _symmetry_equiv_pos_site_id
 _symmetry_equiv_pos_as_xyz
  1  'x, y, z'
loop_
 _atom_site_type_symbol
 _atom_site_label
 _atom_site_symmetry_multiplicity
 _atom_site_fract_x
 _atom_site_fract_y
 _atom_site_fract_z
 _atom_site_occupancy
  Ho  Ho0  1  0.346104  0.911988  0.083174  1
  Ho  Ho1  1  0.653896  0.411988  0.416826  1
  Ho  Ho2  1  0.653896  0.088012  0.916826  1
  Ho  Ho3  1  0.346104  0.588012  0.583174  1
  Ho  Ho4  1  0.671936  0.068808  0.406319  1
  Ho  Ho5  1  0.328064  0.568808  0.093681  1
  Ho  Ho6  1  0.328064  0.931192  0.593681  1
  Ho  Ho7  1  0.671936  0.431192  0.906319  1
  Si  Si8  1  0.321800  0.726442  0.341219  1
  Si  Si9  1  0.678200  0.226442  0.158781  1
  Si  Si10  1  0.678200  0.273558  0.658781  1
  Si  Si11  1  0.321800  0.773558  0.841219  1
  Si  Si12  1  0.798924  0.705166  0.323760  1
  Si  Si13  1  0.201076  0.205166  0.176240  1
  Si  Si14  1  0.201076  0.294834  0.676240  1
  Si  Si15  1  0.798924  0.794834  0.823760  1
  Si  Si16  1  0.836081  0.712173  0.079390  1
  Si  Si17  1  0.163919  0.212173  0.420610  1
  Si  Si18  1  0.163919  0.287827  0.920610  1
  Si  Si19  1  0.836081  0.787827  0.579390  1
  Si  Si20  1  0.996466  0.979210  0.250095  1
  Si  Si21  1  0.003534  0.479210  0.249905  1
  Si  Si22  1  0.003534  0.020790  0.749905  1
  Si  Si23  1  0.996466  0.520790  0.750095  1
  C  C24  1  0.976006  0.791327  0.246997  1
  C  C25  1  0.023994  0.291327  0.253003  1
  C  C26  1  0.023994  0.208673  0.753003  1
  C  C27  1  0.976006  0.708673  0.746997  1
  N  N28  1  0.297644  0.553038  0.364085  1
  N  N29  1  0.702356  0.053038  0.135915  1
  N  N30  1  0.702356  0.446962  0.635915  1
  N  N31  1  0.297644  0.946962  0.864085  1
  N  N32  1  0.479901  0.761652  0.253785  1
  N  N33  1  0.520099  0.261652  0.246215  1
  N  N34  1  0.520099  0.238348  0.746215  1
  N  N35  1  0.479901  0.738348  0.753785  1
  N  N36  1  0.494919  0.788883  0.499173  1
  N  N37  1  0.505081  0.288883  0.000827  1
  N  N38  1  0.505081  0.211117  0.500827  1
  N  N39  1  0.494919  0.711117  0.999173  1
  N  N40  1  0.755410  0.535332  0.277270  1
  N  N41  1  0.244590  0.035332  0.222730  1
  N  N42  1  0.244590  0.464668  0.722730  1
  N  N43  1  0.755410  0.964668  0.777270  1
  N  N44  1  0.939991  0.544206  0.100623  1
  N  N45  1  0.060009  0.044206  0.399377  1
  N  N46  1  0.060009  0.455794  0.899377  1
  N  N47  1  0.939991  0.955794  0.600623  1
  N  N48  1  0.963593  0.785595  0.990818  1
  N  N49  1  0.036407  0.285595  0.509182  1
  N  N50  1  0.036407  0.214405  0.009182  1
  N  N51  1  0.963593  0.714405  0.490818  1
