# generated using pymatgen
data_K6Ba3Ta12(Si2O13)4
_symmetry_space_group_name_H-M   'P 1'
_cell_length_a   7.87271192
_cell_length_b   9.17386856
_cell_length_c   15.88216837
_cell_angle_alpha   90.00000000
_cell_angle_beta   90.00000000
_cell_angle_gamma   90.00000000
_symmetry_Int_Tables_number   1
_chemical_formula_structural   K6Ba3Ta12(Si2O13)4
_chemical_formula_sum   'K6 Ba3 Ta12 Si8 O52'
_cell_volume   1147.06140959
_cell_formula_units_Z   1
loop_
 _symmetry_equiv_pos_site_id
 _symmetry_equiv_pos_as_xyz
  1  'x, y, z'
loop_
 _atom_site_type_symbol
 _atom_site_label
 _atom_site_symmetry_multiplicity
 _atom_site_fract_x
 _atom_site_fract_y
 _atom_site_fract_z
 _atom_site_occupancy
  K  K0  1  0.500000  0.905373  0.500000  1
  K  K1  1  0.000000  0.886949  0.500000  1
  K  K2  1  0.000000  0.803330  0.195548  1
  K  K3  1  0.000000  0.803330  0.804452  1
  K  K4  1  0.500000  0.797239  0.202868  1
  K  K5  1  0.500000  0.797239  0.797132  1
  Ba  Ba6  1  0.500000  0.301686  0.698776  1
  Ba  Ba7  1  0.500000  0.301686  0.301224  1
  Ba  Ba8  1  0.500000  0.397901  0.000000  1
  Ta  Ta9  1  0.750035  0.759270  0.000000  1
  Ta  Ta10  1  0.246253  0.264715  0.500000  1
  Ta  Ta11  1  0.753747  0.264715  0.500000  1
  Ta  Ta12  1  0.247863  0.117087  0.881799  1
  Ta  Ta13  1  0.752137  0.117087  0.881799  1
  Ta  Ta14  1  0.247863  0.117087  0.118201  1
  Ta  Ta15  1  0.249965  0.759270  0.000000  1
  Ta  Ta16  1  0.248628  0.620504  0.380326  1
  Ta  Ta17  1  0.751372  0.620504  0.619674  1
  Ta  Ta18  1  0.751372  0.620504  0.380326  1
  Ta  Ta19  1  0.248628  0.620504  0.619674  1
  Ta  Ta20  1  0.752137  0.117087  0.118201  1
  Si  Si21  1  0.794073  0.495868  0.833785  1
  Si  Si22  1  0.205927  0.495868  0.833785  1
  Si  Si23  1  0.791820  0.004406  0.667049  1
  Si  Si24  1  0.791820  0.004406  0.332951  1
  Si  Si25  1  0.208180  0.004406  0.667049  1
  Si  Si26  1  0.208180  0.004406  0.332951  1
  Si  Si27  1  0.794073  0.495868  0.166215  1
  Si  Si28  1  0.205927  0.495868  0.166215  1
  O  O29  1  0.761515  0.910700  0.912040  1
  O  O30  1  0.274516  0.602118  0.909235  1
  O  O31  1  0.725484  0.602118  0.909235  1
  O  O32  1  0.726264  0.558486  0.743615  1
  O  O33  1  0.273736  0.558486  0.743615  1
  O  O34  1  0.000000  0.498334  0.834239  1
  O  O35  1  0.239263  0.413684  0.587820  1
  O  O36  1  0.760737  0.413684  0.587820  1
  O  O37  1  0.760737  0.413684  0.412180  1
  O  O38  1  0.283135  0.333350  0.848399  1
  O  O39  1  0.716865  0.333350  0.848399  1
  O  O40  1  0.500000  0.270399  0.500000  1
  O  O41  1  0.000000  0.227174  0.500000  1
  O  O42  1  0.761218  0.176604  0.000000  1
  O  O43  1  0.000000  0.127879  0.865430  1
  O  O44  1  0.000000  0.127879  0.134570  1
  O  O45  1  0.500000  0.118640  0.885733  1
  O  O46  1  0.500000  0.118640  0.114267  1
  O  O47  1  0.278626  0.107068  0.591469  1
  O  O48  1  0.278626  0.107068  0.408531  1
  O  O49  1  0.721374  0.107068  0.591469  1
  O  O50  1  0.721374  0.107068  0.408531  1
  O  O51  1  0.278936  0.064311  0.756911  1
  O  O52  1  0.721064  0.064311  0.756911  1
  O  O53  1  0.721064  0.064311  0.243089  1
  O  O54  1  0.278936  0.064311  0.243089  1
  O  O55  1  0.000000  0.002985  0.667345  1
  O  O56  1  0.000000  0.002985  0.332655  1
  O  O57  1  0.238485  0.910700  0.912040  1
  O  O58  1  0.238485  0.910700  0.087960  1
  O  O59  1  0.761515  0.910700  0.087960  1
  O  O60  1  0.268960  0.835892  0.652950  1
  O  O61  1  0.731040  0.835892  0.652950  1
  O  O62  1  0.268960  0.835892  0.347050  1
  O  O63  1  0.731040  0.835892  0.347050  1
  O  O64  1  0.500000  0.762666  0.000000  1
  O  O65  1  0.000000  0.735529  0.000000  1
  O  O66  1  0.238681  0.675162  0.500000  1
  O  O67  1  0.761319  0.675162  0.500000  1
  O  O68  1  0.000000  0.639595  0.633796  1
  O  O69  1  0.000000  0.639595  0.366204  1
  O  O70  1  0.500000  0.614615  0.619099  1
  O  O71  1  0.500000  0.614615  0.380901  1
  O  O72  1  0.274516  0.602118  0.090765  1
  O  O73  1  0.725484  0.602118  0.090765  1
  O  O74  1  0.273736  0.558486  0.256385  1
  O  O75  1  0.726264  0.558486  0.256385  1
  O  O76  1  0.000000  0.498334  0.165761  1
  O  O77  1  0.239263  0.413684  0.412180  1
  O  O78  1  0.283135  0.333350  0.151601  1
  O  O79  1  0.716865  0.333350  0.151601  1
  O  O80  1  0.238782  0.176604  0.000000  1
