# generated using pymatgen
data_Li2Co4O5
_symmetry_space_group_name_H-M   'P 1'
_cell_length_a   6.11282212
_cell_length_b   6.11282212
_cell_length_c   10.50141347
_cell_angle_alpha   73.55393299
_cell_angle_beta   106.44606701
_cell_angle_gamma   120.23326209
_symmetry_Int_Tables_number   1
_chemical_formula_structural   Li2Co4O5
_chemical_formula_sum   'Li6 Co12 O15'
_cell_volume   320.44565430
_cell_formula_units_Z   3
loop_
 _symmetry_equiv_pos_site_id
 _symmetry_equiv_pos_as_xyz
  1  'x, y, z'
loop_
 _atom_site_type_symbol
 _atom_site_label
 _atom_site_symmetry_multiplicity
 _atom_site_fract_x
 _atom_site_fract_y
 _atom_site_fract_z
 _atom_site_occupancy
  Li  Li0  1  0.034503  0.965497  0.020543  1
  Li  Li1  1  0.254519  0.745481  0.097854  1
  Li  Li2  1  0.919180  0.516881  0.977965  1
  Li  Li3  1  0.483119  0.080820  0.977965  1
  Li  Li4  1  0.243296  0.756704  0.297716  1
  Li  Li5  1  0.838511  0.161489  0.936387  1
  Co  Co6  1  0.497228  0.502772  0.004174  1
  Co  Co7  1  0.751668  0.248332  0.242606  1
  Co  Co8  1  0.758475  0.753104  0.756681  1
  Co  Co9  1  0.989042  0.010958  0.492427  1
  Co  Co10  1  0.763560  0.756440  0.243615  1
  Co  Co11  1  0.246896  0.241525  0.756681  1
  Co  Co12  1  0.254990  0.745010  0.763389  1
  Co  Co13  1  0.243560  0.236440  0.243615  1
  Co  Co14  1  0.999134  0.508772  0.498547  1
  Co  Co15  1  0.491228  0.000866  0.498547  1
  Co  Co16  1  0.488053  0.511947  0.491915  1
  Co  Co17  1  0.722357  0.277643  0.708600  1
  O  O18  1  0.613789  0.386211  0.368408  1
  O  O19  1  0.382805  0.129646  0.125652  1
  O  O20  1  0.870354  0.617195  0.125652  1
  O  O21  1  0.867687  0.132313  0.624208  1
  O  O22  1  0.617029  0.876197  0.365860  1
  O  O23  1  0.143566  0.856434  0.893640  1
  O  O24  1  0.882707  0.117293  0.126044  1
  O  O25  1  0.123803  0.382971  0.365860  1
  O  O26  1  0.877788  0.646943  0.620957  1
  O  O27  1  0.353057  0.122212  0.620957  1
  O  O28  1  0.116955  0.883045  0.382482  1
  O  O29  1  0.158571  0.374843  0.884808  1
  O  O30  1  0.368799  0.631201  0.619966  1
  O  O31  1  0.625157  0.841429  0.884808  1
  O  O32  1  0.637611  0.362389  0.854471  1
