# generated using pymatgen
data_Nd12Cu6O25
_symmetry_space_group_name_H-M   'P 1'
_cell_length_a   8.82276145
_cell_length_b   8.82276145
_cell_length_c   18.44607409
_cell_angle_alpha   69.76646446
_cell_angle_beta   110.23353554
_cell_angle_gamma   155.30212490
_symmetry_Int_Tables_number   1
_chemical_formula_structural   Nd12Cu6O25
_chemical_formula_sum   'Nd12 Cu6 O25'
_cell_volume   561.09310937
_cell_formula_units_Z   1
loop_
 _symmetry_equiv_pos_site_id
 _symmetry_equiv_pos_as_xyz
  1  'x, y, z'
loop_
 _atom_site_type_symbol
 _atom_site_label
 _atom_site_symmetry_multiplicity
 _atom_site_fract_x
 _atom_site_fract_y
 _atom_site_fract_z
 _atom_site_occupancy
  Nd  Nd0  1  0.830723  0.169277  0.578301  1
  Nd  Nd1  1  0.552413  0.447587  0.929078  1
  Nd  Nd2  1  0.031572  0.968428  0.735580  1
  Nd  Nd3  1  0.348418  0.651582  0.766602  1
  Nd  Nd4  1  0.143108  0.856892  0.602860  1
  Nd  Nd5  1  0.761029  0.238971  0.097726  1
  Nd  Nd6  1  0.651582  0.348418  0.233398  1
  Nd  Nd7  1  0.856892  0.143108  0.397140  1
  Nd  Nd8  1  0.968428  0.031572  0.264420  1
  Nd  Nd9  1  0.447587  0.552413  0.070922  1
  Nd  Nd10  1  0.238971  0.761029  0.902274  1
  Nd  Nd11  1  0.169277  0.830723  0.421699  1
  Cu  Cu12  1  0.103949  0.896051  0.080849  1
  Cu  Cu13  1  0.896051  0.103949  0.919151  1
  Cu  Cu14  1  0.483768  0.516232  0.573996  1
  Cu  Cu15  1  0.310535  0.689465  0.248042  1
  Cu  Cu16  1  0.689465  0.310535  0.751958  1
  Cu  Cu17  1  0.516232  0.483768  0.426004  1
  O  O18  1  0.812040  0.187960  0.247363  1
  O  O19  1  0.187960  0.812040  0.752637  1
  O  O20  1  0.570626  0.429374  0.309805  1
  O  O21  1  0.777585  0.222415  0.686297  1
  O  O22  1  0.396459  0.603541  0.917974  1
  O  O23  1  0.249863  0.750137  0.557107  1
  O  O24  1  0.830791  0.169209  0.010950  1
  O  O25  1  0.210615  0.789385  0.157451  1
  O  O26  1  0.222415  0.777585  0.313703  1
  O  O27  1  0.018246  0.981754  0.410808  1
  O  O28  1  0.623081  0.376919  0.841237  1
  O  O29  1  0.429374  0.570626  0.690195  1
  O  O30  1  0.414149  0.585851  0.336460  1
  O  O31  1  0.585851  0.414149  0.663540  1
  O  O32  1  0.028145  0.971855  0.165885  1
  O  O33  1  0.789385  0.210615  0.842549  1
  O  O34  1  0.750137  0.249863  0.442893  1
  O  O35  1  0.385506  0.614494  0.486348  1
  O  O36  1  0.000000  0.000000  0.000000  1
  O  O37  1  0.603541  0.396459  0.082026  1
  O  O38  1  0.971855  0.028145  0.834115  1
  O  O39  1  0.376919  0.623081  0.158763  1
  O  O40  1  0.614494  0.385506  0.513652  1
  O  O41  1  0.981754  0.018246  0.589192  1
  O  O42  1  0.169209  0.830791  0.989050  1
