# generated using pymatgen
data_V5CoO15
_symmetry_space_group_name_H-M   'P 1'
_cell_length_a   9.86537623
_cell_length_b   9.86537623
_cell_length_c   9.40463748
_cell_angle_alpha   61.58972325
_cell_angle_beta   118.41027675
_cell_angle_gamma   124.27623006
_symmetry_Int_Tables_number   1
_chemical_formula_structural   V5CoO15
_chemical_formula_sum   'V10 Co2 O30'
_cell_volume   637.48177147
_cell_formula_units_Z   2
loop_
 _symmetry_equiv_pos_site_id
 _symmetry_equiv_pos_as_xyz
  1  'x, y, z'
loop_
 _atom_site_type_symbol
 _atom_site_label
 _atom_site_symmetry_multiplicity
 _atom_site_fract_x
 _atom_site_fract_y
 _atom_site_fract_z
 _atom_site_occupancy
  V  V0  1  0.999913  0.030722  0.155191  1
  V  V1  1  0.775375  0.178709  0.730035  1
  V  V2  1  0.722689  0.319883  0.138166  1
  V  V3  1  0.518760  0.467012  0.192652  1
  V  V4  1  0.467012  0.518760  0.807348  1
  V  V5  1  0.319883  0.722689  0.861834  1
  V  V6  1  0.460784  0.147134  0.847442  1
  V  V7  1  0.147134  0.460784  0.152558  1
  V  V8  1  0.178709  0.775375  0.269965  1
  V  V9  1  0.030722  0.999913  0.844809  1
  Co  Co10  1  0.362038  0.035854  0.481979  1
  Co  Co11  1  0.035854  0.362038  0.518021  1
  O  O12  1  0.919524  0.366542  0.623031  1
  O  O13  1  0.909067  0.068036  0.901596  1
  O  O14  1  0.980476  0.137808  0.632854  1
  O  O15  1  0.700136  0.232016  0.812472  1
  O  O16  1  0.919929  0.815528  0.809078  1
  O  O17  1  0.815528  0.919929  0.190922  1
  O  O18  1  0.588781  0.063767  0.598356  1
  O  O19  1  0.369471  0.120173  0.611218  1
  O  O20  1  0.910581  0.434636  0.087083  1
  O  O21  1  0.700059  0.564078  0.315484  1
  O  O22  1  0.564078  0.700059  0.684516  1
  O  O23  1  0.434636  0.910581  0.912917  1
  O  O24  1  0.776683  0.259646  0.346485  1
  O  O25  1  0.513572  0.363539  0.780266  1
  O  O26  1  0.603426  0.445535  0.052146  1
  O  O27  1  0.445535  0.603426  0.947854  1
  O  O28  1  0.363539  0.513572  0.219734  1
  O  O29  1  0.259646  0.776683  0.653515  1
  O  O30  1  0.579839  0.130282  0.066616  1
  O  O31  1  0.426237  0.252129  0.293374  1
  O  O32  1  0.252129  0.426237  0.706626  1
  O  O33  1  0.130282  0.579839  0.933384  1
  O  O34  1  0.366542  0.919524  0.376969  1
  O  O35  1  0.253646  0.068439  0.862880  1
  O  O36  1  0.068439  0.253646  0.137120  1
  O  O37  1  0.232016  0.700136  0.187528  1
  O  O38  1  0.137808  0.980476  0.367146  1
  O  O39  1  0.068036  0.909067  0.098404  1
  O  O40  1  0.063767  0.588781  0.401644  1
  O  O41  1  0.120173  0.369471  0.388782  1
