# generated using pymatgen
data_Sc11Nb3O24
_symmetry_space_group_name_H-M   'P 1'
_cell_length_a   7.94544434
_cell_length_b   7.96721556
_cell_length_c   7.98355548
_cell_angle_alpha   71.71544330
_cell_angle_beta   71.96527393
_cell_angle_gamma   72.00879962
_symmetry_Int_Tables_number   1
_chemical_formula_structural   Sc11Nb3O24
_chemical_formula_sum   'Sc11 Nb3 O24'
_cell_volume   443.56493211
_cell_formula_units_Z   1
loop_
 _symmetry_equiv_pos_site_id
 _symmetry_equiv_pos_as_xyz
  1  'x, y, z'
loop_
 _atom_site_type_symbol
 _atom_site_label
 _atom_site_symmetry_multiplicity
 _atom_site_fract_x
 _atom_site_fract_y
 _atom_site_fract_z
 _atom_site_occupancy
  Sc  Sc0  1  0.393786  0.927260  0.219166  1
  Sc  Sc1  1  0.713079  0.895966  0.431563  1
  Sc  Sc2  1  0.419411  0.719037  0.897517  1
  Sc  Sc3  1  0.069702  0.789758  0.603194  1
  Sc  Sc4  1  0.895264  0.426075  0.707948  1
  Sc  Sc5  1  0.218264  0.392644  0.931621  1
  Sc  Sc6  1  0.105647  0.573349  0.286347  1
  Sc  Sc7  1  0.928788  0.210464  0.398771  1
  Sc  Sc8  1  0.572202  0.280053  0.104191  1
  Sc  Sc9  1  0.286109  0.102945  0.571720  1
  Sc  Sc10  1  0.605590  0.078879  0.779102  1
  Nb  Nb11  1  0.000812  0.006614  0.996720  1
  Nb  Nb12  1  0.494297  0.504494  0.508070  1
  Nb  Nb13  1  0.784028  0.602257  0.073102  1
  O  O14  1  0.134596  0.912044  0.773052  1
  O  O15  1  0.590454  0.725993  0.361592  1
  O  O16  1  0.507916  0.911523  0.675599  1
  O  O17  1  0.228895  0.864838  0.086087  1
  O  O18  1  0.829502  0.992494  0.588170  1
  O  O19  1  0.913477  0.670094  0.508948  1
  O  O20  1  0.598947  0.822334  0.997153  1
  O  O21  1  0.675019  0.510642  0.915382  1
  O  O22  1  0.272844  0.632696  0.413925  1
  O  O23  1  0.981231  0.592560  0.841579  1
  O  O24  1  0.910644  0.765262  0.124471  1
  O  O25  1  0.644764  0.424991  0.257876  1
  O  O26  1  0.365324  0.586632  0.729801  1
  O  O27  1  0.084992  0.231725  0.865509  1
  O  O28  1  0.001166  0.414730  0.170061  1
  O  O29  1  0.726908  0.364120  0.585826  1
  O  O30  1  0.328510  0.489768  0.087070  1
  O  O31  1  0.411740  0.167635  0.006292  1
  O  O32  1  0.088029  0.328526  0.490179  1
  O  O33  1  0.171042  0.005189  0.413264  1
  O  O34  1  0.770948  0.134918  0.913016  1
  O  O35  1  0.492768  0.087375  0.329788  1
  O  O36  1  0.415759  0.273018  0.627851  1
  O  O37  1  0.867545  0.081099  0.228478  1
