# generated using pymatgen
data_Na2MoC3SeN3
_symmetry_space_group_name_H-M   'P 1'
_cell_length_a   12.24974474
_cell_length_b   12.24974474
_cell_length_c   12.24974474
_cell_angle_alpha   101.87316765
_cell_angle_beta   101.87316765
_cell_angle_gamma   126.05121482
_symmetry_Int_Tables_number   1
_chemical_formula_structural   Na2MoC3SeN3
_chemical_formula_sum   'Na16 Mo8 C24 Se8 N24'
_cell_volume   1324.45186815
_cell_formula_units_Z   8
loop_
 _symmetry_equiv_pos_site_id
 _symmetry_equiv_pos_as_xyz
  1  'x, y, z'
loop_
 _atom_site_type_symbol
 _atom_site_label
 _atom_site_symmetry_multiplicity
 _atom_site_fract_x
 _atom_site_fract_y
 _atom_site_fract_z
 _atom_site_occupancy
  Na  Na0  1  0.984059  0.875000  0.609059  1
  Na  Na1  1  0.241501  0.107815  0.133686  1
  Na  Na2  1  0.892185  0.025870  0.133686  1
  Na  Na3  1  0.625000  0.734059  0.609059  1
  Na  Na4  1  0.892185  0.758499  0.866314  1
  Na  Na5  1  0.357815  0.991501  0.633686  1
  Na  Na6  1  0.008499  0.642185  0.366314  1
  Na  Na7  1  0.265941  0.875000  0.890941  1
  Na  Na8  1  0.974130  0.107815  0.866314  1
  Na  Na9  1  0.984059  0.375000  0.109059  1
  Na  Na10  1  0.357815  0.724130  0.366314  1
  Na  Na11  1  0.265941  0.375000  0.390941  1
  Na  Na12  1  0.125000  0.015941  0.390941  1
  Na  Na13  1  0.275870  0.642185  0.633686  1
  Na  Na14  1  0.125000  0.734059  0.109059  1
  Na  Na15  1  0.625000  0.015941  0.890941  1
  Mo  Mo16  1  0.750203  0.154800  0.595403  1
  Mo  Mo17  1  0.404800  0.500203  0.095403  1
  Mo  Mo18  1  0.690604  0.595200  0.095403  1
  Mo  Mo19  1  0.559396  0.154800  0.404597  1
  Mo  Mo20  1  0.845200  0.249797  0.404597  1
  Mo  Mo21  1  0.404800  0.309396  0.904597  1
  Mo  Mo22  1  0.845200  0.440604  0.595403  1
  Mo  Mo23  1  0.499797  0.595200  0.904597  1
  C  C24  1  0.294351  0.181512  0.710568  1
  C  C25  1  0.818488  0.529056  0.112839  1
  C  C26  1  0.355271  0.963084  0.392186  1
  C  C27  1  0.416216  0.705649  0.887161  1
  C  C28  1  0.294351  0.583784  0.112839  1
  C  C29  1  0.416216  0.529056  0.710568  1
  C  C30  1  0.213084  0.105271  0.892186  1
  C  C31  1  0.894729  0.786915  0.107814  1
  C  C32  1  0.470944  0.181512  0.887161  1
  C  C33  1  0.818488  0.705649  0.289432  1
  C  C34  1  0.036916  0.644729  0.607814  1
  C  C35  1  0.779056  0.568488  0.612839  1
  C  C36  1  0.470944  0.583784  0.289432  1
  C  C37  1  0.431512  0.044351  0.210568  1
  C  C38  1  0.779056  0.166216  0.210568  1
  C  C39  1  0.679102  0.786915  0.892186  1
  C  C40  1  0.955649  0.568488  0.789432  1
  C  C41  1  0.431512  0.220944  0.387161  1
  C  C42  1  0.213084  0.320898  0.107814  1
  C  C43  1  0.036916  0.429102  0.392186  1
  C  C44  1  0.833784  0.044351  0.612839  1
  C  C45  1  0.833784  0.220944  0.789432  1
  C  C46  1  0.570898  0.963084  0.607814  1
  C  C47  1  0.955649  0.166216  0.387161  1
  Se  Se48  1  0.007545  0.375115  0.632431  1
  Se  Se49  1  0.507316  0.374885  0.132431  1
  Se  Se50  1  0.625115  0.492684  0.867569  1
  Se  Se51  1  0.742684  0.375115  0.367569  1
  Se  Se52  1  0.624885  0.257316  0.632431  1
  Se  Se53  1  0.242455  0.374885  0.867569  1
  Se  Se54  1  0.625115  0.757545  0.132431  1
  Se  Se55  1  0.624885  0.992455  0.367569  1
  N  N56  1  0.904938  0.512314  0.135300  1
  N  N57  1  0.762314  0.127014  0.107376  1
  N  N58  1  0.230362  0.095062  0.607376  1
  N  N59  1  0.237546  0.857841  0.379705  1
  N  N60  1  0.487686  0.622986  0.392624  1
  N  N61  1  0.872986  0.980362  0.635300  1
  N  N62  1  0.904938  0.769638  0.392624  1
  N  N63  1  0.771863  0.892159  0.879705  1
  N  N64  1  0.142159  0.762454  0.620295  1
  N  N65  1  0.478137  0.857841  0.620295  1
  N  N66  1  0.107841  0.228137  0.120295  1
  N  N67  1  0.487686  0.095062  0.864700  1
  N  N68  1  0.377014  0.769638  0.864700  1
  N  N69  1  0.872986  0.237686  0.892624  1
  N  N70  1  0.142159  0.521863  0.379705  1
  N  N71  1  0.762314  0.654938  0.635300  1
  N  N72  1  0.107841  0.987546  0.879705  1
  N  N73  1  0.345062  0.980362  0.107376  1
  N  N74  1  0.019638  0.127014  0.364700  1
  N  N75  1  0.230362  0.622986  0.135300  1
  N  N76  1  0.377014  0.512314  0.607376  1
  N  N77  1  0.012454  0.892159  0.120295  1
  N  N78  1  0.345062  0.237686  0.364700  1
  N  N79  1  0.019638  0.654938  0.892624  1
