# generated using pymatgen
data_Na4Al3Ge3NO15
_symmetry_space_group_name_H-M   'P 1'
_cell_length_a   9.23742094
_cell_length_b   9.21317155
_cell_length_c   9.27341311
_cell_angle_alpha   90.00000000
_cell_angle_beta   90.05369881
_cell_angle_gamma   90.00000000
_symmetry_Int_Tables_number   1
_chemical_formula_structural   Na4Al3Ge3NO15
_chemical_formula_sum   'Na8 Al6 Ge6 N2 O30'
_cell_volume   789.22222857
_cell_formula_units_Z   2
loop_
 _symmetry_equiv_pos_site_id
 _symmetry_equiv_pos_as_xyz
  1  'x, y, z'
loop_
 _atom_site_type_symbol
 _atom_site_label
 _atom_site_symmetry_multiplicity
 _atom_site_fract_x
 _atom_site_fract_y
 _atom_site_fract_z
 _atom_site_occupancy
  Na  Na0  1  0.813309  0.183953  0.812051  1
  Na  Na1  1  0.186691  0.183953  0.187949  1
  Na  Na2  1  0.682578  0.316514  0.314418  1
  Na  Na3  1  0.317422  0.316514  0.685582  1
  Na  Na4  1  0.681024  0.686244  0.684854  1
  Na  Na5  1  0.318976  0.686244  0.315146  1
  Na  Na6  1  0.810657  0.809012  0.187301  1
  Na  Na7  1  0.189343  0.809012  0.812699  1
  Al  Al8  1  0.749459  0.999920  0.499875  1
  Al  Al9  1  0.250541  0.999920  0.500125  1
  Al  Al10  1  0.500000  0.249337  0.000000  1
  Al  Al11  1  0.000452  0.499820  0.249937  1
  Al  Al12  1  0.999548  0.499820  0.750063  1
  Al  Al13  1  0.500000  0.749910  0.000000  1
  Ge  Ge14  1  0.499918  0.000015  0.749620  1
  Ge  Ge15  1  0.500082  0.000015  0.250380  1
  Ge  Ge16  1  0.000000  0.250162  0.500000  1
  Ge  Ge17  1  0.249866  0.499484  0.000181  1
  Ge  Ge18  1  0.750134  0.499484  0.999819  1
  Ge  Ge19  1  0.000000  0.749424  0.500000  1
  N  N20  1  0.000000  0.008751  0.000000  1
  N  N21  1  0.500000  0.461364  0.500000  1
  O  O22  1  0.645412  0.067526  0.354400  1
  O  O23  1  0.354588  0.067526  0.645600  1
  O  O24  1  0.852811  0.147710  0.564682  1
  O  O25  1  0.147189  0.147710  0.435318  1
  O  O26  1  0.565570  0.146855  0.852704  1
  O  O27  1  0.434430  0.146855  0.147296  1
  O  O28  1  0.646642  0.353396  0.066037  1
  O  O29  1  0.353358  0.353396  0.933963  1
  O  O30  1  0.932560  0.354368  0.354609  1
  O  O31  1  0.067440  0.354368  0.645391  1
  O  O32  1  0.854230  0.431766  0.854644  1
  O  O33  1  0.145770  0.431766  0.145356  1
  O  O34  1  0.539898  0.534660  0.390159  1
  O  O35  1  0.460102  0.534660  0.609841  1
  O  O36  1  0.855676  0.566761  0.144083  1
  O  O37  1  0.144324  0.566761  0.855917  1
  O  O38  1  0.930908  0.643554  0.643372  1
  O  O39  1  0.069092  0.643554  0.356628  1
  O  O40  1  0.645278  0.644530  0.933009  1
  O  O41  1  0.354722  0.644530  0.066991  1
  O  O42  1  0.434018  0.854365  0.854125  1
  O  O43  1  0.565982  0.854365  0.145875  1
  O  O44  1  0.853929  0.853276  0.434111  1
  O  O45  1  0.146071  0.853276  0.565889  1
  O  O46  1  0.644453  0.932685  0.644708  1
  O  O47  1  0.355547  0.932685  0.355292  1
  O  O48  1  0.984359  0.978363  0.842177  1
  O  O49  1  0.015641  0.978363  0.157823  1
  O  O50  1  0.154789  0.976146  0.018540  1
  O  O51  1  0.845211  0.976146  0.981460  1
