# generated using pymatgen
data_TaP2NCl12
_symmetry_space_group_name_H-M   'P 1'
_cell_length_a   8.27879755
_cell_length_b   8.27879755
_cell_length_c   15.84779806
_cell_angle_alpha   78.39908707
_cell_angle_beta   101.60091293
_cell_angle_gamma   114.53486243
_symmetry_Int_Tables_number   1
_chemical_formula_structural   TaP2NCl12
_chemical_formula_sum   'Ta2 P4 N2 Cl24'
_cell_volume   959.46208057
_cell_formula_units_Z   2
loop_
 _symmetry_equiv_pos_site_id
 _symmetry_equiv_pos_as_xyz
  1  'x, y, z'
loop_
 _atom_site_type_symbol
 _atom_site_label
 _atom_site_symmetry_multiplicity
 _atom_site_fract_x
 _atom_site_fract_y
 _atom_site_fract_z
 _atom_site_occupancy
  Ta  Ta0  1  0.000000  0.000000  0.500000  1
  Ta  Ta1  1  0.000000  0.000000  0.000000  1
  P  P2  1  0.459993  0.681449  0.729512  1
  P  P3  1  0.681449  0.459993  0.770488  1
  P  P4  1  0.318551  0.540007  0.229512  1
  P  P5  1  0.540007  0.318551  0.270488  1
  N  N6  1  0.377102  0.377102  0.250000  1
  N  N7  1  0.622898  0.622898  0.750000  1
  Cl  Cl8  1  0.762800  0.499021  0.323701  1
  Cl  Cl9  1  0.269476  0.598562  0.334452  1
  Cl  Cl10  1  0.401438  0.730524  0.834452  1
  Cl  Cl11  1  0.500979  0.237200  0.823701  1
  Cl  Cl12  1  0.101453  0.786342  0.474094  1
  Cl  Cl13  1  0.046985  0.913275  0.652016  1
  Cl  Cl14  1  0.499021  0.762800  0.176299  1
  Cl  Cl15  1  0.086725  0.953015  0.152016  1
  Cl  Cl16  1  0.094603  0.486429  0.148248  1
  Cl  Cl17  1  0.905397  0.513571  0.851752  1
  Cl  Cl18  1  0.913275  0.046985  0.847984  1
  Cl  Cl19  1  0.702341  0.778553  0.492082  1
  Cl  Cl20  1  0.213658  0.898547  0.974094  1
  Cl  Cl21  1  0.953015  0.086725  0.347984  1
  Cl  Cl22  1  0.297659  0.221447  0.507918  1
  Cl  Cl23  1  0.221447  0.297659  0.992082  1
  Cl  Cl24  1  0.513571  0.905397  0.648248  1
  Cl  Cl25  1  0.786342  0.101453  0.025906  1
  Cl  Cl26  1  0.237200  0.500979  0.676299  1
  Cl  Cl27  1  0.486429  0.094603  0.351752  1
  Cl  Cl28  1  0.898547  0.213658  0.525906  1
  Cl  Cl29  1  0.730524  0.401438  0.665548  1
  Cl  Cl30  1  0.598562  0.269476  0.165548  1
  Cl  Cl31  1  0.778553  0.702341  0.007918  1
