# generated using pymatgen
data_Gd2Al6Si4Au
_symmetry_space_group_name_H-M   'P 1'
_cell_length_a   16.93883540
_cell_length_b   16.93883540
_cell_length_c   16.93883540
_cell_angle_alpha   14.36396098
_cell_angle_beta   14.36396098
_cell_angle_gamma   14.36396098
_symmetry_Int_Tables_number   1
_chemical_formula_structural   Gd2Al6Si4Au
_chemical_formula_sum   'Gd2 Al6 Si4 Au1'
_cell_volume   260.39664686
_cell_formula_units_Z   1
loop_
 _symmetry_equiv_pos_site_id
 _symmetry_equiv_pos_as_xyz
  1  'x, y, z'
loop_
 _atom_site_type_symbol
 _atom_site_label
 _atom_site_symmetry_multiplicity
 _atom_site_fract_x
 _atom_site_fract_y
 _atom_site_fract_z
 _atom_site_occupancy
  Gd  Gd0  1  0.434384  0.434384  0.434384  1
  Gd  Gd1  1  0.565616  0.565616  0.565616  1
  Al  Al2  1  0.814592  0.814592  0.814592  1
  Al  Al3  1  0.947592  0.947592  0.947592  1
  Al  Al4  1  0.185408  0.185408  0.185408  1
  Al  Al5  1  0.052408  0.052408  0.052408  1
  Al  Al6  1  0.316694  0.316694  0.316694  1
  Al  Al7  1  0.683306  0.683306  0.683306  1
  Si  Si8  1  0.266125  0.266125  0.266125  1
  Si  Si9  1  0.733875  0.733875  0.733875  1
  Si  Si10  1  0.864567  0.864567  0.864567  1
  Si  Si11  1  0.135433  0.135433  0.135433  1
  Au  Au12  1  0.000000  0.000000  0.000000  1
