# generated using pymatgen
data_Ba8Nb6CoO24
_symmetry_space_group_name_H-M   'P 1'
_cell_length_a   5.87546333
_cell_length_b   5.87546333
_cell_length_c   19.20686328
_cell_angle_alpha   90.00000000
_cell_angle_beta   90.00000000
_cell_angle_gamma   120.00000000
_symmetry_Int_Tables_number   1
_chemical_formula_structural   Ba8Nb6CoO24
_chemical_formula_sum   'Ba8 Nb6 Co1 O24'
_cell_volume   574.21074780
_cell_formula_units_Z   1
loop_
 _symmetry_equiv_pos_site_id
 _symmetry_equiv_pos_as_xyz
  1  'x, y, z'
loop_
 _atom_site_type_symbol
 _atom_site_label
 _atom_site_symmetry_multiplicity
 _atom_site_fract_x
 _atom_site_fract_y
 _atom_site_fract_z
 _atom_site_occupancy
  Ba  Ba0  1  0.666667  0.333333  0.317319  1
  Ba  Ba1  1  0.666667  0.333333  0.938398  1
  Ba  Ba2  1  0.333333  0.666667  0.061602  1
  Ba  Ba3  1  0.333333  0.666667  0.682681  1
  Ba  Ba4  1  0.333333  0.666667  0.455820  1
  Ba  Ba5  1  0.666667  0.333333  0.544180  1
  Ba  Ba6  1  0.000000  0.000000  0.814070  1
  Ba  Ba7  1  0.000000  0.000000  0.185930  1
  Nb  Nb8  1  0.000000  0.000000  0.385205  1
  Nb  Nb9  1  0.666667  0.333333  0.746922  1
  Nb  Nb10  1  0.000000  0.000000  0.614795  1
  Nb  Nb11  1  0.333333  0.666667  0.879190  1
  Nb  Nb12  1  0.333333  0.666667  0.253078  1
  Nb  Nb13  1  0.666667  0.333333  0.120810  1
  Co  Co14  1  0.000000  0.000000  0.000000  1
  O  O15  1  0.168839  0.831161  0.307076  1
  O  O16  1  0.337677  0.168839  0.692924  1
  O  O17  1  0.164043  0.835957  0.570535  1
  O  O18  1  0.835957  0.164043  0.429465  1
  O  O19  1  0.498890  0.501110  0.186745  1
  O  O20  1  0.501110  0.498890  0.813255  1
  O  O21  1  0.501110  0.002220  0.813255  1
  O  O22  1  0.997780  0.498890  0.813255  1
  O  O23  1  0.002220  0.501110  0.186745  1
  O  O24  1  0.498890  0.997780  0.186745  1
  O  O25  1  0.172015  0.827985  0.934866  1
  O  O26  1  0.328086  0.164043  0.429465  1
  O  O27  1  0.671914  0.835957  0.570535  1
  O  O28  1  0.168839  0.337677  0.307076  1
  O  O29  1  0.835957  0.671914  0.429465  1
  O  O30  1  0.827985  0.655970  0.065134  1
  O  O31  1  0.831161  0.662323  0.692924  1
  O  O32  1  0.662323  0.831161  0.307076  1
  O  O33  1  0.344030  0.172015  0.065134  1
  O  O34  1  0.827985  0.172015  0.065134  1
  O  O35  1  0.164043  0.328086  0.570535  1
  O  O36  1  0.172015  0.344030  0.934866  1
  O  O37  1  0.655970  0.827985  0.934866  1
  O  O38  1  0.831161  0.168839  0.692924  1
