# generated using pymatgen
data_SrU2O6
_symmetry_space_group_name_H-M   'P 1'
_cell_length_a   6.55831126
_cell_length_b   6.55831126
_cell_length_c   6.55831126
_cell_angle_alpha   145.49279317
_cell_angle_beta   130.12091002
_cell_angle_gamma   62.06577219
_symmetry_Int_Tables_number   1
_chemical_formula_structural   SrU2O6
_chemical_formula_sum   'Sr1 U2 O6'
_cell_volume   120.91760372
_cell_formula_units_Z   1
loop_
 _symmetry_equiv_pos_site_id
 _symmetry_equiv_pos_as_xyz
  1  'x, y, z'
loop_
 _atom_site_type_symbol
 _atom_site_label
 _atom_site_symmetry_multiplicity
 _atom_site_fract_x
 _atom_site_fract_y
 _atom_site_fract_z
 _atom_site_occupancy
  Sr  Sr0  1  0.500000  0.500000  0.000000  1
  U  U1  1  0.834710  0.834710  0.000000  1
  U  U2  1  0.165290  0.165290  0.000000  1
  O  O3  1  0.412337  0.678671  0.733665  1
  O  O4  1  0.781105  0.000000  0.781105  1
  O  O5  1  0.587663  0.321329  0.266335  1
  O  O6  1  0.054994  0.321329  0.733665  1
  O  O7  1  0.945006  0.678671  0.266335  1
  O  O8  1  0.218895  0.000000  0.218895  1
