# generated using pymatgen
data_Mn(HO)2
_symmetry_space_group_name_H-M   'P 1'
_cell_length_a   3.36648473
_cell_length_b   3.36648473
_cell_length_c   4.74757763
_cell_angle_alpha   85.25135094
_cell_angle_beta   94.74864906
_cell_angle_gamma   120.35420331
_symmetry_Int_Tables_number   1
_chemical_formula_structural   Mn(HO)2
_chemical_formula_sum   'Mn1 H2 O2'
_cell_volume   46.21772721
_cell_formula_units_Z   1
loop_
 _symmetry_equiv_pos_site_id
 _symmetry_equiv_pos_as_xyz
  1  'x, y, z'
loop_
 _atom_site_type_symbol
 _atom_site_label
 _atom_site_symmetry_multiplicity
 _atom_site_fract_x
 _atom_site_fract_y
 _atom_site_fract_z
 _atom_site_occupancy
  Mn  Mn0  1  0.970480  0.970480  0.000000  1
  H  H1  1  0.168714  0.579097  0.572618  1
  H  H2  1  0.579097  0.168714  0.427382  1
  O  O3  1  0.280778  0.663814  0.767694  1
  O  O4  1  0.663814  0.280778  0.232306  1
