# generated using pymatgen
data_CePaO4
_symmetry_space_group_name_H-M   'P 1'
_cell_length_a   6.69779811
_cell_length_b   6.69779811
_cell_length_c   6.69779811
_cell_angle_alpha   131.49896301
_cell_angle_beta   131.49896301
_cell_angle_gamma   71.02152084
_symmetry_Int_Tables_number   1
_chemical_formula_structural   CePaO4
_chemical_formula_sum   'Ce2 Pa2 O8'
_cell_volume   165.04057072
_cell_formula_units_Z   2
loop_
 _symmetry_equiv_pos_site_id
 _symmetry_equiv_pos_as_xyz
  1  'x, y, z'
loop_
 _atom_site_type_symbol
 _atom_site_label
 _atom_site_symmetry_multiplicity
 _atom_site_fract_x
 _atom_site_fract_y
 _atom_site_fract_z
 _atom_site_occupancy
  Ce  Ce0  1  0.500000  0.500000  0.000000  1
  Ce  Ce1  1  0.250000  0.750000  0.500000  1
  Pa  Pa2  1  0.000000  0.000000  0.000000  1
  Pa  Pa3  1  0.750000  0.250000  0.500000  1
  O  O4  1  0.375000  0.361564  0.486564  1
  O  O5  1  0.875000  0.888436  0.513436  1
  O  O6  1  0.875000  0.361564  0.986564  1
  O  O7  1  0.638436  0.125000  0.013436  1
  O  O8  1  0.375000  0.888436  0.013436  1
  O  O9  1  0.111564  0.625000  0.986564  1
  O  O10  1  0.111564  0.125000  0.486564  1
  O  O11  1  0.638436  0.625000  0.513436  1
