# generated using pymatgen
data_NaCaAl3(SiO4)3
_symmetry_space_group_name_H-M   'P 1'
_cell_length_a   12.29239926
_cell_length_b   12.43055082
_cell_length_c   12.68345609
_cell_angle_alpha   89.41038665
_cell_angle_beta   89.63924209
_cell_angle_gamma   89.29530351
_symmetry_Int_Tables_number   1
_chemical_formula_structural   NaCaAl3(SiO4)3
_chemical_formula_sum   'Na4 Ca4 Al12 Si12 O48'
_cell_volume   1937.76241130
_cell_formula_units_Z   4
loop_
 _symmetry_equiv_pos_site_id
 _symmetry_equiv_pos_as_xyz
  1  'x, y, z'
loop_
 _atom_site_type_symbol
 _atom_site_label
 _atom_site_symmetry_multiplicity
 _atom_site_fract_x
 _atom_site_fract_y
 _atom_site_fract_z
 _atom_site_occupancy
  Na  Na0  1  0.202344  0.782804  0.193166  1
  Na  Na1  1  0.213987  0.210863  0.193336  1
  Na  Na2  1  0.802965  0.790133  0.208216  1
  Na  Na3  1  0.788410  0.215560  0.195441  1
  Ca  Ca4  1  0.192343  0.184671  0.784574  1
  Ca  Ca5  1  0.813526  0.200832  0.786282  1
  Ca  Ca6  1  0.817468  0.816501  0.778883  1
  Ca  Ca7  1  0.189209  0.808003  0.796989  1
  Al  Al8  1  0.999309  0.622181  0.186322  1
  Al  Al9  1  0.988602  0.190158  0.612935  1
  Al  Al10  1  0.011291  0.814207  0.614891  1
  Al  Al11  1  0.807053  0.998988  0.611883  1
  Al  Al12  1  0.189334  0.005710  0.616928  1
  Al  Al13  1  0.640711  0.999830  0.831543  1
  Al  Al14  1  0.999900  0.367371  0.824769  1
  Al  Al15  1  0.998327  0.634218  0.830868  1
  Al  Al16  1  0.368215  0.002986  0.828471  1
  Al  Al17  1  0.634513  0.184296  0.001963  1
  Al  Al18  1  0.182716  0.366389  0.000575  1
  Al  Al19  1  0.369385  0.815742  0.004116  1
  Si  Si20  1  0.813465  0.375573  0.005857  1
  Si  Si21  1  0.630349  0.994575  0.181219  1
  Si  Si22  1  0.997397  0.373291  0.184495  1
  Si  Si23  1  0.374352  0.994724  0.183760  1
  Si  Si24  1  0.993170  0.179313  0.359244  1
  Si  Si25  1  0.008122  0.820105  0.364267  1
  Si  Si26  1  0.813704  0.998203  0.365110  1
  Si  Si27  1  0.183486  0.004266  0.361177  1
  Si  Si28  1  0.371449  0.182042  0.005989  1
  Si  Si29  1  0.812662  0.630966  0.006656  1
  Si  Si30  1  0.186287  0.626112  0.003189  1
  Si  Si31  1  0.634406  0.815218  0.006798  1
  O  O32  1  0.782361  0.503743  0.993957  1
  O  O33  1  0.296092  0.285712  0.032021  1
  O  O34  1  0.699391  0.700192  0.021819  1
  O  O35  1  0.507952  0.792254  0.998282  1
  O  O36  1  0.294170  0.698943  0.015860  1
  O  O37  1  0.660809  0.102321  0.116004  1
  O  O38  1  0.886586  0.355778  0.113378  1
  O  O39  1  0.103420  0.340688  0.116131  1
  O  O40  1  0.661595  0.883022  0.117274  1
  O  O41  1  0.351307  0.102676  0.112547  1
  O  O42  1  0.880574  0.651713  0.113546  1
  O  O43  1  0.113232  0.648958  0.109151  1
  O  O44  1  0.339845  0.886310  0.123851  1
  O  O45  1  0.997235  0.491149  0.234971  1
  O  O46  1  0.502849  0.991365  0.220275  1
  O  O47  1  0.984547  0.280226  0.277393  1
  O  O48  1  0.293023  0.010198  0.286262  1
  O  O49  1  0.000761  0.724123  0.280640  1
  O  O50  1  0.712603  0.987816  0.282288  1
  O  O51  1  0.883672  0.106865  0.329372  1
  O  O52  1  0.105887  0.110487  0.325637  1
  O  O53  1  0.895014  0.893613  0.342182  1
  O  O54  1  0.114692  0.895650  0.326724  1
  O  O55  1  0.992653  0.220307  0.477559  1
  O  O56  1  0.218728  0.006700  0.481244  1
  O  O57  1  0.021896  0.777215  0.482388  1
  O  O58  1  0.763292  0.003097  0.480563  1
  O  O59  1  0.867202  0.121923  0.639516  1
  O  O60  1  0.106123  0.117577  0.645717  1
  O  O61  1  0.890167  0.885682  0.630465  1
  O  O62  1  0.130306  0.881779  0.649165  1
  O  O63  1  0.283573  0.022840  0.718946  1
  O  O64  1  0.979222  0.282933  0.716918  1
  O  O65  1  0.998554  0.730174  0.728469  1
  O  O66  1  0.723107  0.976438  0.721633  1
  O  O67  1  0.998073  0.502036  0.802718  1
  O  O68  1  0.504940  0.003372  0.811682  1
  O  O69  1  0.690988  0.119048  0.891468  1
  O  O70  1  0.878755  0.331156  0.901856  1
  O  O71  1  0.117673  0.313816  0.888390  1
  O  O72  1  0.688025  0.880763  0.907115  1
  O  O73  1  0.321905  0.119701  0.903338  1
  O  O74  1  0.875022  0.677128  0.900562  1
  O  O75  1  0.117016  0.676533  0.900738  1
  O  O76  1  0.317998  0.885432  0.893079  1
  O  O77  1  0.497158  0.211549  0.993985  1
  O  O78  1  0.707988  0.301901  0.027324  1
  O  O79  1  0.213557  0.501267  0.985685  1
