# generated using pymatgen
data_BaLaNiRuO6
_symmetry_space_group_name_H-M   'P 1'
_cell_length_a   5.68431899
_cell_length_b   5.68431899
_cell_length_c   5.68431899
_cell_angle_alpha   120.56658147
_cell_angle_beta   120.56658147
_cell_angle_gamma   89.02142188
_symmetry_Int_Tables_number   1
_chemical_formula_structural   BaLaNiRuO6
_chemical_formula_sum   'Ba1 La1 Ni1 Ru1 O6'
_cell_volume   128.74085249
_cell_formula_units_Z   1
loop_
 _symmetry_equiv_pos_site_id
 _symmetry_equiv_pos_as_xyz
  1  'x, y, z'
loop_
 _atom_site_type_symbol
 _atom_site_label
 _atom_site_symmetry_multiplicity
 _atom_site_fract_x
 _atom_site_fract_y
 _atom_site_fract_z
 _atom_site_occupancy
  Ba  Ba0  1  0.500000  0.500000  0.000000  1
  La  La1  1  0.000000  0.000000  0.000000  1
  Ni  Ni2  1  0.250000  0.750000  0.500000  1
  Ru  Ru3  1  0.750000  0.250000  0.500000  1
  O  O4  1  0.568239  0.977855  0.011910  1
  O  O5  1  0.443671  0.431761  0.409616  1
  O  O6  1  0.993513  0.493513  0.500000  1
  O  O7  1  0.506487  0.006487  0.500000  1
  O  O8  1  0.022145  0.034055  0.590384  1
  O  O9  1  0.965945  0.556329  0.988090  1
