# generated using pymatgen
data_Ca2H2S2O9
_symmetry_space_group_name_H-M   'P 1'
_cell_length_a   9.46767554
_cell_length_b   9.46767554
_cell_length_c   12.20035730
_cell_angle_alpha   50.41093598
_cell_angle_beta   129.58906402
_cell_angle_gamma   136.33342150
_symmetry_Int_Tables_number   1
_chemical_formula_structural   Ca2H2S2O9
_chemical_formula_sum   'Ca6 H6 S6 O27'
_cell_volume   549.03267548
_cell_formula_units_Z   3
loop_
 _symmetry_equiv_pos_site_id
 _symmetry_equiv_pos_as_xyz
  1  'x, y, z'
loop_
 _atom_site_type_symbol
 _atom_site_label
 _atom_site_symmetry_multiplicity
 _atom_site_fract_x
 _atom_site_fract_y
 _atom_site_fract_z
 _atom_site_occupancy
  Ca  Ca0  1  0.483957  0.483957  0.000000  1
  Ca  Ca1  1  0.656586  0.982327  0.056255  1
  Ca  Ca2  1  0.982327  0.656586  0.943745  1
  Ca  Ca3  1  0.447206  0.118447  0.425505  1
  Ca  Ca4  1  0.118447  0.447206  0.574495  1
  Ca  Ca5  1  0.984263  0.984263  0.500000  1
  H  H6  1  0.528630  0.601823  0.412487  1
  H  H7  1  0.601823  0.528630  0.587513  1
  H  H8  1  0.787138  0.093784  0.826002  1
  H  H9  1  0.093784  0.787138  0.173998  1
  H  H10  1  0.905877  0.309436  0.843440  1
  H  H11  1  0.309436  0.905877  0.156560  1
  S  S12  1  0.730761  0.233473  0.248075  1
  S  S13  1  0.233473  0.730761  0.751925  1
  S  S14  1  0.397090  0.234640  0.805875  1
  S  S15  1  0.234640  0.397090  0.194125  1
  S  S16  1  0.708877  0.882445  0.687984  1
  S  S17  1  0.882445  0.708877  0.312016  1
  O  O18  1  0.541363  0.172144  0.257182  1
  O  O19  1  0.172144  0.541363  0.742818  1
  O  O20  1  0.925571  0.285539  0.384564  1
  O  O21  1  0.285539  0.925571  0.615436  1
  O  O22  1  0.681016  0.050774  0.239699  1
  O  O23  1  0.050774  0.681016  0.760301  1
  O  O24  1  0.769317  0.425510  0.109361  1
  O  O25  1  0.425510  0.769317  0.890639  1
  O  O26  1  0.335403  0.005596  0.903894  1
  O  O27  1  0.005596  0.335403  0.096106  1
  O  O28  1  0.278894  0.255634  0.642724  1
  O  O29  1  0.255634  0.278894  0.357276  1
  O  O30  1  0.334603  0.310720  0.836240  1
  O  O31  1  0.310720  0.334603  0.163760  1
  O  O32  1  0.634182  0.366259  0.837662  1
  O  O33  1  0.366259  0.634182  0.162338  1
  O  O34  1  0.484857  0.781876  0.583183  1
  O  O35  1  0.781876  0.484857  0.416817  1
  O  O36  1  0.715131  0.766877  0.846959  1
  O  O37  1  0.766877  0.715131  0.153041  1
  O  O38  1  0.861335  0.882946  0.682281  1
  O  O39  1  0.882946  0.861335  0.317719  1
  O  O40  1  0.781790  0.112844  0.638648  1
  O  O41  1  0.112844  0.781790  0.361352  1
  O  O42  1  0.834089  0.153262  0.893527  1
  O  O43  1  0.153262  0.834089  0.106473  1
  O  O44  1  0.647709  0.647709  0.500000  1
