# generated using pymatgen
data_Ca4GdB3O10
_symmetry_space_group_name_H-M   'P 1'
_cell_length_a   9.05739424
_cell_length_b   9.05739424
_cell_length_c   3.58311321
_cell_angle_alpha   84.95874570
_cell_angle_beta   95.04125430
_cell_angle_gamma   53.48080206
_symmetry_Int_Tables_number   1
_chemical_formula_structural   Ca4GdB3O10
_chemical_formula_sum   'Ca4 Gd1 B3 O10'
_cell_volume   231.68287501
_cell_formula_units_Z   1
loop_
 _symmetry_equiv_pos_site_id
 _symmetry_equiv_pos_as_xyz
  1  'x, y, z'
loop_
 _atom_site_type_symbol
 _atom_site_label
 _atom_site_symmetry_multiplicity
 _atom_site_fract_x
 _atom_site_fract_y
 _atom_site_fract_z
 _atom_site_occupancy
  Ca  Ca0  1  0.445500  0.918243  0.657511  1
  Ca  Ca1  1  0.081757  0.554500  0.657511  1
  Ca  Ca2  1  0.528713  0.245588  0.327403  1
  Ca  Ca3  1  0.754412  0.471287  0.327403  1
  Gd  Gd4  1  0.001129  0.998871  0.002103  1
  B  B5  1  0.143884  0.245934  0.080331  1
  B  B6  1  0.754066  0.856116  0.080331  1
  B  B7  1  0.375279  0.624721  0.701190  1
  O  O8  1  0.201081  0.798919  0.606984  1
  O  O9  1  0.236883  0.302486  0.271586  1
  O  O10  1  0.828130  0.171870  0.421763  1
  O  O11  1  0.535430  0.613500  0.747990  1
  O  O12  1  0.386500  0.464570  0.747990  1
  O  O13  1  0.619425  0.035754  0.883091  1
  O  O14  1  0.964246  0.380575  0.883091  1
  O  O15  1  0.943363  0.770414  0.081668  1
  O  O16  1  0.229586  0.056637  0.081668  1
  O  O17  1  0.697514  0.763117  0.271586  1
