# generated using pymatgen
data_XeF6
_symmetry_space_group_name_H-M   'P 1'
_cell_length_a   8.89566914
_cell_length_b   12.58673881
_cell_length_c   17.68802755
_cell_angle_alpha   90.00000000
_cell_angle_beta   90.00000000
_cell_angle_gamma   90.00000000
_symmetry_Int_Tables_number   1
_chemical_formula_structural   XeF6
_chemical_formula_sum   'Xe16 F96'
_cell_volume   1980.48358803
_cell_formula_units_Z   16
loop_
 _symmetry_equiv_pos_site_id
 _symmetry_equiv_pos_as_xyz
  1  'x, y, z'
loop_
 _atom_site_type_symbol
 _atom_site_label
 _atom_site_symmetry_multiplicity
 _atom_site_fract_x
 _atom_site_fract_y
 _atom_site_fract_z
 _atom_site_occupancy
  Xe  Xe0  1  0.295058  0.937746  0.120962  1
  Xe  Xe1  1  0.385996  0.263293  0.370358  1
  Xe  Xe2  1  0.261572  0.556704  0.102285  1
  Xe  Xe3  1  0.738428  0.056704  0.897715  1
  Xe  Xe4  1  0.795058  0.437746  0.379038  1
  Xe  Xe5  1  0.614004  0.763293  0.629642  1
  Xe  Xe6  1  0.704942  0.437746  0.879038  1
  Xe  Xe7  1  0.771390  0.239892  0.191277  1
  Xe  Xe8  1  0.761572  0.056704  0.397715  1
  Xe  Xe9  1  0.228610  0.739892  0.808723  1
  Xe  Xe10  1  0.271390  0.739892  0.308723  1
  Xe  Xe11  1  0.238428  0.556704  0.602285  1
  Xe  Xe12  1  0.728610  0.239892  0.691277  1
  Xe  Xe13  1  0.114004  0.263293  0.870358  1
  Xe  Xe14  1  0.885996  0.763293  0.129642  1
  Xe  Xe15  1  0.204942  0.937746  0.620962  1
  F  F16  1  0.645453  0.739157  0.519350  1
  F  F17  1  0.814168  0.266466  0.083323  1
  F  F18  1  0.059358  0.747347  0.346861  1
  F  F19  1  0.658920  0.779868  0.739906  1
  F  F20  1  0.858337  0.431757  0.962643  1
  F  F21  1  0.876795  0.206950  0.920005  1
  F  F22  1  0.644566  0.283768  0.817533  1
  F  F23  1  0.774539  0.400241  0.192509  1
  F  F24  1  0.426025  0.855653  0.049638  1
  F  F25  1  0.627522  0.556723  0.940746  1
  F  F26  1  0.685832  0.266466  0.583323  1
  F  F27  1  0.399152  0.514764  0.529766  1
  F  F28  1  0.639439  0.932028  0.943888  1
  F  F29  1  0.123205  0.706950  0.079995  1
  F  F30  1  0.003541  0.731095  0.805037  1
  F  F31  1  0.548079  0.057126  0.835515  1
  F  F32  1  0.855352  0.606111  0.144019  1
  F  F33  1  0.916075  0.359575  0.818511  1
  F  F34  1  0.376795  0.706950  0.579995  1
  F  F35  1  0.314168  0.766466  0.416677  1
  F  F36  1  0.855434  0.283768  0.317533  1
  F  F37  1  0.355434  0.783768  0.182467  1
  F  F38  1  0.644648  0.606111  0.644019  1
  F  F39  1  0.127522  0.056723  0.559254  1
  F  F40  1  0.345711  0.642065  0.718797  1
  F  F41  1  0.225461  0.900241  0.807491  1
  F  F42  1  0.335777  0.262701  0.871691  1
  F  F43  1  0.725461  0.400241  0.692509  1
  F  F44  1  0.845711  0.142065  0.781203  1
  F  F45  1  0.623205  0.206950  0.420005  1
  F  F46  1  0.651825  0.915710  0.605200  1
  F  F47  1  0.323081  0.443765  0.669184  1
  F  F48  1  0.440642  0.747347  0.846861  1
  F  F49  1  0.951921  0.057126  0.335515  1
  F  F50  1  0.154289  0.642065  0.218797  1
  F  F51  1  0.416075  0.859575  0.681489  1
  F  F52  1  0.654289  0.142065  0.281203  1
  F  F53  1  0.185832  0.766466  0.916677  1
  F  F54  1  0.121748  0.630875  0.521906  1
  F  F55  1  0.573975  0.355653  0.950362  1
  F  F56  1  0.717220  0.090058  0.656334  1
  F  F57  1  0.835777  0.762701  0.628309  1
  F  F58  1  0.083925  0.859575  0.181489  1
  F  F59  1  0.860561  0.932028  0.443888  1
  F  F60  1  0.854547  0.739157  0.019350  1
  F  F61  1  0.100848  0.514764  0.029766  1
  F  F62  1  0.145453  0.239157  0.980650  1
  F  F63  1  0.378252  0.630875  0.021906  1
  F  F64  1  0.158920  0.279868  0.760094  1
  F  F65  1  0.940642  0.247347  0.653139  1
  F  F66  1  0.164223  0.262701  0.371691  1
  F  F67  1  0.029222  0.978627  0.685897  1
  F  F68  1  0.583925  0.359575  0.318511  1
  F  F69  1  0.872478  0.556723  0.440746  1
  F  F70  1  0.354547  0.239157  0.480650  1
  F  F71  1  0.878252  0.130875  0.478094  1
  F  F72  1  0.816138  0.558326  0.829894  1
  F  F73  1  0.360561  0.432028  0.056112  1
  F  F74  1  0.341080  0.279868  0.260094  1
  F  F75  1  0.503541  0.231095  0.694963  1
  F  F76  1  0.151825  0.415710  0.894800  1
  F  F77  1  0.176919  0.443765  0.169184  1
  F  F78  1  0.621748  0.130875  0.978094  1
  F  F79  1  0.316138  0.058326  0.670106  1
  F  F80  1  0.841080  0.779868  0.239906  1
  F  F81  1  0.073975  0.855653  0.549638  1
  F  F82  1  0.559358  0.247347  0.153139  1
  F  F83  1  0.676919  0.943765  0.330816  1
  F  F84  1  0.848175  0.915710  0.105200  1
  F  F85  1  0.970778  0.478627  0.314103  1
  F  F86  1  0.048079  0.557126  0.664485  1
  F  F87  1  0.823081  0.943765  0.830816  1
  F  F88  1  0.899152  0.014764  0.970234  1
  F  F89  1  0.183862  0.058326  0.170106  1
  F  F90  1  0.470778  0.978627  0.185897  1
  F  F91  1  0.139439  0.432028  0.556112  1
  F  F92  1  0.451921  0.557126  0.164485  1
  F  F93  1  0.355352  0.106111  0.355981  1
  F  F94  1  0.282780  0.590058  0.343666  1
  F  F95  1  0.641663  0.431757  0.462643  1
  F  F96  1  0.274539  0.900241  0.307491  1
  F  F97  1  0.144648  0.106111  0.855981  1
  F  F98  1  0.348175  0.415710  0.394800  1
  F  F99  1  0.529222  0.478627  0.814103  1
  F  F100  1  0.496459  0.731095  0.305037  1
  F  F101  1  0.372478  0.056723  0.059254  1
  F  F102  1  0.664223  0.762701  0.128309  1
  F  F103  1  0.141663  0.931757  0.037357  1
  F  F104  1  0.782780  0.090058  0.156334  1
  F  F105  1  0.600848  0.014764  0.470234  1
  F  F106  1  0.217220  0.590058  0.843666  1
  F  F107  1  0.996459  0.231095  0.194963  1
  F  F108  1  0.144566  0.783768  0.682467  1
  F  F109  1  0.683862  0.558326  0.329894  1
  F  F110  1  0.358337  0.931757  0.537357  1
  F  F111  1  0.926025  0.355653  0.450362  1
