# generated using pymatgen
data_NdPb7F17
_symmetry_space_group_name_H-M   'P 1'
_cell_length_a   4.19045317
_cell_length_b   4.22167922
_cell_length_c   28.06057595
_cell_angle_alpha   94.18901017
_cell_angle_beta   89.88948031
_cell_angle_gamma   119.68400495
_symmetry_Int_Tables_number   1
_chemical_formula_structural   NdPb7F17
_chemical_formula_sum   'Nd1 Pb7 F17'
_cell_volume   429.78007463
_cell_formula_units_Z   1
loop_
 _symmetry_equiv_pos_site_id
 _symmetry_equiv_pos_as_xyz
  1  'x, y, z'
loop_
 _atom_site_type_symbol
 _atom_site_label
 _atom_site_symmetry_multiplicity
 _atom_site_fract_x
 _atom_site_fract_y
 _atom_site_fract_z
 _atom_site_occupancy
  Nd  Nd0  1  0.393597  0.641322  0.118641  1
  Pb  Pb1  1  0.002568  0.988306  0.998721  1
  Pb  Pb2  1  0.690502  0.418565  0.872424  1
  Pb  Pb3  1  0.282579  0.771361  0.746652  1
  Pb  Pb4  1  0.502875  0.503494  0.496623  1
  Pb  Pb5  1  0.883798  0.131722  0.621720  1
  Pb  Pb6  1  0.127924  0.878112  0.372084  1
  Pb  Pb7  1  0.755659  0.256187  0.245536  1
  F  F8  1  0.700737  0.401127  0.963362  1
  F  F9  1  0.933437  0.114271  0.714173  1
  F  F10  1  0.027275  0.067761  0.905487  1
  F  F11  1  0.343042  0.758268  0.840462  1
  F  F12  1  0.538648  0.476229  0.589795  1
  F  F13  1  0.627219  0.428336  0.777388  1
  F  F14  1  0.159242  0.849065  0.464108  1
  F  F15  1  0.228437  0.787334  0.653045  1
  F  F16  1  0.785487  0.223332  0.341253  1
  F  F17  1  0.845475  0.157682  0.527520  1
  F  F18  1  0.414310  0.608384  0.206499  1
  F  F19  1  0.470366  0.531853  0.403805  1
  F  F20  1  0.097262  0.909893  0.274851  1
  F  F21  1  0.066300  0.000703  0.117340  1
  F  F22  1  0.734141  0.294838  0.159218  1
  F  F23  1  0.738654  0.415650  0.072165  1
  F  F24  1  0.381968  0.726701  0.031629  1
