# generated using pymatgen
data_SiO2
_symmetry_space_group_name_H-M   'P 1'
_cell_length_a   12.90969875
_cell_length_b   12.90969875
_cell_length_c   24.69497132
_cell_angle_alpha   72.48420048
_cell_angle_beta   107.51579952
_cell_angle_gamma   157.28323729
_symmetry_Int_Tables_number   1
_chemical_formula_structural   SiO2
_chemical_formula_sum   'Si28 O56'
_cell_volume   1512.63144596
_cell_formula_units_Z   28
loop_
 _symmetry_equiv_pos_site_id
 _symmetry_equiv_pos_as_xyz
  1  'x, y, z'
loop_
 _atom_site_type_symbol
 _atom_site_label
 _atom_site_symmetry_multiplicity
 _atom_site_fract_x
 _atom_site_fract_y
 _atom_site_fract_z
 _atom_site_occupancy
  Si  Si0  1  0.796960  0.371832  0.380947  1
  Si  Si1  1  0.703639  0.436410  0.947637  1
  Si  Si2  1  0.903832  0.025776  0.913338  1
  Si  Si3  1  0.096168  0.974224  0.086662  1
  Si  Si4  1  0.628168  0.203040  0.880947  1
  Si  Si5  1  0.637567  0.206708  0.572039  1
  Si  Si6  1  0.793292  0.362433  0.072039  1
  Si  Si7  1  0.436410  0.703639  0.552363  1
  Si  Si8  1  0.269624  0.698831  0.745087  1
  Si  Si9  1  0.409110  0.660993  0.361683  1
  Si  Si10  1  0.698831  0.269624  0.754913  1
  Si  Si11  1  0.296361  0.563590  0.052363  1
  Si  Si12  1  0.371832  0.796960  0.119053  1
  Si  Si13  1  0.025776  0.903832  0.586662  1
  Si  Si14  1  0.206708  0.637567  0.927961  1
  Si  Si15  1  0.974224  0.096168  0.413338  1
  Si  Si16  1  0.203040  0.628168  0.619053  1
  Si  Si17  1  0.301169  0.730376  0.245087  1
  Si  Si18  1  0.660993  0.409110  0.138317  1
  Si  Si19  1  0.001787  0.867380  0.458736  1
  Si  Si20  1  0.998213  0.132620  0.541264  1
  Si  Si21  1  0.563590  0.296361  0.447637  1
  Si  Si22  1  0.362433  0.793292  0.427961  1
  Si  Si23  1  0.132620  0.998213  0.958736  1
  Si  Si24  1  0.867380  0.001787  0.041264  1
  Si  Si25  1  0.730376  0.301169  0.254913  1
  Si  Si26  1  0.339007  0.590890  0.861683  1
  Si  Si27  1  0.590890  0.339007  0.638317  1
  O  O28  1  0.070835  0.270714  0.868077  1
  O  O29  1  0.031959  0.038339  0.579452  1
  O  O30  1  0.082747  0.936480  0.026158  1
  O  O31  1  0.929165  0.729286  0.131923  1
  O  O32  1  0.742680  0.594922  0.610978  1
  O  O33  1  0.111538  0.635209  0.090318  1
  O  O34  1  0.281850  0.453908  0.548264  1
  O  O35  1  0.394729  0.798268  0.187264  1
  O  O36  1  0.626861  0.317412  0.205376  1
  O  O37  1  0.888462  0.364791  0.909682  1
  O  O38  1  0.405078  0.257320  0.110978  1
  O  O39  1  0.917253  0.063520  0.973842  1
  O  O40  1  0.371489  0.746727  0.495913  1
  O  O41  1  0.363435  0.898354  0.908026  1
  O  O42  1  0.671512  0.331716  0.603120  1
  O  O43  1  0.594922  0.742680  0.889022  1
  O  O44  1  0.658788  0.349226  0.392656  1
  O  O45  1  0.628511  0.253273  0.504087  1
  O  O46  1  0.961661  0.968041  0.079452  1
  O  O47  1  0.063520  0.917253  0.526158  1
  O  O48  1  0.636565  0.101646  0.091974  1
  O  O49  1  0.968041  0.961661  0.420548  1
  O  O50  1  0.757963  0.972258  0.561483  1
  O  O51  1  0.650774  0.341212  0.892656  1
  O  O52  1  0.668284  0.328488  0.103120  1
  O  O53  1  0.635209  0.111538  0.409682  1
  O  O54  1  0.242037  0.027742  0.438517  1
  O  O55  1  0.798268  0.394729  0.312736  1
  O  O56  1  0.349226  0.658788  0.107344  1
  O  O57  1  0.038339  0.031959  0.920548  1
  O  O58  1  0.746727  0.371489  0.004087  1
  O  O59  1  0.729286  0.929165  0.368077  1
  O  O60  1  0.972258  0.757963  0.938517  1
  O  O61  1  0.027742  0.242037  0.061483  1
  O  O62  1  0.989344  0.488431  0.235561  1
  O  O63  1  0.453908  0.281850  0.951736  1
  O  O64  1  0.605271  0.201732  0.812736  1
  O  O65  1  0.898354  0.363435  0.591974  1
  O  O66  1  0.546092  0.718150  0.048264  1
  O  O67  1  0.257320  0.405078  0.389022  1
  O  O68  1  0.101646  0.636565  0.408026  1
  O  O69  1  0.682588  0.373139  0.705376  1
  O  O70  1  0.331716  0.671512  0.896880  1
  O  O71  1  0.364791  0.888462  0.590318  1
  O  O72  1  0.201732  0.605271  0.687264  1
  O  O73  1  0.488431  0.989344  0.264439  1
  O  O74  1  0.317412  0.626861  0.294624  1
  O  O75  1  0.936480  0.082747  0.473842  1
  O  O76  1  0.328488  0.668284  0.396880  1
  O  O77  1  0.718150  0.546092  0.451736  1
  O  O78  1  0.373139  0.682588  0.794624  1
  O  O79  1  0.341212  0.650774  0.607344  1
  O  O80  1  0.270714  0.070835  0.631923  1
  O  O81  1  0.511569  0.010656  0.735561  1
  O  O82  1  0.253273  0.628511  0.995913  1
  O  O83  1  0.010656  0.511569  0.764439  1
