# generated using pymatgen
data_K3Nd2(NO3)9
_symmetry_space_group_name_H-M   'P 1'
_cell_length_a   13.71011609
_cell_length_b   13.71011609
_cell_length_c   13.71011609
_cell_angle_alpha   90.00000000
_cell_angle_beta   90.00000000
_cell_angle_gamma   90.00000000
_symmetry_Int_Tables_number   1
_chemical_formula_structural   K3Nd2(NO3)9
_chemical_formula_sum   'K12 Nd8 N36 O108'
_cell_volume   2577.05327381
_cell_formula_units_Z   4
loop_
 _symmetry_equiv_pos_site_id
 _symmetry_equiv_pos_as_xyz
  1  'x, y, z'
loop_
 _atom_site_type_symbol
 _atom_site_label
 _atom_site_symmetry_multiplicity
 _atom_site_fract_x
 _atom_site_fract_y
 _atom_site_fract_z
 _atom_site_occupancy
  K  K0  1  0.875000  0.811816  0.561816  1
  K  K1  1  0.438184  0.375000  0.688184  1
  K  K2  1  0.375000  0.688184  0.438184  1
  K  K3  1  0.311816  0.938184  0.125000  1
  K  K4  1  0.561816  0.875000  0.811816  1
  K  K5  1  0.188184  0.061816  0.625000  1
  K  K6  1  0.061816  0.625000  0.188184  1
  K  K7  1  0.125000  0.311816  0.938184  1
  K  K8  1  0.688184  0.438184  0.375000  1
  K  K9  1  0.625000  0.188184  0.061816  1
  K  K10  1  0.811816  0.561816  0.875000  1
  K  K11  1  0.938184  0.125000  0.311816  1
  Nd  Nd12  1  0.050108  0.449892  0.550108  1
  Nd  Nd13  1  0.550108  0.050108  0.449892  1
  Nd  Nd14  1  0.449892  0.550108  0.050108  1
  Nd  Nd15  1  0.300108  0.300108  0.300108  1
  Nd  Nd16  1  0.949892  0.949892  0.949892  1
  Nd  Nd17  1  0.800108  0.199892  0.699892  1
  Nd  Nd18  1  0.199892  0.699892  0.800108  1
  Nd  Nd19  1  0.699892  0.800108  0.199892  1
  N  N20  1  0.098635  0.086681  0.861156  1
  N  N21  1  0.401365  0.913319  0.361156  1
  N  N22  1  0.901365  0.586681  0.638844  1
  N  N23  1  0.413319  0.138844  0.598635  1
  N  N24  1  0.486154  0.763846  0.125000  1
  N  N25  1  0.875000  0.986154  0.736154  1
  N  N26  1  0.111156  0.836681  0.651365  1
  N  N27  1  0.388844  0.163319  0.151365  1
  N  N28  1  0.651365  0.111156  0.836681  1
  N  N29  1  0.163319  0.151365  0.388844  1
  N  N30  1  0.611156  0.663319  0.348635  1
  N  N31  1  0.836681  0.651365  0.111156  1
  N  N32  1  0.736154  0.875000  0.986154  1
  N  N33  1  0.086681  0.861156  0.098635  1
  N  N34  1  0.375000  0.513846  0.263846  1
  N  N35  1  0.986154  0.736154  0.875000  1
  N  N36  1  0.263846  0.375000  0.513846  1
  N  N37  1  0.361156  0.401365  0.913319  1
  N  N38  1  0.913319  0.361156  0.401365  1
  N  N39  1  0.888844  0.336681  0.848635  1
  N  N40  1  0.236154  0.625000  0.013846  1
  N  N41  1  0.763846  0.125000  0.486154  1
  N  N42  1  0.598635  0.413319  0.138844  1
  N  N43  1  0.625000  0.013846  0.236154  1
  N  N44  1  0.513846  0.263846  0.375000  1
  N  N45  1  0.861156  0.098635  0.086681  1
  N  N46  1  0.013846  0.236154  0.625000  1
  N  N47  1  0.125000  0.486154  0.763846  1
  N  N48  1  0.138844  0.598635  0.413319  1
  N  N49  1  0.336681  0.848635  0.888844  1
  N  N50  1  0.638844  0.901365  0.586681  1
  N  N51  1  0.848635  0.888844  0.336681  1
  N  N52  1  0.663319  0.348635  0.611156  1
  N  N53  1  0.348635  0.611156  0.663319  1
  N  N54  1  0.151365  0.388844  0.163319  1
  N  N55  1  0.586681  0.638844  0.901365  1
  O  O56  1  0.502563  0.675078  0.918822  1
  O  O57  1  0.992548  0.153101  0.656906  1
  O  O58  1  0.197216  0.375000  0.447216  1
  O  O59  1  0.140403  0.197823  0.310998  1
  O  O60  1  0.408029  0.572526  0.606287  1
  O  O61  1  0.091971  0.427474  0.106287  1
  O  O62  1  0.846899  0.156906  0.507452  1
  O  O63  1  0.596899  0.242548  0.406906  1
  O  O64  1  0.947823  0.609597  0.560998  1
  O  O65  1  0.310998  0.140403  0.197823  1
  O  O66  1  0.060998  0.552177  0.390403  1
  O  O67  1  0.331178  0.574922  0.747437  1
  O  O68  1  0.177474  0.658029  0.356287  1
  O  O69  1  0.810998  0.359597  0.802177  1
  O  O70  1  0.052177  0.109597  0.939002  1
  O  O71  1  0.175078  0.581178  0.497437  1
  O  O72  1  0.802177  0.810998  0.359597  1
  O  O73  1  0.492548  0.346899  0.343094  1
  O  O74  1  0.843094  0.007452  0.653101  1
  O  O75  1  0.841971  0.643713  0.677474  1
  O  O76  1  0.052784  0.802784  0.875000  1
  O  O77  1  0.158029  0.143713  0.822526  1
  O  O78  1  0.302784  0.625000  0.947216  1
  O  O79  1  0.822526  0.158029  0.143713  1
  O  O80  1  0.689002  0.640403  0.302177  1
  O  O81  1  0.609597  0.560998  0.947823  1
  O  O82  1  0.560998  0.947823  0.609597  1
  O  O83  1  0.831178  0.925078  0.252563  1
  O  O84  1  0.802784  0.875000  0.052784  1
  O  O85  1  0.927474  0.393713  0.908029  1
  O  O86  1  0.507452  0.846899  0.156906  1
  O  O87  1  0.893713  0.591971  0.072526  1
  O  O88  1  0.497437  0.175078  0.581178  1
  O  O89  1  0.447216  0.197216  0.375000  1
  O  O90  1  0.572526  0.606287  0.408029  1
  O  O91  1  0.742548  0.093094  0.403101  1
  O  O92  1  0.106287  0.091971  0.427474  1
  O  O93  1  0.257452  0.593094  0.096899  1
  O  O94  1  0.918822  0.502563  0.675078  1
  O  O95  1  0.593094  0.096899  0.257452  1
  O  O96  1  0.697823  0.189002  0.859597  1
  O  O97  1  0.947216  0.302784  0.625000  1
  O  O98  1  0.346899  0.343094  0.492548  1
  O  O99  1  0.552784  0.697216  0.125000  1
  O  O100  1  0.925078  0.252563  0.831178  1
  O  O101  1  0.096899  0.257452  0.593094  1
  O  O102  1  0.906906  0.903101  0.757452  1
  O  O103  1  0.406906  0.596899  0.242548  1
  O  O104  1  0.322526  0.341971  0.856287  1
  O  O105  1  0.640403  0.302177  0.689002  1
  O  O106  1  0.752563  0.668822  0.074922  1
  O  O107  1  0.625000  0.947216  0.302784  1
  O  O108  1  0.242548  0.406906  0.596899  1
  O  O109  1  0.081178  0.002563  0.824922  1
  O  O110  1  0.153101  0.656906  0.992548  1
  O  O111  1  0.143713  0.822526  0.158029  1
  O  O112  1  0.856287  0.322526  0.341971  1
  O  O113  1  0.156906  0.507452  0.846899  1
  O  O114  1  0.591971  0.072526  0.893713  1
  O  O115  1  0.072526  0.893713  0.591971  1
  O  O116  1  0.658029  0.356287  0.177474  1
  O  O117  1  0.403101  0.742548  0.093094  1
  O  O118  1  0.668822  0.074922  0.752563  1
  O  O119  1  0.252563  0.831178  0.925078  1
  O  O120  1  0.197823  0.310998  0.140403  1
  O  O121  1  0.939002  0.052177  0.109597  1
  O  O122  1  0.302177  0.689002  0.640403  1
  O  O123  1  0.447823  0.890403  0.439002  1
  O  O124  1  0.074922  0.752563  0.668822  1
  O  O125  1  0.359597  0.802177  0.810998  1
  O  O126  1  0.824922  0.081178  0.002563  1
  O  O127  1  0.341971  0.856287  0.322526  1
  O  O128  1  0.606287  0.408029  0.572526  1
  O  O129  1  0.581178  0.497437  0.175078  1
  O  O130  1  0.390403  0.060998  0.552177  1
  O  O131  1  0.643713  0.677474  0.841971  1
  O  O132  1  0.125000  0.552784  0.697216  1
  O  O133  1  0.393713  0.908029  0.927474  1
  O  O134  1  0.425078  0.247437  0.168822  1
  O  O135  1  0.418822  0.997437  0.324922  1
  O  O136  1  0.656906  0.992548  0.153101  1
  O  O137  1  0.109597  0.939002  0.052177  1
  O  O138  1  0.908029  0.927474  0.393713  1
  O  O139  1  0.757452  0.906906  0.903101  1
  O  O140  1  0.574922  0.747437  0.331178  1
  O  O141  1  0.997437  0.324922  0.418822  1
  O  O142  1  0.324922  0.418822  0.997437  1
  O  O143  1  0.903101  0.757452  0.906906  1
  O  O144  1  0.677474  0.841971  0.643713  1
  O  O145  1  0.427474  0.106287  0.091971  1
  O  O146  1  0.007452  0.653101  0.843094  1
  O  O147  1  0.002563  0.824922  0.081178  1
  O  O148  1  0.675078  0.918822  0.502563  1
  O  O149  1  0.168822  0.425078  0.247437  1
  O  O150  1  0.343094  0.492548  0.346899  1
  O  O151  1  0.653101  0.843094  0.007452  1
  O  O152  1  0.247437  0.168822  0.425078  1
  O  O153  1  0.375000  0.447216  0.197216  1
  O  O154  1  0.189002  0.859597  0.697823  1
  O  O155  1  0.875000  0.052784  0.802784  1
  O  O156  1  0.552177  0.390403  0.060998  1
  O  O157  1  0.890403  0.439002  0.447823  1
  O  O158  1  0.439002  0.447823  0.890403  1
  O  O159  1  0.093094  0.403101  0.742548  1
  O  O160  1  0.697216  0.125000  0.552784  1
  O  O161  1  0.747437  0.331178  0.574922  1
  O  O162  1  0.356287  0.177474  0.658029  1
  O  O163  1  0.859597  0.697823  0.189002  1
