# generated using pymatgen
data_NiH16C4S4(N4Cl)2
_symmetry_space_group_name_H-M   'P 1'
_cell_length_a   8.21268197
_cell_length_b   8.21268197
_cell_length_c   8.21268197
_cell_angle_alpha   107.62749432
_cell_angle_beta   107.62749432
_cell_angle_gamma   113.22515956
_symmetry_Int_Tables_number   1
_chemical_formula_structural   NiH16C4S4(N4Cl)2
_chemical_formula_sum   'Ni1 H16 C4 S4 N8 Cl2'
_cell_volume   425.03323692
_cell_formula_units_Z   1
loop_
 _symmetry_equiv_pos_site_id
 _symmetry_equiv_pos_as_xyz
  1  'x, y, z'
loop_
 _atom_site_type_symbol
 _atom_site_label
 _atom_site_symmetry_multiplicity
 _atom_site_fract_x
 _atom_site_fract_y
 _atom_site_fract_z
 _atom_site_occupancy
  Ni  Ni0  1  0.000432  0.000432  0.000000  1
  H  H1  1  0.545635  0.886228  0.351644  1
  H  H2  1  0.534584  0.193991  0.648356  1
  H  H3  1  0.886228  0.534584  0.340593  1
  H  H4  1  0.193991  0.545635  0.659407  1
  H  H5  1  0.393565  0.621173  0.216236  1
  H  H6  1  0.404937  0.177329  0.783764  1
  H  H7  1  0.621173  0.404937  0.227608  1
  H  H8  1  0.177329  0.393565  0.772392  1
  H  H9  1  0.039543  0.459358  0.019921  1
  H  H10  1  0.439438  0.019622  0.980079  1
  H  H11  1  0.459358  0.439438  0.419815  1
  H  H12  1  0.019622  0.039543  0.580185  1
  H  H13  1  0.944743  0.613541  0.993126  1
  H  H14  1  0.620415  0.951617  0.006874  1
  H  H15  1  0.613541  0.620415  0.668799  1
  H  H16  1  0.951617  0.944743  0.331201  1
  C  C17  1  0.246716  0.769446  0.175152  1
  C  C18  1  0.594294  0.071564  0.824848  1
  C  C19  1  0.769446  0.594294  0.522730  1
  C  C20  1  0.071564  0.246716  0.477270  1
  S  S21  1  0.280407  0.001998  0.220392  1
  S  S22  1  0.781606  0.060015  0.779608  1
  S  S23  1  0.001998  0.781606  0.721591  1
  S  S24  1  0.060015  0.280407  0.278409  1
  N  N25  1  0.405718  0.757831  0.261280  1
  N  N26  1  0.496551  0.144438  0.738720  1
  N  N27  1  0.757831  0.496551  0.352112  1
  N  N28  1  0.144438  0.405718  0.647888  1
  N  N29  1  0.064787  0.600409  0.054156  1
  N  N30  1  0.546253  0.010631  0.945844  1
  N  N31  1  0.600409  0.546253  0.535622  1
  N  N32  1  0.010631  0.064787  0.464378  1
  Cl  Cl33  1  0.733500  0.733500  0.000000  1
  Cl  Cl34  1  0.281281  0.281281  0.000000  1
