# generated using pymatgen
data_RbMgP(H6O5)2
_symmetry_space_group_name_H-M   'P 1'
_cell_length_a   6.17098897
_cell_length_b   6.92231892
_cell_length_c   11.37999101
_cell_angle_alpha   90.00000000
_cell_angle_beta   90.00000000
_cell_angle_gamma   90.00000000
_symmetry_Int_Tables_number   1
_chemical_formula_structural   RbMgP(H6O5)2
_chemical_formula_sum   'Rb2 Mg2 P2 H24 O20'
_cell_volume   486.12537710
_cell_formula_units_Z   2
loop_
 _symmetry_equiv_pos_site_id
 _symmetry_equiv_pos_as_xyz
  1  'x, y, z'
loop_
 _atom_site_type_symbol
 _atom_site_label
 _atom_site_symmetry_multiplicity
 _atom_site_fract_x
 _atom_site_fract_y
 _atom_site_fract_z
 _atom_site_occupancy
  Rb  Rb0  1  0.349047  0.500000  0.228787  1
  Rb  Rb1  1  0.650953  0.000000  0.728787  1
  Mg  Mg2  1  0.386112  0.500000  0.880426  1
  Mg  Mg3  1  0.613888  0.000000  0.380426  1
  P  P4  1  0.012639  0.000000  0.011959  1
  P  P5  1  0.987361  0.500000  0.511959  1
  H  H6  1  0.207192  0.699420  0.693023  1
  H  H7  1  0.792808  0.800580  0.193023  1
  H  H8  1  0.643830  0.757048  0.011868  1
  H  H9  1  0.726252  0.500000  0.710795  1
  H  H10  1  0.996771  0.882335  0.503488  1
  H  H11  1  0.169777  0.000000  0.341965  1
  H  H12  1  0.356170  0.742952  0.511868  1
  H  H13  1  0.356170  0.257048  0.511868  1
  H  H14  1  0.273748  0.000000  0.210795  1
  H  H15  1  0.818206  0.677643  0.313231  1
  H  H16  1  0.604655  0.328660  0.520903  1
  H  H17  1  0.395345  0.171340  0.020903  1
  H  H18  1  0.395345  0.828660  0.020903  1
  H  H19  1  0.830223  0.500000  0.841965  1
  H  H20  1  0.181794  0.177643  0.813231  1
  H  H21  1  0.003229  0.382335  0.003488  1
  H  H22  1  0.003229  0.617665  0.003488  1
  H  H23  1  0.181794  0.822357  0.813231  1
  H  H24  1  0.818206  0.322357  0.313231  1
  H  H25  1  0.792808  0.199420  0.193023  1
  H  H26  1  0.207192  0.300580  0.693023  1
  H  H27  1  0.643830  0.242952  0.011868  1
  H  H28  1  0.996771  0.117665  0.503488  1
  H  H29  1  0.604655  0.671340  0.520903  1
  O  O30  1  0.725841  0.776797  0.271806  1
  O  O31  1  0.274159  0.723203  0.771806  1
  O  O32  1  0.242449  0.000000  0.069919  1
  O  O33  1  0.490440  0.718510  0.993658  1
  O  O34  1  0.933536  0.000000  0.463803  1
  O  O35  1  0.509560  0.781490  0.493658  1
  O  O36  1  0.274159  0.276797  0.771806  1
  O  O37  1  0.889174  0.184308  0.053631  1
  O  O38  1  0.757551  0.500000  0.569919  1
  O  O39  1  0.725841  0.223203  0.271806  1
  O  O40  1  0.963269  0.500000  0.376581  1
  O  O41  1  0.110826  0.315692  0.553631  1
  O  O42  1  0.036731  0.000000  0.876581  1
  O  O43  1  0.307004  0.000000  0.298069  1
  O  O44  1  0.490440  0.281490  0.993658  1
  O  O45  1  0.509560  0.218510  0.493658  1
  O  O46  1  0.110826  0.684308  0.553631  1
  O  O47  1  0.692996  0.500000  0.798069  1
  O  O48  1  0.066464  0.500000  0.963803  1
  O  O49  1  0.889174  0.815692  0.053631  1
