# generated using pymatgen
data_EuTi2CdO6F
_symmetry_space_group_name_H-M   'P 1'
_cell_length_a   7.27446980
_cell_length_b   7.27446980
_cell_length_c   7.27446980
_cell_angle_alpha   120.70499005
_cell_angle_beta   118.90561150
_cell_angle_gamma   90.34458313
_symmetry_Int_Tables_number   1
_chemical_formula_structural   EuTi2CdO6F
_chemical_formula_sum   'Eu2 Ti4 Cd2 O12 F2'
_cell_volume   272.91275528
_cell_formula_units_Z   2
loop_
 _symmetry_equiv_pos_site_id
 _symmetry_equiv_pos_as_xyz
  1  'x, y, z'
loop_
 _atom_site_type_symbol
 _atom_site_label
 _atom_site_symmetry_multiplicity
 _atom_site_fract_x
 _atom_site_fract_y
 _atom_site_fract_z
 _atom_site_occupancy
  Eu  Eu0  1  0.500000  0.500000  0.500000  1
  Eu  Eu1  1  0.000000  0.500000  0.000000  1
  Ti  Ti2  1  0.000000  0.000000  0.000000  1
  Ti  Ti3  1  0.500000  1.000000  0.000000  1
  Ti  Ti4  1  0.000000  1.000000  0.500000  1
  Ti  Ti5  1  0.000000  0.500000  0.500000  1
  Cd  Cd6  1  0.500000  1.000000  0.500000  1
  Cd  Cd7  1  0.500000  0.500000  0.000000  1
  O  O8  1  0.920836  0.670836  0.750000  1
  O  O9  1  0.324709  0.079667  0.152868  1
  O  O10  1  0.926799  0.079667  0.754958  1
  O  O11  1  0.324709  0.671841  0.745042  1
  O  O12  1  0.325238  0.075238  0.750000  1
  O  O13  1  0.926799  0.671841  0.347132  1
  O  O14  1  0.674762  0.924762  0.250000  1
  O  O15  1  0.073201  0.328159  0.652868  1
  O  O16  1  0.073201  0.920333  0.245042  1
  O  O17  1  0.675291  0.328159  0.254958  1
  O  O18  1  0.675291  0.920333  0.847132  1
  O  O19  1  0.079164  0.329164  0.250000  1
  F  F20  1  0.379590  0.629590  0.250000  1
  F  F21  1  0.620410  0.370410  0.750000  1
