# generated using pymatgen
data_AgIrF7
_symmetry_space_group_name_H-M   'P 1'
_cell_length_a   7.26461718
_cell_length_b   7.88550329
_cell_length_c   10.54797026
_cell_angle_alpha   90.00000000
_cell_angle_beta   90.00000000
_cell_angle_gamma   90.00000000
_symmetry_Int_Tables_number   1
_chemical_formula_structural   AgIrF7
_chemical_formula_sum   'Ag4 Ir4 F28'
_cell_volume   604.24219210
_cell_formula_units_Z   4
loop_
 _symmetry_equiv_pos_site_id
 _symmetry_equiv_pos_as_xyz
  1  'x, y, z'
loop_
 _atom_site_type_symbol
 _atom_site_label
 _atom_site_symmetry_multiplicity
 _atom_site_fract_x
 _atom_site_fract_y
 _atom_site_fract_z
 _atom_site_occupancy
  Ag  Ag0  1  0.250000  0.136346  0.243631  1
  Ag  Ag1  1  0.750000  0.863654  0.756369  1
  Ag  Ag2  1  0.750000  0.363654  0.743631  1
  Ag  Ag3  1  0.250000  0.636346  0.256369  1
  Ir  Ir4  1  0.250000  0.298716  0.558483  1
  Ir  Ir5  1  0.750000  0.701284  0.441517  1
  Ir  Ir6  1  0.250000  0.798716  0.941517  1
  Ir  Ir7  1  0.750000  0.201284  0.058483  1
  F  F8  1  0.750000  0.417377  0.132114  1
  F  F9  1  0.568315  0.273059  0.937561  1
  F  F10  1  0.931125  0.122794  0.177283  1
  F  F11  1  0.750000  0.980348  0.984022  1
  F  F12  1  0.068315  0.726941  0.062439  1
  F  F13  1  0.068875  0.877206  0.822717  1
  F  F14  1  0.431125  0.877206  0.822717  1
  F  F15  1  0.250000  0.519652  0.484022  1
  F  F16  1  0.931685  0.773059  0.562439  1
  F  F17  1  0.431685  0.226941  0.437561  1
  F  F18  1  0.250000  0.888955  0.309692  1
  F  F19  1  0.750000  0.917377  0.367886  1
  F  F20  1  0.750000  0.480348  0.515978  1
  F  F21  1  0.568315  0.773059  0.562439  1
  F  F22  1  0.250000  0.582623  0.867886  1
  F  F23  1  0.568875  0.622794  0.322717  1
  F  F24  1  0.750000  0.611045  0.809692  1
  F  F25  1  0.250000  0.019652  0.015978  1
  F  F26  1  0.068875  0.377206  0.677283  1
  F  F27  1  0.250000  0.388955  0.190308  1
  F  F28  1  0.931125  0.622794  0.322717  1
  F  F29  1  0.431125  0.377206  0.677283  1
  F  F30  1  0.931685  0.273059  0.937561  1
  F  F31  1  0.068315  0.226941  0.437561  1
  F  F32  1  0.568875  0.122794  0.177283  1
  F  F33  1  0.431685  0.726941  0.062439  1
  F  F34  1  0.750000  0.111045  0.690308  1
  F  F35  1  0.250000  0.082623  0.632114  1
