# generated using pymatgen
data_HgH12(ClO7)2
_symmetry_space_group_name_H-M   'P 1'
_cell_length_a   7.91242539
_cell_length_b   7.91242539
_cell_length_c   5.68832605
_cell_angle_alpha   90.00000000
_cell_angle_beta   90.00000000
_cell_angle_gamma   120.00000000
_symmetry_Int_Tables_number   1
_chemical_formula_structural   HgH12(ClO7)2
_chemical_formula_sum   'Hg1 H12 Cl2 O14'
_cell_volume   308.41420248
_cell_formula_units_Z   1
loop_
 _symmetry_equiv_pos_site_id
 _symmetry_equiv_pos_as_xyz
  1  'x, y, z'
loop_
 _atom_site_type_symbol
 _atom_site_label
 _atom_site_symmetry_multiplicity
 _atom_site_fract_x
 _atom_site_fract_y
 _atom_site_fract_z
 _atom_site_occupancy
  Hg  Hg0  1  0.000000  0.000000  0.000000  1
  H  H1  1  0.347782  0.273526  0.269453  1
  H  H2  1  0.925744  0.652218  0.269453  1
  H  H3  1  0.726474  0.074256  0.269453  1
  H  H4  1  0.347782  0.074256  0.269453  1
  H  H5  1  0.726474  0.652218  0.269453  1
  H  H6  1  0.925744  0.273526  0.269453  1
  H  H7  1  0.652218  0.726474  0.730547  1
  H  H8  1  0.074256  0.347782  0.730547  1
  H  H9  1  0.273526  0.925744  0.730547  1
  H  H10  1  0.652218  0.925744  0.730547  1
  H  H11  1  0.273526  0.347782  0.730547  1
  H  H12  1  0.074256  0.726474  0.730547  1
  Cl  Cl13  1  0.666667  0.333333  0.804383  1
  Cl  Cl14  1  0.333333  0.666667  0.195617  1
  O  O15  1  0.263334  0.131667  0.277435  1
  O  O16  1  0.868333  0.736666  0.277435  1
  O  O17  1  0.868333  0.131667  0.277435  1
  O  O18  1  0.736666  0.868333  0.722565  1
  O  O19  1  0.131667  0.263334  0.722565  1
  O  O20  1  0.131667  0.868333  0.722565  1
  O  O21  1  0.867702  0.433851  0.715225  1
  O  O22  1  0.566149  0.132298  0.715225  1
  O  O23  1  0.566149  0.433851  0.715225  1
  O  O24  1  0.132298  0.566149  0.284775  1
  O  O25  1  0.433851  0.867702  0.284775  1
  O  O26  1  0.433851  0.566149  0.284775  1
  O  O27  1  0.666667  0.333333  0.059757  1
  O  O28  1  0.333333  0.666667  0.940243  1
