# generated using pymatgen
data_Cs3MgH5
_symmetry_space_group_name_H-M   'P 1'
_cell_length_a   8.74283396
_cell_length_b   8.74283396
_cell_length_c   8.74283396
_cell_angle_alpha   122.30329304
_cell_angle_beta   122.30329304
_cell_angle_gamma   86.05482714
_symmetry_Int_Tables_number   1
_chemical_formula_structural   Cs3MgH5
_chemical_formula_sum   'Cs6 Mg2 H10'
_cell_volume   454.91723861
_cell_formula_units_Z   2
loop_
 _symmetry_equiv_pos_site_id
 _symmetry_equiv_pos_as_xyz
  1  'x, y, z'
loop_
 _atom_site_type_symbol
 _atom_site_label
 _atom_site_symmetry_multiplicity
 _atom_site_fract_x
 _atom_site_fract_y
 _atom_site_fract_z
 _atom_site_occupancy
  Cs  Cs0  1  0.682428  0.817572  0.500000  1
  Cs  Cs1  1  0.317572  0.182428  0.500000  1
  Cs  Cs2  1  0.817572  0.317572  0.135144  1
  Cs  Cs3  1  0.182428  0.682428  0.864856  1
  Cs  Cs4  1  0.250000  0.250000  0.000000  1
  Cs  Cs5  1  0.750000  0.750000  0.000000  1
  Mg  Mg6  1  0.750000  0.250000  0.500000  1
  Mg  Mg7  1  0.250000  0.750000  0.500000  1
  H  H8  1  0.962579  0.213319  0.500000  1
  H  H9  1  0.713319  0.462579  0.500000  1
  H  H10  1  0.213319  0.713319  0.250741  1
  H  H11  1  0.462579  0.962579  0.749259  1
  H  H12  1  0.037421  0.786681  0.500000  1
  H  H13  1  0.286681  0.537421  0.500000  1
  H  H14  1  0.786681  0.286681  0.749259  1
  H  H15  1  0.537421  0.037421  0.250741  1
  H  H16  1  0.500000  0.500000  0.000000  1
  H  H17  1  0.000000  0.000000  0.000000  1
