# generated using pymatgen
data_Al2CoO4
_symmetry_space_group_name_H-M   'P 1'
_cell_length_a   19.19913021
_cell_length_b   19.19913021
_cell_length_c   19.19913021
_cell_angle_alpha   17.32776573
_cell_angle_beta   17.32776573
_cell_angle_gamma   17.32776573
_symmetry_Int_Tables_number   1
_chemical_formula_structural   Al2CoO4
_chemical_formula_sum   'Al16 Co8 O32'
_cell_volume   547.81152010
_cell_formula_units_Z   8
loop_
 _symmetry_equiv_pos_site_id
 _symmetry_equiv_pos_as_xyz
  1  'x, y, z'
loop_
 _atom_site_type_symbol
 _atom_site_label
 _atom_site_symmetry_multiplicity
 _atom_site_fract_x
 _atom_site_fract_y
 _atom_site_fract_z
 _atom_site_occupancy
  Al  Al0  1  0.311960  0.311960  0.311960  1
  Al  Al1  1  0.782896  0.782896  0.278028  1
  Al  Al2  1  0.278028  0.782896  0.782896  1
  Al  Al3  1  0.782896  0.278028  0.782896  1
  Al  Al4  1  0.031401  0.031401  0.530762  1
  Al  Al5  1  0.530762  0.031401  0.031401  1
  Al  Al6  1  0.906057  0.906057  0.906057  1
  Al  Al7  1  0.031401  0.530762  0.031401  1
  Al  Al8  1  0.280977  0.280977  0.781111  1
  Al  Al9  1  0.781111  0.280977  0.280977  1
  Al  Al10  1  0.156097  0.156097  0.156097  1
  Al  Al11  1  0.280977  0.781111  0.280977  1
  Al  Al12  1  0.533534  0.533534  0.027341  1
  Al  Al13  1  0.027341  0.533534  0.533534  1
  Al  Al14  1  0.406146  0.406146  0.406146  1
  Al  Al15  1  0.533534  0.027341  0.533534  1
  Co  Co16  1  0.000745  0.000745  0.000745  1
  Co  Co17  1  0.562974  0.562974  0.562974  1
  Co  Co18  1  0.656895  0.656895  0.656895  1
  Co  Co19  1  0.250039  0.250039  0.250039  1
  Co  Co20  1  0.812401  0.812401  0.812401  1
  Co  Co21  1  0.061622  0.061622  0.061622  1
  Co  Co22  1  0.499826  0.499826  0.499826  1
  Co  Co23  1  0.750273  0.750273  0.750273  1
  O  O24  1  0.468293  0.962888  0.468293  1
  O  O25  1  0.598591  0.598591  0.598591  1
  O  O26  1  0.962888  0.468293  0.468293  1
  O  O27  1  0.468293  0.468293  0.962888  1
  O  O28  1  0.736342  0.180116  0.736342  1
  O  O29  1  0.074451  0.074451  0.635133  1
  O  O30  1  0.965339  0.965339  0.965339  1
  O  O31  1  0.847447  0.847447  0.847447  1
  O  O32  1  0.635133  0.074451  0.074451  1
  O  O33  1  0.180116  0.736342  0.736342  1
  O  O34  1  0.736342  0.736342  0.180116  1
  O  O35  1  0.074451  0.635133  0.074451  1
  O  O36  1  0.986831  0.428627  0.986831  1
  O  O37  1  0.325618  0.325618  0.883618  1
  O  O38  1  0.883618  0.325618  0.325618  1
  O  O39  1  0.096964  0.096964  0.096964  1
  O  O40  1  0.428627  0.986831  0.986831  1
  O  O41  1  0.215176  0.215176  0.215176  1
  O  O42  1  0.986831  0.986831  0.428627  1
  O  O43  1  0.325618  0.883618  0.325618  1
  O  O44  1  0.239022  0.673911  0.239022  1
  O  O45  1  0.575383  0.575383  0.134028  1
  O  O46  1  0.344239  0.344239  0.344239  1
  O  O47  1  0.673911  0.239022  0.239022  1
  O  O48  1  0.134028  0.575383  0.575383  1
  O  O49  1  0.465070  0.465070  0.465070  1
  O  O50  1  0.239022  0.239022  0.673911  1
  O  O51  1  0.575383  0.134028  0.575383  1
  O  O52  1  0.834404  0.834404  0.372446  1
  O  O53  1  0.372446  0.834404  0.834404  1
  O  O54  1  0.715825  0.715825  0.715825  1
  O  O55  1  0.834404  0.372446  0.834404  1
