# generated using pymatgen
data_Er2Ga10Os3
_symmetry_space_group_name_H-M   'P 1'
_cell_length_a   8.90865122
_cell_length_b   8.90865122
_cell_length_c   6.40628401
_cell_angle_alpha   90.00000000
_cell_angle_beta   90.00000000
_cell_angle_gamma   90.00000000
_symmetry_Int_Tables_number   1
_chemical_formula_structural   Er2Ga10Os3
_chemical_formula_sum   'Er4 Ga20 Os6'
_cell_volume   508.42875057
_cell_formula_units_Z   2
loop_
 _symmetry_equiv_pos_site_id
 _symmetry_equiv_pos_as_xyz
  1  'x, y, z'
loop_
 _atom_site_type_symbol
 _atom_site_label
 _atom_site_symmetry_multiplicity
 _atom_site_fract_x
 _atom_site_fract_y
 _atom_site_fract_z
 _atom_site_occupancy
  Er  Er0  1  0.682632  0.182632  0.000000  1
  Er  Er1  1  0.317368  0.817368  0.000000  1
  Er  Er2  1  0.817368  0.682632  0.000000  1
  Er  Er3  1  0.182632  0.317368  0.000000  1
  Ga  Ga4  1  0.938700  0.206783  0.292624  1
  Ga  Ga5  1  0.706783  0.438700  0.292624  1
  Ga  Ga6  1  0.500000  0.000000  0.283762  1
  Ga  Ga7  1  0.561300  0.706783  0.707376  1
  Ga  Ga8  1  0.293217  0.561300  0.707376  1
  Ga  Ga9  1  0.793217  0.938700  0.292624  1
  Ga  Ga10  1  0.938700  0.206783  0.707376  1
  Ga  Ga11  1  0.293217  0.561300  0.292624  1
  Ga  Ga12  1  0.061300  0.793217  0.292624  1
  Ga  Ga13  1  0.706783  0.438700  0.707376  1
  Ga  Ga14  1  0.438700  0.293217  0.707376  1
  Ga  Ga15  1  0.061300  0.793217  0.707376  1
  Ga  Ga16  1  0.206783  0.061300  0.707376  1
  Ga  Ga17  1  0.793217  0.938700  0.707376  1
  Ga  Ga18  1  0.206783  0.061300  0.292624  1
  Ga  Ga19  1  0.000000  0.500000  0.716238  1
  Ga  Ga20  1  0.000000  0.500000  0.283762  1
  Ga  Ga21  1  0.561300  0.706783  0.292624  1
  Ga  Ga22  1  0.438700  0.293217  0.292624  1
  Ga  Ga23  1  0.500000  0.000000  0.716238  1
  Os  Os24  1  0.678698  0.178698  0.500000  1
  Os  Os25  1  0.821302  0.678698  0.500000  1
  Os  Os26  1  0.178698  0.321302  0.500000  1
  Os  Os27  1  0.000000  0.000000  0.000000  1
  Os  Os28  1  0.321302  0.821302  0.500000  1
  Os  Os29  1  0.500000  0.500000  0.000000  1
