# generated using pymatgen
data_CrBi12Mo4PbO34
_symmetry_space_group_name_H-M   'P 1'
_cell_length_a   11.82904028
_cell_length_b   5.89318905
_cell_length_c   25.25665504
_cell_angle_alpha   90.00000000
_cell_angle_beta   101.87959206
_cell_angle_gamma   90.00000000
_symmetry_Int_Tables_number   1
_chemical_formula_structural   CrBi12Mo4PbO34
_chemical_formula_sum   'Cr2 Bi24 Mo8 Pb2 O68'
_cell_volume   1722.95170382
_cell_formula_units_Z   2
loop_
 _symmetry_equiv_pos_site_id
 _symmetry_equiv_pos_as_xyz
  1  'x, y, z'
loop_
 _atom_site_type_symbol
 _atom_site_label
 _atom_site_symmetry_multiplicity
 _atom_site_fract_x
 _atom_site_fract_y
 _atom_site_fract_z
 _atom_site_occupancy
  Cr  Cr0  1  0.500000  0.986189  0.250000  1
  Cr  Cr1  1  0.500000  0.013811  0.750000  1
  Bi  Bi2  1  0.841323  0.922071  0.754994  1
  Bi  Bi3  1  0.082402  0.016222  0.592018  1
  Bi  Bi4  1  0.729982  0.488072  0.340868  1
  Bi  Bi5  1  0.917598  0.983778  0.407982  1
  Bi  Bi6  1  0.243713  0.977306  0.398997  1
  Bi  Bi7  1  0.158677  0.922071  0.745006  1
  Bi  Bi8  1  0.729982  0.511928  0.840868  1
  Bi  Bi9  1  0.361830  0.488090  0.321046  1
  Bi  Bi10  1  0.158677  0.077929  0.245006  1
  Bi  Bi11  1  0.959890  0.577199  0.173990  1
  Bi  Bi12  1  0.270018  0.488072  0.159132  1
  Bi  Bi13  1  0.841323  0.077929  0.254994  1
  Bi  Bi14  1  0.361830  0.511910  0.821046  1
  Bi  Bi15  1  0.082402  0.983778  0.092018  1
  Bi  Bi16  1  0.638170  0.488090  0.178954  1
  Bi  Bi17  1  0.040110  0.577199  0.326010  1
  Bi  Bi18  1  0.638170  0.511910  0.678954  1
  Bi  Bi19  1  0.270018  0.511928  0.659132  1
  Bi  Bi20  1  0.756287  0.977306  0.101003  1
  Bi  Bi21  1  0.040110  0.422801  0.826010  1
  Bi  Bi22  1  0.243713  0.022694  0.898997  1
  Bi  Bi23  1  0.917598  0.016222  0.907982  1
  Bi  Bi24  1  0.756287  0.022694  0.601003  1
  Bi  Bi25  1  0.959890  0.422801  0.673990  1
  Mo  Mo26  1  0.573673  0.999899  0.421683  1
  Mo  Mo27  1  0.426327  0.000101  0.578317  1
  Mo  Mo28  1  0.837268  0.478883  0.013164  1
  Mo  Mo29  1  0.162732  0.521117  0.986836  1
  Mo  Mo30  1  0.426327  0.999899  0.078317  1
  Mo  Mo31  1  0.837268  0.521117  0.513164  1
  Mo  Mo32  1  0.162732  0.478883  0.486836  1
  Mo  Mo33  1  0.573673  0.000101  0.921683  1
  Pb  Pb34  1  0.500000  0.500000  0.000000  1
  Pb  Pb35  1  0.500000  0.500000  0.500000  1
  O  O36  1  0.617818  0.180153  0.759642  1
  O  O37  1  0.499461  0.272908  0.083427  1
  O  O38  1  0.285490  0.570072  0.459660  1
  O  O39  1  0.530949  0.781668  0.102978  1
  O  O40  1  0.763089  0.770517  0.664438  1
  O  O41  1  0.501436  0.847567  0.803442  1
  O  O42  1  0.870987  0.755881  0.845658  1
  O  O43  1  0.236911  0.229483  0.335562  1
  O  O44  1  0.228044  0.725425  0.332558  1
  O  O45  1  0.530949  0.218332  0.602978  1
  O  O46  1  0.129013  0.755881  0.654342  1
  O  O47  1  0.945917  0.688805  0.031796  1
  O  O48  1  0.617818  0.819847  0.259642  1
  O  O49  1  0.375605  0.067966  0.508887  1
  O  O50  1  0.236911  0.770517  0.835562  1
  O  O51  1  0.000000  0.268752  0.250000  1
  O  O52  1  0.862800  0.264996  0.841933  1
  O  O53  1  0.129013  0.244119  0.154342  1
  O  O54  1  0.203547  0.538210  0.059490  1
  O  O55  1  0.257023  0.404026  0.242136  1
  O  O56  1  0.257023  0.595974  0.742136  1
  O  O57  1  0.500539  0.272908  0.416573  1
  O  O58  1  0.624395  0.932034  0.491113  1
  O  O59  1  0.228044  0.274575  0.832558  1
  O  O60  1  0.203547  0.461790  0.559490  1
  O  O61  1  0.938725  0.075231  0.633269  1
  O  O62  1  0.113095  0.212617  0.454437  1
  O  O63  1  0.886905  0.212617  0.045563  1
  O  O64  1  0.000000  0.759700  0.250000  1
  O  O65  1  0.382182  0.180153  0.740358  1
  O  O66  1  0.469051  0.781668  0.397022  1
  O  O67  1  0.771956  0.725425  0.167442  1
  O  O68  1  0.945917  0.311195  0.531796  1
  O  O69  1  0.303522  0.004894  0.110573  1
  O  O70  1  0.061275  0.924769  0.366731  1
  O  O71  1  0.501436  0.152433  0.303442  1
  O  O72  1  0.000000  0.731248  0.750000  1
  O  O73  1  0.054083  0.311195  0.968204  1
  O  O74  1  0.862800  0.735004  0.341933  1
  O  O75  1  0.054083  0.688805  0.468204  1
  O  O76  1  0.796453  0.461790  0.940510  1
  O  O77  1  0.870987  0.244119  0.345658  1
  O  O78  1  0.303522  0.995106  0.610573  1
  O  O79  1  0.375605  0.932034  0.008887  1
  O  O80  1  0.938725  0.924769  0.133269  1
  O  O81  1  0.469051  0.218332  0.897022  1
  O  O82  1  0.137200  0.735004  0.158067  1
  O  O83  1  0.771956  0.274575  0.667442  1
  O  O84  1  0.714510  0.570072  0.040340  1
  O  O85  1  0.137200  0.264996  0.658067  1
  O  O86  1  0.000000  0.240300  0.750000  1
  O  O87  1  0.796453  0.538210  0.440510  1
  O  O88  1  0.763089  0.229483  0.164438  1
  O  O89  1  0.500539  0.727092  0.916573  1
  O  O90  1  0.696478  0.004894  0.389427  1
  O  O91  1  0.714510  0.429928  0.540340  1
  O  O92  1  0.285490  0.429928  0.959660  1
  O  O93  1  0.886905  0.787383  0.545563  1
  O  O94  1  0.742977  0.404026  0.257864  1
  O  O95  1  0.498564  0.847567  0.696558  1
  O  O96  1  0.624395  0.067966  0.991113  1
  O  O97  1  0.061275  0.075231  0.866731  1
  O  O98  1  0.113095  0.787383  0.954437  1
  O  O99  1  0.742977  0.595974  0.757864  1
  O  O100  1  0.499461  0.727092  0.583427  1
  O  O101  1  0.498564  0.152433  0.196558  1
  O  O102  1  0.382182  0.819847  0.240358  1
  O  O103  1  0.696478  0.995106  0.889427  1
