# generated using pymatgen
data_LiSn2P3O10
_symmetry_space_group_name_H-M   'P 1'
_cell_length_a   7.96336553
_cell_length_b   7.96336553
_cell_length_c   9.84828175
_cell_angle_alpha   67.36908278
_cell_angle_beta   112.63091722
_cell_angle_gamma   100.19657713
_symmetry_Int_Tables_number   1
_chemical_formula_structural   LiSn2P3O10
_chemical_formula_sum   'Li2 Sn4 P6 O20'
_cell_volume   531.75141782
_cell_formula_units_Z   2
loop_
 _symmetry_equiv_pos_site_id
 _symmetry_equiv_pos_as_xyz
  1  'x, y, z'
loop_
 _atom_site_type_symbol
 _atom_site_label
 _atom_site_symmetry_multiplicity
 _atom_site_fract_x
 _atom_site_fract_y
 _atom_site_fract_z
 _atom_site_occupancy
  Li  Li0  1  0.223785  0.223785  0.750000  1
  Li  Li1  1  0.776215  0.776215  0.250000  1
  Sn  Sn2  1  0.742987  0.387561  0.063019  1
  Sn  Sn3  1  0.257013  0.612439  0.936981  1
  Sn  Sn4  1  0.612439  0.257013  0.563019  1
  Sn  Sn5  1  0.387561  0.742987  0.436981  1
  P  P6  1  0.868255  0.588972  0.627832  1
  P  P7  1  0.588972  0.868255  0.872168  1
  P  P8  1  0.891588  0.891588  0.750000  1
  P  P9  1  0.411028  0.131745  0.127832  1
  P  P10  1  0.108412  0.108412  0.250000  1
  P  P11  1  0.131745  0.411028  0.372168  1
  O  O12  1  0.144263  0.909320  0.349169  1
  O  O13  1  0.432637  0.747800  0.798901  1
  O  O14  1  0.069897  0.559969  0.726831  1
  O  O15  1  0.628154  0.812884  0.045668  1
  O  O16  1  0.252200  0.567363  0.298901  1
  O  O17  1  0.567363  0.252200  0.201099  1
  O  O18  1  0.812884  0.628154  0.454332  1
  O  O19  1  0.909320  0.144263  0.150831  1
  O  O20  1  0.930103  0.440031  0.273169  1
  O  O21  1  0.775986  0.814667  0.863132  1
  O  O22  1  0.185333  0.224014  0.363132  1
  O  O23  1  0.090680  0.855737  0.849169  1
  O  O24  1  0.559969  0.069897  0.773169  1
  O  O25  1  0.814667  0.775986  0.636868  1
  O  O26  1  0.440031  0.930103  0.226831  1
  O  O27  1  0.187116  0.371846  0.545668  1
  O  O28  1  0.371846  0.187116  0.954332  1
  O  O29  1  0.855737  0.090680  0.650831  1
  O  O30  1  0.224014  0.185333  0.136868  1
  O  O31  1  0.747800  0.432637  0.701099  1
