# generated using pymatgen
data_CsHg2Br5
_symmetry_space_group_name_H-M   'P 1'
_cell_length_a   8.63027154
_cell_length_b   6.56869430
_cell_length_c   11.62938661
_cell_angle_alpha   90.00000000
_cell_angle_beta   107.29253879
_cell_angle_gamma   90.00000000
_symmetry_Int_Tables_number   1
_chemical_formula_structural   CsHg2Br5
_chemical_formula_sum   'Cs2 Hg4 Br10'
_cell_volume   629.46633813
_cell_formula_units_Z   2
loop_
 _symmetry_equiv_pos_site_id
 _symmetry_equiv_pos_as_xyz
  1  'x, y, z'
loop_
 _atom_site_type_symbol
 _atom_site_label
 _atom_site_symmetry_multiplicity
 _atom_site_fract_x
 _atom_site_fract_y
 _atom_site_fract_z
 _atom_site_occupancy
  Cs  Cs0  1  0.528866  0.250000  0.254168  1
  Cs  Cs1  1  0.471134  0.750000  0.745832  1
  Hg  Hg2  1  0.962235  0.750000  0.140949  1
  Hg  Hg3  1  0.871632  0.750000  0.556165  1
  Hg  Hg4  1  0.037765  0.250000  0.859051  1
  Hg  Hg5  1  0.128368  0.250000  0.443835  1
  Br  Br6  1  0.987222  0.250000  0.211962  1
  Br  Br7  1  0.012778  0.750000  0.788038  1
  Br  Br8  1  0.425586  0.250000  0.567526  1
  Br  Br9  1  0.241587  0.750000  0.124689  1
  Br  Br10  1  0.574414  0.750000  0.432474  1
  Br  Br11  1  0.662972  0.750000  0.100701  1
  Br  Br12  1  0.758413  0.250000  0.875311  1
  Br  Br13  1  0.901979  0.250000  0.561960  1
  Br  Br14  1  0.337028  0.250000  0.899299  1
  Br  Br15  1  0.098021  0.750000  0.438040  1
