# generated using pymatgen
data_Cu3Pd
_symmetry_space_group_name_H-M   'P 1'
_cell_length_a   3.72124693
_cell_length_b   3.72124693
_cell_length_c   25.86954388
_cell_angle_alpha   90.00000000
_cell_angle_beta   90.00000000
_cell_angle_gamma   90.00000000
_symmetry_Int_Tables_number   1
_chemical_formula_structural   Cu3Pd
_chemical_formula_sum   'Cu21 Pd7'
_cell_volume   358.23313117
_cell_formula_units_Z   7
loop_
 _symmetry_equiv_pos_site_id
 _symmetry_equiv_pos_as_xyz
  1  'x, y, z'
loop_
 _atom_site_type_symbol
 _atom_site_label
 _atom_site_symmetry_multiplicity
 _atom_site_fract_x
 _atom_site_fract_y
 _atom_site_fract_z
 _atom_site_occupancy
  Cu  Cu0  1  0.500000  0.500000  0.998605  1
  Cu  Cu1  1  0.500000  0.500000  0.285690  1
  Cu  Cu2  1  0.000000  0.500000  0.639045  1
  Cu  Cu3  1  0.000000  0.500000  0.926163  1
  Cu  Cu4  1  0.500000  0.000000  0.639045  1
  Cu  Cu5  1  0.000000  0.000000  0.568401  1
  Cu  Cu6  1  0.500000  0.000000  0.926163  1
  Cu  Cu7  1  0.500000  0.000000  0.781621  1
  Cu  Cu8  1  0.000000  0.500000  0.357006  1
  Cu  Cu9  1  0.500000  0.000000  0.214225  1
  Cu  Cu10  1  0.000000  0.500000  0.498277  1
  Cu  Cu11  1  0.500000  0.000000  0.070594  1
  Cu  Cu12  1  0.000000  0.500000  0.070594  1
  Cu  Cu13  1  0.000000  0.000000  0.709661  1
  Cu  Cu14  1  0.500000  0.000000  0.357006  1
  Cu  Cu15  1  0.000000  0.500000  0.214225  1
  Cu  Cu16  1  0.500000  0.500000  0.142802  1
  Cu  Cu17  1  0.000000  0.000000  0.853855  1
  Cu  Cu18  1  0.500000  0.000000  0.498277  1
  Cu  Cu19  1  0.000000  0.500000  0.781621  1
  Cu  Cu20  1  0.500000  0.500000  0.428014  1
  Pd  Pd21  1  0.000000  0.000000  0.427865  1
  Pd  Pd22  1  0.000000  0.000000  0.142345  1
  Pd  Pd23  1  0.500000  0.500000  0.710117  1
  Pd  Pd24  1  0.500000  0.500000  0.853902  1
  Pd  Pd25  1  0.500000  0.500000  0.568357  1
  Pd  Pd26  1  0.000000  0.000000  0.998335  1
  Pd  Pd27  1  0.000000  0.000000  0.285889  1
