# generated using pymatgen
data_Ge7H18O23
_symmetry_space_group_name_H-M   'P 1'
_cell_length_a   7.66870681
_cell_length_b   7.76648137
_cell_length_c   7.95282109
_cell_angle_alpha   90.07157688
_cell_angle_beta   91.03678580
_cell_angle_gamma   90.25229982
_symmetry_Int_Tables_number   1
_chemical_formula_structural   Ge7H18O23
_chemical_formula_sum   'Ge7 H18 O23'
_cell_volume   473.57847013
_cell_formula_units_Z   1
loop_
 _symmetry_equiv_pos_site_id
 _symmetry_equiv_pos_as_xyz
  1  'x, y, z'
loop_
 _atom_site_type_symbol
 _atom_site_label
 _atom_site_symmetry_multiplicity
 _atom_site_fract_x
 _atom_site_fract_y
 _atom_site_fract_z
 _atom_site_occupancy
  Ge  Ge0  1  0.862711  0.150285  0.877149  1
  Ge  Ge1  1  0.132569  0.887621  0.860600  1
  Ge  Ge2  1  0.863118  0.867560  0.130629  1
  Ge  Ge3  1  0.143601  0.143658  0.143494  1
  Ge  Ge4  1  0.999427  0.498413  0.008924  1
  Ge  Ge5  1  0.499284  0.007832  0.993572  1
  Ge  Ge6  1  0.001142  0.997311  0.484778  1
  H  H7  1  0.042241  0.428627  0.530692  1
  H  H8  1  0.031230  0.634015  0.568922  1
  H  H9  1  0.274708  0.604439  0.919873  1
  H  H10  1  0.475562  0.429187  0.032391  1
  H  H11  1  0.548929  0.622173  0.030987  1
  H  H12  1  0.532380  0.004971  0.390078  1
  H  H13  1  0.565637  0.961886  0.581963  1
  H  H14  1  0.736891  0.442290  0.314430  1
  H  H15  1  0.622966  0.281549  0.273181  1
  H  H16  1  0.786651  0.216008  0.553038  1
  H  H17  1  0.670512  0.562249  0.692492  1
  H  H18  1  0.524235  0.692660  0.722857  1
  H  H19  1  0.403022  0.157385  0.562463  1
  H  H20  1  0.453414  0.269168  0.736396  1
  H  H21  1  0.363059  0.375929  0.583464  1
  H  H22  1  0.429160  0.613188  0.360784  1
  H  H23  1  0.347265  0.774523  0.454140  1
  H  H24  1  0.202277  0.598112  0.423270  1
  O  O25  1  0.879064  0.127879  0.115862  1
  O  O26  1  0.880892  0.892323  0.879856  1
  O  O27  1  0.114296  0.131188  0.880289  1
  O  O28  1  0.120397  0.895480  0.112065  1
  O  O29  1  0.874858  0.387122  0.854572  1
  O  O30  1  0.620096  0.147041  0.858138  1
  O  O31  1  0.865417  0.138779  0.617495  1
  O  O32  1  0.149072  0.631035  0.881877  1
  O  O33  1  0.372382  0.884757  0.849265  1
  O  O34  1  0.109216  0.858056  0.626115  1
  O  O35  1  0.865446  0.628950  0.128201  1
  O  O36  1  0.620882  0.863047  0.117148  1
  O  O37  1  0.853809  0.878118  0.363766  1
  O  O38  1  0.139123  0.380160  0.139677  1
  O  O39  1  0.387536  0.143235  0.133925  1
  O  O40  1  0.138793  0.138416  0.378199  1
  O  O41  1  0.058689  0.544094  0.484739  1
  O  O42  1  0.469044  0.539764  0.974273  1
  O  O43  1  0.476745  0.000586  0.500753  1
  O  O44  1  0.652711  0.362475  0.364020  1
  O  O45  1  0.575434  0.623622  0.634084  1
  O  O46  1  0.364900  0.264903  0.641455  1
  O  O47  1  0.320908  0.676944  0.376533  1
