# generated using pymatgen
data_TlHg3As2Cl3
_symmetry_space_group_name_H-M   'P 1'
_cell_length_a   6.34057164
_cell_length_b   12.58200526
_cell_length_c   12.65443527
_cell_angle_alpha   90.00000000
_cell_angle_beta   90.00000000
_cell_angle_gamma   90.00000000
_symmetry_Int_Tables_number   1
_chemical_formula_structural   TlHg3As2Cl3
_chemical_formula_sum   'Tl4 Hg12 As8 Cl12'
_cell_volume   1009.53422044
_cell_formula_units_Z   4
loop_
 _symmetry_equiv_pos_site_id
 _symmetry_equiv_pos_as_xyz
  1  'x, y, z'
loop_
 _atom_site_type_symbol
 _atom_site_label
 _atom_site_symmetry_multiplicity
 _atom_site_fract_x
 _atom_site_fract_y
 _atom_site_fract_z
 _atom_site_occupancy
  Tl  Tl0  1  0.982668  0.750000  0.252378  1
  Tl  Tl1  1  0.017332  0.750000  0.752378  1
  Tl  Tl2  1  0.017332  0.250000  0.747622  1
  Tl  Tl3  1  0.982668  0.250000  0.247622  1
  Hg  Hg4  1  0.542341  0.000000  0.250000  1
  Hg  Hg5  1  0.449931  0.250000  0.979725  1
  Hg  Hg6  1  0.457659  0.500000  0.750000  1
  Hg  Hg7  1  0.449931  0.750000  0.520275  1
  Hg  Hg8  1  0.000000  0.500000  0.000000  1
  Hg  Hg9  1  0.457659  0.000000  0.750000  1
  Hg  Hg10  1  0.542341  0.500000  0.250000  1
  Hg  Hg11  1  0.000000  0.500000  0.500000  1
  Hg  Hg12  1  0.550069  0.750000  0.020275  1
  Hg  Hg13  1  0.000000  0.000000  0.500000  1
  Hg  Hg14  1  0.000000  0.000000  0.000000  1
  Hg  Hg15  1  0.550069  0.250000  0.479725  1
  As  As16  1  0.378904  0.050584  0.944221  1
  As  As17  1  0.621096  0.449416  0.444221  1
  As  As18  1  0.378904  0.949416  0.555779  1
  As  As19  1  0.378904  0.550584  0.555779  1
  As  As20  1  0.621096  0.550584  0.055779  1
  As  As21  1  0.378904  0.449416  0.944221  1
  As  As22  1  0.621096  0.949416  0.055779  1
  As  As23  1  0.621096  0.050584  0.444221  1
  Cl  Cl24  1  0.896163  0.250000  0.996870  1
  Cl  Cl25  1  0.547114  0.250000  0.704458  1
  Cl  Cl26  1  0.097512  0.500000  0.250000  1
  Cl  Cl27  1  0.902488  0.000000  0.750000  1
  Cl  Cl28  1  0.902488  0.500000  0.750000  1
  Cl  Cl29  1  0.097512  0.000000  0.250000  1
  Cl  Cl30  1  0.547114  0.750000  0.795542  1
  Cl  Cl31  1  0.103837  0.250000  0.496870  1
  Cl  Cl32  1  0.452886  0.750000  0.295542  1
  Cl  Cl33  1  0.103837  0.750000  0.003130  1
  Cl  Cl34  1  0.896163  0.750000  0.503130  1
  Cl  Cl35  1  0.452886  0.250000  0.204458  1
