# generated using pymatgen
data_Cs6Si2NiO8
_symmetry_space_group_name_H-M   'P 1'
_cell_length_a   6.99878032
_cell_length_b   7.16153186
_cell_length_c   8.09770189
_cell_angle_alpha   87.48593612
_cell_angle_beta   88.52952139
_cell_angle_gamma   69.32839629
_symmetry_Int_Tables_number   1
_chemical_formula_structural   Cs6Si2NiO8
_chemical_formula_sum   'Cs6 Si2 Ni1 O8'
_cell_volume   379.35446008
_cell_formula_units_Z   1
loop_
 _symmetry_equiv_pos_site_id
 _symmetry_equiv_pos_as_xyz
  1  'x, y, z'
loop_
 _atom_site_type_symbol
 _atom_site_label
 _atom_site_symmetry_multiplicity
 _atom_site_fract_x
 _atom_site_fract_y
 _atom_site_fract_z
 _atom_site_occupancy
  Cs  Cs0  1  0.201949  0.702468  0.010880  1
  Cs  Cs1  1  0.720850  0.209341  0.477814  1
  Cs  Cs2  1  0.798051  0.297532  0.989120  1
  Cs  Cs3  1  0.659751  0.830508  0.167292  1
  Cs  Cs4  1  0.340249  0.169492  0.832708  1
  Cs  Cs5  1  0.279150  0.790659  0.522186  1
  Si  Si6  1  0.778852  0.736504  0.722418  1
  Si  Si7  1  0.221148  0.263496  0.277582  1
  Ni  Ni8  1  0.000000  0.500000  0.500000  1
  O  O9  1  0.008323  0.470037  0.264033  1
  O  O10  1  0.766090  0.743692  0.513982  1
  O  O11  1  0.991677  0.529963  0.735967  1
  O  O12  1  0.420990  0.296903  0.188384  1
  O  O13  1  0.815755  0.933060  0.792532  1
  O  O14  1  0.233910  0.256308  0.486018  1
  O  O15  1  0.579010  0.703097  0.811616  1
  O  O16  1  0.184245  0.066940  0.207468  1
