# generated using pymatgen
data_LiCr(PO4)2
_symmetry_space_group_name_H-M   'P 1'
_cell_length_a   4.70947801
_cell_length_b   9.02358385
_cell_length_c   14.01955762
_cell_angle_alpha   90.00000000
_cell_angle_beta   94.79017069
_cell_angle_gamma   90.00000000
_symmetry_Int_Tables_number   1
_chemical_formula_structural   LiCr(PO4)2
_chemical_formula_sum   'Li4 Cr4 P8 O32'
_cell_volume   593.69936204
_cell_formula_units_Z   4
loop_
 _symmetry_equiv_pos_site_id
 _symmetry_equiv_pos_as_xyz
  1  'x, y, z'
loop_
 _atom_site_type_symbol
 _atom_site_label
 _atom_site_symmetry_multiplicity
 _atom_site_fract_x
 _atom_site_fract_y
 _atom_site_fract_z
 _atom_site_occupancy
  Li  Li0  1  0.542684  0.156102  0.627558  1
  Li  Li1  1  0.457316  0.656102  0.872442  1
  Li  Li2  1  0.542684  0.343898  0.127558  1
  Li  Li3  1  0.457316  0.843898  0.372442  1
  Cr  Cr4  1  0.358642  0.932851  0.150875  1
  Cr  Cr5  1  0.358642  0.567149  0.650875  1
  Cr  Cr6  1  0.641358  0.067149  0.849125  1
  Cr  Cr7  1  0.641358  0.432851  0.349125  1
  P  P8  1  0.844797  0.401122  0.763212  1
  P  P9  1  0.155203  0.901122  0.736788  1
  P  P10  1  0.856776  0.775634  0.568518  1
  P  P11  1  0.155203  0.598878  0.236788  1
  P  P12  1  0.143224  0.224366  0.431482  1
  P  P13  1  0.844797  0.098878  0.263212  1
  P  P14  1  0.143224  0.275634  0.931482  1
  P  P15  1  0.856776  0.724366  0.068518  1
  O  O16  1  0.764872  0.260452  0.242562  1
  O  O17  1  0.991425  0.915244  0.631967  1
  O  O18  1  0.113878  0.829512  0.058766  1
  O  O19  1  0.477724  0.061299  0.087385  1
  O  O20  1  0.008575  0.084756  0.368033  1
  O  O21  1  0.646765  0.709892  0.635499  1
  O  O22  1  0.886122  0.170488  0.941234  1
  O  O23  1  0.038039  0.041255  0.189466  1
  O  O24  1  0.961961  0.541255  0.310534  1
  O  O25  1  0.522276  0.938701  0.912615  1
  O  O26  1  0.646765  0.790108  0.135499  1
  O  O27  1  0.991425  0.584756  0.131967  1
  O  O28  1  0.113878  0.670488  0.558766  1
  O  O29  1  0.886122  0.329512  0.441234  1
  O  O30  1  0.353235  0.209892  0.864501  1
  O  O31  1  0.582808  0.504927  0.770435  1
  O  O32  1  0.417192  0.495073  0.229565  1
  O  O33  1  0.417192  0.004927  0.729565  1
  O  O34  1  0.764872  0.239548  0.742562  1
  O  O35  1  0.008575  0.415244  0.868033  1
  O  O36  1  0.582808  0.995073  0.270435  1
  O  O37  1  0.353235  0.290108  0.364501  1
  O  O38  1  0.522276  0.561299  0.412615  1
  O  O39  1  0.737915  0.836568  0.475293  1
  O  O40  1  0.477724  0.438701  0.587385  1
  O  O41  1  0.961961  0.958745  0.810534  1
  O  O42  1  0.737915  0.663432  0.975293  1
  O  O43  1  0.235128  0.739548  0.757438  1
  O  O44  1  0.262085  0.336568  0.024707  1
  O  O45  1  0.235128  0.760452  0.257438  1
  O  O46  1  0.038039  0.458745  0.689466  1
  O  O47  1  0.262085  0.163432  0.524707  1
