# generated using pymatgen
data_Li3Bi3P8O29
_symmetry_space_group_name_H-M   'P 1'
_cell_length_a   10.15831714
_cell_length_b   10.19790326
_cell_length_c   14.60248218
_cell_angle_alpha   91.14190117
_cell_angle_beta   89.93892174
_cell_angle_gamma   119.85096287
_symmetry_Int_Tables_number   1
_chemical_formula_structural   Li3Bi3P8O29
_chemical_formula_sum   'Li6 Bi6 P16 O58'
_cell_volume   1311.69041089
_cell_formula_units_Z   2
loop_
 _symmetry_equiv_pos_site_id
 _symmetry_equiv_pos_as_xyz
  1  'x, y, z'
loop_
 _atom_site_type_symbol
 _atom_site_label
 _atom_site_symmetry_multiplicity
 _atom_site_fract_x
 _atom_site_fract_y
 _atom_site_fract_z
 _atom_site_occupancy
  Li  Li0  1  0.928851  0.717086  0.940436  1
  Li  Li1  1  0.073287  0.286610  0.051546  1
  Li  Li2  1  0.696243  0.777744  0.050728  1
  Li  Li3  1  0.957155  0.930309  0.504026  1
  Li  Li4  1  0.221052  0.303588  0.557952  1
  Li  Li5  1  0.339836  0.685277  0.398523  1
  Bi  Bi6  1  0.000479  0.567993  0.744536  1
  Bi  Bi7  1  0.994452  0.428880  0.251089  1
  Bi  Bi8  1  0.434147  0.432283  0.749686  1
  Bi  Bi9  1  0.431794  0.005320  0.247052  1
  Bi  Bi10  1  0.572832  0.568427  0.252386  1
  Bi  Bi11  1  0.567121  0.000473  0.746079  1
  P  P12  1  0.766637  0.076129  0.157671  1
  P  P13  1  0.296386  0.073068  0.653858  1
  P  P14  1  0.776966  0.697493  0.657068  1
  P  P15  1  0.331879  0.660753  0.122631  1
  P  P16  1  0.666477  0.334423  0.376797  1
  P  P17  1  0.086051  0.320225  0.843965  1
  P  P18  1  0.919015  0.219836  0.660251  1
  P  P19  1  0.311701  0.230546  0.162626  1
  P  P20  1  0.672528  0.337708  0.875349  1
  P  P21  1  0.916649  0.682670  0.152946  1
  P  P22  1  0.692533  0.920708  0.345599  1
  P  P23  1  0.334624  0.661859  0.624251  1
  P  P24  1  0.230957  0.924818  0.843505  1
  P  P25  1  0.230484  0.321729  0.346833  1
  P  P26  1  0.685245  0.772913  0.841616  1
  P  P27  1  0.084581  0.780890  0.339597  1
  O  O28  1  0.879219  0.517318  0.168069  1
  O  O29  1  0.107617  0.639301  0.340256  1
  O  O30  1  0.190383  0.506552  0.153914  1
  O  O31  1  0.224108  0.007962  0.925919  1
  O  O32  1  0.231480  0.222461  0.260839  1
  O  O33  1  0.520492  0.318795  0.834097  1
  O  O34  1  0.994053  0.751148  0.065822  1
  O  O35  1  0.334501  0.663508  0.019946  1
  O  O36  1  0.359932  0.489748  0.333057  1
  O  O37  1  0.789074  0.004805  0.426208  1
  O  O38  1  0.754399  0.976931  0.078633  1
  O  O39  1  0.083227  0.763743  0.841166  1
  O  O40  1  0.453574  0.082267  0.651395  1
  O  O41  1  0.013958  0.208589  0.585940  1
  O  O42  1  0.489661  0.790399  0.664133  1
  O  O43  1  0.918054  0.230754  0.153837  1
  O  O44  1  0.512175  0.201539  0.338379  1
  O  O45  1  0.520234  0.639858  0.828469  1
  O  O46  1  0.986935  0.213718  0.759027  1
  O  O47  1  0.526075  0.893351  0.338971  1
  O  O48  1  0.314799  0.079709  0.154971  1
  O  O49  1  0.665822  0.335280  0.479608  1
  O  O50  1  0.013881  0.781962  0.240402  1
  O  O51  1  0.801136  0.312964  0.341053  1
  O  O52  1  0.331427  0.660022  0.521334  1
  O  O53  1  0.005878  0.253073  0.930763  1
  O  O54  1  0.486775  0.672845  0.155186  1
  O  O55  1  0.919534  0.676962  0.653469  1
  O  O56  1  0.762609  0.683975  0.155694  1
  O  O57  1  0.206549  0.687397  0.665303  1
  O  O58  1  0.479573  0.360995  0.171585  1
  O  O59  1  0.689414  0.489377  0.341173  1
  O  O60  1  0.679497  0.761161  0.345130  1
  O  O61  1  0.811412  0.494585  0.844323  1
  O  O62  1  0.637016  0.114618  0.166855  1
  O  O63  1  0.319882  0.238420  0.655265  1
  O  O64  1  0.372472  0.903588  0.836688  1
  O  O65  1  0.220602  0.002463  0.750347  1
  O  O66  1  0.679876  0.921672  0.841953  1
  O  O67  1  0.629006  0.541929  0.655523  1
  O  O68  1  0.902819  0.363691  0.658582  1
  O  O69  1  0.693097  0.205845  0.833437  1
  O  O70  1  0.775430  0.000821  0.251979  1
  O  O71  1  0.189066  0.993600  0.576148  1
  O  O72  1  0.313214  0.789434  0.170457  1
  O  O73  1  0.077436  0.321800  0.344135  1
  O  O74  1  0.222627  0.244142  0.087142  1
  O  O75  1  0.670188  0.338596  0.978001  1
  O  O76  1  0.246263  0.923240  0.342590  1
  O  O77  1  0.759722  0.758970  0.927384  1
  O  O78  1  0.241850  0.324848  0.842064  1
  O  O79  1  0.758488  0.076204  0.654634  1
  O  O80  1  0.311766  0.502835  0.653760  1
  O  O81  1  0.117421  0.483280  0.826757  1
  O  O82  1  0.993620  0.795561  0.414636  1
  O  O83  1  0.787130  0.775956  0.756637  1
  O  O84  1  0.794840  0.802422  0.582387  1
  O  O85  1  0.239347  0.252357  0.433736  1
