# generated using pymatgen
data_NdTi2CdO6F
_symmetry_space_group_name_H-M   'P 1'
_cell_length_a   7.27845335
_cell_length_b   7.27845335
_cell_length_c   7.27845335
_cell_angle_alpha   120.78213591
_cell_angle_beta   118.38591187
_cell_angle_gamma   90.73438410
_symmetry_Int_Tables_number   1
_chemical_formula_structural   NdTi2CdO6F
_chemical_formula_sum   'Nd2 Ti4 Cd2 O12 F2'
_cell_volume   274.19024006
_cell_formula_units_Z   2
loop_
 _symmetry_equiv_pos_site_id
 _symmetry_equiv_pos_as_xyz
  1  'x, y, z'
loop_
 _atom_site_type_symbol
 _atom_site_label
 _atom_site_symmetry_multiplicity
 _atom_site_fract_x
 _atom_site_fract_y
 _atom_site_fract_z
 _atom_site_occupancy
  Nd  Nd0  1  0.000000  0.000000  0.500000  1
  Nd  Nd1  1  0.500000  0.000000  0.000000  1
  Ti  Ti2  1  0.000000  0.500000  0.500000  1
  Ti  Ti3  1  0.000000  0.000000  0.000000  1
  Ti  Ti4  1  0.000000  0.500000  0.000000  1
  Ti  Ti5  1  0.500000  0.500000  0.500000  1
  Cd  Cd6  1  0.500000  0.500000  0.000000  1
  Cd  Cd7  1  0.500000  0.000000  0.500000  1
  O  O8  1  0.917791  0.167791  0.250000  1
  O  O9  1  0.929493  0.581198  0.257597  1
  O  O10  1  0.323601  0.581198  0.651705  1
  O  O11  1  0.929493  0.171896  0.848295  1
  O  O12  1  0.326226  0.576226  0.250000  1
  O  O13  1  0.323601  0.171896  0.242403  1
  O  O14  1  0.676399  0.828104  0.757597  1
  O  O15  1  0.673774  0.423774  0.750000  1
  O  O16  1  0.676399  0.418802  0.348295  1
  O  O17  1  0.070507  0.828104  0.151705  1
  O  O18  1  0.082209  0.832209  0.750000  1
  O  O19  1  0.070507  0.418802  0.742403  1
  F  F20  1  0.377485  0.127485  0.750000  1
  F  F21  1  0.622515  0.872515  0.250000  1
