# generated using pymatgen
data_CeSnRu
_symmetry_space_group_name_H-M   'P 1'
_cell_length_a   6.31305643
_cell_length_b   6.31305643
_cell_length_c   10.01358737
_cell_angle_alpha   78.06192816
_cell_angle_beta   101.93807184
_cell_angle_gamma   134.89507037
_symmetry_Int_Tables_number   1
_chemical_formula_structural   CeSnRu
_chemical_formula_sum   'Ce4 Sn4 Ru4'
_cell_volume   275.53152061
_cell_formula_units_Z   4
loop_
 _symmetry_equiv_pos_site_id
 _symmetry_equiv_pos_as_xyz
  1  'x, y, z'
loop_
 _atom_site_type_symbol
 _atom_site_label
 _atom_site_symmetry_multiplicity
 _atom_site_fract_x
 _atom_site_fract_y
 _atom_site_fract_z
 _atom_site_occupancy
  Ce  Ce0  1  0.131034  0.868966  0.411178  1
  Ce  Ce1  1  0.868966  0.131034  0.588822  1
  Ce  Ce2  1  0.863847  0.136153  0.087794  1
  Ce  Ce3  1  0.136153  0.863847  0.912206  1
  Sn  Sn4  1  0.417992  0.582008  0.846783  1
  Sn  Sn5  1  0.410308  0.589692  0.348847  1
  Sn  Sn6  1  0.582008  0.417992  0.153217  1
  Sn  Sn7  1  0.589692  0.410308  0.651153  1
  Ru  Ru8  1  0.815042  0.184958  0.836613  1
  Ru  Ru9  1  0.190490  0.809510  0.670538  1
  Ru  Ru10  1  0.184958  0.815042  0.163387  1
  Ru  Ru11  1  0.809510  0.190490  0.329462  1
