# generated using pymatgen
data_Cu9Se5
_symmetry_space_group_name_H-M   'P 1'
_cell_length_a   7.02097679
_cell_length_b   8.11368238
_cell_length_c   9.08726050
_cell_angle_alpha   77.12237184
_cell_angle_beta   75.02482087
_cell_angle_gamma   73.28800898
_symmetry_Int_Tables_number   1
_chemical_formula_structural   Cu9Se5
_chemical_formula_sum   'Cu18 Se10'
_cell_volume   472.74662422
_cell_formula_units_Z   2
loop_
 _symmetry_equiv_pos_site_id
 _symmetry_equiv_pos_as_xyz
  1  'x, y, z'
loop_
 _atom_site_type_symbol
 _atom_site_label
 _atom_site_symmetry_multiplicity
 _atom_site_fract_x
 _atom_site_fract_y
 _atom_site_fract_z
 _atom_site_occupancy
  Cu  Cu0  1  0.049305  0.451361  0.149390  1
  Cu  Cu1  1  0.049428  0.949508  0.149436  1
  Cu  Cu2  1  0.950572  0.050492  0.850564  1
  Cu  Cu3  1  0.150442  0.350261  0.450692  1
  Cu  Cu4  1  0.950695  0.548639  0.850610  1
  Cu  Cu5  1  0.445960  0.551591  0.349136  1
  Cu  Cu6  1  0.348957  0.650883  0.046213  1
  Cu  Cu7  1  0.254098  0.749529  0.747085  1
  Cu  Cu8  1  0.649474  0.849813  0.951125  1
  Cu  Cu9  1  0.150904  0.849010  0.449672  1
  Cu  Cu10  1  0.548994  0.950401  0.649926  1
  Cu  Cu11  1  0.451006  0.049599  0.350074  1
  Cu  Cu12  1  0.350526  0.150187  0.048875  1
  Cu  Cu13  1  0.849096  0.150990  0.550328  1
  Cu  Cu14  1  0.651043  0.349117  0.953787  1
  Cu  Cu15  1  0.554040  0.448409  0.650864  1
  Cu  Cu16  1  0.849558  0.649739  0.549308  1
  Cu  Cu17  1  0.745902  0.250471  0.252915  1
  Se  Se18  1  0.899423  0.850191  0.700129  1
  Se  Se19  1  0.904627  0.348830  0.699765  1
  Se  Se20  1  0.095373  0.651170  0.300235  1
  Se  Se21  1  0.299220  0.954471  0.898733  1
  Se  Se22  1  0.100577  0.149809  0.299871  1
  Se  Se23  1  0.496820  0.249672  0.503083  1
  Se  Se24  1  0.297997  0.447153  0.898387  1
  Se  Se25  1  0.702003  0.552847  0.101613  1
  Se  Se26  1  0.503180  0.750328  0.496917  1
  Se  Se27  1  0.700780  0.045529  0.101267  1
