# generated using pymatgen
data_H4SO5
_symmetry_space_group_name_H-M   'P 1'
_cell_length_a   7.03231849
_cell_length_b   7.04388770
_cell_length_c   8.20421656
_cell_angle_alpha   86.60521644
_cell_angle_beta   81.29107890
_cell_angle_gamma   85.20157880
_symmetry_Int_Tables_number   1
_chemical_formula_structural   H4SO5
_chemical_formula_sum   'H16 S4 O20'
_cell_volume   399.85395501
_cell_formula_units_Z   4
loop_
 _symmetry_equiv_pos_site_id
 _symmetry_equiv_pos_as_xyz
  1  'x, y, z'
loop_
 _atom_site_type_symbol
 _atom_site_label
 _atom_site_symmetry_multiplicity
 _atom_site_fract_x
 _atom_site_fract_y
 _atom_site_fract_z
 _atom_site_occupancy
  H  H0  1  0.093363  0.130696  0.563764  1
  H  H1  1  0.589564  0.676005  0.905421  1
  H  H2  1  0.521899  0.939820  0.503937  1
  H  H3  1  0.406222  0.311596  0.089781  1
  H  H4  1  0.912986  0.310176  0.086007  1
  H  H5  1  0.792426  0.383732  0.274762  1
  H  H6  1  0.759731  0.165650  0.206568  1
  H  H7  1  0.247822  0.889991  0.227265  1
  H  H8  1  0.337594  0.665335  0.229059  1
  H  H9  1  0.367791  0.782838  0.382041  1
  H  H10  1  0.238832  0.830976  0.797105  1
  H  H11  1  0.077417  0.691404  0.914917  1
  H  H12  1  0.207362  0.613934  0.730597  1
  H  H13  1  0.727100  0.130873  0.786589  1
  H  H14  1  0.699078  0.368357  0.715636  1
  H  H15  1  0.625298  0.199711  0.614479  1
  S  S16  1  0.323231  0.301966  0.449168  1
  S  S17  1  0.760853  0.839327  0.033292  1
  S  S18  1  0.709078  0.680153  0.549669  1
  S  S19  1  0.225645  0.160181  0.963410  1
  O  O20  1  0.152970  0.164063  0.450681  1
  O  O21  1  0.920566  0.689692  0.043635  1
  O  O22  1  0.845157  0.821881  0.544182  1
  O  O23  1  0.068780  0.311883  0.950423  1
  O  O24  1  0.495200  0.174195  0.479953  1
  O  O25  1  0.573897  0.730823  0.018047  1
  O  O26  1  0.503208  0.799133  0.521446  1
  O  O27  1  0.415130  0.262293  0.975462  1
  O  O28  1  0.265735  0.440036  0.575112  1
  O  O29  1  0.803787  0.959805  0.882661  1
  O  O30  1  0.743235  0.538481  0.424393  1
  O  O31  1  0.179220  0.040303  0.113590  1
  O  O32  1  0.347122  0.383635  0.279598  1
  O  O33  1  0.703969  0.941318  0.183836  1
  O  O34  1  0.657161  0.583502  0.716885  1
  O  O35  1  0.276223  0.056182  0.811466  1
  O  O36  1  0.791885  0.302051  0.178945  1
  O  O37  1  0.275655  0.767977  0.300269  1
  O  O38  1  0.205750  0.694817  0.825997  1
  O  O39  1  0.723926  0.226713  0.687626  1
