# generated using pymatgen
data_Al(HO)3
_symmetry_space_group_name_H-M   'P 1'
_cell_length_a   5.10821949
_cell_length_b   6.63794359
_cell_length_c   6.64414913
_cell_angle_alpha   83.00702495
_cell_angle_beta   82.68798764
_cell_angle_gamma   79.99416035
_symmetry_Int_Tables_number   1
_chemical_formula_structural   Al(HO)3
_chemical_formula_sum   'Al4 H12 O12'
_cell_volume   218.91159442
_cell_formula_units_Z   4
loop_
 _symmetry_equiv_pos_site_id
 _symmetry_equiv_pos_as_xyz
  1  'x, y, z'
loop_
 _atom_site_type_symbol
 _atom_site_label
 _atom_site_symmetry_multiplicity
 _atom_site_fract_x
 _atom_site_fract_y
 _atom_site_fract_z
 _atom_site_occupancy
  Al  Al0  1  0.530360  0.168309  0.838148  1
  Al  Al1  1  0.477334  0.830841  0.166767  1
  Al  Al2  1  0.016005  0.338246  0.668961  1
  Al  Al3  1  0.989753  0.669256  0.336365  1
  H  H4  1  0.362986  0.101956  0.551687  1
  H  H5  1  0.806049  0.036747  0.202906  1
  H  H6  1  0.625783  0.482027  0.315989  1
  H  H7  1  0.388642  0.521313  0.690930  1
  H  H8  1  0.213633  0.302340  0.291783  1
  H  H9  1  0.766947  0.707688  0.703710  1
  H  H10  1  0.876405  0.858021  0.921370  1
  H  H11  1  0.137158  0.138225  0.056981  1
  H  H12  1  0.777727  0.100720  0.499659  1
  H  H13  1  0.248850  0.865390  0.534924  1
  H  H14  1  0.239412  0.609345  0.985607  1
  H  H15  1  0.774124  0.393326  0.021210  1
  O  O16  1  0.269302  0.085003  0.689378  1
  O  O17  1  0.741596  0.928888  0.301046  1
  O  O18  1  0.713282  0.573179  0.211622  1
  O  O19  1  0.298411  0.432515  0.795323  1
  O  O20  1  0.170210  0.399348  0.396590  1
  O  O21  1  0.832615  0.605368  0.606279  1
  O  O22  1  0.684965  0.884924  0.904929  1
  O  O23  1  0.321887  0.115206  0.092925  1
  O  O24  1  0.747237  0.209085  0.592314  1
  O  O25  1  0.259258  0.793726  0.413279  1
  O  O26  1  0.197916  0.719499  0.079088  1
  O  O27  1  0.816396  0.277732  0.934082  1
