# generated using pymatgen
data_Pr5Ga3
_symmetry_space_group_name_H-M   'P 1'
_cell_length_a   7.97173851
_cell_length_b   7.97173851
_cell_length_c   14.71838163
_cell_angle_alpha   90.00000000
_cell_angle_beta   90.00000000
_cell_angle_gamma   90.00000000
_symmetry_Int_Tables_number   1
_chemical_formula_structural   Pr5Ga3
_chemical_formula_sum   'Pr20 Ga12'
_cell_volume   935.33276574
_cell_formula_units_Z   4
loop_
 _symmetry_equiv_pos_site_id
 _symmetry_equiv_pos_as_xyz
  1  'x, y, z'
loop_
 _atom_site_type_symbol
 _atom_site_label
 _atom_site_symmetry_multiplicity
 _atom_site_fract_x
 _atom_site_fract_y
 _atom_site_fract_z
 _atom_site_occupancy
  Pr  Pr0  1  0.815518  0.840406  0.603043  1
  Pr  Pr1  1  0.184482  0.840406  0.103043  1
  Pr  Pr2  1  0.159594  0.815518  0.396957  1
  Pr  Pr3  1  0.000000  0.500000  0.719560  1
  Pr  Pr4  1  0.840406  0.184482  0.396957  1
  Pr  Pr5  1  0.684482  0.659594  0.396957  1
  Pr  Pr6  1  0.659594  0.315518  0.603043  1
  Pr  Pr7  1  0.340406  0.684482  0.603043  1
  Pr  Pr8  1  0.000000  0.500000  0.219560  1
  Pr  Pr9  1  0.659594  0.684482  0.103043  1
  Pr  Pr10  1  0.684482  0.340406  0.896957  1
  Pr  Pr11  1  0.840406  0.815518  0.896957  1
  Pr  Pr12  1  0.315518  0.340406  0.396957  1
  Pr  Pr13  1  0.184482  0.159594  0.603043  1
  Pr  Pr14  1  0.815518  0.159594  0.103043  1
  Pr  Pr15  1  0.315518  0.659594  0.896957  1
  Pr  Pr16  1  0.340406  0.315518  0.103043  1
  Pr  Pr17  1  0.500000  0.000000  0.280440  1
  Pr  Pr18  1  0.159594  0.184482  0.896957  1
  Pr  Pr19  1  0.500000  0.000000  0.780440  1
  Ga  Ga20  1  0.618570  0.381430  0.250000  1
  Ga  Ga21  1  0.118570  0.881430  0.750000  1
  Ga  Ga22  1  0.381430  0.381430  0.750000  1
  Ga  Ga23  1  0.381430  0.618570  0.250000  1
  Ga  Ga24  1  0.881430  0.881430  0.250000  1
  Ga  Ga25  1  0.618570  0.618570  0.750000  1
  Ga  Ga26  1  0.000000  0.500000  0.503506  1
  Ga  Ga27  1  0.881430  0.118570  0.750000  1
  Ga  Ga28  1  0.500000  0.000000  0.496494  1
  Ga  Ga29  1  0.500000  0.000000  0.996494  1
  Ga  Ga30  1  0.118570  0.118570  0.250000  1
  Ga  Ga31  1  0.000000  0.500000  0.003506  1
