# generated using pymatgen
data_PbF2
_symmetry_space_group_name_H-M   'P 1'
_cell_length_a   4.25207467
_cell_length_b   4.25207467
_cell_length_c   6.02405622
_cell_angle_alpha   90.00000000
_cell_angle_beta   90.00000000
_cell_angle_gamma   90.17599169
_symmetry_Int_Tables_number   1
_chemical_formula_structural   PbF2
_chemical_formula_sum   'Pb2 F4'
_cell_volume   108.91526013
_cell_formula_units_Z   2
loop_
 _symmetry_equiv_pos_site_id
 _symmetry_equiv_pos_as_xyz
  1  'x, y, z'
loop_
 _atom_site_type_symbol
 _atom_site_label
 _atom_site_symmetry_multiplicity
 _atom_site_fract_x
 _atom_site_fract_y
 _atom_site_fract_z
 _atom_site_occupancy
  Pb  Pb0  1  0.977479  0.022521  0.500000  1
  Pb  Pb1  1  0.477479  0.522521  1.000000  1
  F  F2  1  0.973608  0.541334  0.235227  1
  F  F3  1  0.458666  0.026392  0.764773  1
  F  F4  1  0.473608  0.041334  0.264773  1
  F  F5  1  0.958666  0.526392  0.735227  1
