# generated using pymatgen
data_PuPaO4
_symmetry_space_group_name_H-M   'P 1'
_cell_length_a   6.65718048
_cell_length_b   6.65718048
_cell_length_c   6.65718048
_cell_angle_alpha   131.66713076
_cell_angle_beta   131.66713076
_cell_angle_gamma   70.75526846
_symmetry_Int_Tables_number   1
_chemical_formula_structural   PuPaO4
_chemical_formula_sum   'Pu2 Pa2 O8'
_cell_volume   161.26816626
_cell_formula_units_Z   2
loop_
 _symmetry_equiv_pos_site_id
 _symmetry_equiv_pos_as_xyz
  1  'x, y, z'
loop_
 _atom_site_type_symbol
 _atom_site_label
 _atom_site_symmetry_multiplicity
 _atom_site_fract_x
 _atom_site_fract_y
 _atom_site_fract_z
 _atom_site_occupancy
  Pu  Pu0  1  0.000000  0.000000  0.000000  1
  Pu  Pu1  1  0.750000  0.250000  0.500000  1
  Pa  Pa2  1  0.500000  0.500000  0.000000  1
  Pa  Pa3  1  0.250000  0.750000  0.500000  1
  O  O4  1  0.612784  0.125000  0.987784  1
  O  O5  1  0.875000  0.387216  0.012216  1
  O  O6  1  0.375000  0.387216  0.512216  1
  O  O7  1  0.137216  0.625000  0.012216  1
  O  O8  1  0.375000  0.862784  0.987784  1
  O  O9  1  0.875000  0.862784  0.487784  1
  O  O10  1  0.137216  0.125000  0.512216  1
  O  O11  1  0.612784  0.625000  0.487784  1
