# generated using pymatgen
data_Rb2Se5
_symmetry_space_group_name_H-M   'P 1'
_cell_length_a   7.06493068
_cell_length_b   7.33739488
_cell_length_c   18.76292836
_cell_angle_alpha   90.00000000
_cell_angle_beta   90.00000000
_cell_angle_gamma   90.00000000
_symmetry_Int_Tables_number   1
_chemical_formula_structural   Rb2Se5
_chemical_formula_sum   'Rb8 Se20'
_cell_volume   972.63617396
_cell_formula_units_Z   4
loop_
 _symmetry_equiv_pos_site_id
 _symmetry_equiv_pos_as_xyz
  1  'x, y, z'
loop_
 _atom_site_type_symbol
 _atom_site_label
 _atom_site_symmetry_multiplicity
 _atom_site_fract_x
 _atom_site_fract_y
 _atom_site_fract_z
 _atom_site_occupancy
  Rb  Rb0  1  0.586790  0.241434  0.162168  1
  Rb  Rb1  1  0.623065  0.413542  0.510191  1
  Rb  Rb2  1  0.913210  0.758566  0.662168  1
  Rb  Rb3  1  0.876935  0.586458  0.010191  1
  Rb  Rb4  1  0.123065  0.086458  0.489809  1
  Rb  Rb5  1  0.376935  0.913542  0.989809  1
  Rb  Rb6  1  0.413210  0.741434  0.337832  1
  Rb  Rb7  1  0.086790  0.258566  0.837832  1
  Se  Se8  1  0.905030  0.083315  0.018962  1
  Se  Se9  1  0.428837  0.864141  0.625967  1
  Se  Se10  1  0.036414  0.874804  0.201945  1
  Se  Se11  1  0.963586  0.374804  0.298055  1
  Se  Se12  1  0.258147  0.355870  0.652448  1
  Se  Se13  1  0.071163  0.135859  0.125967  1
  Se  Se14  1  0.559774  0.744200  0.160425  1
  Se  Se15  1  0.536414  0.625196  0.798055  1
  Se  Se16  1  0.571163  0.364141  0.874033  1
  Se  Se17  1  0.094970  0.583315  0.481038  1
  Se  Se18  1  0.594970  0.916685  0.518962  1
  Se  Se19  1  0.059774  0.755800  0.839575  1
  Se  Se20  1  0.758147  0.144130  0.347552  1
  Se  Se21  1  0.928837  0.635859  0.374033  1
  Se  Se22  1  0.940226  0.255800  0.660425  1
  Se  Se23  1  0.463586  0.125196  0.701945  1
  Se  Se24  1  0.741853  0.855870  0.847552  1
  Se  Se25  1  0.440226  0.244200  0.339575  1
  Se  Se26  1  0.241853  0.644130  0.152448  1
  Se  Se27  1  0.405030  0.416685  0.981038  1
