# generated using pymatgen
data_Nb5As3
_symmetry_space_group_name_H-M   'P 1'
_cell_length_a   3.54066113
_cell_length_b   11.88626493
_cell_length_c   26.33092940
_cell_angle_alpha   90.00000000
_cell_angle_beta   90.00000000
_cell_angle_gamma   90.00000000
_symmetry_Int_Tables_number   1
_chemical_formula_structural   Nb5As3
_chemical_formula_sum   'Nb40 As24'
_cell_volume   1108.14338471
_cell_formula_units_Z   8
loop_
 _symmetry_equiv_pos_site_id
 _symmetry_equiv_pos_as_xyz
  1  'x, y, z'
loop_
 _atom_site_type_symbol
 _atom_site_label
 _atom_site_symmetry_multiplicity
 _atom_site_fract_x
 _atom_site_fract_y
 _atom_site_fract_z
 _atom_site_occupancy
  Nb  Nb0  1  0.250000  0.416632  0.533095  1
  Nb  Nb1  1  0.250000  0.932740  0.397369  1
  Nb  Nb2  1  0.250000  0.289020  0.876527  1
  Nb  Nb3  1  0.750000  0.789020  0.623473  1
  Nb  Nb4  1  0.750000  0.055750  0.849060  1
  Nb  Nb5  1  0.250000  0.555750  0.650940  1
  Nb  Nb6  1  0.750000  0.381069  0.224091  1
  Nb  Nb7  1  0.750000  0.147637  0.136725  1
  Nb  Nb8  1  0.750000  0.303310  0.453824  1
  Nb  Nb9  1  0.750000  0.444250  0.349060  1
  Nb  Nb10  1  0.250000  0.944250  0.150940  1
  Nb  Nb11  1  0.750000  0.894411  0.498345  1
  Nb  Nb12  1  0.750000  0.039538  0.323124  1
  Nb  Nb13  1  0.250000  0.344937  0.738786  1
  Nb  Nb14  1  0.750000  0.196690  0.953824  1
  Nb  Nb15  1  0.750000  0.432740  0.102631  1
  Nb  Nb16  1  0.250000  0.881069  0.275909  1
  Nb  Nb17  1  0.250000  0.155063  0.238786  1
  Nb  Nb18  1  0.750000  0.916632  0.966905  1
  Nb  Nb19  1  0.250000  0.803310  0.046176  1
  Nb  Nb20  1  0.250000  0.852363  0.863275  1
  Nb  Nb21  1  0.250000  0.960462  0.676876  1
  Nb  Nb22  1  0.750000  0.352363  0.636725  1
  Nb  Nb23  1  0.250000  0.083368  0.033095  1
  Nb  Nb24  1  0.750000  0.710980  0.123473  1
  Nb  Nb25  1  0.750000  0.118931  0.724091  1
  Nb  Nb26  1  0.750000  0.460462  0.823124  1
  Nb  Nb27  1  0.750000  0.844937  0.761214  1
  Nb  Nb28  1  0.750000  0.655063  0.261214  1
  Nb  Nb29  1  0.250000  0.618931  0.775909  1
  Nb  Nb30  1  0.750000  0.605589  0.998345  1
  Nb  Nb31  1  0.750000  0.583368  0.466905  1
  Nb  Nb32  1  0.750000  0.067260  0.602631  1
  Nb  Nb33  1  0.250000  0.539538  0.176876  1
  Nb  Nb34  1  0.250000  0.394411  0.001655  1
  Nb  Nb35  1  0.250000  0.567260  0.897369  1
  Nb  Nb36  1  0.250000  0.647637  0.363275  1
  Nb  Nb37  1  0.250000  0.105589  0.501655  1
  Nb  Nb38  1  0.250000  0.696690  0.546176  1
  Nb  Nb39  1  0.250000  0.210980  0.376527  1
  As  As40  1  0.250000  0.051851  0.923616  1
  As  As41  1  0.750000  0.807685  0.343275  1
  As  As42  1  0.750000  0.692315  0.843275  1
  As  As43  1  0.750000  0.246960  0.802388  1
  As  As44  1  0.750000  0.503458  0.720177  1
  As  As45  1  0.750000  0.080399  0.427508  1
  As  As46  1  0.250000  0.003458  0.779823  1
  As  As47  1  0.250000  0.746960  0.697612  1
  As  As48  1  0.250000  0.919601  0.572492  1
  As  As49  1  0.750000  0.948149  0.076384  1
  As  As50  1  0.750000  0.419601  0.927508  1
  As  As51  1  0.750000  0.249087  0.549144  1
  As  As52  1  0.750000  0.250913  0.049144  1
  As  As53  1  0.750000  0.996542  0.220177  1
  As  As54  1  0.250000  0.749087  0.950856  1
  As  As55  1  0.750000  0.551851  0.576384  1
  As  As56  1  0.250000  0.753040  0.197612  1
  As  As57  1  0.250000  0.580399  0.072492  1
  As  As58  1  0.250000  0.448149  0.423616  1
  As  As59  1  0.250000  0.750913  0.450856  1
  As  As60  1  0.250000  0.192315  0.656725  1
  As  As61  1  0.250000  0.307685  0.156725  1
  As  As62  1  0.750000  0.253040  0.302388  1
  As  As63  1  0.250000  0.496542  0.279823  1
