# generated using pymatgen
data_CdHClO
_symmetry_space_group_name_H-M   'P 1'
_cell_length_a   3.73493570
_cell_length_b   3.73493570
_cell_length_c   10.41954377
_cell_angle_alpha   90.00000000
_cell_angle_beta   90.00000000
_cell_angle_gamma   120.00000000
_symmetry_Int_Tables_number   1
_chemical_formula_structural   CdHClO
_chemical_formula_sum   'Cd2 H2 Cl2 O2'
_cell_volume   125.87677087
_cell_formula_units_Z   2
loop_
 _symmetry_equiv_pos_site_id
 _symmetry_equiv_pos_as_xyz
  1  'x, y, z'
loop_
 _atom_site_type_symbol
 _atom_site_label
 _atom_site_symmetry_multiplicity
 _atom_site_fract_x
 _atom_site_fract_y
 _atom_site_fract_z
 _atom_site_occupancy
  Cd  Cd0  1  0.666667  0.333333  0.507806  1
  Cd  Cd1  1  0.333333  0.666667  0.007806  1
  H  H2  1  0.000000  0.000000  0.681581  1
  H  H3  1  0.000000  0.000000  0.181581  1
  Cl  Cl4  1  0.666667  0.333333  0.844260  1
  Cl  Cl5  1  0.333333  0.666667  0.344260  1
  O  O6  1  0.000000  0.000000  0.586764  1
  O  O7  1  0.000000  0.000000  0.086764  1
