# generated using pymatgen
data_Sn3(HO2)2
_symmetry_space_group_name_H-M   'P 1'
_cell_length_a   8.38189484
_cell_length_b   8.38189484
_cell_length_c   9.63485347
_cell_angle_alpha   86.57037407
_cell_angle_beta   93.42962593
_cell_angle_gamma   88.91473591
_symmetry_Int_Tables_number   1
_chemical_formula_structural   Sn3(HO2)2
_chemical_formula_sum   'Sn12 H8 O16'
_cell_volume   674.31307402
_cell_formula_units_Z   4
loop_
 _symmetry_equiv_pos_site_id
 _symmetry_equiv_pos_as_xyz
  1  'x, y, z'
loop_
 _atom_site_type_symbol
 _atom_site_label
 _atom_site_symmetry_multiplicity
 _atom_site_fract_x
 _atom_site_fract_y
 _atom_site_fract_z
 _atom_site_occupancy
  Sn  Sn0  1  0.611307  0.293971  0.486980  1
  Sn  Sn1  1  0.866527  0.774068  0.967094  1
  Sn  Sn2  1  0.352173  0.750106  0.549407  1
  Sn  Sn3  1  0.115707  0.214172  0.004396  1
  Sn  Sn4  1  0.225932  0.133473  0.467094  1
  Sn  Sn5  1  0.706029  0.388693  0.986980  1
  Sn  Sn6  1  0.785828  0.884293  0.504396  1
  Sn  Sn7  1  0.249894  0.647827  0.049407  1
  Sn  Sn8  1  0.546600  0.028412  0.768363  1
  Sn  Sn9  1  0.995458  0.493655  0.734159  1
  Sn  Sn10  1  0.506345  0.004542  0.234159  1
  Sn  Sn11  1  0.971588  0.453400  0.268363  1
  H  H12  1  0.822830  0.177320  0.744504  1
  H  H13  1  0.672740  0.659717  0.751262  1
  H  H14  1  0.246720  0.974819  0.724101  1
  H  H15  1  0.293458  0.430629  0.862805  1
  H  H16  1  0.340283  0.327260  0.251262  1
  H  H17  1  0.822680  0.177170  0.244504  1
  H  H18  1  0.569371  0.706542  0.362805  1
  H  H19  1  0.025181  0.753280  0.224101  1
  O  O20  1  0.750647  0.126347  0.675044  1
  O  O21  1  0.747908  0.597001  0.818494  1
  O  O22  1  0.205054  0.924036  0.640540  1
  O  O23  1  0.217404  0.353355  0.830012  1
  O  O24  1  0.402999  0.252092  0.318494  1
  O  O25  1  0.873653  0.249353  0.175044  1
  O  O26  1  0.646645  0.782596  0.330012  1
  O  O27  1  0.075964  0.794946  0.140540  1
  O  O28  1  0.435417  0.171556  0.597114  1
  O  O29  1  0.070076  0.659374  0.886097  1
  O  O30  1  0.579415  0.831872  0.634272  1
  O  O31  1  0.908734  0.308689  0.881361  1
  O  O32  1  0.340626  0.929924  0.386097  1
  O  O33  1  0.828444  0.564583  0.097114  1
  O  O34  1  0.691311  0.091266  0.381361  1
  O  O35  1  0.168128  0.420585  0.134272  1
