# generated using pymatgen
data_H9BrO4
_symmetry_space_group_name_H-M   'P 1'
_cell_length_a   7.16129132
_cell_length_b   11.59689471
_cell_length_c   7.45465363
_cell_angle_alpha   90.00000000
_cell_angle_beta   109.12274077
_cell_angle_gamma   90.00000000
_symmetry_Int_Tables_number   1
_chemical_formula_structural   H9BrO4
_chemical_formula_sum   'H36 Br4 O16'
_cell_volume   584.93704461
_cell_formula_units_Z   4
loop_
 _symmetry_equiv_pos_site_id
 _symmetry_equiv_pos_as_xyz
  1  'x, y, z'
loop_
 _atom_site_type_symbol
 _atom_site_label
 _atom_site_symmetry_multiplicity
 _atom_site_fract_x
 _atom_site_fract_y
 _atom_site_fract_z
 _atom_site_occupancy
  H  H0  1  0.509789  0.308948  0.147580  1
  H  H1  1  0.498399  0.249965  0.332629  1
  H  H2  1  0.490211  0.808948  0.852420  1
  H  H3  1  0.501601  0.749965  0.667371  1
  H  H4  1  0.385316  0.306599  0.618364  1
  H  H5  1  0.325466  0.181890  0.524375  1
  H  H6  1  0.614684  0.806599  0.381636  1
  H  H7  1  0.674534  0.681890  0.475625  1
  H  H8  1  0.666244  0.187517  0.867632  1
  H  H9  1  0.661616  0.321068  0.874053  1
  H  H10  1  0.333756  0.687517  0.132368  1
  H  H11  1  0.338384  0.821068  0.125947  1
  H  H12  1  0.145106  0.303262  0.836557  1
  H  H13  1  0.932164  0.250108  0.833258  1
  H  H14  1  0.854894  0.803262  0.163443  1
  H  H15  1  0.067836  0.750108  0.166742  1
  H  H16  1  0.781832  0.236049  0.311167  1
  H  H17  1  0.962229  0.244436  0.507161  1
  H  H18  1  0.218168  0.736049  0.688833  1
  H  H19  1  0.037771  0.744436  0.492839  1
  H  H20  1  0.125668  0.365940  0.152838  1
  H  H21  1  0.000633  0.321529  0.293988  1
  H  H22  1  0.874332  0.865940  0.847162  1
  H  H23  1  0.999367  0.821529  0.706012  1
  H  H24  1  0.667206  0.541085  0.977530  1
  H  H25  1  0.888728  0.491917  0.096532  1
  H  H26  1  0.857156  0.641176  0.094523  1
  H  H27  1  0.332794  0.041085  0.022470  1
  H  H28  1  0.142844  0.141176  0.905477  1
  H  H29  1  0.111272  0.991917  0.903468  1
  H  H30  1  0.446373  0.506788  0.473007  1
  H  H31  1  0.188155  0.467203  0.362600  1
  H  H32  1  0.272355  0.552915  0.562452  1
  H  H33  1  0.727645  0.052915  0.437548  1
  H  H34  1  0.553627  0.006788  0.526993  1
  H  H35  1  0.811845  0.967203  0.637400  1
  Br  Br36  1  0.723015  0.481755  0.516936  1
  Br  Br37  1  0.276985  0.981755  0.483064  1
  Br  Br38  1  0.364449  0.447349  0.919699  1
  Br  Br39  1  0.635551  0.947349  0.080301  1
  O  O40  1  0.543936  0.236854  0.221343  1
  O  O41  1  0.456064  0.736854  0.778657  1
  O  O42  1  0.399818  0.253570  0.521619  1
  O  O43  1  0.600182  0.753570  0.478381  1
  O  O44  1  0.750584  0.254449  0.910297  1
  O  O45  1  0.249416  0.754449  0.089703  1
  O  O46  1  0.059453  0.233632  0.803146  1
  O  O47  1  0.940547  0.733632  0.196854  1
  O  O48  1  0.931669  0.230799  0.370173  1
  O  O49  1  0.068331  0.730799  0.629827  1
  O  O50  1  0.051999  0.397255  0.231531  1
  O  O51  1  0.948001  0.897255  0.768469  1
  O  O52  1  0.811487  0.557651  0.015944  1
  O  O53  1  0.188513  0.057651  0.984056  1
  O  O54  1  0.294024  0.532148  0.443084  1
  O  O55  1  0.705976  0.032148  0.556916  1
