# generated using pymatgen
data_Dy5Mg24
_symmetry_space_group_name_H-M   'P 1'
_cell_length_a   9.75567509
_cell_length_b   9.75567509
_cell_length_c   9.75567509
_cell_angle_alpha   109.47122063
_cell_angle_beta   109.47122063
_cell_angle_gamma   109.47122063
_symmetry_Int_Tables_number   1
_chemical_formula_structural   Dy5Mg24
_chemical_formula_sum   'Dy5 Mg24'
_cell_volume   714.74330037
_cell_formula_units_Z   1
loop_
 _symmetry_equiv_pos_site_id
 _symmetry_equiv_pos_as_xyz
  1  'x, y, z'
loop_
 _atom_site_type_symbol
 _atom_site_label
 _atom_site_symmetry_multiplicity
 _atom_site_fract_x
 _atom_site_fract_y
 _atom_site_fract_z
 _atom_site_occupancy
  Dy  Dy0  1  1.000000  0.369461  0.000000  1
  Dy  Dy1  1  0.000000  0.000000  0.000000  1
  Dy  Dy2  1  1.000000  1.000000  0.369461  1
  Dy  Dy3  1  0.369461  1.000000  1.000000  1
  Dy  Dy4  1  0.630539  0.630539  0.630539  1
  Mg  Mg5  1  0.679435  0.679435  0.286330  1
  Mg  Mg6  1  0.372172  0.372172  0.180991  1
  Mg  Mg7  1  1.000000  0.627828  0.808820  1
  Mg  Mg8  1  0.320565  1.000000  0.606895  1
  Mg  Mg9  1  0.393105  0.713670  0.393105  1
  Mg  Mg10  1  1.000000  0.606895  0.320565  1
  Mg  Mg11  1  0.713670  0.393105  0.393105  1
  Mg  Mg12  1  1.000000  0.808820  0.627828  1
  Mg  Mg13  1  0.393105  0.393105  0.713670  1
  Mg  Mg14  1  0.627828  0.808820  0.000000  1
  Mg  Mg15  1  0.286330  0.679435  0.679435  1
  Mg  Mg16  1  0.679435  0.286330  0.679435  1
  Mg  Mg17  1  0.819009  0.191180  0.191180  1
  Mg  Mg18  1  0.191180  0.191180  0.819009  1
  Mg  Mg19  1  0.606895  0.320565  1.000000  1
  Mg  Mg20  1  0.808820  1.000000  0.627828  1
  Mg  Mg21  1  0.191180  0.819009  0.191180  1
  Mg  Mg22  1  0.372172  0.180991  0.372172  1
  Mg  Mg23  1  0.320565  0.606895  0.000000  1
  Mg  Mg24  1  0.627828  1.000000  0.808820  1
  Mg  Mg25  1  1.000000  0.320565  0.606895  1
  Mg  Mg26  1  0.606895  1.000000  0.320565  1
  Mg  Mg27  1  0.808820  0.627828  0.000000  1
  Mg  Mg28  1  0.180991  0.372172  0.372172  1
